MODEL 1
REMARK VINA RESULT:     -10.9      0.000      0.000
REMARK SMILES O=C(OCCOCCOCCOCCOC(=O)c1ccccc1S[C@H]1CCOC2(CCCCC2)C1)c1ccc(-c2c3nc(c(-c4c(F)cccc4F)c4ccc([nH]4)c(-c4c(F)cccc4F)c4nc(c(-c5c(F)cccc5F)c5ccc2[nH]5)C=C4)C=C3)cc1
REMARK SMILES IDX 9 1 8 2 7 3 6 4 5 5 4 6 3 7 2 8 1 9 36 10 37 11 89 12 38 13
REMARK SMILES IDX 88 14 39 15 40 16 41 17 82 18 42 19 87 20 81 21 83 22 43 23
REMARK SMILES IDX 86 24 80 25 79 26 44 28 70 29 53 30 69 31 54 32 57 33 68 34
REMARK SMILES IDX 84 35 55 36 56 37 67 39 85 40 58 41 45 42 46 43 51 44 47 45
REMARK SMILES IDX 48 46 50 47 52 48 49 49 71 50 72 51 77 52 73 53 74 54 76 55
REMARK SMILES IDX 78 56 75 57 59 58 60 59 65 60 61 61 62 62 64 63 66 64 63 65
REMARK SMILES IDX 10 66 11 67 12 68 13 69 14 70 15 71 16 72 17 73 18 74 19 75
REMARK SMILES IDX 23 76 20 77 22 78 21 79 24 80 25 81 26 82 35 83 27 84 29 85
REMARK SMILES IDX 28 86 30 87 34 88 31 89 33 90 32 91
REMARK H PARENT 83 27 57 38
REMARK Flexibility Score: inf
ROOT
ATOM      1  O   UNL A   1      34.068  35.708  28.709  1.00  0.00    -0.377 OA
ENDROOT
BRANCH   1   2
ATOM      2  C   UNL A   1      32.907  35.615  29.532  1.00  0.00     0.188 C 
BRANCH   2   3
ATOM      3  C   UNL A   1      33.069  36.162  30.951  1.00  0.00     0.188 C 
BRANCH   3   4
ATOM      4  O   UNL A   1      32.994  35.109  31.910  1.00  0.00    -0.376 OA
BRANCH   4   5
ATOM      5  C   UNL A   1      33.959  35.119  32.957  1.00  0.00     0.202 C 
BRANCH   5   6
ATOM      6  C   UNL A   1      35.398  34.912  32.496  1.00  0.00     0.261 C 
BRANCH   6   7
ATOM      7  O   UNL A   1      35.883  33.583  32.729  1.00  0.00    -0.460 OA
BRANCH   7   8
ATOM      8  C   UNL A   1      35.796  32.500  31.921  1.00  0.00     0.338 C 
ATOM      9  O   UNL A   1      34.675  32.108  31.597  1.00  0.00    -0.246 OA
BRANCH   8  10
ATOM     10  C   UNL A   1      36.968  31.749  31.373  1.00  0.00     0.060 A 
ATOM     11  C   UNL A   1      37.881  30.999  32.113  1.00  0.00     0.016 A 
ATOM     12  C   UNL A   1      37.097  31.731  29.973  1.00  0.00     0.016 A 
ATOM     13  C   UNL A   1      38.911  30.291  31.516  1.00  0.00     0.010 A 
ATOM     14  C   UNL A   1      38.125  31.015  29.353  1.00  0.00     0.010 A 
ATOM     15  C   UNL A   1      39.049  30.316  30.137  1.00  0.00    -0.014 A 
BRANCH  15  16
ATOM     16  C   UNL A   1      40.299  29.788  29.575  1.00  0.00     0.031 A 
ATOM     17  C   UNL A   1      41.464  30.723  29.513  1.00  0.00     0.074 A 
ATOM     18  C   UNL A   1      40.409  28.484  29.280  1.00  0.00     0.049 A 
ATOM     19  N   UNL A   1      42.639  30.553  28.973  1.00  0.00    -0.248 NA
ATOM     20  C   UNL A   1      41.280  32.034  30.161  1.00  0.00     0.031 C 
ATOM     21  C   UNL A   1      39.359  27.481  29.478  1.00  0.00     0.029 A 
ATOM     22  N   UNL A   1      41.461  27.775  28.769  1.00  0.00    -0.354 N 
ATOM     23  C   UNL A   1      43.311  31.752  29.171  1.00  0.00     0.074 A 
ATOM     24  C   UNL A   1      42.422  32.639  29.883  1.00  0.00     0.031 C 
ATOM     25  C   UNL A   1      39.819  26.285  29.082  1.00  0.00     0.029 A 
ATOM     26  C   UNL A   1      41.160  26.457  28.532  1.00  0.00     0.049 A 
ATOM     27  H   UNL A   1      42.344  28.169  28.590  1.00  0.00     0.167 HD
ATOM     28  C   UNL A   1      44.560  32.074  28.768  1.00  0.00     0.037 A 
ATOM     29  C   UNL A   1      41.877  25.522  27.883  1.00  0.00     0.037 A 
ATOM     30  C   UNL A   1      45.404  31.151  28.063  1.00  0.00     0.049 A 
ATOM     31  C   UNL A   1      43.223  25.928  27.348  1.00  0.00     0.074 A 
ATOM     32  C   UNL A   1      46.667  31.350  27.542  1.00  0.00     0.029 A 
ATOM     33  N   UNL A   1      45.049  29.836  27.778  1.00  0.00    -0.354 N 
ATOM     34  N   UNL A   1      43.837  27.084  27.457  1.00  0.00    -0.248 NA
ATOM     35  C   UNL A   1      43.969  24.918  26.592  1.00  0.00     0.031 C 
ATOM     36  C   UNL A   1      47.052  30.170  26.893  1.00  0.00     0.029 A 
ATOM     37  C   UNL A   1      46.057  29.216  27.065  1.00  0.00     0.049 A 
ATOM     38  H   UNL A   1      44.204  29.409  28.048  1.00  0.00     0.167 HD
ATOM     39  C   UNL A   1      45.048  26.942  26.795  1.00  0.00     0.074 A 
ATOM     40  C   UNL A   1      45.084  25.576  26.303  1.00  0.00     0.031 C 
ATOM     41  C   UNL A   1      46.040  27.848  26.606  1.00  0.00     0.037 A 
BRANCH  28  42
ATOM     42  C   UNL A   1      44.999  33.490  28.994  1.00  0.00     0.057 A 
ATOM     43  C   UNL A   1      44.777  34.511  28.058  1.00  0.00     0.134 A 
ATOM     44  C   UNL A   1      45.743  33.817  30.136  1.00  0.00     0.134 A 
ATOM     45  F   UNL A   1      44.107  34.260  26.924  1.00  0.00    -0.206 F 
ATOM     46  C   UNL A   1      45.315  35.790  28.230  1.00  0.00     0.040 A 
ATOM     47  C   UNL A   1      46.260  35.098  30.333  1.00  0.00     0.040 A 
ATOM     48  F   UNL A   1      46.003  32.888  31.068  1.00  0.00    -0.206 F 
ATOM     49  C   UNL A   1      46.059  36.085  29.372  1.00  0.00     0.006 A 
ENDBRANCH  28  42
BRANCH  29  50
ATOM     50  C   UNL A   1      41.299  24.175  27.642  1.00  0.00     0.057 A 
ATOM     51  C   UNL A   1      41.718  23.054  28.365  1.00  0.00     0.134 A 
ATOM     52  C   UNL A   1      40.287  23.980  26.690  1.00  0.00     0.134 A 
ATOM     53  F   UNL A   1      42.692  23.165  29.279  1.00  0.00    -0.206 F 
ATOM     54  C   UNL A   1      41.158  21.791  28.146  1.00  0.00     0.040 A 
ATOM     55  C   UNL A   1      39.701  22.732  26.480  1.00  0.00     0.040 A 
ATOM     56  F   UNL A   1      39.835  25.013  25.961  1.00  0.00    -0.206 F 
ATOM     57  C   UNL A   1      40.141  21.629  27.207  1.00  0.00     0.006 A 
ENDBRANCH  29  50
BRANCH  41  58
ATOM     58  C   UNL A   1      47.254  27.374  25.868  1.00  0.00     0.057 A 
ATOM     59  C   UNL A   1      47.350  27.457  24.474  1.00  0.00     0.134 A 
ATOM     60  C   UNL A   1      48.367  26.901  26.574  1.00  0.00     0.134 A 
ATOM     61  F   UNL A   1      46.311  27.890  23.745  1.00  0.00    -0.206 F 
ATOM     62  C   UNL A   1      48.512  27.075  23.805  1.00  0.00     0.040 A 
ATOM     63  C   UNL A   1      49.544  26.545  25.918  1.00  0.00     0.040 A 
ATOM     64  F   UNL A   1      48.337  26.810  27.912  1.00  0.00    -0.206 F 
ATOM     65  C   UNL A   1      49.617  26.629  24.529  1.00  0.00     0.006 A 
ENDBRANCH  41  58
ENDBRANCH  15  16
ENDBRANCH   8  10
ENDBRANCH   7   8
ENDBRANCH   6   7
ENDBRANCH   5   6
ENDBRANCH   4   5
ENDBRANCH   3   4
ENDBRANCH   2   3
ENDBRANCH   1   2
BRANCH   1  66
ATOM     66  C   UNL A   1      34.470  34.523  28.030  1.00  0.00     0.188 C 
BRANCH  66  67
ATOM     67  C   UNL A   1      33.483  33.330  27.949  1.00  0.00     0.188 C 
BRANCH  67  68
ATOM     68  O   UNL A   1      34.023  32.092  28.383  1.00  0.00    -0.376 OA
BRANCH  68  69
ATOM     69  C   UNL A   1      33.668  30.938  27.629  1.00  0.00     0.202 C 
BRANCH  69  70
ATOM     70  C   UNL A   1      32.483  31.026  26.656  1.00  0.00     0.261 C 
BRANCH  70  71
ATOM     71  O   UNL A   1      31.937  29.767  26.258  1.00  0.00    -0.460 OA
BRANCH  71  72
ATOM     72  C   UNL A   1      32.230  29.244  25.046  1.00  0.00     0.339 C 
ATOM     73  O   UNL A   1      33.300  29.265  24.494  1.00  0.00    -0.246 OA
BRANCH  72  74
ATOM     74  C   UNL A   1      31.063  28.412  24.611  1.00  0.00     0.073 A 
ATOM     75  C   UNL A   1      30.310  28.941  23.541  1.00  0.00     0.017 A 
ATOM     76  C   UNL A   1      30.769  27.127  25.116  1.00  0.00     0.022 A 
ATOM     77  C   UNL A   1      29.262  28.212  22.979  1.00  0.00     0.001 A 
ATOM     78  C   UNL A   1      29.642  26.466  24.598  1.00  0.00     0.016 A 
ATOM     79  C   UNL A   1      28.905  26.992  23.533  1.00  0.00     0.001 A 
BRANCH  76  80
ATOM     80  S   UNL A   1      31.913  26.261  26.204  1.00  0.00    -0.122 SA
BRANCH  80  81
ATOM     81  C   UNL A   1      32.651  24.963  25.179  1.00  0.00     0.057 C 
ATOM     82  C   UNL A   1      32.662  25.293  23.687  1.00  0.00     0.043 C 
ATOM     83  C   UNL A   1      34.109  24.798  25.620  1.00  0.00     0.050 C 
ATOM     84  C   UNL A   1      33.281  24.110  22.960  1.00  0.00     0.162 C 
ATOM     85  C   UNL A   1      34.780  23.665  24.825  1.00  0.00     0.069 C 
ATOM     86  O   UNL A   1      34.609  23.871  23.412  1.00  0.00    -0.375 OA
ATOM     87  C   UNL A   1      34.230  22.294  25.275  1.00  0.00     0.035 C 
ATOM     88  C   UNL A   1      36.303  23.703  25.071  1.00  0.00     0.035 C 
ATOM     89  C   UNL A   1      34.937  21.131  24.589  1.00  0.00     0.003 C 
ATOM     90  C   UNL A   1      37.021  22.542  24.379  1.00  0.00     0.003 C 
ATOM     91  C   UNL A   1      36.444  21.195  24.797  1.00  0.00     0.000 C 
ENDBRANCH  80  81
ENDBRANCH  76  80
ENDBRANCH  72  74
ENDBRANCH  71  72
ENDBRANCH  70  71
ENDBRANCH  69  70
ENDBRANCH  68  69
ENDBRANCH  67  68
ENDBRANCH  66  67
ENDBRANCH   1  66
TORSDOF 22
ENDMDL
MODEL 2
REMARK VINA RESULT:     -10.7      4.450     10.683
REMARK SMILES O=C(OCCOCCOCCOCCOC(=O)c1ccccc1S[C@H]1CCOC2(CCCCC2)C1)c1ccc(-c2c3nc(c(-c4c(F)cccc4F)c4ccc([nH]4)c(-c4c(F)cccc4F)c4nc(c(-c5c(F)cccc5F)c5ccc2[nH]5)C=C4)C=C3)cc1
REMARK SMILES IDX 9 1 8 2 7 3 6 4 5 5 4 6 3 7 2 8 1 9 36 10 37 11 89 12 38 13
REMARK SMILES IDX 88 14 39 15 40 16 41 17 82 18 42 19 87 20 81 21 83 22 43 23
REMARK SMILES IDX 86 24 80 25 79 26 44 28 70 29 53 30 69 31 54 32 57 33 68 34
REMARK SMILES IDX 84 35 55 36 56 37 67 39 85 40 58 41 45 42 46 43 51 44 47 45
REMARK SMILES IDX 48 46 50 47 52 48 49 49 71 50 72 51 77 52 73 53 74 54 76 55
REMARK SMILES IDX 78 56 75 57 59 58 60 59 65 60 61 61 62 62 64 63 66 64 63 65
REMARK SMILES IDX 10 66 11 67 12 68 13 69 14 70 15 71 16 72 17 73 18 74 19 75
REMARK SMILES IDX 23 76 20 77 22 78 21 79 24 80 25 81 26 82 35 83 27 84 29 85
REMARK SMILES IDX 28 86 30 87 34 88 31 89 33 90 32 91
REMARK H PARENT 83 27 57 38
REMARK Flexibility Score: inf
ROOT
ATOM      1  O   UNL A   1      43.109  19.209  26.462  1.00  0.00    -0.377 OA
ENDROOT
BRANCH   1   2
ATOM      2  C   UNL A   1      43.578  19.034  25.127  1.00  0.00     0.188 C 
BRANCH   2   3
ATOM      3  C   UNL A   1      45.088  18.828  24.989  1.00  0.00     0.188 C 
BRANCH   3   4
ATOM      4  O   UNL A   1      45.680  19.903  24.262  1.00  0.00    -0.376 OA
BRANCH   4   5
ATOM      5  C   UNL A   1      45.907  21.115  24.974  1.00  0.00     0.202 C 
BRANCH   5   6
ATOM      6  C   UNL A   1      45.303  22.355  24.324  1.00  0.00     0.261 C 
BRANCH   6   7
ATOM      7  O   UNL A   1      44.723  23.265  25.268  1.00  0.00    -0.460 OA
BRANCH   7   8
ATOM      8  C   UNL A   1      43.419  23.595  25.427  1.00  0.00     0.338 C 
ATOM      9  O   UNL A   1      42.581  22.976  24.771  1.00  0.00    -0.246 OA
BRANCH   8  10
ATOM     10  C   UNL A   1      42.914  24.652  26.359  1.00  0.00     0.060 A 
ATOM     11  C   UNL A   1      43.323  25.985  26.387  1.00  0.00     0.016 A 
ATOM     12  C   UNL A   1      41.868  24.276  27.219  1.00  0.00     0.016 A 
ATOM     13  C   UNL A   1      42.763  26.910  27.252  1.00  0.00     0.010 A 
ATOM     14  C   UNL A   1      41.286  25.198  28.092  1.00  0.00     0.010 A 
ATOM     15  C   UNL A   1      41.760  26.514  28.123  1.00  0.00    -0.014 A 
BRANCH  15  16
ATOM     16  C   UNL A   1      41.395  27.444  29.198  1.00  0.00     0.031 A 
ATOM     17  C   UNL A   1      42.249  27.432  30.426  1.00  0.00     0.074 A 
ATOM     18  C   UNL A   1      40.433  28.358  29.004  1.00  0.00     0.049 A 
ATOM     19  N   UNL A   1      42.091  28.065  31.555  1.00  0.00    -0.248 NA
ATOM     20  C   UNL A   1      43.458  26.592  30.368  1.00  0.00     0.031 C 
ATOM     21  C   UNL A   1      39.675  28.536  27.762  1.00  0.00     0.029 A 
ATOM     22  N   UNL A   1      39.940  29.321  29.840  1.00  0.00    -0.354 N 
ATOM     23  C   UNL A   1      43.150  27.658  32.356  1.00  0.00     0.074 A 
ATOM     24  C   UNL A   1      43.947  26.731  31.588  1.00  0.00     0.031 C 
ATOM     25  C   UNL A   1      38.803  29.543  27.924  1.00  0.00     0.029 A 
ATOM     26  C   UNL A   1      38.890  30.021  29.299  1.00  0.00     0.049 A 
ATOM     27  H   UNL A   1      40.301  29.495  30.738  1.00  0.00     0.167 HD
ATOM     28  C   UNL A   1      43.409  28.023  33.631  1.00  0.00     0.037 A 
ATOM     29  C   UNL A   1      38.061  30.902  29.887  1.00  0.00     0.037 A 
ATOM     30  C   UNL A   1      42.582  28.952  34.349  1.00  0.00     0.049 A 
ATOM     31  C   UNL A   1      38.299  31.219  31.338  1.00  0.00     0.074 A 
ATOM     32  C   UNL A   1      42.683  29.376  35.659  1.00  0.00     0.029 A 
ATOM     33  N   UNL A   1      41.483  29.602  33.796  1.00  0.00    -0.354 N 
ATOM     34  N   UNL A   1      39.249  30.778  32.131  1.00  0.00    -0.248 NA
ATOM     35  C   UNL A   1      37.353  32.136  31.981  1.00  0.00     0.031 C 
ATOM     36  C   UNL A   1      41.611  30.238  35.913  1.00  0.00     0.029 A 
ATOM     37  C   UNL A   1      40.878  30.404  34.744  1.00  0.00     0.049 A 
ATOM     38  H   UNL A   1      41.181  29.506  32.863  1.00  0.00     0.167 HD
ATOM     39  C   UNL A   1      39.027  31.370  33.365  1.00  0.00     0.074 A 
ATOM     40  C   UNL A   1      37.858  32.217  33.206  1.00  0.00     0.031 C 
ATOM     41  C   UNL A   1      39.717  31.232  34.525  1.00  0.00     0.037 A 
BRANCH  28  42
ATOM     42  C   UNL A   1      44.549  27.330  34.315  1.00  0.00     0.057 A 
ATOM     43  C   UNL A   1      44.393  26.124  35.014  1.00  0.00     0.134 A 
ATOM     44  C   UNL A   1      45.813  27.934  34.350  1.00  0.00     0.134 A 
ATOM     45  F   UNL A   1      43.201  25.511  35.054  1.00  0.00    -0.206 F 
ATOM     46  C   UNL A   1      45.439  25.569  35.756  1.00  0.00     0.040 A 
ATOM     47  C   UNL A   1      46.874  27.373  35.064  1.00  0.00     0.040 A 
ATOM     48  F   UNL A   1      46.032  29.094  33.714  1.00  0.00    -0.206 F 
ATOM     49  C   UNL A   1      46.684  26.195  35.782  1.00  0.00     0.006 A 
ENDBRANCH  28  42
BRANCH  29  50
ATOM     50  C   UNL A   1      36.909  31.458  29.130  1.00  0.00     0.057 A 
ATOM     51  C   UNL A   1      35.769  30.696  28.857  1.00  0.00     0.134 A 
ATOM     52  C   UNL A   1      36.913  32.786  28.679  1.00  0.00     0.134 A 
ATOM     53  F   UNL A   1      35.705  29.414  29.245  1.00  0.00    -0.206 F 
ATOM     54  C   UNL A   1      34.682  31.230  28.159  1.00  0.00     0.040 A 
ATOM     55  C   UNL A   1      35.824  33.341  28.006  1.00  0.00     0.040 A 
ATOM     56  F   UNL A   1      37.974  33.576  28.907  1.00  0.00    -0.206 F 
ATOM     57  C   UNL A   1      34.704  32.559  27.738  1.00  0.00     0.006 A 
ENDBRANCH  29  50
BRANCH  41  58
ATOM     58  C   UNL A   1      39.242  32.041  35.693  1.00  0.00     0.057 A 
ATOM     59  C   UNL A   1      39.656  33.363  35.892  1.00  0.00     0.134 A 
ATOM     60  C   UNL A   1      38.298  31.510  36.581  1.00  0.00     0.134 A 
ATOM     61  F   UNL A   1      40.567  33.921  35.082  1.00  0.00    -0.206 F 
ATOM     62  C   UNL A   1      39.154  34.127  36.945  1.00  0.00     0.040 A 
ATOM     63  C   UNL A   1      37.768  32.273  37.618  1.00  0.00     0.040 A 
ATOM     64  F   UNL A   1      37.856  30.252  36.432  1.00  0.00    -0.206 F 
ATOM     65  C   UNL A   1      38.198  33.586  37.804  1.00  0.00     0.006 A 
ENDBRANCH  41  58
ENDBRANCH  15  16
ENDBRANCH   8  10
ENDBRANCH   7   8
ENDBRANCH   6   7
ENDBRANCH   5   6
ENDBRANCH   4   5
ENDBRANCH   3   4
ENDBRANCH   2   3
ENDBRANCH   1   2
BRANCH   1  66
ATOM     66  C   UNL A   1      42.200  20.281  26.688  1.00  0.00     0.188 C 
BRANCH  66  67
ATOM     67  C   UNL A   1      40.681  20.032  26.504  1.00  0.00     0.188 C 
BRANCH  67  68
ATOM     68  O   UNL A   1      39.862  21.146  26.827  1.00  0.00    -0.376 OA
BRANCH  68  69
ATOM     69  C   UNL A   1      39.157  21.755  25.750  1.00  0.00     0.202 C 
BRANCH  69  70
ATOM     70  C   UNL A   1      37.938  22.633  26.067  1.00  0.00     0.261 C 
BRANCH  70  71
ATOM     71  O   UNL A   1      36.682  22.088  25.657  1.00  0.00    -0.460 OA
BRANCH  71  72
ATOM     72  C   UNL A   1      36.200  22.333  24.417  1.00  0.00     0.339 C 
ATOM     73  O   UNL A   1      36.797  22.837  23.501  1.00  0.00    -0.246 OA
BRANCH  72  74
ATOM     74  C   UNL A   1      34.876  21.644  24.296  1.00  0.00     0.073 A 
ATOM     75  C   UNL A   1      34.704  20.517  25.128  1.00  0.00     0.017 A 
ATOM     76  C   UNL A   1      33.798  22.119  23.517  1.00  0.00     0.022 A 
ATOM     77  C   UNL A   1      33.480  19.851  25.181  1.00  0.00     0.001 A 
ATOM     78  C   UNL A   1      32.613  21.363  23.515  1.00  0.00     0.016 A 
ATOM     79  C   UNL A   1      32.448  20.252  24.347  1.00  0.00     0.001 A 
BRANCH  76  80
ATOM     80  S   UNL A   1      33.844  23.744  22.743  1.00  0.00    -0.122 SA
BRANCH  80  81
ATOM     81  C   UNL A   1      32.992  24.845  23.902  1.00  0.00     0.057 C 
ATOM     82  C   UNL A   1      33.209  24.477  25.369  1.00  0.00     0.043 C 
ATOM     83  C   UNL A   1      33.553  26.256  23.698  1.00  0.00     0.050 C 
ATOM     84  C   UNL A   1      32.418  25.464  26.212  1.00  0.00     0.162 C 
ATOM     85  C   UNL A   1      32.826  27.255  24.615  1.00  0.00     0.069 C 
ATOM     86  O   UNL A   1      32.853  26.799  25.978  1.00  0.00    -0.375 OA
ATOM     87  C   UNL A   1      31.383  27.490  24.117  1.00  0.00     0.035 C 
ATOM     88  C   UNL A   1      33.587  28.598  24.608  1.00  0.00     0.035 C 
ATOM     89  C   UNL A   1      30.653  28.549  24.933  1.00  0.00     0.003 C 
ATOM     90  C   UNL A   1      32.864  29.665  25.432  1.00  0.00     0.003 C 
ATOM     91  C   UNL A   1      31.427  29.861  24.961  1.00  0.00     0.000 C 
ENDBRANCH  80  81
ENDBRANCH  76  80
ENDBRANCH  72  74
ENDBRANCH  71  72
ENDBRANCH  70  71
ENDBRANCH  69  70
ENDBRANCH  68  69
ENDBRANCH  67  68
ENDBRANCH  66  67
ENDBRANCH   1  66
TORSDOF 22
ENDMDL
MODEL 3
REMARK VINA RESULT:     -10.7      0.993      2.001
REMARK SMILES O=C(OCCOCCOCCOCCOC(=O)c1ccccc1S[C@H]1CCOC2(CCCCC2)C1)c1ccc(-c2c3nc(c(-c4c(F)cccc4F)c4ccc([nH]4)c(-c4c(F)cccc4F)c4nc(c(-c5c(F)cccc5F)c5ccc2[nH]5)C=C4)C=C3)cc1
REMARK SMILES IDX 9 1 8 2 7 3 6 4 5 5 4 6 3 7 2 8 1 9 36 10 37 11 89 12 38 13
REMARK SMILES IDX 88 14 39 15 40 16 41 17 82 18 42 19 87 20 81 21 83 22 43 23
REMARK SMILES IDX 86 24 80 25 79 26 44 28 70 29 53 30 69 31 54 32 57 33 68 34
REMARK SMILES IDX 84 35 55 36 56 37 67 39 85 40 58 41 45 42 46 43 51 44 47 45
REMARK SMILES IDX 48 46 50 47 52 48 49 49 71 50 72 51 77 52 73 53 74 54 76 55
REMARK SMILES IDX 78 56 75 57 59 58 60 59 65 60 61 61 62 62 64 63 66 64 63 65
REMARK SMILES IDX 10 66 11 67 12 68 13 69 14 70 15 71 16 72 17 73 18 74 19 75
REMARK SMILES IDX 23 76 20 77 22 78 21 79 24 80 25 81 26 82 35 83 27 84 29 85
REMARK SMILES IDX 28 86 30 87 34 88 31 89 33 90 32 91
REMARK H PARENT 83 27 57 38
REMARK Flexibility Score: inf
ROOT
ATOM      1  O   UNL A   1      32.999  35.311  29.666  1.00  0.00    -0.377 OA
ENDROOT
BRANCH   1   2
ATOM      2  C   UNL A   1      33.938  35.054  30.709  1.00  0.00     0.188 C 
BRANCH   2   3
ATOM      3  C   UNL A   1      33.657  35.773  32.029  1.00  0.00     0.188 C 
BRANCH   3   4
ATOM      4  O   UNL A   1      33.878  34.900  33.136  1.00  0.00    -0.376 OA
BRANCH   4   5
ATOM      5  C   UNL A   1      35.092  35.071  33.860  1.00  0.00     0.202 C 
BRANCH   5   6
ATOM      6  C   UNL A   1      36.073  33.909  33.736  1.00  0.00     0.261 C 
BRANCH   6   7
ATOM      7  O   UNL A   1      35.448  32.678  33.350  1.00  0.00    -0.460 OA
BRANCH   7   8
ATOM      8  C   UNL A   1      35.476  32.061  32.144  1.00  0.00     0.338 C 
ATOM      9  O   UNL A   1      34.456  32.093  31.455  1.00  0.00    -0.246 OA
BRANCH   8  10
ATOM     10  C   UNL A   1      36.664  31.352  31.576  1.00  0.00     0.060 A 
ATOM     11  C   UNL A   1      37.592  30.599  32.295  1.00  0.00     0.016 A 
ATOM     12  C   UNL A   1      36.796  31.379  30.176  1.00  0.00     0.016 A 
ATOM     13  C   UNL A   1      38.637  29.931  31.678  1.00  0.00     0.010 A 
ATOM     14  C   UNL A   1      37.839  30.705  29.537  1.00  0.00     0.010 A 
ATOM     15  C   UNL A   1      38.777  30.002  30.301  1.00  0.00    -0.014 A 
BRANCH  15  16
ATOM     16  C   UNL A   1      40.038  29.518  29.726  1.00  0.00     0.031 A 
ATOM     17  C   UNL A   1      41.186  30.478  29.699  1.00  0.00     0.074 A 
ATOM     18  C   UNL A   1      40.176  28.227  29.387  1.00  0.00     0.049 A 
ATOM     19  N   UNL A   1      42.364  30.349  29.158  1.00  0.00    -0.248 NA
ATOM     20  C   UNL A   1      40.974  31.762  30.391  1.00  0.00     0.031 C 
ATOM     21  C   UNL A   1      39.146  27.198  29.548  1.00  0.00     0.029 A 
ATOM     22  N   UNL A   1      41.242  27.557  28.857  1.00  0.00    -0.354 N 
ATOM     23  C   UNL A   1      43.012  31.554  29.399  1.00  0.00     0.074 A 
ATOM     24  C   UNL A   1      42.103  32.398  30.137  1.00  0.00     0.031 C 
ATOM     25  C   UNL A   1      39.630  26.025  29.113  1.00  0.00     0.029 A 
ATOM     26  C   UNL A   1      40.968  26.242  28.574  1.00  0.00     0.049 A 
ATOM     27  H   UNL A   1      42.118  27.975  28.694  1.00  0.00     0.167 HD
ATOM     28  C   UNL A   1      44.256  31.914  29.011  1.00  0.00     0.037 A 
ATOM     29  C   UNL A   1      41.706  25.345  27.896  1.00  0.00     0.037 A 
ATOM     30  C   UNL A   1      45.120  31.032  28.278  1.00  0.00     0.049 A 
ATOM     31  C   UNL A   1      43.045  25.794  27.380  1.00  0.00     0.074 A 
ATOM     32  C   UNL A   1      46.380  31.273  27.768  1.00  0.00     0.029 A 
ATOM     33  N   UNL A   1      44.792  29.721  27.948  1.00  0.00    -0.354 N 
ATOM     34  N   UNL A   1      43.636  26.958  27.529  1.00  0.00    -0.248 NA
ATOM     35  C   UNL A   1      43.813  24.825  26.592  1.00  0.00     0.031 C 
ATOM     36  C   UNL A   1      46.790  30.125  27.081  1.00  0.00     0.029 A 
ATOM     37  C   UNL A   1      45.813  29.146  27.217  1.00  0.00     0.049 A 
ATOM     38  H   UNL A   1      43.954  29.268  28.200  1.00  0.00     0.167 HD
ATOM     39  C   UNL A   1      44.851  26.862  26.868  1.00  0.00     0.074 A 
ATOM     40  C   UNL A   1      44.916  25.515  26.330  1.00  0.00     0.031 C 
ATOM     41  C   UNL A   1      45.825  27.794  26.712  1.00  0.00     0.037 A 
BRANCH  28  42
ATOM     42  C   UNL A   1      44.666  33.330  29.287  1.00  0.00     0.057 A 
ATOM     43  C   UNL A   1      45.360  33.706  30.446  1.00  0.00     0.134 A 
ATOM     44  C   UNL A   1      44.275  34.353  28.412  1.00  0.00     0.134 A 
ATOM     45  F   UNL A   1      45.731  32.784  31.346  1.00  0.00    -0.206 F 
ATOM     46  C   UNL A   1      45.610  35.048  30.745  1.00  0.00     0.040 A 
ATOM     47  C   UNL A   1      44.545  35.695  28.686  1.00  0.00     0.040 A 
ATOM     48  F   UNL A   1      43.598  34.068  27.290  1.00  0.00    -0.206 F 
ATOM     49  C   UNL A   1      45.203  36.047  29.862  1.00  0.00     0.006 A 
ENDBRANCH  28  42
BRANCH  29  50
ATOM     50  C   UNL A   1      41.155  23.995  27.608  1.00  0.00     0.057 A 
ATOM     51  C   UNL A   1      40.160  23.795  26.646  1.00  0.00     0.134 A 
ATOM     52  C   UNL A   1      41.633  22.860  28.279  1.00  0.00     0.134 A 
ATOM     53  F   UNL A   1      39.646  24.838  25.978  1.00  0.00    -0.206 F 
ATOM     54  C   UNL A   1      39.657  22.520  26.367  1.00  0.00     0.040 A 
ATOM     55  C   UNL A   1      41.161  21.579  27.991  1.00  0.00     0.040 A 
ATOM     56  F   UNL A   1      42.589  22.978  29.214  1.00  0.00    -0.206 F 
ATOM     57  C   UNL A   1      40.164  21.406  27.035  1.00  0.00     0.006 A 
ENDBRANCH  29  50
BRANCH  41  58
ATOM     58  C   UNL A   1      47.051  27.369  25.963  1.00  0.00     0.057 A 
ATOM     59  C   UNL A   1      48.124  26.736  26.600  1.00  0.00     0.134 A 
ATOM     60  C   UNL A   1      47.117  27.530  24.573  1.00  0.00     0.134 A 
ATOM     61  F   UNL A   1      48.121  26.566  27.931  1.00  0.00    -0.206 F 
ATOM     62  C   UNL A   1      49.229  26.286  25.880  1.00  0.00     0.040 A 
ATOM     63  C   UNL A   1      48.203  27.058  23.840  1.00  0.00     0.040 A 
ATOM     64  F   UNL A   1      46.113  28.120  23.907  1.00  0.00    -0.206 F 
ATOM     65  C   UNL A   1      49.264  26.435  24.494  1.00  0.00     0.006 A 
ENDBRANCH  41  58
ENDBRANCH  15  16
ENDBRANCH   8  10
ENDBRANCH   7   8
ENDBRANCH   6   7
ENDBRANCH   5   6
ENDBRANCH   4   5
ENDBRANCH   3   4
ENDBRANCH   2   3
ENDBRANCH   1   2
BRANCH   1  66
ATOM     66  C   UNL A   1      33.240  34.675  28.415  1.00  0.00     0.188 C 
BRANCH  66  67
ATOM     67  C   UNL A   1      34.634  34.055  28.142  1.00  0.00     0.188 C 
BRANCH  67  68
ATOM     68  O   UNL A   1      34.650  32.636  28.121  1.00  0.00    -0.376 OA
BRANCH  68  69
ATOM     69  C   UNL A   1      33.490  31.990  27.609  1.00  0.00     0.202 C 
BRANCH  69  70
ATOM     70  C   UNL A   1      33.564  30.494  27.270  1.00  0.00     0.261 C 
BRANCH  70  71
ATOM     71  O   UNL A   1      32.583  30.040  26.336  1.00  0.00    -0.460 OA
BRANCH  71  72
ATOM     72  C   UNL A   1      31.881  28.909  26.574  1.00  0.00     0.339 C 
ATOM     73  O   UNL A   1      31.478  28.524  27.641  1.00  0.00    -0.246 OA
BRANCH  72  74
ATOM     74  C   UNL A   1      31.471  28.338  25.251  1.00  0.00     0.073 A 
ATOM     75  C   UNL A   1      30.944  29.268  24.330  1.00  0.00     0.017 A 
ATOM     76  C   UNL A   1      31.690  27.000  24.858  1.00  0.00     0.022 A 
ATOM     77  C   UNL A   1      30.621  28.879  23.030  1.00  0.00     0.001 A 
ATOM     78  C   UNL A   1      31.256  26.618  23.577  1.00  0.00     0.016 A 
ATOM     79  C   UNL A   1      30.742  27.547  22.667  1.00  0.00     0.001 A 
BRANCH  76  80
ATOM     80  S   UNL A   1      32.692  25.881  25.851  1.00  0.00    -0.122 SA
BRANCH  80  81
ATOM     81  C   UNL A   1      33.069  24.487  24.759  1.00  0.00     0.057 C 
ATOM     82  C   UNL A   1      34.423  24.604  24.060  1.00  0.00     0.043 C 
ATOM     83  C   UNL A   1      33.111  23.221  25.622  1.00  0.00     0.050 C 
ATOM     84  C   UNL A   1      34.585  23.386  23.166  1.00  0.00     0.162 C 
ATOM     85  C   UNL A   1      33.370  21.986  24.743  1.00  0.00     0.069 C 
ATOM     86  O   UNL A   1      34.537  22.184  23.927  1.00  0.00    -0.375 OA
ATOM     87  C   UNL A   1      32.124  21.661  23.891  1.00  0.00     0.035 C 
ATOM     88  C   UNL A   1      33.692  20.777  25.646  1.00  0.00     0.035 C 
ATOM     89  C   UNL A   1      32.293  20.385  23.076  1.00  0.00     0.003 C 
ATOM     90  C   UNL A   1      33.871  19.492  24.835  1.00  0.00     0.003 C 
ATOM     91  C   UNL A   1      32.654  19.202  23.965  1.00  0.00     0.000 C 
ENDBRANCH  80  81
ENDBRANCH  76  80
ENDBRANCH  72  74
ENDBRANCH  71  72
ENDBRANCH  70  71
ENDBRANCH  69  70
ENDBRANCH  68  69
ENDBRANCH  67  68
ENDBRANCH  66  67
ENDBRANCH   1  66
TORSDOF 22
ENDMDL
