MODEL 1
REMARK VINA RESULT:      -9.9      0.000      0.000
REMARK SMILES NS(=O)(=O)c1ccc(-n2nc(C(=O)OCCOCCOCCOCCOC(=O)c3ccc(-c4c5nc(c(-c6c(F)cccc6F)c6ccc([nH]6)c(-c6c(F)cccc6F)c6nc(c(-c7c(F)cccc7F)c7ccc4[nH]7)C=C6)C=C5)cc3)cc2-c2cc3ccccc3s2)cc1
REMARK SMILES IDX 19 1 18 2 17 3 16 4 15 5 14 6 12 7 13 8 11 9 9 10 10 11
REMARK SMILES IDX 84 12 83 13 8 14 5 15 6 16 95 17 7 18 94 19 2 20 3 21 4 22
REMARK SMILES IDX 1 23 85 26 86 27 93 28 87 29 92 30 88 31 91 32 89 33 90 34
REMARK SMILES IDX 20 35 21 36 22 37 23 38 24 39 25 40 26 41 27 42 28 43 29 44
REMARK SMILES IDX 30 45 82 46 31 47 81 48 32 49 33 50 34 51 75 52 35 53 80 54
REMARK SMILES IDX 74 55 76 56 36 57 79 58 73 59 72 60 37 62 63 63 46 64 62 65
REMARK SMILES IDX 47 66 50 67 61 68 77 69 48 70 49 71 60 73 78 74 51 75 38 76
REMARK SMILES IDX 39 77 44 78 40 79 41 80 43 81 45 82 42 83 64 84 65 85 70 86
REMARK SMILES IDX 66 87 67 88 69 89 71 90 68 91 52 92 53 93 58 94 54 95 55 96
REMARK SMILES IDX 57 97 59 98 56 99
REMARK H PARENT 1 24 1 25 76 61 50 72
REMARK Flexibility Score: inf
ROOT
ATOM      1  C   UNL A   1      33.706  28.972  26.354  1.00  0.00     0.188 C 
ENDROOT
BRANCH   1   2
ATOM      2  C   UNL A   1      33.078  28.521  25.019  1.00  0.00     0.188 C 
BRANCH   2   3
ATOM      3  O   UNL A   1      32.463  29.523  24.231  1.00  0.00    -0.376 OA
BRANCH   3   4
ATOM      4  C   UNL A   1      31.068  29.684  24.066  1.00  0.00     0.202 C 
BRANCH   4   5
ATOM      5  C   UNL A   1      29.985  28.603  24.202  1.00  0.00     0.261 C 
BRANCH   5   6
ATOM      6  O   UNL A   1      30.031  27.513  23.301  1.00  0.00    -0.458 OA
BRANCH   6   7
ATOM      7  C   UNL A   1      29.595  26.311  23.762  1.00  0.00     0.358 C 
ATOM      8  O   UNL A   1      28.419  26.014  23.935  1.00  0.00    -0.244 OA
BRANCH   7   9
ATOM      9  C   UNL A   1      30.740  25.414  23.941  1.00  0.00     0.171 A 
ATOM     10  N   UNL A   1      31.895  23.651  24.265  1.00  0.00    -0.231 N 
ATOM     11  N   UNL A   1      30.740  24.094  23.694  1.00  0.00    -0.160 NA
ATOM     12  C   UNL A   1      32.594  24.680  24.855  1.00  0.00     0.085 A 
ATOM     13  C   UNL A   1      32.024  25.826  24.337  1.00  0.00     0.068 A 
BRANCH  10  14
ATOM     14  C   UNL A   1      32.169  22.276  24.242  1.00  0.00     0.065 A 
ATOM     15  C   UNL A   1      32.523  19.539  24.068  1.00  0.00     0.082 A 
ATOM     16  C   UNL A   1      31.954  20.095  25.221  1.00  0.00     0.024 A 
ATOM     17  C   UNL A   1      32.931  20.348  23.002  1.00  0.00     0.024 A 
ATOM     18  C   UNL A   1      31.798  21.476  25.322  1.00  0.00     0.030 A 
ATOM     19  C   UNL A   1      32.721  21.722  23.076  1.00  0.00     0.030 A 
BRANCH  15  20
ATOM     20  S   UNL A   1      32.754  17.794  23.923  1.00  0.00     0.238 S 
ATOM     21  O   UNL A   1      32.572  17.421  22.544  1.00  0.00    -0.207 OA
ATOM     22  O   UNL A   1      32.054  17.148  25.013  1.00  0.00    -0.207 OA
BRANCH  20  23
ATOM     23  N   UNL A   1      34.391  17.569  24.234  1.00  0.00    -0.225 NA
ATOM     24  H   UNL A   1      34.507  16.816  24.913  1.00  0.00     0.137 HD
ATOM     25  H   UNL A   1      34.787  18.430  24.610  1.00  0.00     0.137 HD
ENDBRANCH  20  23
ENDBRANCH  15  20
ENDBRANCH  10  14
BRANCH  12  26
ATOM     26  C   UNL A   1      33.551  24.695  25.934  1.00  0.00     0.054 A 
ATOM     27  C   UNL A   1      33.900  23.618  26.747  1.00  0.00     0.031 A 
ATOM     28  S   UNL A   1      35.105  25.400  25.502  1.00  0.00    -0.134 S 
ATOM     29  C   UNL A   1      34.989  22.920  26.069  1.00  0.00    -0.007 A 
ATOM     30  C   UNL A   1      35.620  23.772  25.149  1.00  0.00     0.035 A 
ATOM     31  C   UNL A   1      35.358  21.557  26.070  1.00  0.00     0.009 A 
ATOM     32  C   UNL A   1      36.455  23.296  24.127  1.00  0.00     0.019 A 
ATOM     33  C   UNL A   1      36.172  21.067  25.039  1.00  0.00     0.001 A 
ATOM     34  C   UNL A   1      36.669  21.917  24.056  1.00  0.00     0.001 A 
ENDBRANCH  12  26
ENDBRANCH   7   9
ENDBRANCH   6   7
ENDBRANCH   5   6
ENDBRANCH   4   5
ENDBRANCH   3   4
ENDBRANCH   2   3
ENDBRANCH   1   2
BRANCH   1  35
ATOM     35  O   UNL A   1      33.707  30.375  26.544  1.00  0.00    -0.377 OA
BRANCH  35  36
ATOM     36  C   UNL A   1      34.345  30.876  27.718  1.00  0.00     0.188 C 
BRANCH  36  37
ATOM     37  C   UNL A   1      34.450  32.398  28.041  1.00  0.00     0.188 C 
BRANCH  37  38
ATOM     38  O   UNL A   1      33.865  32.810  29.266  1.00  0.00    -0.376 OA
BRANCH  38  39
ATOM     39  C   UNL A   1      34.341  33.875  30.064  1.00  0.00     0.202 C 
BRANCH  39  40
ATOM     40  C   UNL A   1      34.870  33.510  31.449  1.00  0.00     0.261 C 
BRANCH  40  41
ATOM     41  O   UNL A   1      36.187  33.002  31.401  1.00  0.00    -0.460 OA
BRANCH  41  42
ATOM     42  C   UNL A   1      36.276  31.693  31.688  1.00  0.00     0.338 C 
ATOM     43  O   UNL A   1      36.025  31.148  32.755  1.00  0.00    -0.246 OA
BRANCH  42  44
ATOM     44  C   UNL A   1      36.806  31.005  30.511  1.00  0.00     0.060 A 
ATOM     45  C   UNL A   1      36.712  29.617  30.559  1.00  0.00     0.016 A 
ATOM     46  C   UNL A   1      37.746  31.687  29.721  1.00  0.00     0.016 A 
ATOM     47  C   UNL A   1      37.826  28.923  30.184  1.00  0.00     0.010 A 
ATOM     48  C   UNL A   1      38.859  30.994  29.350  1.00  0.00     0.010 A 
ATOM     49  C   UNL A   1      38.926  29.663  29.739  1.00  0.00    -0.014 A 
BRANCH  49  50
ATOM     50  C   UNL A   1      40.209  29.023  29.798  1.00  0.00     0.031 A 
ATOM     51  C   UNL A   1      40.765  28.997  31.153  1.00  0.00     0.074 A 
ATOM     52  C   UNL A   1      40.749  28.457  28.705  1.00  0.00     0.049 A 
ATOM     53  N   UNL A   1      41.762  29.679  31.606  1.00  0.00    -0.248 NA
ATOM     54  C   UNL A   1      39.985  28.289  32.178  1.00  0.00     0.031 C 
ATOM     55  C   UNL A   1      40.141  28.197  27.395  1.00  0.00     0.029 A 
ATOM     56  N   UNL A   1      41.966  27.870  28.602  1.00  0.00    -0.354 N 
ATOM     57  C   UNL A   1      41.866  29.309  32.938  1.00  0.00     0.074 A 
ATOM     58  C   UNL A   1      40.636  28.645  33.283  1.00  0.00     0.031 C 
ATOM     59  C   UNL A   1      40.898  27.294  26.730  1.00  0.00     0.029 A 
ATOM     60  C   UNL A   1      42.089  27.018  27.513  1.00  0.00     0.049 A 
ATOM     61  H   UNL A   1      42.697  28.033  29.241  1.00  0.00     0.167 HD
ATOM     62  C   UNL A   1      43.063  29.315  33.575  1.00  0.00     0.037 A 
ATOM     63  C   UNL A   1      43.048  26.064  27.416  1.00  0.00     0.037 A 
ATOM     64  C   UNL A   1      44.042  30.108  32.878  1.00  0.00     0.049 A 
ATOM     65  C   UNL A   1      44.142  26.454  28.358  1.00  0.00     0.074 A 
ATOM     66  C   UNL A   1      44.102  31.433  32.484  1.00  0.00     0.029 A 
ATOM     67  N   UNL A   1      44.986  29.455  32.122  1.00  0.00    -0.354 N 
ATOM     68  N   UNL A   1      44.894  27.512  28.191  1.00  0.00    -0.248 NA
ATOM     69  C   UNL A   1      44.051  25.970  29.731  1.00  0.00     0.031 C 
ATOM     70  C   UNL A   1      44.700  31.407  31.190  1.00  0.00     0.029 A 
ATOM     71  C   UNL A   1      45.020  30.080  30.900  1.00  0.00     0.049 A 
ATOM     72  H   UNL A   1      45.534  28.686  32.402  1.00  0.00     0.167 HD
ATOM     73  C   UNL A   1      45.042  28.056  29.461  1.00  0.00     0.074 A 
ATOM     74  C   UNL A   1      44.545  27.032  30.377  1.00  0.00     0.031 C 
ATOM     75  C   UNL A   1      45.267  29.391  29.654  1.00  0.00     0.037 A 
BRANCH  62  76
ATOM     76  C   UNL A   1      43.425  28.291  34.610  1.00  0.00     0.057 A 
ATOM     77  C   UNL A   1      43.885  28.715  35.862  1.00  0.00     0.134 A 
ATOM     78  C   UNL A   1      43.588  26.915  34.333  1.00  0.00     0.134 A 
ATOM     79  F   UNL A   1      43.813  30.006  36.218  1.00  0.00    -0.206 F 
ATOM     80  C   UNL A   1      44.505  27.839  36.760  1.00  0.00     0.040 A 
ATOM     81  C   UNL A   1      44.147  26.022  35.244  1.00  0.00     0.040 A 
ATOM     82  F   UNL A   1      43.313  26.384  33.135  1.00  0.00    -0.206 F 
ATOM     83  C   UNL A   1      44.637  26.489  36.452  1.00  0.00     0.006 A 
ENDBRANCH  62  76
BRANCH  63  84
ATOM     84  C   UNL A   1      42.872  24.685  26.900  1.00  0.00     0.057 A 
ATOM     85  C   UNL A   1      41.993  23.788  27.520  1.00  0.00     0.134 A 
ATOM     86  C   UNL A   1      43.373  24.287  25.645  1.00  0.00     0.134 A 
ATOM     87  F   UNL A   1      41.422  24.097  28.693  1.00  0.00    -0.206 F 
ATOM     88  C   UNL A   1      41.630  22.570  26.924  1.00  0.00     0.040 A 
ATOM     89  C   UNL A   1      43.028  23.072  25.047  1.00  0.00     0.040 A 
ATOM     90  F   UNL A   1      44.149  25.099  24.913  1.00  0.00    -0.206 F 
ATOM     91  C   UNL A   1      42.143  22.213  25.681  1.00  0.00     0.006 A 
ENDBRANCH  63  84
BRANCH  75  92
ATOM     92  C   UNL A   1      45.526  30.253  28.448  1.00  0.00     0.057 A 
ATOM     93  C   UNL A   1      44.516  30.931  27.747  1.00  0.00     0.134 A 
ATOM     94  C   UNL A   1      46.846  30.560  28.101  1.00  0.00     0.134 A 
ATOM     95  F   UNL A   1      43.229  30.790  28.084  1.00  0.00    -0.206 F 
ATOM     96  C   UNL A   1      44.804  31.837  26.721  1.00  0.00     0.040 A 
ATOM     97  C   UNL A   1      47.149  31.488  27.100  1.00  0.00     0.040 A 
ATOM     98  F   UNL A   1      47.868  30.003  28.769  1.00  0.00    -0.206 F 
ATOM     99  C   UNL A   1      46.126  32.123  26.399  1.00  0.00     0.006 A 
ENDBRANCH  75  92
ENDBRANCH  49  50
ENDBRANCH  42  44
ENDBRANCH  41  42
ENDBRANCH  40  41
ENDBRANCH  39  40
ENDBRANCH  38  39
ENDBRANCH  37  38
ENDBRANCH  36  37
ENDBRANCH  35  36
ENDBRANCH   1  35
TORSDOF 24
ENDMDL
MODEL 2
REMARK VINA RESULT:      -9.7      3.467      8.086
REMARK SMILES NS(=O)(=O)c1ccc(-n2nc(C(=O)OCCOCCOCCOCCOC(=O)c3ccc(-c4c5nc(c(-c6c(F)cccc6F)c6ccc([nH]6)c(-c6c(F)cccc6F)c6nc(c(-c7c(F)cccc7F)c7ccc4[nH]7)C=C6)C=C5)cc3)cc2-c2cc3ccccc3s2)cc1
REMARK SMILES IDX 19 1 18 2 17 3 16 4 15 5 14 6 12 7 13 8 11 9 9 10 10 11
REMARK SMILES IDX 84 12 83 13 8 14 5 15 6 16 95 17 7 18 94 19 2 20 3 21 4 22
REMARK SMILES IDX 1 23 85 26 86 27 93 28 87 29 92 30 88 31 91 32 89 33 90 34
REMARK SMILES IDX 20 35 21 36 22 37 23 38 24 39 25 40 26 41 27 42 28 43 29 44
REMARK SMILES IDX 30 45 82 46 31 47 81 48 32 49 33 50 34 51 75 52 35 53 80 54
REMARK SMILES IDX 74 55 76 56 36 57 79 58 73 59 72 60 37 62 63 63 46 64 62 65
REMARK SMILES IDX 47 66 50 67 61 68 77 69 48 70 49 71 60 73 78 74 51 75 38 76
REMARK SMILES IDX 39 77 44 78 40 79 41 80 43 81 45 82 42 83 64 84 65 85 70 86
REMARK SMILES IDX 66 87 67 88 69 89 71 90 68 91 52 92 53 93 58 94 54 95 55 96
REMARK SMILES IDX 57 97 59 98 56 99
REMARK H PARENT 1 24 1 25 76 61 50 72
REMARK Flexibility Score: inf
ROOT
ATOM      1  C   UNL A   1      36.132  21.827  24.349  1.00  0.00     0.188 C 
ENDROOT
BRANCH   1   2
ATOM      2  C   UNL A   1      36.636  22.749  23.219  1.00  0.00     0.188 C 
BRANCH   2   3
ATOM      3  O   UNL A   1      35.740  23.743  22.757  1.00  0.00    -0.376 OA
BRANCH   3   4
ATOM      4  C   UNL A   1      34.423  23.936  23.235  1.00  0.00     0.202 C 
BRANCH   4   5
ATOM      5  C   UNL A   1      33.128  23.357  22.647  1.00  0.00     0.261 C 
BRANCH   5   6
ATOM      6  O   UNL A   1      32.320  24.218  21.867  1.00  0.00    -0.458 OA
BRANCH   6   7
ATOM      7  C   UNL A   1      32.754  25.496  21.705  1.00  0.00     0.358 C 
ATOM      8  O   UNL A   1      33.412  25.894  20.752  1.00  0.00    -0.244 OA
BRANCH   7   9
ATOM      9  C   UNL A   1      32.247  26.324  22.802  1.00  0.00     0.171 A 
ATOM     10  N   UNL A   1      32.173  27.713  24.419  1.00  0.00    -0.231 N 
ATOM     11  N   UNL A   1      32.805  27.465  23.238  1.00  0.00    -0.160 NA
ATOM     12  C   UNL A   1      31.243  26.741  24.707  1.00  0.00     0.085 A 
ATOM     13  C   UNL A   1      31.061  26.070  23.513  1.00  0.00     0.068 A 
BRANCH  10  14
ATOM     14  C   UNL A   1      32.579  28.820  25.177  1.00  0.00     0.065 A 
ATOM     15  C   UNL A   1      33.329  30.884  26.859  1.00  0.00     0.082 A 
ATOM     16  C   UNL A   1      32.074  30.912  26.239  1.00  0.00     0.024 A 
ATOM     17  C   UNL A   1      34.222  29.831  26.632  1.00  0.00     0.024 A 
ATOM     18  C   UNL A   1      31.704  29.887  25.371  1.00  0.00     0.030 A 
ATOM     19  C   UNL A   1      33.831  28.775  25.813  1.00  0.00     0.030 A 
BRANCH  15  20
ATOM     20  S   UNL A   1      33.834  32.181  27.945  1.00  0.00     0.238 S 
ATOM     21  O   UNL A   1      34.056  31.623  29.254  1.00  0.00    -0.207 OA
ATOM     22  O   UNL A   1      32.984  33.329  27.711  1.00  0.00    -0.207 OA
BRANCH  20  23
ATOM     23  N   UNL A   1      35.357  32.619  27.383  1.00  0.00    -0.225 NA
ATOM     24  H   UNL A   1      35.799  31.815  26.937  1.00  0.00     0.137 HD
ATOM     25  H   UNL A   1      35.931  32.931  28.166  1.00  0.00     0.137 HD
ENDBRANCH  20  23
ENDBRANCH  15  20
ENDBRANCH  10  14
BRANCH  12  26
ATOM     26  C   UNL A   1      30.687  26.284  25.957  1.00  0.00     0.054 A 
ATOM     27  C   UNL A   1      29.827  25.201  26.137  1.00  0.00     0.031 A 
ATOM     28  S   UNL A   1      31.879  26.072  27.236  1.00  0.00    -0.134 S 
ATOM     29  C   UNL A   1      30.672  24.024  26.322  1.00  0.00    -0.007 A 
ATOM     30  C   UNL A   1      31.959  24.405  26.732  1.00  0.00     0.035 A 
ATOM     31  C   UNL A   1      30.455  22.668  25.997  1.00  0.00     0.009 A 
ATOM     32  C   UNL A   1      33.062  23.541  26.658  1.00  0.00     0.019 A 
ATOM     33  C   UNL A   1      31.554  21.803  25.896  1.00  0.00     0.001 A 
ATOM     34  C   UNL A   1      32.842  22.249  26.174  1.00  0.00     0.001 A 
ENDBRANCH  12  26
ENDBRANCH   7   9
ENDBRANCH   6   7
ENDBRANCH   5   6
ENDBRANCH   4   5
ENDBRANCH   3   4
ENDBRANCH   2   3
ENDBRANCH   1   2
BRANCH   1  35
ATOM     35  O   UNL A   1      36.532  22.234  25.644  1.00  0.00    -0.377 OA
BRANCH  35  36
ATOM     36  C   UNL A   1      37.840  21.860  26.074  1.00  0.00     0.188 C 
BRANCH  36  37
ATOM     37  C   UNL A   1      38.997  22.888  26.265  1.00  0.00     0.188 C 
BRANCH  37  38
ATOM     38  O   UNL A   1      40.310  22.373  26.114  1.00  0.00    -0.376 OA
BRANCH  38  39
ATOM     39  C   UNL A   1      41.409  22.728  26.929  1.00  0.00     0.202 C 
BRANCH  39  40
ATOM     40  C   UNL A   1      41.184  23.858  27.930  1.00  0.00     0.261 C 
BRANCH  40  41
ATOM     41  O   UNL A   1      41.951  25.004  27.623  1.00  0.00    -0.460 OA
BRANCH  41  42
ATOM     42  C   UNL A   1      41.569  25.630  26.499  1.00  0.00     0.338 C 
ATOM     43  O   UNL A   1      42.046  25.503  25.379  1.00  0.00    -0.246 OA
BRANCH  42  44
ATOM     44  C   UNL A   1      40.506  26.574  26.844  1.00  0.00     0.060 A 
ATOM     45  C   UNL A   1      40.755  27.891  26.469  1.00  0.00     0.016 A 
ATOM     46  C   UNL A   1      39.626  26.221  27.881  1.00  0.00     0.016 A 
ATOM     47  C   UNL A   1      40.487  28.847  27.407  1.00  0.00     0.010 A 
ATOM     48  C   UNL A   1      39.362  27.175  28.818  1.00  0.00     0.010 A 
ATOM     49  C   UNL A   1      39.941  28.421  28.621  1.00  0.00    -0.014 A 
BRANCH  49  50
ATOM     50  C   UNL A   1      40.095  29.297  29.747  1.00  0.00     0.031 A 
ATOM     51  C   UNL A   1      38.927  30.158  29.956  1.00  0.00     0.074 A 
ATOM     52  C   UNL A   1      41.182  29.227  30.534  1.00  0.00     0.049 A 
ATOM     53  N   UNL A   1      38.843  31.428  29.751  1.00  0.00    -0.248 NA
ATOM     54  C   UNL A   1      37.646  29.488  30.218  1.00  0.00     0.031 C 
ATOM     55  C   UNL A   1      42.249  28.220  30.559  1.00  0.00     0.029 A 
ATOM     56  N   UNL A   1      41.483  30.020  31.591  1.00  0.00    -0.354 N 
ATOM     57  C   UNL A   1      37.534  31.751  30.076  1.00  0.00     0.074 A 
ATOM     58  C   UNL A   1      36.802  30.513  30.133  1.00  0.00     0.031 C 
ATOM     59  C   UNL A   1      42.926  28.325  31.726  1.00  0.00     0.029 A 
ATOM     60  C   UNL A   1      42.421  29.473  32.456  1.00  0.00     0.049 A 
ATOM     61  H   UNL A   1      41.074  30.905  31.732  1.00  0.00     0.167 HD
ATOM     62  C   UNL A   1      37.214  32.977  30.560  1.00  0.00     0.037 A 
ATOM     63  C   UNL A   1      42.596  29.896  33.732  1.00  0.00     0.037 A 
ATOM     64  C   UNL A   1      38.244  33.948  30.293  1.00  0.00     0.049 A 
ATOM     65  C   UNL A   1      42.020  31.274  33.812  1.00  0.00     0.074 A 
ATOM     66  C   UNL A   1      38.844  34.420  29.140  1.00  0.00     0.029 A 
ATOM     67  N   UNL A   1      39.093  34.291  31.319  1.00  0.00    -0.354 N 
ATOM     68  N   UNL A   1      42.528  32.306  33.189  1.00  0.00    -0.248 NA
ATOM     69  C   UNL A   1      40.607  31.393  34.156  1.00  0.00     0.031 C 
ATOM     70  C   UNL A   1      40.223  34.561  29.473  1.00  0.00     0.029 A 
ATOM     71  C   UNL A   1      40.370  34.222  30.818  1.00  0.00     0.049 A 
ATOM     72  H   UNL A   1      38.835  34.538  32.237  1.00  0.00     0.167 HD
ATOM     73  C   UNL A   1      41.433  33.017  32.711  1.00  0.00     0.074 A 
ATOM     74  C   UNL A   1      40.274  32.434  33.385  1.00  0.00     0.031 C 
ATOM     75  C   UNL A   1      41.514  33.804  31.595  1.00  0.00     0.037 A 
BRANCH  62  76
ATOM     76  C   UNL A   1      36.150  33.176  31.598  1.00  0.00     0.057 A 
ATOM     77  C   UNL A   1      35.110  34.080  31.348  1.00  0.00     0.134 A 
ATOM     78  C   UNL A   1      36.251  32.715  32.929  1.00  0.00     0.134 A 
ATOM     79  F   UNL A   1      34.939  34.609  30.128  1.00  0.00    -0.206 F 
ATOM     80  C   UNL A   1      34.257  34.527  32.363  1.00  0.00     0.040 A 
ATOM     81  C   UNL A   1      35.370  33.106  33.935  1.00  0.00     0.040 A 
ATOM     82  F   UNL A   1      37.266  31.948  33.350  1.00  0.00    -0.206 F 
ATOM     83  C   UNL A   1      34.386  34.039  33.660  1.00  0.00     0.006 A 
ENDBRANCH  62  76
BRANCH  63  84
ATOM     84  C   UNL A   1      42.829  29.042  34.921  1.00  0.00     0.057 A 
ATOM     85  C   UNL A   1      41.950  28.001  35.248  1.00  0.00     0.134 A 
ATOM     86  C   UNL A   1      44.047  29.063  35.628  1.00  0.00     0.134 A 
ATOM     87  F   UNL A   1      40.787  27.864  34.595  1.00  0.00    -0.206 F 
ATOM     88  C   UNL A   1      42.267  27.037  36.216  1.00  0.00     0.040 A 
ATOM     89  C   UNL A   1      44.369  28.114  36.603  1.00  0.00     0.040 A 
ATOM     90  F   UNL A   1      45.007  29.953  35.341  1.00  0.00    -0.206 F 
ATOM     91  C   UNL A   1      43.482  27.088  36.892  1.00  0.00     0.006 A 
ENDBRANCH  63  84
BRANCH  75  92
ATOM     92  C   UNL A   1      42.866  34.031  30.978  1.00  0.00     0.057 A 
ATOM     93  C   UNL A   1      43.414  33.205  29.983  1.00  0.00     0.134 A 
ATOM     94  C   UNL A   1      43.552  35.219  31.254  1.00  0.00     0.134 A 
ATOM     95  F   UNL A   1      42.772  32.107  29.569  1.00  0.00    -0.206 F 
ATOM     96  C   UNL A   1      44.608  33.524  29.328  1.00  0.00     0.040 A 
ATOM     97  C   UNL A   1      44.728  35.566  30.584  1.00  0.00     0.040 A 
ATOM     98  F   UNL A   1      43.056  36.093  32.145  1.00  0.00    -0.206 F 
ATOM     99  C   UNL A   1      45.266  34.713  29.623  1.00  0.00     0.006 A 
ENDBRANCH  75  92
ENDBRANCH  49  50
ENDBRANCH  42  44
ENDBRANCH  41  42
ENDBRANCH  40  41
ENDBRANCH  39  40
ENDBRANCH  38  39
ENDBRANCH  37  38
ENDBRANCH  36  37
ENDBRANCH  35  36
ENDBRANCH   1  35
TORSDOF 24
ENDMDL
MODEL 3
REMARK VINA RESULT:      -9.6      3.654      8.114
REMARK SMILES NS(=O)(=O)c1ccc(-n2nc(C(=O)OCCOCCOCCOCCOC(=O)c3ccc(-c4c5nc(c(-c6c(F)cccc6F)c6ccc([nH]6)c(-c6c(F)cccc6F)c6nc(c(-c7c(F)cccc7F)c7ccc4[nH]7)C=C6)C=C5)cc3)cc2-c2cc3ccccc3s2)cc1
REMARK SMILES IDX 19 1 18 2 17 3 16 4 15 5 14 6 12 7 13 8 11 9 9 10 10 11
REMARK SMILES IDX 84 12 83 13 8 14 5 15 6 16 95 17 7 18 94 19 2 20 3 21 4 22
REMARK SMILES IDX 1 23 85 26 86 27 93 28 87 29 92 30 88 31 91 32 89 33 90 34
REMARK SMILES IDX 20 35 21 36 22 37 23 38 24 39 25 40 26 41 27 42 28 43 29 44
REMARK SMILES IDX 30 45 82 46 31 47 81 48 32 49 33 50 34 51 75 52 35 53 80 54
REMARK SMILES IDX 74 55 76 56 36 57 79 58 73 59 72 60 37 62 63 63 46 64 62 65
REMARK SMILES IDX 47 66 50 67 61 68 77 69 48 70 49 71 60 73 78 74 51 75 38 76
REMARK SMILES IDX 39 77 44 78 40 79 41 80 43 81 45 82 42 83 64 84 65 85 70 86
REMARK SMILES IDX 66 87 67 88 69 89 71 90 68 91 52 92 53 93 58 94 54 95 55 96
REMARK SMILES IDX 57 97 59 98 56 99
REMARK H PARENT 1 24 1 25 76 61 50 72
REMARK Flexibility Score: inf
ROOT
ATOM      1  C   UNL A   1      36.621  21.574  24.410  1.00  0.00     0.188 C 
ENDROOT
BRANCH   1   2
ATOM      2  C   UNL A   1      37.093  22.561  23.323  1.00  0.00     0.188 C 
BRANCH   2   3
ATOM      3  O   UNL A   1      36.145  23.504  22.860  1.00  0.00    -0.376 OA
BRANCH   3   4
ATOM      4  C   UNL A   1      34.828  23.643  23.356  1.00  0.00     0.202 C 
BRANCH   4   5
ATOM      5  C   UNL A   1      33.670  22.644  23.210  1.00  0.00     0.261 C 
BRANCH   5   6
ATOM      6  O   UNL A   1      32.775  22.832  22.131  1.00  0.00    -0.458 OA
BRANCH   6   7
ATOM      7  C   UNL A   1      32.702  24.081  21.598  1.00  0.00     0.358 C 
ATOM      8  O   UNL A   1      33.379  24.479  20.659  1.00  0.00    -0.244 OA
BRANCH   7   9
ATOM      9  C   UNL A   1      31.640  24.835  22.269  1.00  0.00     0.171 A 
ATOM     10  N   UNL A   1      30.432  26.456  22.948  1.00  0.00    -0.231 N 
ATOM     11  N   UNL A   1      31.183  26.040  21.891  1.00  0.00    -0.160 NA
ATOM     12  C   UNL A   1      30.427  25.524  23.962  1.00  0.00     0.085 A 
ATOM     13  C   UNL A   1      30.904  24.370  23.373  1.00  0.00     0.068 A 
BRANCH  10  14
ATOM     14  C   UNL A   1      29.855  27.733  22.899  1.00  0.00     0.065 A 
ATOM     15  C   UNL A   1      28.795  30.285  23.015  1.00  0.00     0.082 A 
ATOM     16  C   UNL A   1      27.966  29.176  23.230  1.00  0.00     0.024 A 
ATOM     17  C   UNL A   1      30.155  30.124  22.729  1.00  0.00     0.024 A 
ATOM     18  C   UNL A   1      28.492  27.889  23.146  1.00  0.00     0.030 A 
ATOM     19  C   UNL A   1      30.696  28.841  22.705  1.00  0.00     0.030 A 
BRANCH  15  20
ATOM     20  S   UNL A   1      28.151  31.927  23.091  1.00  0.00     0.238 S 
ATOM     21  O   UNL A   1      29.205  32.814  23.510  1.00  0.00    -0.207 OA
ATOM     22  O   UNL A   1      26.856  31.880  23.737  1.00  0.00    -0.207 OA
BRANCH  20  23
ATOM     23  N   UNL A   1      27.846  32.324  21.486  1.00  0.00    -0.225 NA
ATOM     24  H   UNL A   1      28.730  32.402  20.981  1.00  0.00     0.137 HD
ATOM     25  H   UNL A   1      27.352  33.215  21.444  1.00  0.00     0.137 HD
ENDBRANCH  20  23
ENDBRANCH  15  20
ENDBRANCH  10  14
BRANCH  12  26
ATOM     26  C   UNL A   1      30.216  25.653  25.382  1.00  0.00     0.054 A 
ATOM     27  C   UNL A   1      29.957  24.618  26.280  1.00  0.00     0.031 A 
ATOM     28  S   UNL A   1      31.448  26.605  26.206  1.00  0.00    -0.134 S 
ATOM     29  C   UNL A   1      31.255  24.120  26.729  1.00  0.00    -0.007 A 
ATOM     30  C   UNL A   1      32.248  25.090  26.523  1.00  0.00     0.035 A 
ATOM     31  C   UNL A   1      31.661  22.833  27.140  1.00  0.00     0.009 A 
ATOM     32  C   UNL A   1      33.617  24.783  26.536  1.00  0.00     0.019 A 
ATOM     33  C   UNL A   1      33.025  22.509  27.132  1.00  0.00     0.001 A 
ATOM     34  C   UNL A   1      33.982  23.458  26.786  1.00  0.00     0.001 A 
ENDBRANCH  12  26
ENDBRANCH   7   9
ENDBRANCH   6   7
ENDBRANCH   5   6
ENDBRANCH   4   5
ENDBRANCH   3   4
ENDBRANCH   2   3
ENDBRANCH   1   2
BRANCH   1  35
ATOM     35  O   UNL A   1      37.113  21.866  25.705  1.00  0.00    -0.377 OA
BRANCH  35  36
ATOM     36  C   UNL A   1      38.456  21.486  25.997  1.00  0.00     0.188 C 
BRANCH  36  37
ATOM     37  C   UNL A   1      39.638  22.503  26.032  1.00  0.00     0.188 C 
BRANCH  37  38
ATOM     38  O   UNL A   1      40.889  21.981  26.447  1.00  0.00    -0.376 OA
BRANCH  38  39
ATOM     39  C   UNL A   1      41.698  22.547  27.458  1.00  0.00     0.202 C 
BRANCH  39  40
ATOM     40  C   UNL A   1      41.161  23.800  28.145  1.00  0.00     0.261 C 
BRANCH  40  41
ATOM     41  O   UNL A   1      41.900  24.955  27.803  1.00  0.00    -0.460 OA
BRANCH  41  42
ATOM     42  C   UNL A   1      41.539  25.504  26.633  1.00  0.00     0.338 C 
ATOM     43  O   UNL A   1      42.000  25.260  25.525  1.00  0.00    -0.246 OA
BRANCH  42  44
ATOM     44  C   UNL A   1      40.529  26.527  26.902  1.00  0.00     0.060 A 
ATOM     45  C   UNL A   1      40.891  27.816  26.521  1.00  0.00     0.016 A 
ATOM     46  C   UNL A   1      39.571  26.257  27.894  1.00  0.00     0.016 A 
ATOM     47  C   UNL A   1      40.640  28.806  27.427  1.00  0.00     0.010 A 
ATOM     48  C   UNL A   1      39.324  27.245  28.799  1.00  0.00     0.010 A 
ATOM     49  C   UNL A   1      40.000  28.444  28.615  1.00  0.00    -0.014 A 
BRANCH  49  50
ATOM     50  C   UNL A   1      40.153  29.330  29.734  1.00  0.00     0.031 A 
ATOM     51  C   UNL A   1      38.978  30.179  29.947  1.00  0.00     0.074 A 
ATOM     52  C   UNL A   1      41.248  29.277  30.512  1.00  0.00     0.049 A 
ATOM     53  N   UNL A   1      38.877  31.446  29.735  1.00  0.00    -0.248 NA
ATOM     54  C   UNL A   1      37.707  29.495  30.225  1.00  0.00     0.031 C 
ATOM     55  C   UNL A   1      42.326  28.282  30.534  1.00  0.00     0.029 A 
ATOM     56  N   UNL A   1      41.549  30.081  31.560  1.00  0.00    -0.354 N 
ATOM     57  C   UNL A   1      37.568  31.756  30.069  1.00  0.00     0.074 A 
ATOM     58  C   UNL A   1      36.850  30.511  30.140  1.00  0.00     0.031 C 
ATOM     59  C   UNL A   1      43.012  28.403  31.694  1.00  0.00     0.029 A 
ATOM     60  C   UNL A   1      42.501  29.550  32.421  1.00  0.00     0.049 A 
ATOM     61  H   UNL A   1      41.131  30.961  31.699  1.00  0.00     0.167 HD
ATOM     62  C   UNL A   1      37.238  32.982  30.548  1.00  0.00     0.037 A 
ATOM     63  C   UNL A   1      42.682  29.984  33.693  1.00  0.00     0.037 A 
ATOM     64  C   UNL A   1      38.254  33.963  30.265  1.00  0.00     0.049 A 
ATOM     65  C   UNL A   1      42.091  31.356  33.769  1.00  0.00     0.074 A 
ATOM     66  C   UNL A   1      38.839  34.433  29.103  1.00  0.00     0.029 A 
ATOM     67  N   UNL A   1      39.108  34.322  31.281  1.00  0.00    -0.354 N 
ATOM     68  N   UNL A   1      42.582  32.389  33.134  1.00  0.00    -0.248 NA
ATOM     69  C   UNL A   1      40.679  31.462  34.124  1.00  0.00     0.031 C 
ATOM     70  C   UNL A   1      40.219  34.592  29.423  1.00  0.00     0.029 A 
ATOM     71  C   UNL A   1      40.381  34.264  30.769  1.00  0.00     0.049 A 
ATOM     72  H   UNL A   1      38.856  34.572  32.199  1.00  0.00     0.167 HD
ATOM     73  C   UNL A   1      41.475  33.084  32.660  1.00  0.00     0.074 A 
ATOM     74  C   UNL A   1      40.329  32.493  33.349  1.00  0.00     0.031 C 
ATOM     75  C   UNL A   1      41.537  33.865  31.539  1.00  0.00     0.037 A 
BRANCH  62  76
ATOM     76  C   UNL A   1      36.181  33.176  31.593  1.00  0.00     0.057 A 
ATOM     77  C   UNL A   1      34.990  33.829  31.251  1.00  0.00     0.134 A 
ATOM     78  C   UNL A   1      36.395  32.982  32.976  1.00  0.00     0.134 A 
ATOM     79  F   UNL A   1      34.699  34.098  29.970  1.00  0.00    -0.206 F 
ATOM     80  C   UNL A   1      34.096  34.296  32.220  1.00  0.00     0.040 A 
ATOM     81  C   UNL A   1      35.482  33.387  33.947  1.00  0.00     0.040 A 
ATOM     82  F   UNL A   1      37.539  32.487  33.465  1.00  0.00    -0.206 F 
ATOM     83  C   UNL A   1      34.341  34.075  33.572  1.00  0.00     0.006 A 
ENDBRANCH  62  76
BRANCH  63  84
ATOM     84  C   UNL A   1      42.935  29.140  34.885  1.00  0.00     0.057 A 
ATOM     85  C   UNL A   1      42.055  28.111  35.243  1.00  0.00     0.134 A 
ATOM     86  C   UNL A   1      44.169  29.159  35.565  1.00  0.00     0.134 A 
ATOM     87  F   UNL A   1      40.877  27.977  34.619  1.00  0.00    -0.206 F 
ATOM     88  C   UNL A   1      42.386  27.155  36.215  1.00  0.00     0.040 A 
ATOM     89  C   UNL A   1      44.505  28.217  36.542  1.00  0.00     0.040 A 
ATOM     90  F   UNL A   1      45.130  30.038  35.246  1.00  0.00    -0.206 F 
ATOM     91  C   UNL A   1      43.616  27.203  36.863  1.00  0.00     0.006 A 
ENDBRANCH  63  84
BRANCH  75  92
ATOM     92  C   UNL A   1      42.882  34.103  30.909  1.00  0.00     0.057 A 
ATOM     93  C   UNL A   1      43.434  33.271  29.921  1.00  0.00     0.134 A 
ATOM     94  C   UNL A   1      43.551  35.304  31.164  1.00  0.00     0.134 A 
ATOM     95  F   UNL A   1      42.805  32.158  29.527  1.00  0.00    -0.206 F 
ATOM     96  C   UNL A   1      44.618  33.599  29.252  1.00  0.00     0.040 A 
ATOM     97  C   UNL A   1      44.718  35.659  30.480  1.00  0.00     0.040 A 
ATOM     98  F   UNL A   1      43.050  36.183  32.046  1.00  0.00    -0.206 F 
ATOM     99  C   UNL A   1      45.261  34.801  29.527  1.00  0.00     0.006 A 
ENDBRANCH  75  92
ENDBRANCH  49  50
ENDBRANCH  42  44
ENDBRANCH  41  42
ENDBRANCH  40  41
ENDBRANCH  39  40
ENDBRANCH  38  39
ENDBRANCH  37  38
ENDBRANCH  36  37
ENDBRANCH  35  36
ENDBRANCH   1  35
TORSDOF 24
ENDMDL
