MODEL 1
REMARK VINA RESULT:      -9.7      0.000      0.000
REMARK SMILES Cc1occc1C(=O)N[C@@H](C)CC(=O)OCCOCCOCCOCCOC(=O)c1ccc(-c2c3nc(c(-c4c(F)cccc4F)c4ccc([nH]4)c(-c4c(F)cccc4F)c4nc(c(-c5c(F)cccc5F)c5ccc2[nH]5)C=C4)C=C3)cc1
REMARK SMILES IDX 20 1 19 2 18 3 17 4 16 5 15 6 13 7 14 8 12 9 10 10 11 11
REMARK SMILES IDX 9 12 7 13 8 14 6 16 1 17 2 18 3 19 4 20 5 21 21 22 22 23
REMARK SMILES IDX 23 24 24 25 25 26 26 27 27 28 28 29 29 30 30 31 31 32 83 33
REMARK SMILES IDX 32 34 82 35 33 36 34 37 35 38 76 39 36 40 81 41 75 42 77 43
REMARK SMILES IDX 37 44 80 45 74 46 73 47 38 49 64 50 47 51 63 52 48 53 51 54
REMARK SMILES IDX 62 55 78 56 49 57 50 58 61 60 79 61 52 62 39 63 40 64 45 65
REMARK SMILES IDX 41 66 42 67 44 68 46 69 43 70 65 71 66 72 71 73 67 74 68 75
REMARK SMILES IDX 70 76 72 77 69 78 53 79 54 80 59 81 55 82 56 83 58 84 60 85
REMARK SMILES IDX 57 86
REMARK H PARENT 9 15 77 48 51 59
REMARK Flexibility Score: inf
ROOT
ATOM      1  C   UNL A   1      41.140  21.324  26.012  1.00  0.00     0.188 C 
ENDROOT
BRANCH   1   2
ATOM      2  C   UNL A   1      40.046  21.821  26.958  1.00  0.00     0.188 C 
BRANCH   2   3
ATOM      3  O   UNL A   1      38.774  22.242  26.483  1.00  0.00    -0.376 OA
BRANCH   3   4
ATOM      4  C   UNL A   1      38.197  21.630  25.343  1.00  0.00     0.202 C 
BRANCH   4   5
ATOM      5  C   UNL A   1      36.816  22.145  24.904  1.00  0.00     0.261 C 
BRANCH   5   6
ATOM      6  O   UNL A   1      36.568  23.565  24.989  1.00  0.00    -0.463 OA
BRANCH   6   7
ATOM      7  C   UNL A   1      35.455  24.022  24.363  1.00  0.00     0.307 C 
ATOM      8  O   UNL A   1      35.112  23.693  23.232  1.00  0.00    -0.252 OA
BRANCH   7   9
ATOM      9  C   UNL A   1      34.724  25.115  25.126  1.00  0.00     0.147 C 
BRANCH   9  10
ATOM     10  C   UNL A   1      33.276  25.490  24.755  1.00  0.00     0.090 C 
ATOM     11  C   UNL A   1      33.199  27.005  24.534  1.00  0.00     0.031 C 
BRANCH  10  12
ATOM     12  N   UNL A   1      32.317  25.132  25.786  1.00  0.00    -0.349 N 
ATOM     13  C   UNL A   1      31.845  23.966  26.322  1.00  0.00     0.255 C 
ATOM     14  O   UNL A   1      30.931  24.132  27.140  1.00  0.00    -0.269 OA
ATOM     15  H   UNL A   1      31.904  25.925  26.200  1.00  0.00     0.164 HD
BRANCH  13  16
ATOM     16  C   UNL A   1      32.303  22.598  26.042  1.00  0.00     0.080 A 
ATOM     17  C   UNL A   1      34.305  21.682  27.590  1.00  0.00     0.088 C 
ATOM     18  C   UNL A   1      33.259  21.718  26.547  1.00  0.00     0.113 A 
ATOM     19  O   UNL A   1      33.194  20.517  25.887  1.00  0.00    -0.469 OA
ATOM     20  C   UNL A   1      32.242  20.602  24.941  1.00  0.00     0.196 A 
ATOM     21  C   UNL A   1      31.666  21.839  24.985  1.00  0.00     0.056 A 
ENDBRANCH  13  16
ENDBRANCH  10  12
ENDBRANCH   9  10
ENDBRANCH   7   9
ENDBRANCH   6   7
ENDBRANCH   5   6
ENDBRANCH   4   5
ENDBRANCH   3   4
ENDBRANCH   2   3
ENDBRANCH   1   2
BRANCH   1  22
ATOM     22  O   UNL A   1      42.159  20.543  26.590  1.00  0.00    -0.377 OA
BRANCH  22  23
ATOM     23  C   UNL A   1      42.442  19.336  25.914  1.00  0.00     0.188 C 
BRANCH  23  24
ATOM     24  C   UNL A   1      43.837  19.276  25.280  1.00  0.00     0.188 C 
BRANCH  24  25
ATOM     25  O   UNL A   1      44.700  20.396  25.412  1.00  0.00    -0.376 OA
BRANCH  25  26
ATOM     26  C   UNL A   1      45.114  21.177  24.300  1.00  0.00     0.202 C 
BRANCH  26  27
ATOM     27  C   UNL A   1      44.384  22.453  23.861  1.00  0.00     0.261 C 
BRANCH  27  28
ATOM     28  O   UNL A   1      43.827  23.226  24.932  1.00  0.00    -0.460 OA
BRANCH  28  29
ATOM     29  C   UNL A   1      44.401  24.428  25.143  1.00  0.00     0.338 C 
ATOM     30  O   UNL A   1      45.430  24.855  24.630  1.00  0.00    -0.246 OA
BRANCH  29  31
ATOM     31  C   UNL A   1      43.518  25.282  25.955  1.00  0.00     0.060 A 
ATOM     32  C   UNL A   1      43.901  26.615  26.148  1.00  0.00     0.016 A 
ATOM     33  C   UNL A   1      42.386  24.773  26.593  1.00  0.00     0.016 A 
ATOM     34  C   UNL A   1      43.185  27.430  27.021  1.00  0.00     0.010 A 
ATOM     35  C   UNL A   1      41.674  25.588  27.482  1.00  0.00     0.010 A 
ATOM     36  C   UNL A   1      42.102  26.906  27.736  1.00  0.00    -0.014 A 
BRANCH  36  37
ATOM     37  C   UNL A   1      41.582  27.667  28.901  1.00  0.00     0.031 A 
ATOM     38  C   UNL A   1      42.318  27.564  30.211  1.00  0.00     0.074 A 
ATOM     39  C   UNL A   1      40.531  28.498  28.785  1.00  0.00     0.049 A 
ATOM     40  N   UNL A   1      42.074  28.156  31.354  1.00  0.00    -0.248 NA
ATOM     41  C   UNL A   1      43.491  26.676  30.235  1.00  0.00     0.031 C 
ATOM     42  C   UNL A   1      39.765  28.729  27.564  1.00  0.00     0.029 A 
ATOM     43  N   UNL A   1      39.936  29.310  29.718  1.00  0.00    -0.354 N 
ATOM     44  C   UNL A   1      43.058  27.710  32.226  1.00  0.00     0.074 A 
ATOM     45  C   UNL A   1      43.877  26.767  31.497  1.00  0.00     0.031 C 
ATOM     46  C   UNL A   1      38.799  29.628  27.821  1.00  0.00     0.029 A 
ATOM     47  C   UNL A   1      38.861  30.013  29.231  1.00  0.00     0.049 A 
ATOM     48  H   UNL A   1      40.249  29.383  30.649  1.00  0.00     0.167 HD
ATOM     49  C   UNL A   1      43.276  28.066  33.516  1.00  0.00     0.037 A 
ATOM     50  C   UNL A   1      38.017  30.857  29.858  1.00  0.00     0.037 A 
ATOM     51  C   UNL A   1      42.461  29.000  34.246  1.00  0.00     0.049 A 
ATOM     52  C   UNL A   1      38.220  31.163  31.320  1.00  0.00     0.074 A 
ATOM     53  C   UNL A   1      42.604  29.429  35.554  1.00  0.00     0.029 A 
ATOM     54  N   UNL A   1      41.345  29.644  33.733  1.00  0.00    -0.354 N 
ATOM     55  N   UNL A   1      39.168  30.755  32.130  1.00  0.00    -0.248 NA
ATOM     56  C   UNL A   1      37.234  32.051  31.954  1.00  0.00     0.031 C 
ATOM     57  C   UNL A   1      41.541  30.288  35.851  1.00  0.00     0.029 A 
ATOM     58  C   UNL A   1      40.772  30.444  34.709  1.00  0.00     0.049 A 
ATOM     59  H   UNL A   1      41.011  29.548  32.813  1.00  0.00     0.167 HD
ATOM     60  C   UNL A   1      38.912  31.363  33.355  1.00  0.00     0.074 A 
ATOM     61  C   UNL A   1      37.728  32.176  33.178  1.00  0.00     0.031 C 
ATOM     62  C   UNL A   1      39.598  31.258  34.520  1.00  0.00     0.037 A 
BRANCH  49  63
ATOM     63  C   UNL A   1      44.427  27.412  34.225  1.00  0.00     0.057 A 
ATOM     64  C   UNL A   1      45.717  27.961  34.208  1.00  0.00     0.134 A 
ATOM     65  C   UNL A   1      44.240  26.227  34.946  1.00  0.00     0.134 A 
ATOM     66  F   UNL A   1      45.969  29.086  33.523  1.00  0.00    -0.206 F 
ATOM     67  C   UNL A   1      46.784  27.337  34.858  1.00  0.00     0.040 A 
ATOM     68  C   UNL A   1      45.292  25.610  35.625  1.00  0.00     0.040 A 
ATOM     69  F   UNL A   1      43.030  25.650  35.008  1.00  0.00    -0.206 F 
ATOM     70  C   UNL A   1      46.571  26.161  35.574  1.00  0.00     0.006 A 
ENDBRANCH  49  63
BRANCH  50  71
ATOM     71  C   UNL A   1      36.889  31.474  29.113  1.00  0.00     0.057 A 
ATOM     72  C   UNL A   1      36.946  32.805  28.680  1.00  0.00     0.134 A 
ATOM     73  C   UNL A   1      35.712  30.763  28.850  1.00  0.00     0.134 A 
ATOM     74  F   UNL A   1      38.035  33.548  28.926  1.00  0.00    -0.206 F 
ATOM     75  C   UNL A   1      35.868  33.410  28.032  1.00  0.00     0.040 A 
ATOM     76  C   UNL A   1      34.638  31.346  28.177  1.00  0.00     0.040 A 
ATOM     77  F   UNL A   1      35.590  29.486  29.242  1.00  0.00    -0.206 F 
ATOM     78  C   UNL A   1      34.711  32.678  27.773  1.00  0.00     0.006 A 
ENDBRANCH  50  71
BRANCH  62  79
ATOM     79  C   UNL A   1      39.116  32.075  35.686  1.00  0.00     0.057 A 
ATOM     80  C   UNL A   1      39.485  33.415  35.860  1.00  0.00     0.134 A 
ATOM     81  C   UNL A   1      38.233  31.524  36.625  1.00  0.00     0.134 A 
ATOM     82  F   UNL A   1      40.335  34.002  35.004  1.00  0.00    -0.206 F 
ATOM     83  C   UNL A   1      39.014  34.168  36.937  1.00  0.00     0.040 A 
ATOM     84  C   UNL A   1      37.731  32.276  37.688  1.00  0.00     0.040 A 
ATOM     85  F   UNL A   1      37.827  30.250  36.513  1.00  0.00    -0.206 F 
ATOM     86  C   UNL A   1      38.128  33.601  37.851  1.00  0.00     0.006 A 
ENDBRANCH  62  79
ENDBRANCH  36  37
ENDBRANCH  29  31
ENDBRANCH  28  29
ENDBRANCH  27  28
ENDBRANCH  26  27
ENDBRANCH  25  26
ENDBRANCH  24  25
ENDBRANCH  23  24
ENDBRANCH  22  23
ENDBRANCH   1  22
TORSDOF 23
ENDMDL
MODEL 2
REMARK VINA RESULT:      -9.6      1.276      2.641
REMARK SMILES Cc1occc1C(=O)N[C@@H](C)CC(=O)OCCOCCOCCOCCOC(=O)c1ccc(-c2c3nc(c(-c4c(F)cccc4F)c4ccc([nH]4)c(-c4c(F)cccc4F)c4nc(c(-c5c(F)cccc5F)c5ccc2[nH]5)C=C4)C=C3)cc1
REMARK SMILES IDX 20 1 19 2 18 3 17 4 16 5 15 6 13 7 14 8 12 9 10 10 11 11
REMARK SMILES IDX 9 12 7 13 8 14 6 16 1 17 2 18 3 19 4 20 5 21 21 22 22 23
REMARK SMILES IDX 23 24 24 25 25 26 26 27 27 28 28 29 29 30 30 31 31 32 83 33
REMARK SMILES IDX 32 34 82 35 33 36 34 37 35 38 76 39 36 40 81 41 75 42 77 43
REMARK SMILES IDX 37 44 80 45 74 46 73 47 38 49 64 50 47 51 63 52 48 53 51 54
REMARK SMILES IDX 62 55 78 56 49 57 50 58 61 60 79 61 52 62 39 63 40 64 45 65
REMARK SMILES IDX 41 66 42 67 44 68 46 69 43 70 65 71 66 72 71 73 67 74 68 75
REMARK SMILES IDX 70 76 72 77 69 78 53 79 54 80 59 81 55 82 56 83 58 84 60 85
REMARK SMILES IDX 57 86
REMARK H PARENT 9 15 77 48 51 59
REMARK Flexibility Score: inf
ROOT
ATOM      1  C   UNL A   1      38.504  22.073  26.041  1.00  0.00     0.188 C 
ENDROOT
BRANCH   1   2
ATOM      2  C   UNL A   1      37.563  21.588  24.937  1.00  0.00     0.188 C 
BRANCH   2   3
ATOM      3  O   UNL A   1      36.180  21.358  25.173  1.00  0.00    -0.376 OA
BRANCH   3   4
ATOM      4  C   UNL A   1      35.373  22.374  25.741  1.00  0.00     0.202 C 
BRANCH   4   5
ATOM      5  C   UNL A   1      34.120  21.917  26.507  1.00  0.00     0.261 C 
BRANCH   5   6
ATOM      6  O   UNL A   1      33.121  22.912  26.819  1.00  0.00    -0.463 OA
BRANCH   6   7
ATOM      7  C   UNL A   1      32.689  23.678  25.786  1.00  0.00     0.307 C 
ATOM      8  O   UNL A   1      32.376  23.241  24.684  1.00  0.00    -0.252 OA
BRANCH   7   9
ATOM      9  C   UNL A   1      32.769  25.173  26.053  1.00  0.00     0.147 C 
BRANCH   9  10
ATOM     10  C   UNL A   1      33.944  26.001  25.496  1.00  0.00     0.090 C 
ATOM     11  C   UNL A   1      33.731  27.473  25.870  1.00  0.00     0.031 C 
BRANCH  10  12
ATOM     12  N   UNL A   1      34.064  25.913  24.051  1.00  0.00    -0.349 N 
ATOM     13  C   UNL A   1      33.298  26.284  22.980  1.00  0.00     0.255 C 
ATOM     14  O   UNL A   1      33.758  25.914  21.892  1.00  0.00    -0.269 OA
ATOM     15  H   UNL A   1      34.903  25.478  23.774  1.00  0.00     0.164 HD
BRANCH  13  16
ATOM     16  C   UNL A   1      32.046  27.052  22.995  1.00  0.00     0.080 A 
ATOM     17  C   UNL A   1      29.866  25.744  23.877  1.00  0.00     0.088 C 
ATOM     18  C   UNL A   1      30.717  26.832  23.351  1.00  0.00     0.113 A 
ATOM     19  O   UNL A   1      29.983  27.978  23.179  1.00  0.00    -0.469 OA
ATOM     20  C   UNL A   1      30.793  28.933  22.687  1.00  0.00     0.196 A 
ATOM     21  C   UNL A   1      32.056  28.433  22.554  1.00  0.00     0.056 A 
ENDBRANCH  13  16
ENDBRANCH  10  12
ENDBRANCH   9  10
ENDBRANCH   7   9
ENDBRANCH   6   7
ENDBRANCH   5   6
ENDBRANCH   4   5
ENDBRANCH   3   4
ENDBRANCH   2   3
ENDBRANCH   1   2
BRANCH   1  22
ATOM     22  O   UNL A   1      39.855  21.699  25.919  1.00  0.00    -0.377 OA
BRANCH  22  23
ATOM     23  C   UNL A   1      40.544  21.543  27.142  1.00  0.00     0.188 C 
BRANCH  23  24
ATOM     24  C   UNL A   1      41.919  20.876  27.015  1.00  0.00     0.188 C 
BRANCH  24  25
ATOM     25  O   UNL A   1      42.509  20.759  25.728  1.00  0.00    -0.376 OA
BRANCH  25  26
ATOM     26  C   UNL A   1      43.880  21.043  25.488  1.00  0.00     0.202 C 
BRANCH  26  27
ATOM     27  C   UNL A   1      44.346  22.121  24.501  1.00  0.00     0.261 C 
BRANCH  27  28
ATOM     28  O   UNL A   1      43.590  23.339  24.540  1.00  0.00    -0.460 OA
BRANCH  28  29
ATOM     29  C   UNL A   1      44.259  24.427  24.975  1.00  0.00     0.338 C 
ATOM     30  O   UNL A   1      45.377  24.793  24.627  1.00  0.00    -0.246 OA
BRANCH  29  31
ATOM     31  C   UNL A   1      43.386  25.265  25.813  1.00  0.00     0.060 A 
ATOM     32  C   UNL A   1      43.743  26.608  25.983  1.00  0.00     0.016 A 
ATOM     33  C   UNL A   1      42.291  24.733  26.496  1.00  0.00     0.016 A 
ATOM     34  C   UNL A   1      43.039  27.412  26.876  1.00  0.00     0.010 A 
ATOM     35  C   UNL A   1      41.592  25.537  27.405  1.00  0.00     0.010 A 
ATOM     36  C   UNL A   1      41.996  26.867  27.634  1.00  0.00    -0.014 A 
BRANCH  36  37
ATOM     37  C   UNL A   1      41.501  27.623  28.812  1.00  0.00     0.031 A 
ATOM     38  C   UNL A   1      42.261  27.512  30.108  1.00  0.00     0.074 A 
ATOM     39  C   UNL A   1      40.451  28.459  28.721  1.00  0.00     0.049 A 
ATOM     40  N   UNL A   1      42.041  28.099  31.258  1.00  0.00    -0.248 NA
ATOM     41  C   UNL A   1      43.432  26.620  30.105  1.00  0.00     0.031 C 
ATOM     42  C   UNL A   1      39.662  28.698  27.516  1.00  0.00     0.029 A 
ATOM     43  N   UNL A   1      39.876  29.268  29.669  1.00  0.00    -0.354 N 
ATOM     44  C   UNL A   1      43.040  27.646  32.110  1.00  0.00     0.074 A 
ATOM     45  C   UNL A   1      43.842  26.704  31.360  1.00  0.00     0.031 C 
ATOM     46  C   UNL A   1      38.704  29.599  27.795  1.00  0.00     0.029 A 
ATOM     47  C   UNL A   1      38.794  29.977  29.206  1.00  0.00     0.049 A 
ATOM     48  H   UNL A   1      40.207  29.335  30.594  1.00  0.00     0.167 HD
ATOM     49  C   UNL A   1      43.283  27.995  33.396  1.00  0.00     0.037 A 
ATOM     50  C   UNL A   1      37.965  30.820  29.852  1.00  0.00     0.037 A 
ATOM     51  C   UNL A   1      42.486  28.928  34.147  1.00  0.00     0.049 A 
ATOM     52  C   UNL A   1      38.197  31.118  31.312  1.00  0.00     0.074 A 
ATOM     53  C   UNL A   1      42.654  29.350  35.454  1.00  0.00     0.029 A 
ATOM     54  N   UNL A   1      41.362  29.578  33.658  1.00  0.00    -0.354 N 
ATOM     55  N   UNL A   1      39.158  30.703  32.102  1.00  0.00    -0.248 NA
ATOM     56  C   UNL A   1      37.226  32.006  31.969  1.00  0.00     0.031 C 
ATOM     57  C   UNL A   1      41.600  30.210  35.775  1.00  0.00     0.029 A 
ATOM     58  C   UNL A   1      40.810  30.374  34.649  1.00  0.00     0.049 A 
ATOM     59  H   UNL A   1      41.010  29.487  32.744  1.00  0.00     0.167 HD
ATOM     60  C   UNL A   1      38.928  31.306  33.334  1.00  0.00     0.074 A 
ATOM     61  C   UNL A   1      37.743  32.123  33.184  1.00  0.00     0.031 C 
ATOM     62  C   UNL A   1      39.635  31.193  34.485  1.00  0.00     0.037 A 
BRANCH  49  63
ATOM     63  C   UNL A   1      44.446  27.334  34.080  1.00  0.00     0.057 A 
ATOM     64  C   UNL A   1      45.729  27.899  34.075  1.00  0.00     0.134 A 
ATOM     65  C   UNL A   1      44.276  26.125  34.765  1.00  0.00     0.134 A 
ATOM     66  F   UNL A   1      45.964  29.048  33.423  1.00  0.00    -0.206 F 
ATOM     67  C   UNL A   1      46.807  27.268  34.701  1.00  0.00     0.040 A 
ATOM     68  C   UNL A   1      45.339  25.501  35.421  1.00  0.00     0.040 A 
ATOM     69  F   UNL A   1      43.074  25.532  34.815  1.00  0.00    -0.206 F 
ATOM     70  C   UNL A   1      46.611  26.069  35.381  1.00  0.00     0.006 A 
ENDBRANCH  49  63
BRANCH  50  71
ATOM     71  C   UNL A   1      36.825  31.444  29.132  1.00  0.00     0.057 A 
ATOM     72  C   UNL A   1      35.682  30.707  28.802  1.00  0.00     0.134 A 
ATOM     73  C   UNL A   1      36.868  32.782  28.720  1.00  0.00     0.134 A 
ATOM     74  F   UNL A   1      35.592  29.413  29.144  1.00  0.00    -0.206 F 
ATOM     75  C   UNL A   1      34.632  31.271  28.074  1.00  0.00     0.040 A 
ATOM     76  C   UNL A   1      35.813  33.367  28.018  1.00  0.00     0.040 A 
ATOM     77  F   UNL A   1      37.937  33.543  28.999  1.00  0.00    -0.206 F 
ATOM     78  C   UNL A   1      34.694  32.607  27.685  1.00  0.00     0.006 A 
ENDBRANCH  50  71
BRANCH  62  79
ATOM     79  C   UNL A   1      39.178  32.006  35.665  1.00  0.00     0.057 A 
ATOM     80  C   UNL A   1      39.566  33.340  35.845  1.00  0.00     0.134 A 
ATOM     81  C   UNL A   1      38.300  31.457  36.610  1.00  0.00     0.134 A 
ATOM     82  F   UNL A   1      40.412  33.924  34.984  1.00  0.00    -0.206 F 
ATOM     83  C   UNL A   1      39.118  34.089  36.935  1.00  0.00     0.040 A 
ATOM     84  C   UNL A   1      37.821  32.206  37.686  1.00  0.00     0.040 A 
ATOM     85  F   UNL A   1      37.877  30.190  36.493  1.00  0.00    -0.206 F 
ATOM     86  C   UNL A   1      38.236  33.525  37.855  1.00  0.00     0.006 A 
ENDBRANCH  62  79
ENDBRANCH  36  37
ENDBRANCH  29  31
ENDBRANCH  28  29
ENDBRANCH  27  28
ENDBRANCH  26  27
ENDBRANCH  25  26
ENDBRANCH  24  25
ENDBRANCH  23  24
ENDBRANCH  22  23
ENDBRANCH   1  22
TORSDOF 23
ENDMDL
MODEL 3
REMARK VINA RESULT:      -9.5      0.956      2.115
REMARK SMILES Cc1occc1C(=O)N[C@@H](C)CC(=O)OCCOCCOCCOCCOC(=O)c1ccc(-c2c3nc(c(-c4c(F)cccc4F)c4ccc([nH]4)c(-c4c(F)cccc4F)c4nc(c(-c5c(F)cccc5F)c5ccc2[nH]5)C=C4)C=C3)cc1
REMARK SMILES IDX 20 1 19 2 18 3 17 4 16 5 15 6 13 7 14 8 12 9 10 10 11 11
REMARK SMILES IDX 9 12 7 13 8 14 6 16 1 17 2 18 3 19 4 20 5 21 21 22 22 23
REMARK SMILES IDX 23 24 24 25 25 26 26 27 27 28 28 29 29 30 30 31 31 32 83 33
REMARK SMILES IDX 32 34 82 35 33 36 34 37 35 38 76 39 36 40 81 41 75 42 77 43
REMARK SMILES IDX 37 44 80 45 74 46 73 47 38 49 64 50 47 51 63 52 48 53 51 54
REMARK SMILES IDX 62 55 78 56 49 57 50 58 61 60 79 61 52 62 39 63 40 64 45 65
REMARK SMILES IDX 41 66 42 67 44 68 46 69 43 70 65 71 66 72 71 73 67 74 68 75
REMARK SMILES IDX 70 76 72 77 69 78 53 79 54 80 59 81 55 82 56 83 58 84 60 85
REMARK SMILES IDX 57 86
REMARK H PARENT 9 15 77 48 51 59
REMARK Flexibility Score: inf
ROOT
ATOM      1  C   UNL A   1      40.698  21.839  26.373  1.00  0.00     0.188 C 
ENDROOT
BRANCH   1   2
ATOM      2  C   UNL A   1      39.174  21.925  26.480  1.00  0.00     0.188 C 
BRANCH   2   3
ATOM      3  O   UNL A   1      38.339  21.964  25.331  1.00  0.00    -0.376 OA
BRANCH   3   4
ATOM      4  C   UNL A   1      37.390  20.938  25.101  1.00  0.00     0.202 C 
BRANCH   4   5
ATOM      5  C   UNL A   1      35.981  21.379  24.670  1.00  0.00     0.261 C 
BRANCH   5   6
ATOM      6  O   UNL A   1      35.836  22.693  24.089  1.00  0.00    -0.463 OA
BRANCH   6   7
ATOM      7  C   UNL A   1      34.661  23.330  24.323  1.00  0.00     0.307 C 
ATOM      8  O   UNL A   1      34.388  24.452  23.910  1.00  0.00    -0.252 OA
BRANCH   7   9
ATOM      9  C   UNL A   1      33.744  22.593  25.286  1.00  0.00     0.147 C 
BRANCH   9  10
ATOM     10  C   UNL A   1      33.467  23.167  26.689  1.00  0.00     0.090 C 
ATOM     11  C   UNL A   1      34.332  22.417  27.709  1.00  0.00     0.031 C 
BRANCH  10  12
ATOM     12  N   UNL A   1      32.076  23.037  27.090  1.00  0.00    -0.349 N 
ATOM     13  C   UNL A   1      30.892  23.612  26.718  1.00  0.00     0.255 C 
ATOM     14  O   UNL A   1      29.932  23.260  27.415  1.00  0.00    -0.269 OA
ATOM     15  H   UNL A   1      31.957  22.372  27.807  1.00  0.00     0.164 HD
BRANCH  13  16
ATOM     16  C   UNL A   1      30.659  24.553  25.615  1.00  0.00     0.080 A 
ATOM     17  C   UNL A   1      30.959  23.563  23.130  1.00  0.00     0.088 C 
ATOM     18  C   UNL A   1      30.682  24.520  24.221  1.00  0.00     0.113 A 
ATOM     19  O   UNL A   1      30.321  25.742  23.712  1.00  0.00    -0.469 OA
ATOM     20  C   UNL A   1      30.094  26.582  24.737  1.00  0.00     0.196 A 
ATOM     21  C   UNL A   1      30.282  25.920  25.916  1.00  0.00     0.056 A 
ENDBRANCH  13  16
ENDBRANCH  10  12
ENDBRANCH   9  10
ENDBRANCH   7   9
ENDBRANCH   6   7
ENDBRANCH   5   6
ENDBRANCH   4   5
ENDBRANCH   3   4
ENDBRANCH   2   3
ENDBRANCH   1   2
BRANCH   1  22
ATOM     22  O   UNL A   1      41.306  20.725  26.980  1.00  0.00    -0.377 OA
BRANCH  22  23
ATOM     23  C   UNL A   1      41.654  19.679  26.097  1.00  0.00     0.188 C 
BRANCH  23  24
ATOM     24  C   UNL A   1      43.137  19.643  25.707  1.00  0.00     0.188 C 
BRANCH  24  25
ATOM     25  O   UNL A   1      43.881  20.852  25.730  1.00  0.00    -0.376 OA
BRANCH  25  26
ATOM     26  C   UNL A   1      44.760  21.228  24.679  1.00  0.00     0.202 C 
BRANCH  26  27
ATOM     27  C   UNL A   1      44.655  22.570  23.944  1.00  0.00     0.261 C 
BRANCH  27  28
ATOM     28  O   UNL A   1      43.815  23.541  24.584  1.00  0.00    -0.460 OA
BRANCH  28  29
ATOM     29  C   UNL A   1      44.442  24.645  25.038  1.00  0.00     0.338 C 
ATOM     30  O   UNL A   1      45.552  25.051  24.710  1.00  0.00    -0.246 OA
BRANCH  29  31
ATOM     31  C   UNL A   1      43.530  25.446  25.872  1.00  0.00     0.060 A 
ATOM     32  C   UNL A   1      43.812  26.810  26.017  1.00  0.00     0.016 A 
ATOM     33  C   UNL A   1      42.474  24.864  26.574  1.00  0.00     0.016 A 
ATOM     34  C   UNL A   1      43.072  27.587  26.904  1.00  0.00     0.010 A 
ATOM     35  C   UNL A   1      41.739  25.642  27.477  1.00  0.00     0.010 A 
ATOM     36  C   UNL A   1      42.069  26.996  27.681  1.00  0.00    -0.014 A 
BRANCH  36  37
ATOM     37  C   UNL A   1      41.542  27.742  28.852  1.00  0.00     0.031 A 
ATOM     38  C   UNL A   1      42.277  27.632  30.163  1.00  0.00     0.074 A 
ATOM     39  C   UNL A   1      40.486  28.568  28.743  1.00  0.00     0.049 A 
ATOM     40  N   UNL A   1      42.027  28.211  31.311  1.00  0.00    -0.248 NA
ATOM     41  C   UNL A   1      43.455  26.752  30.180  1.00  0.00     0.031 C 
ATOM     42  C   UNL A   1      39.720  28.806  27.523  1.00  0.00     0.029 A 
ATOM     43  N   UNL A   1      39.884  29.368  29.683  1.00  0.00    -0.354 N 
ATOM     44  C   UNL A   1      43.013  27.764  32.181  1.00  0.00     0.074 A 
ATOM     45  C   UNL A   1      43.839  26.833  31.444  1.00  0.00     0.031 C 
ATOM     46  C   UNL A   1      38.748  29.696  27.786  1.00  0.00     0.029 A 
ATOM     47  C   UNL A   1      38.805  30.068  29.200  1.00  0.00     0.049 A 
ATOM     48  H   UNL A   1      40.195  29.433  30.614  1.00  0.00     0.167 HD
ATOM     49  C   UNL A   1      43.226  28.109  33.474  1.00  0.00     0.037 A 
ATOM     50  C   UNL A   1      37.955  30.900  29.833  1.00  0.00     0.037 A 
ATOM     51  C   UNL A   1      42.404  29.031  34.212  1.00  0.00     0.049 A 
ATOM     52  C   UNL A   1      38.154  31.194  31.299  1.00  0.00     0.074 A 
ATOM     53  C   UNL A   1      42.542  29.449  35.524  1.00  0.00     0.029 A 
ATOM     54  N   UNL A   1      41.285  29.673  33.703  1.00  0.00    -0.354 N 
ATOM     55  N   UNL A   1      39.103  30.784  32.107  1.00  0.00    -0.248 NA
ATOM     56  C   UNL A   1      37.161  32.070  31.939  1.00  0.00     0.031 C 
ATOM     57  C   UNL A   1      41.473  30.298  35.827  1.00  0.00     0.029 A 
ATOM     58  C   UNL A   1      40.705  30.460  34.686  1.00  0.00     0.049 A 
ATOM     59  H   UNL A   1      40.952  29.583  32.781  1.00  0.00     0.167 HD
ATOM     60  C   UNL A   1      38.841  31.379  33.337  1.00  0.00     0.074 A 
ATOM     61  C   UNL A   1      37.653  32.186  33.165  1.00  0.00     0.031 C 
ATOM     62  C   UNL A   1      39.526  31.268  34.502  1.00  0.00     0.037 A 
BRANCH  49  63
ATOM     63  C   UNL A   1      44.380  27.456  34.179  1.00  0.00     0.057 A 
ATOM     64  C   UNL A   1      44.254  26.213  34.814  1.00  0.00     0.134 A 
ATOM     65  C   UNL A   1      45.637  28.071  34.208  1.00  0.00     0.134 A 
ATOM     66  F   UNL A   1      43.074  25.577  34.838  1.00  0.00    -0.206 F 
ATOM     67  C   UNL A   1      45.330  25.622  35.481  1.00  0.00     0.040 A 
ATOM     68  C   UNL A   1      46.728  27.475  34.844  1.00  0.00     0.040 A 
ATOM     69  F   UNL A   1      45.830  29.259  33.615  1.00  0.00    -0.206 F 
ATOM     70  C   UNL A   1      46.573  26.251  35.491  1.00  0.00     0.006 A 
ENDBRANCH  49  63
BRANCH  50  71
ATOM     71  C   UNL A   1      36.824  31.517  29.092  1.00  0.00     0.057 A 
ATOM     72  C   UNL A   1      36.848  32.868  28.724  1.00  0.00     0.134 A 
ATOM     73  C   UNL A   1      35.676  30.784  28.770  1.00  0.00     0.134 A 
ATOM     74  F   UNL A   1      37.907  33.632  29.029  1.00  0.00    -0.206 F 
ATOM     75  C   UNL A   1      35.765  33.470  28.080  1.00  0.00     0.040 A 
ATOM     76  C   UNL A   1      34.599  31.365  28.100  1.00  0.00     0.040 A 
ATOM     77  F   UNL A   1      35.587  29.486  29.100  1.00  0.00    -0.206 F 
ATOM     78  C   UNL A   1      34.639  32.715  27.761  1.00  0.00     0.006 A 
ENDBRANCH  50  71
BRANCH  62  79
ATOM     79  C   UNL A   1      39.037  32.071  35.675  1.00  0.00     0.057 A 
ATOM     80  C   UNL A   1      38.230  31.513  36.675  1.00  0.00     0.134 A 
ATOM     81  C   UNL A   1      39.417  33.411  35.828  1.00  0.00     0.134 A 
ATOM     82  F   UNL A   1      37.821  30.238  36.586  1.00  0.00    -0.206 F 
ATOM     83  C   UNL A   1      37.799  32.265  37.770  1.00  0.00     0.040 A 
ATOM     84  C   UNL A   1      39.018  34.164  36.934  1.00  0.00     0.040 A 
ATOM     85  F   UNL A   1      40.199  34.007  34.915  1.00  0.00    -0.206 F 
ATOM     86  C   UNL A   1      38.200  33.593  37.906  1.00  0.00     0.006 A 
ENDBRANCH  62  79
ENDBRANCH  36  37
ENDBRANCH  29  31
ENDBRANCH  28  29
ENDBRANCH  27  28
ENDBRANCH  26  27
ENDBRANCH  25  26
ENDBRANCH  24  25
ENDBRANCH  23  24
ENDBRANCH  22  23
ENDBRANCH   1  22
TORSDOF 23
ENDMDL
