MODEL 1
REMARK VINA RESULT:      -8.3      0.000      0.000
REMARK SMILES CS(=O)(=O)c1ccc(C2=NN(c3ccc(C(=O)OCCOCCOCCOCCOC(=O)c4ccc(-c5c6nc(c(-c7c(F)cccc7F)c7ccc([nH]7)c(-c7c(F)cccc7F)c7nc(c(-c8c(F)cccc8F)c8ccc5[nH]8)C=C7)C=C6)cc4)cc3)[C@H](c3ccccc3)C2)cc1
REMARK SMILES IDX 23 1 22 2 21 3 20 4 19 5 18 6 16 7 17 8 15 9 12 10 13 11
REMARK SMILES IDX 88 12 14 13 87 14 11 15 9 16 10 17 96 18 89 19 8 20 5 21
REMARK SMILES IDX 6 22 98 23 7 24 97 25 2 26 1 27 3 28 4 29 90 30 91 31 95 32
REMARK SMILES IDX 92 33 94 34 93 35 24 36 25 37 26 38 27 39 28 40 29 41 30 42
REMARK SMILES IDX 31 43 32 44 33 45 34 46 86 47 35 48 85 49 36 50 37 51 38 52
REMARK SMILES IDX 79 53 39 54 84 55 78 56 80 57 40 58 83 59 77 60 76 61 41 63
REMARK SMILES IDX 67 64 50 65 66 66 51 67 54 68 65 69 81 70 52 71 53 72 64 74
REMARK SMILES IDX 82 75 55 76 42 77 43 78 48 79 44 80 45 81 47 82 49 83 46 84
REMARK SMILES IDX 68 85 69 86 74 87 70 88 71 89 73 90 75 91 72 92 56 93 57 94
REMARK SMILES IDX 62 95 58 96 59 97 61 98 63 99 60 100
REMARK H PARENT 80 62 54 73
REMARK Flexibility Score: inf
ROOT
ATOM      1  C   UNL A   1      41.588  21.518  27.694  1.00  0.00     0.188 C 
ENDROOT
BRANCH   1   2
ATOM      2  C   UNL A   1      40.289  21.893  26.953  1.00  0.00     0.188 C 
BRANCH   2   3
ATOM      3  O   UNL A   1      40.295  23.220  26.457  1.00  0.00    -0.376 OA
BRANCH   3   4
ATOM      4  C   UNL A   1      39.200  24.083  26.695  1.00  0.00     0.202 C 
BRANCH   4   5
ATOM      5  C   UNL A   1      39.043  24.879  28.002  1.00  0.00     0.261 C 
BRANCH   5   6
ATOM      6  O   UNL A   1      39.365  26.268  27.957  1.00  0.00    -0.460 OA
BRANCH   6   7
ATOM      7  C   UNL A   1      40.173  26.759  28.919  1.00  0.00     0.338 C 
ATOM      8  O   UNL A   1      41.312  26.403  29.164  1.00  0.00    -0.246 OA
BRANCH   7   9
ATOM      9  C   UNL A   1      39.503  27.940  29.523  1.00  0.00     0.060 A 
ATOM     10  C   UNL A   1      38.331  30.228  30.655  1.00  0.00     0.060 A 
ATOM     11  C   UNL A   1      38.947  30.297  29.399  1.00  0.00     0.029 A 
ATOM     12  C   UNL A   1      38.192  28.976  31.268  1.00  0.00     0.029 A 
ATOM     13  C   UNL A   1      39.538  29.160  28.836  1.00  0.00     0.018 A 
ATOM     14  C   UNL A   1      38.790  27.841  30.723  1.00  0.00     0.018 A 
BRANCH  10  15
ATOM     15  N   UNL A   1      38.010  31.382  31.381  1.00  0.00    -0.257 N 
ATOM     16  C   UNL A   1      38.057  32.408  33.252  1.00  0.00     0.071 C 
ATOM     17  N   UNL A   1      38.810  31.766  32.414  1.00  0.00    -0.176 NA
ATOM     18  C   UNL A   1      36.588  32.432  32.938  1.00  0.00     0.091 C 
ATOM     19  C   UNL A   1      36.574  31.664  31.609  1.00  0.00     0.144 C 
BRANCH  16  20
ATOM     20  C   UNL A   1      38.595  33.126  34.420  1.00  0.00    -0.002 A 
ATOM     21  C   UNL A   1      39.650  34.602  36.537  1.00  0.00     0.067 A 
ATOM     22  C   UNL A   1      40.362  34.510  35.340  1.00  0.00     0.021 A 
ATOM     23  C   UNL A   1      38.417  33.949  36.683  1.00  0.00     0.021 A 
ATOM     24  C   UNL A   1      39.838  33.758  34.286  1.00  0.00     0.011 A 
ATOM     25  C   UNL A   1      37.880  33.220  35.616  1.00  0.00     0.011 A 
BRANCH  21  26
ATOM     26  S   UNL A   1      40.274  35.537  37.915  1.00  0.00     0.175 S 
ATOM     27  C   UNL A   1      39.698  34.735  39.386  1.00  0.00     0.163 C 
ATOM     28  O   UNL A   1      39.630  36.836  37.860  1.00  0.00    -0.224 OA
ATOM     29  O   UNL A   1      41.718  35.413  37.869  1.00  0.00    -0.224 OA
ENDBRANCH  21  26
ENDBRANCH  16  20
BRANCH  19  30
ATOM     30  C   UNL A   1      35.932  32.329  30.394  1.00  0.00    -0.023 A 
ATOM     31  C   UNL A   1      36.284  33.596  29.911  1.00  0.00     0.006 A 
ATOM     32  C   UNL A   1      34.963  31.606  29.667  1.00  0.00     0.006 A 
ATOM     33  C   UNL A   1      35.712  34.103  28.738  1.00  0.00     0.000 A 
ATOM     34  C   UNL A   1      34.435  32.084  28.467  1.00  0.00     0.000 A 
ATOM     35  C   UNL A   1      34.808  33.339  28.003  1.00  0.00     0.000 A 
ENDBRANCH  19  30
ENDBRANCH  10  15
ENDBRANCH   7   9
ENDBRANCH   6   7
ENDBRANCH   5   6
ENDBRANCH   4   5
ENDBRANCH   3   4
ENDBRANCH   2   3
ENDBRANCH   1   2
BRANCH   1  36
ATOM     36  O   UNL A   1      42.569  20.844  26.922  1.00  0.00    -0.377 OA
BRANCH  36  37
ATOM     37  C   UNL A   1      42.207  19.665  26.202  1.00  0.00     0.188 C 
BRANCH  37  38
ATOM     38  C   UNL A   1      43.208  18.857  25.336  1.00  0.00     0.188 C 
BRANCH  38  39
ATOM     39  O   UNL A   1      44.577  19.158  25.546  1.00  0.00    -0.376 OA
BRANCH  39  40
ATOM     40  C   UNL A   1      45.186  20.142  24.731  1.00  0.00     0.202 C 
BRANCH  40  41
ATOM     41  C   UNL A   1      45.551  21.469  25.411  1.00  0.00     0.261 C 
BRANCH  41  42
ATOM     42  O   UNL A   1      45.037  22.650  24.779  1.00  0.00    -0.460 OA
BRANCH  42  43
ATOM     43  C   UNL A   1      45.889  23.685  24.649  1.00  0.00     0.338 C 
ATOM     44  O   UNL A   1      46.761  23.821  23.800  1.00  0.00    -0.246 OA
BRANCH  43  45
ATOM     45  C   UNL A   1      45.490  24.740  25.598  1.00  0.00     0.060 A 
ATOM     46  C   UNL A   1      46.487  25.528  26.185  1.00  0.00     0.016 A 
ATOM     47  C   UNL A   1      44.146  24.932  25.928  1.00  0.00     0.016 A 
ATOM     48  C   UNL A   1      46.149  26.465  27.157  1.00  0.00     0.010 A 
ATOM     49  C   UNL A   1      43.810  25.862  26.917  1.00  0.00     0.010 A 
ATOM     50  C   UNL A   1      44.817  26.593  27.573  1.00  0.00    -0.014 A 
BRANCH  50  51
ATOM     51  C   UNL A   1      44.532  27.302  28.845  1.00  0.00     0.031 A 
ATOM     52  C   UNL A   1      44.600  26.512  30.127  1.00  0.00     0.074 A 
ATOM     53  C   UNL A   1      44.307  28.627  28.877  1.00  0.00     0.049 A 
ATOM     54  N   UNL A   1      44.417  26.908  31.360  1.00  0.00    -0.248 NA
ATOM     55  C   UNL A   1      44.927  25.081  29.998  1.00  0.00     0.031 C 
ATOM     56  C   UNL A   1      44.262  29.510  27.713  1.00  0.00     0.029 A 
ATOM     57  N   UNL A   1      44.079  29.463  29.942  1.00  0.00    -0.354 N 
ATOM     58  C   UNL A   1      44.618  25.782  32.150  1.00  0.00     0.074 A 
ATOM     59  C   UNL A   1      44.883  24.676  31.258  1.00  0.00     0.031 C 
ATOM     60  C   UNL A   1      44.015  30.765  28.127  1.00  0.00     0.029 A 
ATOM     61  C   UNL A   1      43.859  30.770  29.580  1.00  0.00     0.049 A 
ATOM     62  H   UNL A   1      44.073  29.155  30.877  1.00  0.00     0.167 HD
ATOM     63  C   UNL A   1      44.610  25.681  33.499  1.00  0.00     0.037 A 
ATOM     64  C   UNL A   1      43.550  31.841  30.340  1.00  0.00     0.037 A 
ATOM     65  C   UNL A   1      44.341  26.778  34.390  1.00  0.00     0.049 A 
ATOM     66  C   UNL A   1      43.448  31.677  31.837  1.00  0.00     0.074 A 
ATOM     67  C   UNL A   1      44.289  26.773  35.772  1.00  0.00     0.029 A 
ATOM     68  N   UNL A   1      44.080  28.076  33.982  1.00  0.00    -0.354 N 
ATOM     69  N   UNL A   1      43.659  30.612  32.574  1.00  0.00    -0.248 NA
ATOM     70  C   UNL A   1      43.072  32.870  32.610  1.00  0.00     0.031 C 
ATOM     71  C   UNL A   1      43.951  28.060  36.200  1.00  0.00     0.029 A 
ATOM     72  C   UNL A   1      43.849  28.878  35.086  1.00  0.00     0.049 A 
ATOM     73  H   UNL A   1      44.060  28.383  33.046  1.00  0.00     0.167 HD
ATOM     74  C   UNL A   1      43.477  31.017  33.892  1.00  0.00     0.074 A 
ATOM     75  C   UNL A   1      43.162  32.429  33.856  1.00  0.00     0.031 C 
ATOM     76  C   UNL A   1      43.557  30.287  35.032  1.00  0.00     0.037 A 
BRANCH  63  77
ATOM     77  C   UNL A   1      44.898  24.334  34.097  1.00  0.00     0.057 A 
ATOM     78  C   UNL A   1      43.867  23.461  34.471  1.00  0.00     0.134 A 
ATOM     79  C   UNL A   1      46.215  23.885  34.254  1.00  0.00     0.134 A 
ATOM     80  F   UNL A   1      42.584  23.838  34.363  1.00  0.00    -0.206 F 
ATOM     81  C   UNL A   1      44.137  22.196  34.992  1.00  0.00     0.040 A 
ATOM     82  C   UNL A   1      46.496  22.610  34.749  1.00  0.00     0.040 A 
ATOM     83  F   UNL A   1      47.248  24.670  33.913  1.00  0.00    -0.206 F 
ATOM     84  C   UNL A   1      45.455  21.763  35.123  1.00  0.00     0.006 A 
ENDBRANCH  63  77
BRANCH  64  85
ATOM     85  C   UNL A   1      43.281  33.164  29.715  1.00  0.00     0.057 A 
ATOM     86  C   UNL A   1      44.322  34.011  29.316  1.00  0.00     0.134 A 
ATOM     87  C   UNL A   1      41.974  33.648  29.579  1.00  0.00     0.134 A 
ATOM     88  F   UNL A   1      45.598  33.618  29.443  1.00  0.00    -0.206 F 
ATOM     89  C   UNL A   1      44.077  35.304  28.847  1.00  0.00     0.040 A 
ATOM     90  C   UNL A   1      41.713  34.925  29.080  1.00  0.00     0.040 A 
ATOM     91  F   UNL A   1      40.928  32.890  29.942  1.00  0.00    -0.206 F 
ATOM     92  C   UNL A   1      42.767  35.764  28.727  1.00  0.00     0.006 A 
ENDBRANCH  64  85
BRANCH  76  93
ATOM     93  C   UNL A   1      43.350  31.011  36.332  1.00  0.00     0.057 A 
ATOM     94  C   UNL A   1      42.073  31.297  36.829  1.00  0.00     0.134 A 
ATOM     95  C   UNL A   1      44.448  31.399  37.114  1.00  0.00     0.134 A 
ATOM     96  F   UNL A   1      40.979  30.962  36.128  1.00  0.00    -0.206 F 
ATOM     97  C   UNL A   1      41.893  31.971  38.040  1.00  0.00     0.040 A 
ATOM     98  C   UNL A   1      44.281  32.042  38.340  1.00  0.00     0.040 A 
ATOM     99  F   UNL A   1      45.700  31.144  36.705  1.00  0.00    -0.206 F 
ATOM    100  C   UNL A   1      43.000  32.340  38.801  1.00  0.00     0.006 A 
ENDBRANCH  76  93
ENDBRANCH  50  51
ENDBRANCH  43  45
ENDBRANCH  42  43
ENDBRANCH  41  42
ENDBRANCH  40  41
ENDBRANCH  39  40
ENDBRANCH  38  39
ENDBRANCH  37  38
ENDBRANCH  36  37
ENDBRANCH   1  36
TORSDOF 24
ENDMDL
MODEL 2
REMARK VINA RESULT:      -7.7      4.393     10.259
REMARK SMILES CS(=O)(=O)c1ccc(C2=NN(c3ccc(C(=O)OCCOCCOCCOCCOC(=O)c4ccc(-c5c6nc(c(-c7c(F)cccc7F)c7ccc([nH]7)c(-c7c(F)cccc7F)c7nc(c(-c8c(F)cccc8F)c8ccc5[nH]8)C=C7)C=C6)cc4)cc3)[C@H](c3ccccc3)C2)cc1
REMARK SMILES IDX 23 1 22 2 21 3 20 4 19 5 18 6 16 7 17 8 15 9 12 10 13 11
REMARK SMILES IDX 88 12 14 13 87 14 11 15 9 16 10 17 96 18 89 19 8 20 5 21
REMARK SMILES IDX 6 22 98 23 7 24 97 25 2 26 1 27 3 28 4 29 90 30 91 31 95 32
REMARK SMILES IDX 92 33 94 34 93 35 24 36 25 37 26 38 27 39 28 40 29 41 30 42
REMARK SMILES IDX 31 43 32 44 33 45 34 46 86 47 35 48 85 49 36 50 37 51 38 52
REMARK SMILES IDX 79 53 39 54 84 55 78 56 80 57 40 58 83 59 77 60 76 61 41 63
REMARK SMILES IDX 67 64 50 65 66 66 51 67 54 68 65 69 81 70 52 71 53 72 64 74
REMARK SMILES IDX 82 75 55 76 42 77 43 78 48 79 44 80 45 81 47 82 49 83 46 84
REMARK SMILES IDX 68 85 69 86 74 87 70 88 71 89 73 90 75 91 72 92 56 93 57 94
REMARK SMILES IDX 62 95 58 96 59 97 61 98 63 99 60 100
REMARK H PARENT 80 62 54 73
REMARK Flexibility Score: inf
ROOT
ATOM      1  C   UNL A   1      49.112  35.325  35.060  1.00  0.00     0.188 C 
ENDROOT
BRANCH   1   2
ATOM      2  C   UNL A   1      48.391  34.138  34.392  1.00  0.00     0.188 C 
BRANCH   2   3
ATOM      3  O   UNL A   1      48.978  32.885  34.700  1.00  0.00    -0.376 OA
BRANCH   3   4
ATOM      4  C   UNL A   1      48.426  31.686  34.191  1.00  0.00     0.202 C 
BRANCH   4   5
ATOM      5  C   UNL A   1      47.175  31.667  33.296  1.00  0.00     0.261 C 
BRANCH   5   6
ATOM      6  O   UNL A   1      45.951  31.255  33.902  1.00  0.00    -0.460 OA
BRANCH   6   7
ATOM      7  C   UNL A   1      45.038  30.641  33.123  1.00  0.00     0.338 C 
ATOM      8  O   UNL A   1      45.239  29.716  32.356  1.00  0.00    -0.246 OA
BRANCH   7   9
ATOM      9  C   UNL A   1      43.696  31.166  33.487  1.00  0.00     0.060 A 
ATOM     10  C   UNL A   1      41.120  32.112  34.084  1.00  0.00     0.060 A 
ATOM     11  C   UNL A   1      41.338  30.746  33.867  1.00  0.00     0.029 A 
ATOM     12  C   UNL A   1      42.226  32.971  34.133  1.00  0.00     0.029 A 
ATOM     13  C   UNL A   1      42.619  30.273  33.562  1.00  0.00     0.018 A 
ATOM     14  C   UNL A   1      43.503  32.512  33.816  1.00  0.00     0.018 A 
BRANCH  10  15
ATOM     15  N   UNL A   1      39.831  32.661  34.083  1.00  0.00    -0.257 N 
ATOM     16  C   UNL A   1      38.271  33.601  32.970  1.00  0.00     0.071 C 
ATOM     17  N   UNL A   1      39.072  32.581  32.955  1.00  0.00    -0.176 NA
ATOM     18  C   UNL A   1      38.479  34.590  34.081  1.00  0.00     0.091 C 
ATOM     19  C   UNL A   1      39.622  33.912  34.848  1.00  0.00     0.144 C 
BRANCH  16  20
ATOM     20  C   UNL A   1      37.179  33.772  31.997  1.00  0.00    -0.002 A 
ATOM     21  C   UNL A   1      35.182  33.991  30.064  1.00  0.00     0.067 A 
ATOM     22  C   UNL A   1      36.522  34.007  29.674  1.00  0.00     0.021 A 
ATOM     23  C   UNL A   1      34.837  33.877  31.419  1.00  0.00     0.021 A 
ATOM     24  C   UNL A   1      37.520  33.911  30.645  1.00  0.00     0.011 A 
ATOM     25  C   UNL A   1      35.838  33.753  32.388  1.00  0.00     0.011 A 
BRANCH  21  26
ATOM     26  S   UNL A   1      33.869  34.120  28.871  1.00  0.00     0.175 S 
ATOM     27  C   UNL A   1      34.377  35.321  27.672  1.00  0.00     0.163 C 
ATOM     28  O   UNL A   1      32.726  34.676  29.571  1.00  0.00    -0.224 OA
ATOM     29  O   UNL A   1      33.791  32.830  28.213  1.00  0.00    -0.224 OA
ENDBRANCH  21  26
ENDBRANCH  16  20
BRANCH  19  30
ATOM     30  C   UNL A   1      39.432  33.633  36.337  1.00  0.00    -0.023 A 
ATOM     31  C   UNL A   1      40.472  33.621  37.276  1.00  0.00     0.006 A 
ATOM     32  C   UNL A   1      38.122  33.433  36.820  1.00  0.00     0.006 A 
ATOM     33  C   UNL A   1      40.208  33.443  38.640  1.00  0.00     0.000 A 
ATOM     34  C   UNL A   1      37.851  33.315  38.185  1.00  0.00     0.000 A 
ATOM     35  C   UNL A   1      38.899  33.316  39.096  1.00  0.00     0.000 A 
ENDBRANCH  19  30
ENDBRANCH  10  15
ENDBRANCH   7   9
ENDBRANCH   6   7
ENDBRANCH   5   6
ENDBRANCH   4   5
ENDBRANCH   3   4
ENDBRANCH   2   3
ENDBRANCH   1   2
BRANCH   1  36
ATOM     36  O   UNL A   1      48.451  36.578  34.977  1.00  0.00    -0.377 OA
BRANCH  36  37
ATOM     37  C   UNL A   1      47.100  36.629  34.517  1.00  0.00     0.188 C 
BRANCH  37  38
ATOM     38  C   UNL A   1      46.177  37.857  34.726  1.00  0.00     0.188 C 
BRANCH  38  39
ATOM     39  O   UNL A   1      44.845  37.704  34.264  1.00  0.00    -0.376 OA
BRANCH  39  40
ATOM     40  C   UNL A   1      44.632  37.080  33.012  1.00  0.00     0.202 C 
BRANCH  40  41
ATOM     41  C   UNL A   1      44.401  38.008  31.812  1.00  0.00     0.261 C 
BRANCH  41  42
ATOM     42  O   UNL A   1      44.518  37.392  30.521  1.00  0.00    -0.460 OA
BRANCH  42  43
ATOM     43  C   UNL A   1      45.720  36.874  30.205  1.00  0.00     0.338 C 
ATOM     44  O   UNL A   1      46.815  37.399  30.362  1.00  0.00    -0.246 OA
BRANCH  43  45
ATOM     45  C   UNL A   1      45.530  35.472  29.793  1.00  0.00     0.060 A 
ATOM     46  C   UNL A   1      44.990  35.211  28.527  1.00  0.00     0.016 A 
ATOM     47  C   UNL A   1      45.855  34.423  30.657  1.00  0.00     0.016 A 
ATOM     48  C   UNL A   1      44.708  33.901  28.150  1.00  0.00     0.010 A 
ATOM     49  C   UNL A   1      45.556  33.109  30.283  1.00  0.00     0.010 A 
ATOM     50  C   UNL A   1      44.932  32.849  29.049  1.00  0.00    -0.014 A 
BRANCH  50  51
ATOM     51  C   UNL A   1      44.287  31.538  28.788  1.00  0.00     0.031 A 
ATOM     52  C   UNL A   1      45.068  30.508  28.011  1.00  0.00     0.074 A 
ATOM     53  C   UNL A   1      43.081  31.233  29.296  1.00  0.00     0.049 A 
ATOM     54  N   UNL A   1      44.733  29.289  27.677  1.00  0.00    -0.248 NA
ATOM     55  C   UNL A   1      46.411  30.908  27.558  1.00  0.00     0.031 C 
ATOM     56  C   UNL A   1      42.248  32.124  30.100  1.00  0.00     0.029 A 
ATOM     57  N   UNL A   1      42.350  30.073  29.212  1.00  0.00    -0.354 N 
ATOM     58  C   UNL A   1      45.826  28.775  26.989  1.00  0.00     0.074 A 
ATOM     59  C   UNL A   1      46.812  29.828  26.903  1.00  0.00     0.031 C 
ATOM     60  C   UNL A   1      41.115  31.480  30.432  1.00  0.00     0.029 A 
ATOM     61  C   UNL A   1      41.131  30.143  29.843  1.00  0.00     0.049 A 
ATOM     62  H   UNL A   1      42.669  29.268  28.743  1.00  0.00     0.167 HD
ATOM     63  C   UNL A   1      46.007  27.528  26.493  1.00  0.00     0.037 A 
ATOM     64  C   UNL A   1      40.140  29.232  29.917  1.00  0.00     0.037 A 
ATOM     65  C   UNL A   1      45.026  26.479  26.570  1.00  0.00     0.049 A 
ATOM     66  C   UNL A   1      40.329  27.883  29.267  1.00  0.00     0.074 A 
ATOM     67  C   UNL A   1      45.105  25.188  26.081  1.00  0.00     0.029 A 
ATOM     68  N   UNL A   1      43.787  26.603  27.179  1.00  0.00    -0.354 N 
ATOM     69  N   UNL A   1      41.373  27.402  28.636  1.00  0.00    -0.248 NA
ATOM     70  C   UNL A   1      39.199  26.945  29.349  1.00  0.00     0.031 C 
ATOM     71  C   UNL A   1      43.895  24.543  26.353  1.00  0.00     0.029 A 
ATOM     72  C   UNL A   1      43.086  25.416  27.062  1.00  0.00     0.049 A 
ATOM     73  H   UNL A   1      43.455  27.415  27.627  1.00  0.00     0.167 HD
ATOM     74  C   UNL A   1      41.039  26.100  28.279  1.00  0.00     0.074 A 
ATOM     75  C   UNL A   1      39.705  25.857  28.785  1.00  0.00     0.031 C 
ATOM     76  C   UNL A   1      41.766  25.186  27.590  1.00  0.00     0.037 A 
BRANCH  63  77
ATOM     77  C   UNL A   1      47.315  27.231  25.820  1.00  0.00     0.057 A 
ATOM     78  C   UNL A   1      48.410  26.726  26.534  1.00  0.00     0.134 A 
ATOM     79  C   UNL A   1      47.467  27.404  24.439  1.00  0.00     0.134 A 
ATOM     80  F   UNL A   1      48.335  26.554  27.862  1.00  0.00    -0.206 F 
ATOM     81  C   UNL A   1      49.613  26.416  25.899  1.00  0.00     0.040 A 
ATOM     82  C   UNL A   1      48.658  27.071  23.789  1.00  0.00     0.040 A 
ATOM     83  F   UNL A   1      46.458  27.882  23.696  1.00  0.00    -0.206 F 
ATOM     84  C   UNL A   1      49.736  26.579  24.521  1.00  0.00     0.006 A 
ENDBRANCH  63  77
BRANCH  64  85
ATOM     85  C   UNL A   1      38.859  29.557  30.602  1.00  0.00     0.057 A 
ATOM     86  C   UNL A   1      38.600  29.130  31.910  1.00  0.00     0.134 A 
ATOM     87  C   UNL A   1      37.830  30.231  29.933  1.00  0.00     0.134 A 
ATOM     88  F   UNL A   1      39.535  28.457  32.598  1.00  0.00    -0.206 F 
ATOM     89  C   UNL A   1      37.354  29.322  32.511  1.00  0.00     0.040 A 
ATOM     90  C   UNL A   1      36.592  30.460  30.534  1.00  0.00     0.040 A 
ATOM     91  F   UNL A   1      38.010  30.668  28.678  1.00  0.00    -0.206 F 
ATOM     92  C   UNL A   1      36.345  29.990  31.822  1.00  0.00     0.006 A 
ENDBRANCH  64  85
BRANCH  76  93
ATOM     93  C   UNL A   1      41.156  23.828  27.388  1.00  0.00     0.057 A 
ATOM     94  C   UNL A   1      40.132  23.603  26.460  1.00  0.00     0.134 A 
ATOM     95  C   UNL A   1      41.625  22.722  28.112  1.00  0.00     0.134 A 
ATOM     96  F   UNL A   1      39.631  24.618  25.741  1.00  0.00    -0.206 F 
ATOM     97  C   UNL A   1      39.573  22.335  26.281  1.00  0.00     0.040 A 
ATOM     98  C   UNL A   1      41.097  21.445  27.918  1.00  0.00     0.040 A 
ATOM     99  F   UNL A   1      42.613  22.863  29.008  1.00  0.00    -0.206 F 
ATOM    100  C   UNL A   1      40.061  21.251  27.008  1.00  0.00     0.006 A 
ENDBRANCH  76  93
ENDBRANCH  50  51
ENDBRANCH  43  45
ENDBRANCH  42  43
ENDBRANCH  41  42
ENDBRANCH  40  41
ENDBRANCH  39  40
ENDBRANCH  38  39
ENDBRANCH  37  38
ENDBRANCH  36  37
ENDBRANCH   1  36
TORSDOF 24
ENDMDL
MODEL 3
REMARK VINA RESULT:      -7.5      5.601     10.351
REMARK SMILES CS(=O)(=O)c1ccc(C2=NN(c3ccc(C(=O)OCCOCCOCCOCCOC(=O)c4ccc(-c5c6nc(c(-c7c(F)cccc7F)c7ccc([nH]7)c(-c7c(F)cccc7F)c7nc(c(-c8c(F)cccc8F)c8ccc5[nH]8)C=C7)C=C6)cc4)cc3)[C@H](c3ccccc3)C2)cc1
REMARK SMILES IDX 23 1 22 2 21 3 20 4 19 5 18 6 16 7 17 8 15 9 12 10 13 11
REMARK SMILES IDX 88 12 14 13 87 14 11 15 9 16 10 17 96 18 89 19 8 20 5 21
REMARK SMILES IDX 6 22 98 23 7 24 97 25 2 26 1 27 3 28 4 29 90 30 91 31 95 32
REMARK SMILES IDX 92 33 94 34 93 35 24 36 25 37 26 38 27 39 28 40 29 41 30 42
REMARK SMILES IDX 31 43 32 44 33 45 34 46 86 47 35 48 85 49 36 50 37 51 38 52
REMARK SMILES IDX 79 53 39 54 84 55 78 56 80 57 40 58 83 59 77 60 76 61 41 63
REMARK SMILES IDX 67 64 50 65 66 66 51 67 54 68 65 69 81 70 52 71 53 72 64 74
REMARK SMILES IDX 82 75 55 76 42 77 43 78 48 79 44 80 45 81 47 82 49 83 46 84
REMARK SMILES IDX 68 85 69 86 74 87 70 88 71 89 73 90 75 91 72 92 56 93 57 94
REMARK SMILES IDX 62 95 58 96 59 97 61 98 63 99 60 100
REMARK H PARENT 80 62 54 73
REMARK Flexibility Score: inf
ROOT
ATOM      1  C   UNL A   1      44.766  19.781  25.271  1.00  0.00     0.188 C 
ENDROOT
BRANCH   1   2
ATOM      2  C   UNL A   1      46.198  20.296  25.030  1.00  0.00     0.188 C 
BRANCH   2   3
ATOM      3  O   UNL A   1      46.356  21.669  25.341  1.00  0.00    -0.376 OA
BRANCH   3   4
ATOM      4  C   UNL A   1      46.241  22.654  24.332  1.00  0.00     0.202 C 
BRANCH   4   5
ATOM      5  C   UNL A   1      46.897  24.040  24.451  1.00  0.00     0.261 C 
BRANCH   5   6
ATOM      6  O   UNL A   1      46.459  24.875  25.523  1.00  0.00    -0.460 OA
BRANCH   6   7
ATOM      7  C   UNL A   1      45.840  26.031  25.208  1.00  0.00     0.338 C 
ATOM      8  O   UNL A   1      46.238  26.883  24.433  1.00  0.00    -0.246 OA
BRANCH   7   9
ATOM      9  C   UNL A   1      44.492  26.014  25.833  1.00  0.00     0.060 A 
ATOM     10  C   UNL A   1      41.902  26.019  26.919  1.00  0.00     0.060 A 
ATOM     11  C   UNL A   1      42.174  25.307  25.744  1.00  0.00     0.029 A 
ATOM     12  C   UNL A   1      42.968  26.610  27.611  1.00  0.00     0.029 A 
ATOM     13  C   UNL A   1      43.462  25.309  25.197  1.00  0.00     0.018 A 
ATOM     14  C   UNL A   1      44.251  26.630  27.066  1.00  0.00     0.018 A 
BRANCH  10  15
ATOM     15  N   UNL A   1      40.589  26.297  27.323  1.00  0.00    -0.257 N 
ATOM     16  C   UNL A   1      39.287  27.471  28.541  1.00  0.00     0.071 C 
ATOM     17  N   UNL A   1      40.257  27.568  27.685  1.00  0.00    -0.176 NA
ATOM     18  C   UNL A   1      38.916  26.079  28.967  1.00  0.00     0.091 C 
ATOM     19  C   UNL A   1      39.883  25.256  28.105  1.00  0.00     0.144 C 
BRANCH  16  20
ATOM     20  C   UNL A   1      38.543  28.641  29.038  1.00  0.00    -0.002 A 
ATOM     21  C   UNL A   1      37.075  30.873  29.835  1.00  0.00     0.067 A 
ATOM     22  C   UNL A   1      37.806  30.919  28.647  1.00  0.00     0.021 A 
ATOM     23  C   UNL A   1      37.085  29.719  30.632  1.00  0.00     0.021 A 
ATOM     24  C   UNL A   1      38.551  29.804  28.257  1.00  0.00     0.011 A 
ATOM     25  C   UNL A   1      37.810  28.593  30.226  1.00  0.00     0.011 A 
BRANCH  21  26
ATOM     26  S   UNL A   1      36.116  32.266  30.386  1.00  0.00     0.175 S 
ATOM     27  C   UNL A   1      35.987  32.140  32.148  1.00  0.00     0.163 C 
ATOM     28  O   UNL A   1      34.780  32.088  29.849  1.00  0.00    -0.224 OA
ATOM     29  O   UNL A   1      36.899  33.446  30.073  1.00  0.00    -0.224 OA
ENDBRANCH  21  26
ENDBRANCH  16  20
BRANCH  19  30
ATOM     30  C   UNL A   1      39.305  24.171  27.200  1.00  0.00    -0.023 A 
ATOM     31  C   UNL A   1      39.835  22.880  27.080  1.00  0.00     0.006 A 
ATOM     32  C   UNL A   1      38.127  24.456  26.479  1.00  0.00     0.006 A 
ATOM     33  C   UNL A   1      39.198  21.911  26.295  1.00  0.00     0.000 A 
ATOM     34  C   UNL A   1      37.459  23.476  25.743  1.00  0.00     0.000 A 
ATOM     35  C   UNL A   1      37.999  22.200  25.649  1.00  0.00     0.000 A 
ENDBRANCH  19  30
ENDBRANCH  10  15
ENDBRANCH   7   9
ENDBRANCH   6   7
ENDBRANCH   5   6
ENDBRANCH   4   5
ENDBRANCH   3   4
ENDBRANCH   2   3
ENDBRANCH   1   2
BRANCH   1  36
ATOM     36  O   UNL A   1      43.723  20.575  24.728  1.00  0.00    -0.377 OA
BRANCH  36  37
ATOM     37  C   UNL A   1      42.776  21.185  25.605  1.00  0.00     0.188 C 
BRANCH  37  38
ATOM     38  C   UNL A   1      42.933  21.202  27.147  1.00  0.00     0.188 C 
BRANCH  38  39
ATOM     39  O   UNL A   1      43.313  22.448  27.707  1.00  0.00    -0.376 OA
BRANCH  39  40
ATOM     40  C   UNL A   1      42.777  22.816  28.964  1.00  0.00     0.202 C 
BRANCH  40  41
ATOM     41  C   UNL A   1      43.785  23.132  30.077  1.00  0.00     0.261 C 
BRANCH  41  42
ATOM     42  O   UNL A   1      43.935  24.522  30.401  1.00  0.00    -0.460 OA
BRANCH  42  43
ATOM     43  C   UNL A   1      44.856  24.829  31.333  1.00  0.00     0.338 C 
ATOM     44  O   UNL A   1      44.871  24.470  32.504  1.00  0.00    -0.246 OA
BRANCH  43  45
ATOM     45  C   UNL A   1      45.969  25.537  30.674  1.00  0.00     0.060 A 
ATOM     46  C   UNL A   1      46.636  26.545  31.379  1.00  0.00     0.016 A 
ATOM     47  C   UNL A   1      46.333  25.227  29.361  1.00  0.00     0.016 A 
ATOM     48  C   UNL A   1      47.625  27.296  30.749  1.00  0.00     0.010 A 
ATOM     49  C   UNL A   1      47.314  25.993  28.724  1.00  0.00     0.010 A 
ATOM     50  C   UNL A   1      47.926  27.065  29.400  1.00  0.00    -0.014 A 
BRANCH  50  51
ATOM     51  C   UNL A   1      48.686  28.097  28.653  1.00  0.00     0.031 A 
ATOM     52  C   UNL A   1      47.981  29.384  28.305  1.00  0.00     0.074 A 
ATOM     53  C   UNL A   1      49.990  27.941  28.366  1.00  0.00     0.049 A 
ATOM     54  N   UNL A   1      48.436  30.440  27.682  1.00  0.00    -0.248 NA
ATOM     55  C   UNL A   1      46.573  29.494  28.725  1.00  0.00     0.031 C 
ATOM     56  C   UNL A   1      50.795  26.765  28.689  1.00  0.00     0.029 A 
ATOM     57  N   UNL A   1      50.869  28.789  27.737  1.00  0.00    -0.354 N 
ATOM     58  C   UNL A   1      47.377  31.340  27.648  1.00  0.00     0.074 A 
ATOM     59  C   UNL A   1      46.242  30.690  28.262  1.00  0.00     0.031 C 
ATOM     60  C   UNL A   1      52.052  26.964  28.251  1.00  0.00     0.029 A 
ATOM     61  C   UNL A   1      52.132  28.267  27.595  1.00  0.00     0.049 A 
ATOM     62  H   UNL A   1      50.618  29.686  27.419  1.00  0.00     0.167 HD
ATOM     63  C   UNL A   1      47.356  32.607  27.172  1.00  0.00     0.037 A 
ATOM     64  C   UNL A   1      53.220  28.782  26.987  1.00  0.00     0.037 A 
ATOM     65  C   UNL A   1      48.482  33.256  26.554  1.00  0.00     0.049 A 
ATOM     66  C   UNL A   1      53.139  30.159  26.375  1.00  0.00     0.074 A 
ATOM     67  C   UNL A   1      48.556  34.530  26.021  1.00  0.00     0.029 A 
ATOM     68  N   UNL A   1      49.730  32.678  26.389  1.00  0.00    -0.354 N 
ATOM     69  N   UNL A   1      52.139  31.008  26.366  1.00  0.00    -0.248 NA
ATOM     70  C   UNL A   1      54.345  30.653  25.694  1.00  0.00     0.031 C 
ATOM     71  C   UNL A   1      49.837  34.707  25.491  1.00  0.00     0.029 A 
ATOM     72  C   UNL A   1      50.577  33.564  25.746  1.00  0.00     0.049 A 
ATOM     73  H   UNL A   1      49.978  31.771  26.684  1.00  0.00     0.167 HD
ATOM     74  C   UNL A   1      52.607  32.143  25.713  1.00  0.00     0.074 A 
ATOM     75  C   UNL A   1      53.987  31.885  25.362  1.00  0.00     0.031 C 
ATOM     76  C   UNL A   1      51.954  33.296  25.423  1.00  0.00     0.037 A 
BRANCH  63  77
ATOM     77  C   UNL A   1      46.073  33.375  27.297  1.00  0.00     0.057 A 
ATOM     78  C   UNL A   1      45.848  34.259  28.362  1.00  0.00     0.134 A 
ATOM     79  C   UNL A   1      45.074  33.271  26.323  1.00  0.00     0.134 A 
ATOM     80  F   UNL A   1      46.758  34.393  29.339  1.00  0.00    -0.206 F 
ATOM     81  C   UNL A   1      44.670  35.000  28.458  1.00  0.00     0.040 A 
ATOM     82  C   UNL A   1      43.903  34.027  26.394  1.00  0.00     0.040 A 
ATOM     83  F   UNL A   1      45.226  32.444  25.277  1.00  0.00    -0.206 F 
ATOM     84  C   UNL A   1      43.697  34.893  27.466  1.00  0.00     0.006 A 
ENDBRANCH  63  77
BRANCH  64  85
ATOM     85  C   UNL A   1      54.480  27.996  26.890  1.00  0.00     0.057 A 
ATOM     86  C   UNL A   1      54.692  27.078  25.854  1.00  0.00     0.134 A 
ATOM     87  C   UNL A   1      55.467  28.084  27.880  1.00  0.00     0.134 A 
ATOM     88  F   UNL A   1      53.774  26.927  24.888  1.00  0.00    -0.206 F 
ATOM     89  C   UNL A   1      55.815  26.247  25.829  1.00  0.00     0.040 A 
ATOM     90  C   UNL A   1      56.610  27.284  27.849  1.00  0.00     0.040 A 
ATOM     91  F   UNL A   1      55.329  28.942  28.901  1.00  0.00    -0.206 F 
ATOM     92  C   UNL A   1      56.779  26.350  26.829  1.00  0.00     0.006 A 
ENDBRANCH  64  85
BRANCH  76  93
ATOM     93  C   UNL A   1      52.738  34.381  24.738  1.00  0.00     0.057 A 
ATOM     94  C   UNL A   1      53.328  35.433  25.449  1.00  0.00     0.134 A 
ATOM     95  C   UNL A   1      52.930  34.352  23.350  1.00  0.00     0.134 A 
ATOM     96  F   UNL A   1      53.176  35.526  26.778  1.00  0.00    -0.206 F 
ATOM     97  C   UNL A   1      54.054  36.435  24.801  1.00  0.00     0.040 A 
ATOM     98  C   UNL A   1      53.681  35.329  22.696  1.00  0.00     0.040 A 
ATOM     99  F   UNL A   1      52.404  33.365  22.609  1.00  0.00    -0.206 F 
ATOM    100  C   UNL A   1      54.237  36.381  23.420  1.00  0.00     0.006 A 
ENDBRANCH  76  93
ENDBRANCH  50  51
ENDBRANCH  43  45
ENDBRANCH  42  43
ENDBRANCH  41  42
ENDBRANCH  40  41
ENDBRANCH  39  40
ENDBRANCH  38  39
ENDBRANCH  37  38
ENDBRANCH  36  37
ENDBRANCH   1  36
TORSDOF 24
ENDMDL
