MODEL 1
REMARK VINA RESULT:     -10.8      0.000      0.000
REMARK SMILES O=C(OCCOCCOCCOCCOC(=O)c1nsc2c1N=C(O)C[C@@H]2c1ccc(F)cc1Cl)c1ccc(-c2c3nc(c(-c4c(F)cccc4F)c4ccc([nH]4)c(-c4c(F)cccc4F)c4nc(c(-c5c(F)cccc5F)c5ccc2[nH]5)C=C4)C=C3)cc1
REMARK SMILES IDX 8 1 7 2 6 3 5 4 4 5 3 6 2 7 1 8 36 9 37 10 89 11 38 12 88 13
REMARK SMILES IDX 39 14 40 15 41 16 82 17 42 18 87 19 81 20 83 21 43 22 86 23
REMARK SMILES IDX 80 24 79 25 44 27 70 28 53 29 69 30 54 31 57 32 68 33 84 34
REMARK SMILES IDX 55 35 56 36 67 38 85 39 58 40 45 41 46 42 51 43 47 44 48 45
REMARK SMILES IDX 50 46 52 47 49 48 71 49 72 50 77 51 73 52 74 53 76 54 78 55
REMARK SMILES IDX 75 56 59 57 60 58 65 59 61 60 62 61 64 62 66 63 63 64 9 65
REMARK SMILES IDX 10 66 11 67 12 68 13 69 14 70 15 71 16 72 17 73 18 74 19 75
REMARK SMILES IDX 22 76 20 77 21 78 23 79 27 80 24 81 26 82 28 83 29 84 34 85
REMARK SMILES IDX 30 86 33 87 35 88 31 89 32 90 25 91
REMARK H PARENT 83 26 57 37 25 92
REMARK Flexibility Score: inf
ROOT
ATOM      1  C   UNL A   1      33.540  28.443  25.084  1.00  0.00     0.188 C 
ENDROOT
BRANCH   1   2
ATOM      2  C   UNL A   1      32.658  29.097  26.158  1.00  0.00     0.188 C 
BRANCH   2   3
ATOM      3  O   UNL A   1      32.604  30.494  26.431  1.00  0.00    -0.376 OA
BRANCH   3   4
ATOM      4  C   UNL A   1      33.283  31.144  27.482  1.00  0.00     0.202 C 
BRANCH   4   5
ATOM      5  C   UNL A   1      34.803  31.062  27.599  1.00  0.00     0.261 C 
BRANCH   5   6
ATOM      6  O   UNL A   1      35.315  29.968  28.357  1.00  0.00    -0.460 OA
BRANCH   6   7
ATOM      7  C   UNL A   1      36.375  29.898  29.185  1.00  0.00     0.338 C 
ATOM      8  O   UNL A   1      36.310  30.509  30.253  1.00  0.00    -0.246 OA
BRANCH   7   9
ATOM      9  C   UNL A   1      37.651  29.191  28.878  1.00  0.00     0.060 A 
ATOM     10  C   UNL A   1      38.290  28.250  29.685  1.00  0.00     0.016 A 
ATOM     11  C   UNL A   1      38.274  29.568  27.668  1.00  0.00     0.016 A 
ATOM     12  C   UNL A   1      39.570  27.817  29.377  1.00  0.00     0.010 A 
ATOM     13  C   UNL A   1      39.544  29.117  27.342  1.00  0.00     0.010 A 
ATOM     14  C   UNL A   1      40.218  28.308  28.246  1.00  0.00    -0.014 A 
BRANCH  14  15
ATOM     15  C   UNL A   1      41.634  28.000  28.123  1.00  0.00     0.031 A 
ATOM     16  C   UNL A   1      41.985  26.701  27.494  1.00  0.00     0.074 A 
ATOM     17  C   UNL A   1      42.584  28.834  28.586  1.00  0.00     0.049 A 
ATOM     18  N   UNL A   1      42.585  25.687  28.032  1.00  0.00    -0.248 NA
ATOM     19  C   UNL A   1      41.553  26.480  26.108  1.00  0.00     0.031 C 
ATOM     20  C   UNL A   1      42.451  30.232  29.006  1.00  0.00     0.029 A 
ATOM     21  N   UNL A   1      43.918  28.599  28.708  1.00  0.00    -0.354 N 
ATOM     22  C   UNL A   1      42.757  24.756  27.010  1.00  0.00     0.074 A 
ATOM     23  C   UNL A   1      42.021  25.253  25.876  1.00  0.00     0.031 C 
ATOM     24  C   UNL A   1      43.681  30.778  29.128  1.00  0.00     0.029 A 
ATOM     25  C   UNL A   1      44.674  29.733  28.946  1.00  0.00     0.049 A 
ATOM     26  H   UNL A   1      44.312  27.699  28.634  1.00  0.00     0.167 HD
ATOM     27  C   UNL A   1      43.636  23.722  27.111  1.00  0.00     0.037 A 
ATOM     28  C   UNL A   1      46.024  29.816  28.933  1.00  0.00     0.037 A 
ATOM     29  C   UNL A   1      43.970  23.427  28.477  1.00  0.00     0.049 A 
ATOM     30  C   UNL A   1      46.568  28.451  29.131  1.00  0.00     0.074 A 
ATOM     31  C   UNL A   1      43.253  23.022  29.586  1.00  0.00     0.029 A 
ATOM     32  N   UNL A   1      45.187  23.836  28.959  1.00  0.00    -0.354 N 
ATOM     33  N   UNL A   1      46.491  27.786  30.250  1.00  0.00    -0.248 NA
ATOM     34  C   UNL A   1      46.842  27.650  27.947  1.00  0.00     0.031 C 
ATOM     35  C   UNL A   1      43.876  23.675  30.688  1.00  0.00     0.029 A 
ATOM     36  C   UNL A   1      44.951  24.407  30.183  1.00  0.00     0.049 A 
ATOM     37  H   UNL A   1      46.061  23.737  28.514  1.00  0.00     0.167 HD
ATOM     38  C   UNL A   1      46.295  26.468  29.867  1.00  0.00     0.074 A 
ATOM     39  C   UNL A   1      46.621  26.432  28.444  1.00  0.00     0.031 C 
ATOM     40  C   UNL A   1      45.629  25.585  30.667  1.00  0.00     0.037 A 
BRANCH  27  41
ATOM     41  C   UNL A   1      44.421  23.172  25.950  1.00  0.00     0.057 A 
ATOM     42  C   UNL A   1      44.363  21.800  25.645  1.00  0.00     0.134 A 
ATOM     43  C   UNL A   1      45.448  23.889  25.303  1.00  0.00     0.134 A 
ATOM     44  F   UNL A   1      43.450  21.005  26.222  1.00  0.00    -0.206 F 
ATOM     45  C   UNL A   1      45.291  21.182  24.798  1.00  0.00     0.040 A 
ATOM     46  C   UNL A   1      46.348  23.291  24.418  1.00  0.00     0.040 A 
ATOM     47  F   UNL A   1      45.693  25.178  25.570  1.00  0.00    -0.206 F 
ATOM     48  C   UNL A   1      46.290  21.926  24.183  1.00  0.00     0.006 A 
ENDBRANCH  27  41
BRANCH  28  49
ATOM     49  C   UNL A   1      46.849  30.943  28.454  1.00  0.00     0.057 A 
ATOM     50  C   UNL A   1      46.881  31.296  27.100  1.00  0.00     0.134 A 
ATOM     51  C   UNL A   1      47.414  31.867  29.352  1.00  0.00     0.134 A 
ATOM     52  F   UNL A   1      46.328  30.499  26.176  1.00  0.00    -0.206 F 
ATOM     53  C   UNL A   1      47.428  32.511  26.664  1.00  0.00     0.040 A 
ATOM     54  C   UNL A   1      47.970  33.077  28.929  1.00  0.00     0.040 A 
ATOM     55  F   UNL A   1      47.366  31.667  30.677  1.00  0.00    -0.206 F 
ATOM     56  C   UNL A   1      47.965  33.409  27.582  1.00  0.00     0.006 A 
ENDBRANCH  28  49
BRANCH  40  57
ATOM     57  C   UNL A   1      45.331  26.000  32.080  1.00  0.00     0.057 A 
ATOM     58  C   UNL A   1      44.156  26.666  32.463  1.00  0.00     0.134 A 
ATOM     59  C   UNL A   1      46.173  25.562  33.107  1.00  0.00     0.134 A 
ATOM     60  F   UNL A   1      43.240  27.031  31.556  1.00  0.00    -0.206 F 
ATOM     61  C   UNL A   1      43.858  26.921  33.804  1.00  0.00     0.040 A 
ATOM     62  C   UNL A   1      45.871  25.780  34.453  1.00  0.00     0.040 A 
ATOM     63  F   UNL A   1      47.284  24.864  32.821  1.00  0.00    -0.206 F 
ATOM     64  C   UNL A   1      44.713  26.471  34.806  1.00  0.00     0.006 A 
ENDBRANCH  40  57
ENDBRANCH  14  15
ENDBRANCH   7   9
ENDBRANCH   6   7
ENDBRANCH   5   6
ENDBRANCH   4   5
ENDBRANCH   3   4
ENDBRANCH   2   3
ENDBRANCH   1   2
BRANCH   1  65
ATOM     65  O   UNL A   1      33.393  28.972  23.777  1.00  0.00    -0.377 OA
BRANCH  65  66
ATOM     66  C   UNL A   1      32.481  28.282  22.951  1.00  0.00     0.188 C 
BRANCH  66  67
ATOM     67  C   UNL A   1      31.186  29.056  22.633  1.00  0.00     0.188 C 
BRANCH  67  68
ATOM     68  O   UNL A   1      30.022  28.980  23.447  1.00  0.00    -0.376 OA
BRANCH  68  69
ATOM     69  C   UNL A   1      28.957  28.092  23.158  1.00  0.00     0.202 C 
BRANCH  69  70
ATOM     70  C   UNL A   1      28.889  26.736  23.868  1.00  0.00     0.261 C 
BRANCH  70  71
ATOM     71  O   UNL A   1      29.943  25.828  23.553  1.00  0.00    -0.458 OA
BRANCH  71  72
ATOM     72  C   UNL A   1      30.540  25.204  24.608  1.00  0.00     0.360 C 
ATOM     73  O   UNL A   1      30.216  25.364  25.784  1.00  0.00    -0.244 OA
BRANCH  72  74
ATOM     74  C   UNL A   1      31.552  24.241  24.164  1.00  0.00     0.188 A 
ATOM     75  N   UNL A   1      31.806  24.073  22.854  1.00  0.00    -0.183 NA
ATOM     76  C   UNL A   1      32.355  23.428  25.021  1.00  0.00     0.116 A 
ATOM     77  S   UNL A   1      33.017  22.953  22.661  1.00  0.00    -0.038 S 
ATOM     78  C   UNL A   1      33.230  22.640  24.315  1.00  0.00     0.060 A 
ATOM     79  N   UNL A   1      32.229  23.366  26.416  1.00  0.00    -0.214 NA
ATOM     80  C   UNL A   1      34.069  21.569  24.907  1.00  0.00     0.074 C 
ATOM     81  C   UNL A   1      32.723  22.293  26.937  1.00  0.00     0.187 C 
ATOM     82  C   UNL A   1      33.352  21.127  26.208  1.00  0.00     0.111 C 
BRANCH  80  83
ATOM     83  C   UNL A   1      35.570  21.782  25.133  1.00  0.00    -0.020 A 
ATOM     84  C   UNL A   1      36.357  20.605  25.002  1.00  0.00     0.009 A 
ATOM     85  C   UNL A   1      36.257  22.972  25.447  1.00  0.00     0.047 A 
ATOM     86  C   UNL A   1      37.738  20.604  25.199  1.00  0.00     0.039 A 
ATOM     87  C   UNL A   1      37.651  22.969  25.624  1.00  0.00     0.060 A 
ATOM     88  Cl  UNL A   1      35.505  24.509  25.648  1.00  0.00    -0.084 Cl
ATOM     89  C   UNL A   1      38.373  21.791  25.507  1.00  0.00     0.124 A 
ATOM     90  F   UNL A   1      39.699  21.800  25.694  1.00  0.00    -0.207 F 
ENDBRANCH  80  83
BRANCH  81  91
ATOM     91  O   UNL A   1      32.591  22.118  28.266  1.00  0.00    -0.496 OA
ATOM     92  H   UNL A   1      33.090  22.645  28.859  1.00  0.00     0.294 HD
ENDBRANCH  81  91
ENDBRANCH  72  74
ENDBRANCH  71  72
ENDBRANCH  70  71
ENDBRANCH  69  70
ENDBRANCH  68  69
ENDBRANCH  67  68
ENDBRANCH  66  67
ENDBRANCH  65  66
ENDBRANCH   1  65
TORSDOF 22
ENDMDL
MODEL 2
REMARK VINA RESULT:     -10.6      2.649      4.868
REMARK SMILES O=C(OCCOCCOCCOCCOC(=O)c1nsc2c1N=C(O)C[C@@H]2c1ccc(F)cc1Cl)c1ccc(-c2c3nc(c(-c4c(F)cccc4F)c4ccc([nH]4)c(-c4c(F)cccc4F)c4nc(c(-c5c(F)cccc5F)c5ccc2[nH]5)C=C4)C=C3)cc1
REMARK SMILES IDX 8 1 7 2 6 3 5 4 4 5 3 6 2 7 1 8 36 9 37 10 89 11 38 12 88 13
REMARK SMILES IDX 39 14 40 15 41 16 82 17 42 18 87 19 81 20 83 21 43 22 86 23
REMARK SMILES IDX 80 24 79 25 44 27 70 28 53 29 69 30 54 31 57 32 68 33 84 34
REMARK SMILES IDX 55 35 56 36 67 38 85 39 58 40 45 41 46 42 51 43 47 44 48 45
REMARK SMILES IDX 50 46 52 47 49 48 71 49 72 50 77 51 73 52 74 53 76 54 78 55
REMARK SMILES IDX 75 56 59 57 60 58 65 59 61 60 62 61 64 62 66 63 63 64 9 65
REMARK SMILES IDX 10 66 11 67 12 68 13 69 14 70 15 71 16 72 17 73 18 74 19 75
REMARK SMILES IDX 22 76 20 77 21 78 23 79 27 80 24 81 26 82 28 83 29 84 34 85
REMARK SMILES IDX 30 86 33 87 35 88 31 89 32 90 25 91
REMARK H PARENT 83 26 57 37 25 92
REMARK Flexibility Score: inf
ROOT
ATOM      1  C   UNL A   1      33.258  24.922  26.199  1.00  0.00     0.188 C 
ENDROOT
BRANCH   1   2
ATOM      2  C   UNL A   1      32.437  26.217  26.108  1.00  0.00     0.188 C 
BRANCH   2   3
ATOM      3  O   UNL A   1      32.835  27.476  26.643  1.00  0.00    -0.376 OA
BRANCH   3   4
ATOM      4  C   UNL A   1      34.115  28.051  26.504  1.00  0.00     0.202 C 
BRANCH   4   5
ATOM      5  C   UNL A   1      34.415  29.436  27.069  1.00  0.00     0.261 C 
BRANCH   5   6
ATOM      6  O   UNL A   1      35.088  29.468  28.326  1.00  0.00    -0.460 OA
BRANCH   6   7
ATOM      7  C   UNL A   1      36.307  29.937  28.653  1.00  0.00     0.338 C 
ATOM      8  O   UNL A   1      36.375  31.067  29.141  1.00  0.00    -0.246 OA
BRANCH   7   9
ATOM      9  C   UNL A   1      37.591  29.219  28.411  1.00  0.00     0.060 A 
ATOM     10  C   UNL A   1      38.173  28.262  29.241  1.00  0.00     0.016 A 
ATOM     11  C   UNL A   1      38.285  29.602  27.242  1.00  0.00     0.016 A 
ATOM     12  C   UNL A   1      39.464  27.818  29.000  1.00  0.00     0.010 A 
ATOM     13  C   UNL A   1      39.566  29.141  26.982  1.00  0.00     0.010 A 
ATOM     14  C   UNL A   1      40.180  28.315  27.913  1.00  0.00    -0.014 A 
BRANCH  14  15
ATOM     15  C   UNL A   1      41.597  27.992  27.866  1.00  0.00     0.031 A 
ATOM     16  C   UNL A   1      41.968  26.685  27.266  1.00  0.00     0.074 A 
ATOM     17  C   UNL A   1      42.530  28.821  28.372  1.00  0.00     0.049 A 
ATOM     18  N   UNL A   1      42.529  25.670  27.842  1.00  0.00    -0.248 NA
ATOM     19  C   UNL A   1      41.606  26.457  25.861  1.00  0.00     0.031 C 
ATOM     20  C   UNL A   1      42.390  30.223  28.774  1.00  0.00     0.029 A 
ATOM     21  N   UNL A   1      43.853  28.574  28.565  1.00  0.00    -0.354 N 
ATOM     22  C   UNL A   1      42.744  24.729  26.838  1.00  0.00     0.074 A 
ATOM     23  C   UNL A   1      42.073  25.224  25.663  1.00  0.00     0.031 C 
ATOM     24  C   UNL A   1      43.617  30.758  28.955  1.00  0.00     0.029 A 
ATOM     25  C   UNL A   1      44.607  29.703  28.833  1.00  0.00     0.049 A 
ATOM     26  H   UNL A   1      44.242  27.670  28.518  1.00  0.00     0.167 HD
ATOM     27  C   UNL A   1      43.607  23.687  26.992  1.00  0.00     0.037 A 
ATOM     28  C   UNL A   1      45.957  29.773  28.889  1.00  0.00     0.037 A 
ATOM     29  C   UNL A   1      43.867  23.400  28.376  1.00  0.00     0.049 A 
ATOM     30  C   UNL A   1      46.476  28.405  29.126  1.00  0.00     0.074 A 
ATOM     31  C   UNL A   1      43.089  23.011  29.449  1.00  0.00     0.029 A 
ATOM     32  N   UNL A   1      45.061  23.801  28.917  1.00  0.00    -0.354 N 
ATOM     33  N   UNL A   1      46.335  27.749  30.244  1.00  0.00    -0.248 NA
ATOM     34  C   UNL A   1      46.804  27.592  27.964  1.00  0.00     0.031 C 
ATOM     35  C   UNL A   1      43.660  23.667  30.577  1.00  0.00     0.029 A 
ATOM     36  C   UNL A   1      44.767  24.385  30.123  1.00  0.00     0.049 A 
ATOM     37  H   UNL A   1      45.956  23.691  28.519  1.00  0.00     0.167 HD
ATOM     38  C   UNL A   1      46.146  26.430  29.861  1.00  0.00     0.074 A 
ATOM     39  C   UNL A   1      46.545  26.380  28.458  1.00  0.00     0.031 C 
ATOM     40  C   UNL A   1      45.431  25.560  30.633  1.00  0.00     0.037 A 
BRANCH  27  41
ATOM     41  C   UNL A   1      44.446  23.121  25.877  1.00  0.00     0.057 A 
ATOM     42  C   UNL A   1      44.405  21.744  25.594  1.00  0.00     0.134 A 
ATOM     43  C   UNL A   1      45.499  23.830  25.266  1.00  0.00     0.134 A 
ATOM     44  F   UNL A   1      43.469  20.956  26.142  1.00  0.00    -0.206 F 
ATOM     45  C   UNL A   1      45.372  21.114  24.800  1.00  0.00     0.040 A 
ATOM     46  C   UNL A   1      46.440  23.221  24.433  1.00  0.00     0.040 A 
ATOM     47  F   UNL A   1      45.727  25.125  25.522  1.00  0.00    -0.206 F 
ATOM     48  C   UNL A   1      46.396  21.852  24.219  1.00  0.00     0.006 A 
ENDBRANCH  27  41
BRANCH  28  49
ATOM     49  C   UNL A   1      46.817  30.888  28.446  1.00  0.00     0.057 A 
ATOM     50  C   UNL A   1      46.826  31.312  27.112  1.00  0.00     0.134 A 
ATOM     51  C   UNL A   1      47.447  31.738  29.374  1.00  0.00     0.134 A 
ATOM     52  F   UNL A   1      46.213  30.591  26.164  1.00  0.00    -0.206 F 
ATOM     53  C   UNL A   1      47.413  32.525  26.724  1.00  0.00     0.040 A 
ATOM     54  C   UNL A   1      48.043  32.944  28.998  1.00  0.00     0.040 A 
ATOM     55  F   UNL A   1      47.428  31.468  30.687  1.00  0.00    -0.206 F 
ATOM     56  C   UNL A   1      48.015  33.348  27.671  1.00  0.00     0.006 A 
ENDBRANCH  28  49
BRANCH  40  57
ATOM     57  C   UNL A   1      45.064  25.989  32.025  1.00  0.00     0.057 A 
ATOM     58  C   UNL A   1      43.928  26.756  32.328  1.00  0.00     0.134 A 
ATOM     59  C   UNL A   1      45.783  25.469  33.106  1.00  0.00     0.134 A 
ATOM     60  F   UNL A   1      43.120  27.209  31.360  1.00  0.00    -0.206 F 
ATOM     61  C   UNL A   1      43.552  27.026  33.647  1.00  0.00     0.040 A 
ATOM     62  C   UNL A   1      45.399  25.703  34.429  1.00  0.00     0.040 A 
ATOM     63  F   UNL A   1      46.845  24.675  32.894  1.00  0.00    -0.206 F 
ATOM     64  C   UNL A   1      44.285  26.492  34.703  1.00  0.00     0.006 A 
ENDBRANCH  40  57
ENDBRANCH  14  15
ENDBRANCH   7   9
ENDBRANCH   6   7
ENDBRANCH   5   6
ENDBRANCH   4   5
ENDBRANCH   3   4
ENDBRANCH   2   3
ENDBRANCH   1   2
BRANCH   1  65
ATOM     65  O   UNL A   1      32.547  23.788  26.664  1.00  0.00    -0.377 OA
BRANCH  65  66
ATOM     66  C   UNL A   1      33.119  22.542  26.327  1.00  0.00     0.188 C 
BRANCH  66  67
ATOM     67  C   UNL A   1      32.421  21.807  25.165  1.00  0.00     0.188 C 
BRANCH  67  68
ATOM     68  O   UNL A   1      33.094  21.450  23.963  1.00  0.00    -0.376 OA
BRANCH  68  69
ATOM     69  C   UNL A   1      32.872  22.136  22.744  1.00  0.00     0.202 C 
BRANCH  69  70
ATOM     70  C   UNL A   1      32.628  23.648  22.760  1.00  0.00     0.261 C 
BRANCH  70  71
ATOM     71  O   UNL A   1      33.633  24.437  22.126  1.00  0.00    -0.458 OA
BRANCH  71  72
ATOM     72  C   UNL A   1      33.194  25.393  21.259  1.00  0.00     0.360 C 
ATOM     73  O   UNL A   1      32.935  25.190  20.074  1.00  0.00    -0.244 OA
BRANCH  72  74
ATOM     74  C   UNL A   1      32.974  26.675  21.934  1.00  0.00     0.188 A 
ATOM     75  N   UNL A   1      33.969  27.574  22.032  1.00  0.00    -0.183 NA
ATOM     76  C   UNL A   1      31.743  27.103  22.517  1.00  0.00     0.116 A 
ATOM     77  S   UNL A   1      33.416  28.933  22.809  1.00  0.00    -0.038 S 
ATOM     78  C   UNL A   1      31.838  28.362  23.058  1.00  0.00     0.060 A 
ATOM     79  N   UNL A   1      30.584  26.320  22.609  1.00  0.00    -0.214 NA
ATOM     80  C   UNL A   1      30.787  29.009  23.882  1.00  0.00     0.074 C 
ATOM     81  C   UNL A   1      29.760  26.713  23.522  1.00  0.00     0.187 C 
ATOM     82  C   UNL A   1      29.946  27.859  24.491  1.00  0.00     0.111 C 
BRANCH  80  83
ATOM     83  C   UNL A   1      29.898  30.112  23.295  1.00  0.00    -0.020 A 
ATOM     84  C   UNL A   1      29.314  29.789  22.039  1.00  0.00     0.009 A 
ATOM     85  C   UNL A   1      29.589  31.378  23.830  1.00  0.00     0.047 A 
ATOM     86  C   UNL A   1      28.497  30.680  21.344  1.00  0.00     0.039 A 
ATOM     87  C   UNL A   1      28.749  32.265  23.135  1.00  0.00     0.060 A 
ATOM     88  Cl  UNL A   1      30.182  31.972  25.336  1.00  0.00    -0.084 Cl
ATOM     89  C   UNL A   1      28.220  31.913  21.902  1.00  0.00     0.124 A 
ATOM     90  F   UNL A   1      27.434  32.774  21.244  1.00  0.00    -0.207 F 
ENDBRANCH  80  83
BRANCH  81  91
ATOM     91  O   UNL A   1      28.647  25.982  23.724  1.00  0.00    -0.496 OA
ATOM     92  H   UNL A   1      28.426  25.291  23.132  1.00  0.00     0.294 HD
ENDBRANCH  81  91
ENDBRANCH  72  74
ENDBRANCH  71  72
ENDBRANCH  70  71
ENDBRANCH  69  70
ENDBRANCH  68  69
ENDBRANCH  67  68
ENDBRANCH  66  67
ENDBRANCH  65  66
ENDBRANCH   1  65
TORSDOF 22
ENDMDL
MODEL 3
REMARK VINA RESULT:     -10.5      1.071      2.062
REMARK SMILES O=C(OCCOCCOCCOCCOC(=O)c1nsc2c1N=C(O)C[C@@H]2c1ccc(F)cc1Cl)c1ccc(-c2c3nc(c(-c4c(F)cccc4F)c4ccc([nH]4)c(-c4c(F)cccc4F)c4nc(c(-c5c(F)cccc5F)c5ccc2[nH]5)C=C4)C=C3)cc1
REMARK SMILES IDX 8 1 7 2 6 3 5 4 4 5 3 6 2 7 1 8 36 9 37 10 89 11 38 12 88 13
REMARK SMILES IDX 39 14 40 15 41 16 82 17 42 18 87 19 81 20 83 21 43 22 86 23
REMARK SMILES IDX 80 24 79 25 44 27 70 28 53 29 69 30 54 31 57 32 68 33 84 34
REMARK SMILES IDX 55 35 56 36 67 38 85 39 58 40 45 41 46 42 51 43 47 44 48 45
REMARK SMILES IDX 50 46 52 47 49 48 71 49 72 50 77 51 73 52 74 53 76 54 78 55
REMARK SMILES IDX 75 56 59 57 60 58 65 59 61 60 62 61 64 62 66 63 63 64 9 65
REMARK SMILES IDX 10 66 11 67 12 68 13 69 14 70 15 71 16 72 17 73 18 74 19 75
REMARK SMILES IDX 22 76 20 77 21 78 23 79 27 80 24 81 26 82 28 83 29 84 34 85
REMARK SMILES IDX 30 86 33 87 35 88 31 89 32 90 25 91
REMARK H PARENT 83 26 57 37 25 92
REMARK Flexibility Score: inf
ROOT
ATOM      1  C   UNL A   1      34.215  33.065  28.017  1.00  0.00     0.188 C 
ENDROOT
BRANCH   1   2
ATOM      2  C   UNL A   1      34.182  33.430  29.509  1.00  0.00     0.188 C 
BRANCH   2   3
ATOM      3  O   UNL A   1      34.461  32.527  30.576  1.00  0.00    -0.376 OA
BRANCH   3   4
ATOM      4  C   UNL A   1      35.674  32.465  31.292  1.00  0.00     0.202 C 
BRANCH   4   5
ATOM      5  C   UNL A   1      36.278  31.121  31.690  1.00  0.00     0.261 C 
BRANCH   5   6
ATOM      6  O   UNL A   1      36.000  30.027  30.819  1.00  0.00    -0.460 OA
BRANCH   6   7
ATOM      7  C   UNL A   1      36.412  29.785  29.559  1.00  0.00     0.338 C 
ATOM      8  O   UNL A   1      35.666  30.122  28.638  1.00  0.00    -0.246 OA
BRANCH   7   9
ATOM      9  C   UNL A   1      37.673  29.079  29.195  1.00  0.00     0.060 A 
ATOM     10  C   UNL A   1      38.356  28.148  29.976  1.00  0.00     0.016 A 
ATOM     11  C   UNL A   1      38.232  29.447  27.951  1.00  0.00     0.016 A 
ATOM     12  C   UNL A   1      39.620  27.717  29.607  1.00  0.00     0.010 A 
ATOM     13  C   UNL A   1      39.485  28.997  27.564  1.00  0.00     0.010 A 
ATOM     14  C   UNL A   1      40.208  28.200  28.440  1.00  0.00    -0.014 A 
BRANCH  14  15
ATOM     15  C   UNL A   1      41.617  27.895  28.247  1.00  0.00     0.031 A 
ATOM     16  C   UNL A   1      41.940  26.600  27.594  1.00  0.00     0.074 A 
ATOM     17  C   UNL A   1      42.586  28.728  28.669  1.00  0.00     0.049 A 
ATOM     18  N   UNL A   1      42.566  25.585  28.096  1.00  0.00    -0.248 NA
ATOM     19  C   UNL A   1      41.443  26.387  26.229  1.00  0.00     0.031 C 
ATOM     20  C   UNL A   1      42.471  30.123  29.104  1.00  0.00     0.029 A 
ATOM     21  N   UNL A   1      43.925  28.495  28.726  1.00  0.00    -0.354 N 
ATOM     22  C   UNL A   1      42.691  24.661  27.062  1.00  0.00     0.074 A 
ATOM     23  C   UNL A   1      41.900  25.163  25.967  1.00  0.00     0.031 C 
ATOM     24  C   UNL A   1      43.705  30.671  29.170  1.00  0.00     0.029 A 
ATOM     25  C   UNL A   1      44.689  29.629  28.935  1.00  0.00     0.049 A 
ATOM     26  H   UNL A   1      44.317  27.597  28.628  1.00  0.00     0.167 HD
ATOM     27  C   UNL A   1      43.576  23.627  27.114  1.00  0.00     0.037 A 
ATOM     28  C   UNL A   1      46.037  29.715  28.857  1.00  0.00     0.037 A 
ATOM     29  C   UNL A   1      43.975  23.324  28.461  1.00  0.00     0.049 A 
ATOM     30  C   UNL A   1      46.592  28.350  29.020  1.00  0.00     0.074 A 
ATOM     31  C   UNL A   1      43.313  22.911  29.600  1.00  0.00     0.029 A 
ATOM     32  N   UNL A   1      45.214  23.733  28.886  1.00  0.00    -0.354 N 
ATOM     33  N   UNL A   1      46.570  27.678  30.138  1.00  0.00    -0.248 NA
ATOM     34  C   UNL A   1      46.811  27.557  27.820  1.00  0.00     0.031 C 
ATOM     35  C   UNL A   1      43.987  23.559  30.675  1.00  0.00     0.029 A 
ATOM     36  C   UNL A   1      45.035  24.296  30.124  1.00  0.00     0.049 A 
ATOM     37  H   UNL A   1      46.065  23.639  28.400  1.00  0.00     0.167 HD
ATOM     38  C   UNL A   1      46.359  26.362  29.756  1.00  0.00     0.074 A 
ATOM     39  C   UNL A   1      46.617  26.336  28.320  1.00  0.00     0.031 C 
ATOM     40  C   UNL A   1      45.733  25.473  30.582  1.00  0.00     0.037 A 
BRANCH  27  41
ATOM     41  C   UNL A   1      44.305  23.086  25.913  1.00  0.00     0.057 A 
ATOM     42  C   UNL A   1      44.243  21.714  25.609  1.00  0.00     0.134 A 
ATOM     43  C   UNL A   1      45.293  23.813  25.217  1.00  0.00     0.134 A 
ATOM     44  F   UNL A   1      43.366  20.911  26.229  1.00  0.00    -0.206 F 
ATOM     45  C   UNL A   1      45.131  21.105  24.714  1.00  0.00     0.040 A 
ATOM     46  C   UNL A   1      46.151  23.224  24.286  1.00  0.00     0.040 A 
ATOM     47  F   UNL A   1      45.540  25.104  25.474  1.00  0.00    -0.206 F 
ATOM     48  C   UNL A   1      46.092  21.859  24.051  1.00  0.00     0.006 A 
ENDBRANCH  27  41
BRANCH  28  49
ATOM     49  C   UNL A   1      46.837  30.847  28.347  1.00  0.00     0.057 A 
ATOM     50  C   UNL A   1      46.693  31.302  27.031  1.00  0.00     0.134 A 
ATOM     51  C   UNL A   1      47.563  31.679  29.218  1.00  0.00     0.134 A 
ATOM     52  F   UNL A   1      45.980  30.599  26.141  1.00  0.00    -0.206 F 
ATOM     53  C   UNL A   1      47.227  32.527  26.609  1.00  0.00     0.040 A 
ATOM     54  C   UNL A   1      48.108  32.898  28.807  1.00  0.00     0.040 A 
ATOM     55  F   UNL A   1      47.694  31.378  30.518  1.00  0.00    -0.206 F 
ATOM     56  C   UNL A   1      47.928  33.333  27.502  1.00  0.00     0.006 A 
ENDBRANCH  28  49
BRANCH  40  57
ATOM     57  C   UNL A   1      45.502  25.878  32.011  1.00  0.00     0.057 A 
ATOM     58  C   UNL A   1      46.452  25.707  33.029  1.00  0.00     0.134 A 
ATOM     59  C   UNL A   1      44.357  26.615  32.330  1.00  0.00     0.134 A 
ATOM     60  F   UNL A   1      47.624  25.105  32.790  1.00  0.00    -0.206 F 
ATOM     61  C   UNL A   1      46.249  26.212  34.317  1.00  0.00     0.040 A 
ATOM     62  C   UNL A   1      44.157  27.154  33.603  1.00  0.00     0.040 A 
ATOM     63  F   UNL A   1      43.433  26.872  31.390  1.00  0.00    -0.206 F 
ATOM     64  C   UNL A   1      45.102  26.945  34.605  1.00  0.00     0.006 A 
ENDBRANCH  40  57
ENDBRANCH  14  15
ENDBRANCH   7   9
ENDBRANCH   6   7
ENDBRANCH   5   6
ENDBRANCH   4   5
ENDBRANCH   3   4
ENDBRANCH   2   3
ENDBRANCH   1   2
BRANCH   1  65
ATOM     65  O   UNL A   1      33.047  32.432  27.524  1.00  0.00    -0.377 OA
BRANCH  65  66
ATOM     66  C   UNL A   1      33.086  31.022  27.520  1.00  0.00     0.188 C 
BRANCH  66  67
ATOM     67  C   UNL A   1      32.837  30.373  26.144  1.00  0.00     0.188 C 
BRANCH  67  68
ATOM     68  O   UNL A   1      31.563  30.371  25.511  1.00  0.00    -0.376 OA
BRANCH  68  69
ATOM     69  C   UNL A   1      31.216  29.423  24.518  1.00  0.00     0.202 C 
BRANCH  69  70
ATOM     70  C   UNL A   1      32.047  28.145  24.370  1.00  0.00     0.261 C 
BRANCH  70  71
ATOM     71  O   UNL A   1      31.720  27.095  25.278  1.00  0.00    -0.458 OA
BRANCH  71  72
ATOM     72  C   UNL A   1      31.001  26.054  24.767  1.00  0.00     0.360 C 
ATOM     73  O   UNL A   1      29.776  26.039  24.667  1.00  0.00    -0.244 OA
BRANCH  72  74
ATOM     74  C   UNL A   1      31.874  24.993  24.258  1.00  0.00     0.188 A 
ATOM     75  N   UNL A   1      32.148  24.905  22.944  1.00  0.00    -0.183 NA
ATOM     76  C   UNL A   1      32.516  23.995  25.054  1.00  0.00     0.116 A 
ATOM     77  S   UNL A   1      33.186  23.637  22.676  1.00  0.00    -0.038 S 
ATOM     78  C   UNL A   1      33.290  23.150  24.297  1.00  0.00     0.060 A 
ATOM     79  N   UNL A   1      32.331  23.829  26.433  1.00  0.00    -0.214 NA
ATOM     80  C   UNL A   1      33.938  21.916  24.806  1.00  0.00     0.074 C 
ATOM     81  C   UNL A   1      32.642  22.652  26.864  1.00  0.00     0.187 C 
ATOM     82  C   UNL A   1      33.117  21.474  26.043  1.00  0.00     0.111 C 
BRANCH  80  83
ATOM     83  C   UNL A   1      35.445  21.879  25.085  1.00  0.00    -0.020 A 
ATOM     84  C   UNL A   1      36.015  23.143  25.403  1.00  0.00     0.009 A 
ATOM     85  C   UNL A   1      36.322  20.776  25.069  1.00  0.00     0.047 A 
ATOM     86  C   UNL A   1      37.376  23.305  25.661  1.00  0.00     0.039 A 
ATOM     87  C   UNL A   1      37.689  20.942  25.350  1.00  0.00     0.060 A 
ATOM     88  Cl  UNL A   1      35.847  19.157  24.714  1.00  0.00    -0.084 Cl
ATOM     89  C   UNL A   1      38.201  22.199  25.633  1.00  0.00     0.124 A 
ATOM     90  F   UNL A   1      39.509  22.344  25.883  1.00  0.00    -0.207 F 
ENDBRANCH  80  83
BRANCH  81  91
ATOM     91  O   UNL A   1      32.437  22.382  28.167  1.00  0.00    -0.496 OA
ATOM     92  H   UNL A   1      32.143  23.058  28.745  1.00  0.00     0.294 HD
ENDBRANCH  81  91
ENDBRANCH  72  74
ENDBRANCH  71  72
ENDBRANCH  70  71
ENDBRANCH  69  70
ENDBRANCH  68  69
ENDBRANCH  67  68
ENDBRANCH  66  67
ENDBRANCH  65  66
ENDBRANCH   1  65
TORSDOF 22
ENDMDL
