MODEL 1
REMARK VINA RESULT:     -10.0      0.000      0.000
REMARK SMILES CC[C@@H]1CCCN(S(=O)(=O)c2cc(C(=O)OCCOCCOCCOCCOC(=O)c3ccc(-c4c5nc(c(-c6c(F)cccc6F)c6ccc([nH]6)c(-c6c(F)cccc6F)c6nc(c(-c7c(F)cccc7F)c7ccc4[nH]7)C=C6)C=C5)cc3)ccc2F)C1
REMARK SMILES IDX 21 1 20 2 19 3 18 4 17 5 16 6 14 7 15 8 13 9 11 10 12 11
REMARK SMILES IDX 87 12 86 13 88 14 85 15 8 16 9 17 10 18 7 19 3 20 4 21 89 22
REMARK SMILES IDX 5 23 6 24 2 25 1 26 22 27 23 28 24 29 25 30 26 31 27 32
REMARK SMILES IDX 28 33 29 34 30 35 31 36 32 37 84 38 33 39 83 40 34 41 35 42
REMARK SMILES IDX 36 43 77 44 37 45 82 46 76 47 78 48 38 49 81 50 75 51 74 52
REMARK SMILES IDX 39 54 65 55 48 56 64 57 49 58 52 59 63 60 79 61 50 62 51 63
REMARK SMILES IDX 62 65 80 66 53 67 40 68 41 69 46 70 42 71 43 72 45 73 47 74
REMARK SMILES IDX 44 75 66 76 67 77 72 78 68 79 69 80 71 81 73 82 70 83 54 84
REMARK SMILES IDX 55 85 60 86 56 87 57 88 59 89 61 90 58 91
REMARK H PARENT 78 53 52 64
REMARK Flexibility Score: inf
ROOT
ATOM      1  C   UNL A   1      37.794  23.198  25.480  1.00  0.00     0.188 C 
ENDROOT
BRANCH   1   2
ATOM      2  C   UNL A   1      36.516  23.768  26.123  1.00  0.00     0.188 C 
BRANCH   2   3
ATOM      3  O   UNL A   1      35.468  22.810  26.203  1.00  0.00    -0.376 OA
BRANCH   3   4
ATOM      4  C   UNL A   1      34.396  23.073  27.093  1.00  0.00     0.202 C 
BRANCH   4   5
ATOM      5  C   UNL A   1      33.320  21.990  27.266  1.00  0.00     0.261 C 
BRANCH   5   6
ATOM      6  O   UNL A   1      32.163  22.122  26.432  1.00  0.00    -0.460 OA
BRANCH   6   7
ATOM      7  C   UNL A   1      32.133  21.433  25.272  1.00  0.00     0.338 C 
ATOM      8  O   UNL A   1      31.820  20.265  25.121  1.00  0.00    -0.246 OA
BRANCH   7   9
ATOM      9  C   UNL A   1      32.337  22.412  24.173  1.00  0.00     0.061 A 
ATOM     10  C   UNL A   1      31.868  24.593  23.242  1.00  0.00     0.119 A 
ATOM     11  C   UNL A   1      31.587  23.594  24.182  1.00  0.00     0.040 A 
ATOM     12  C   UNL A   1      32.889  24.420  22.315  1.00  0.00     0.143 A 
ATOM     13  C   UNL A   1      33.618  23.235  22.285  1.00  0.00     0.041 A 
ATOM     14  F   UNL A   1      33.172  25.354  21.398  1.00  0.00    -0.206 F 
ATOM     15  C   UNL A   1      33.346  22.229  23.214  1.00  0.00     0.019 A 
BRANCH  10  16
ATOM     16  S   UNL A   1      30.973  26.112  23.295  1.00  0.00     0.246 S 
ATOM     17  O   UNL A   1      29.674  25.888  23.891  1.00  0.00    -0.207 OA
ATOM     18  O   UNL A   1      31.071  26.707  21.977  1.00  0.00    -0.207 OA
BRANCH  16  19
ATOM     19  N   UNL A   1      31.902  27.081  24.379  1.00  0.00    -0.197 NA
ATOM     20  C   UNL A   1      31.824  28.583  26.389  1.00  0.00     0.004 C 
ATOM     21  C   UNL A   1      33.127  27.938  26.885  1.00  0.00     0.006 C 
ATOM     22  C   UNL A   1      31.053  27.596  25.497  1.00  0.00     0.106 C 
ATOM     23  C   UNL A   1      33.950  27.363  25.739  1.00  0.00     0.017 C 
ATOM     24  C   UNL A   1      33.124  26.400  24.899  1.00  0.00     0.102 C 
BRANCH  20  25
ATOM     25  C   UNL A   1      32.059  29.932  25.678  1.00  0.00     0.001 C 
ATOM     26  C   UNL A   1      31.674  31.117  26.557  1.00  0.00     0.004 C 
ENDBRANCH  20  25
ENDBRANCH  16  19
ENDBRANCH  10  16
ENDBRANCH   7   9
ENDBRANCH   6   7
ENDBRANCH   5   6
ENDBRANCH   4   5
ENDBRANCH   3   4
ENDBRANCH   2   3
ENDBRANCH   1   2
BRANCH   1  27
ATOM     27  O   UNL A   1      38.899  23.028  26.354  1.00  0.00    -0.377 OA
BRANCH  27  28
ATOM     28  C   UNL A   1      39.548  21.756  26.410  1.00  0.00     0.188 C 
BRANCH  28  29
ATOM     29  C   UNL A   1      40.749  21.455  27.342  1.00  0.00     0.188 C 
BRANCH  29  30
ATOM     30  O   UNL A   1      40.927  20.085  27.669  1.00  0.00    -0.376 OA
BRANCH  30  31
ATOM     31  C   UNL A   1      41.909  19.366  26.941  1.00  0.00     0.202 C 
BRANCH  31  32
ATOM     32  C   UNL A   1      42.650  20.190  25.882  1.00  0.00     0.261 C 
BRANCH  32  33
ATOM     33  O   UNL A   1      43.135  19.443  24.755  1.00  0.00    -0.460 OA
BRANCH  33  34
ATOM     34  C   UNL A   1      44.436  19.602  24.427  1.00  0.00     0.338 C 
ATOM     35  O   UNL A   1      45.151  18.822  23.826  1.00  0.00    -0.246 OA
BRANCH  34  36
ATOM     36  C   UNL A   1      44.819  20.984  24.778  1.00  0.00     0.060 A 
ATOM     37  C   UNL A   1      45.379  21.239  26.036  1.00  0.00     0.016 A 
ATOM     38  C   UNL A   1      44.622  22.019  23.862  1.00  0.00     0.016 A 
ATOM     39  C   UNL A   1      45.708  22.547  26.396  1.00  0.00     0.010 A 
ATOM     40  C   UNL A   1      44.937  23.328  24.229  1.00  0.00     0.010 A 
ATOM     41  C   UNL A   1      45.448  23.601  25.510  1.00  0.00    -0.014 A 
BRANCH  41  42
ATOM     42  C   UNL A   1      45.520  25.004  25.983  1.00  0.00     0.031 A 
ATOM     43  C   UNL A   1      46.849  25.707  25.924  1.00  0.00     0.074 A 
ATOM     44  C   UNL A   1      44.432  25.650  26.437  1.00  0.00     0.049 A 
ATOM     45  N   UNL A   1      47.174  26.903  26.338  1.00  0.00    -0.248 NA
ATOM     46  C   UNL A   1      47.959  24.958  25.311  1.00  0.00     0.031 C 
ATOM     47  C   UNL A   1      43.080  25.098  26.489  1.00  0.00     0.029 A 
ATOM     48  N   UNL A   1      44.299  26.919  26.943  1.00  0.00    -0.354 N 
ATOM     49  C   UNL A   1      48.522  27.052  26.034  1.00  0.00     0.074 A 
ATOM     50  C   UNL A   1      48.964  25.812  25.435  1.00  0.00     0.031 C 
ATOM     51  C   UNL A   1      42.251  26.026  27.001  1.00  0.00     0.029 A 
ATOM     52  C   UNL A   1      43.021  27.222  27.346  1.00  0.00     0.049 A 
ATOM     53  H   UNL A   1      45.049  27.553  27.010  1.00  0.00     0.167 HD
ATOM     54  C   UNL A   1      49.315  28.130  26.223  1.00  0.00     0.037 A 
ATOM     55  C   UNL A   1      42.536  28.330  27.940  1.00  0.00     0.037 A 
ATOM     56  C   UNL A   1      48.877  29.361  26.823  1.00  0.00     0.049 A 
ATOM     57  C   UNL A   1      43.466  29.478  28.239  1.00  0.00     0.074 A 
ATOM     58  C   UNL A   1      49.612  30.506  27.070  1.00  0.00     0.029 A 
ATOM     59  N   UNL A   1      47.588  29.606  27.270  1.00  0.00    -0.354 N 
ATOM     60  N   UNL A   1      44.741  29.607  27.954  1.00  0.00    -0.248 NA
ATOM     61  C   UNL A   1      42.892  30.634  28.944  1.00  0.00     0.031 C 
ATOM     62  C   UNL A   1      48.780  31.428  27.710  1.00  0.00     0.029 A 
ATOM     63  C   UNL A   1      47.512  30.879  27.809  1.00  0.00     0.049 A 
ATOM     64  H   UNL A   1      46.838  28.970  27.213  1.00  0.00     0.167 HD
ATOM     65  C   UNL A   1      45.110  30.867  28.413  1.00  0.00     0.074 A 
ATOM     66  C   UNL A   1      43.923  31.467  28.988  1.00  0.00     0.031 C 
ATOM     67  C   UNL A   1      46.322  31.471  28.361  1.00  0.00     0.037 A 
BRANCH  54  68
ATOM     68  C   UNL A   1      50.744  28.032  25.780  1.00  0.00     0.057 A 
ATOM     69  C   UNL A   1      51.775  27.868  26.715  1.00  0.00     0.134 A 
ATOM     70  C   UNL A   1      51.107  28.174  24.435  1.00  0.00     0.134 A 
ATOM     71  F   UNL A   1      51.494  27.729  28.020  1.00  0.00    -0.206 F 
ATOM     72  C   UNL A   1      53.116  27.869  26.329  1.00  0.00     0.040 A 
ATOM     73  C   UNL A   1      52.444  28.151  24.034  1.00  0.00     0.040 A 
ATOM     74  F   UNL A   1      50.167  28.317  23.489  1.00  0.00    -0.206 F 
ATOM     75  C   UNL A   1      53.453  28.010  24.985  1.00  0.00     0.006 A 
ENDBRANCH  54  68
BRANCH  55  76
ATOM     76  C   UNL A   1      41.096  28.416  28.296  1.00  0.00     0.057 A 
ATOM     77  C   UNL A   1      40.631  28.067  29.569  1.00  0.00     0.134 A 
ATOM     78  C   UNL A   1      40.150  28.871  27.369  1.00  0.00     0.134 A 
ATOM     79  F   UNL A   1      41.485  27.627  30.506  1.00  0.00    -0.206 F 
ATOM     80  C   UNL A   1      39.278  28.152  29.904  1.00  0.00     0.040 A 
ATOM     81  C   UNL A   1      38.799  28.987  27.698  1.00  0.00     0.040 A 
ATOM     82  F   UNL A   1      40.536  29.248  26.141  1.00  0.00    -0.206 F 
ATOM     83  C   UNL A   1      38.358  28.620  28.968  1.00  0.00     0.006 A 
ENDBRANCH  55  76
BRANCH  67  84
ATOM     84  C   UNL A   1      46.434  32.869  28.900  1.00  0.00     0.057 A 
ATOM     85  C   UNL A   1      46.650  33.088  30.267  1.00  0.00     0.134 A 
ATOM     86  C   UNL A   1      46.242  33.992  28.087  1.00  0.00     0.134 A 
ATOM     87  F   UNL A   1      46.828  32.055  31.104  1.00  0.00    -0.206 F 
ATOM     88  C   UNL A   1      46.653  34.375  30.810  1.00  0.00     0.040 A 
ATOM     89  C   UNL A   1      46.270  35.285  28.613  1.00  0.00     0.040 A 
ATOM     90  F   UNL A   1      46.038  33.851  26.769  1.00  0.00    -0.206 F 
ATOM     91  C   UNL A   1      46.465  35.477  29.980  1.00  0.00     0.006 A 
ENDBRANCH  67  84
ENDBRANCH  41  42
ENDBRANCH  34  36
ENDBRANCH  33  34
ENDBRANCH  32  33
ENDBRANCH  31  32
ENDBRANCH  30  31
ENDBRANCH  29  30
ENDBRANCH  28  29
ENDBRANCH  27  28
ENDBRANCH   1  27
TORSDOF 23
ENDMDL
MODEL 2
REMARK VINA RESULT:      -9.9      4.757      7.070
REMARK SMILES CC[C@@H]1CCCN(S(=O)(=O)c2cc(C(=O)OCCOCCOCCOCCOC(=O)c3ccc(-c4c5nc(c(-c6c(F)cccc6F)c6ccc([nH]6)c(-c6c(F)cccc6F)c6nc(c(-c7c(F)cccc7F)c7ccc4[nH]7)C=C6)C=C5)cc3)ccc2F)C1
REMARK SMILES IDX 21 1 20 2 19 3 18 4 17 5 16 6 14 7 15 8 13 9 11 10 12 11
REMARK SMILES IDX 87 12 86 13 88 14 85 15 8 16 9 17 10 18 7 19 3 20 4 21 89 22
REMARK SMILES IDX 5 23 6 24 2 25 1 26 22 27 23 28 24 29 25 30 26 31 27 32
REMARK SMILES IDX 28 33 29 34 30 35 31 36 32 37 84 38 33 39 83 40 34 41 35 42
REMARK SMILES IDX 36 43 77 44 37 45 82 46 76 47 78 48 38 49 81 50 75 51 74 52
REMARK SMILES IDX 39 54 65 55 48 56 64 57 49 58 52 59 63 60 79 61 50 62 51 63
REMARK SMILES IDX 62 65 80 66 53 67 40 68 41 69 46 70 42 71 43 72 45 73 47 74
REMARK SMILES IDX 44 75 66 76 67 77 72 78 68 79 69 80 71 81 73 82 70 83 54 84
REMARK SMILES IDX 55 85 60 86 56 87 57 88 59 89 61 90 58 91
REMARK H PARENT 78 53 52 64
REMARK Flexibility Score: inf
ROOT
ATOM      1  C   UNL A   1      38.876  24.117  27.007  1.00  0.00     0.188 C 
ENDROOT
BRANCH   1   2
ATOM      2  C   UNL A   1      39.611  22.774  26.843  1.00  0.00     0.188 C 
BRANCH   2   3
ATOM      3  O   UNL A   1      38.814  21.787  26.199  1.00  0.00    -0.376 OA
BRANCH   3   4
ATOM      4  C   UNL A   1      37.845  22.225  25.262  1.00  0.00     0.202 C 
BRANCH   4   5
ATOM      5  C   UNL A   1      36.550  21.409  25.129  1.00  0.00     0.261 C 
BRANCH   5   6
ATOM      6  O   UNL A   1      35.413  21.924  25.831  1.00  0.00    -0.460 OA
BRANCH   6   7
ATOM      7  C   UNL A   1      34.216  21.341  25.617  1.00  0.00     0.338 C 
ATOM      8  O   UNL A   1      33.785  20.332  26.149  1.00  0.00    -0.246 OA
BRANCH   7   9
ATOM      9  C   UNL A   1      33.417  22.269  24.776  1.00  0.00     0.061 A 
ATOM     10  C   UNL A   1      31.926  24.169  24.647  1.00  0.00     0.119 A 
ATOM     11  C   UNL A   1      32.574  23.190  25.411  1.00  0.00     0.040 A 
ATOM     12  C   UNL A   1      32.127  24.236  23.274  1.00  0.00     0.143 A 
ATOM     13  C   UNL A   1      32.942  23.306  22.635  1.00  0.00     0.041 A 
ATOM     14  F   UNL A   1      31.512  25.155  22.518  1.00  0.00    -0.206 F 
ATOM     15  C   UNL A   1      33.590  22.322  23.384  1.00  0.00     0.019 A 
BRANCH  10  16
ATOM     16  S   UNL A   1      30.920  25.372  25.452  1.00  0.00     0.246 S 
ATOM     17  O   UNL A   1      30.747  25.008  26.841  1.00  0.00    -0.207 OA
ATOM     18  O   UNL A   1      29.759  25.585  24.610  1.00  0.00    -0.207 OA
BRANCH  16  19
ATOM     19  N   UNL A   1      31.884  26.802  25.386  1.00  0.00    -0.197 NA
ATOM     20  C   UNL A   1      32.583  28.877  26.613  1.00  0.00     0.004 C 
ATOM     21  C   UNL A   1      34.010  28.677  26.080  1.00  0.00     0.006 C 
ATOM     22  C   UNL A   1      31.855  27.526  26.695  1.00  0.00     0.106 C 
ATOM     23  C   UNL A   1      34.025  27.884  24.779  1.00  0.00     0.017 C 
ATOM     24  C   UNL A   1      33.285  26.563  24.933  1.00  0.00     0.102 C 
BRANCH  20  25
ATOM     25  C   UNL A   1      31.780  29.911  25.796  1.00  0.00     0.001 C 
ATOM     26  C   UNL A   1      31.692  31.259  26.504  1.00  0.00     0.004 C 
ENDBRANCH  20  25
ENDBRANCH  16  19
ENDBRANCH  10  16
ENDBRANCH   7   9
ENDBRANCH   6   7
ENDBRANCH   5   6
ENDBRANCH   4   5
ENDBRANCH   3   4
ENDBRANCH   2   3
ENDBRANCH   1   2
BRANCH   1  27
ATOM     27  O   UNL A   1      39.572  25.260  26.536  1.00  0.00    -0.377 OA
BRANCH  27  28
ATOM     28  C   UNL A   1      40.995  25.201  26.412  1.00  0.00     0.188 C 
BRANCH  28  29
ATOM     29  C   UNL A   1      41.805  26.129  25.471  1.00  0.00     0.188 C 
BRANCH  29  30
ATOM     30  O   UNL A   1      42.866  25.497  24.772  1.00  0.00    -0.376 OA
BRANCH  30  31
ATOM     31  C   UNL A   1      43.061  24.111  25.000  1.00  0.00     0.202 C 
BRANCH  31  32
ATOM     32  C   UNL A   1      44.514  23.640  24.872  1.00  0.00     0.261 C 
BRANCH  32  33
ATOM     33  O   UNL A   1      45.496  24.526  25.433  1.00  0.00    -0.460 OA
BRANCH  33  34
ATOM     34  C   UNL A   1      45.812  24.346  26.734  1.00  0.00     0.338 C 
ATOM     35  O   UNL A   1      46.740  23.706  27.191  1.00  0.00    -0.246 OA
BRANCH  34  36
ATOM     36  C   UNL A   1      44.925  25.215  27.532  1.00  0.00     0.060 A 
ATOM     37  C   UNL A   1      44.996  26.604  27.362  1.00  0.00     0.016 A 
ATOM     38  C   UNL A   1      44.028  24.654  28.442  1.00  0.00     0.016 A 
ATOM     39  C   UNL A   1      44.192  27.440  28.138  1.00  0.00     0.010 A 
ATOM     40  C   UNL A   1      43.236  25.492  29.230  1.00  0.00     0.010 A 
ATOM     41  C   UNL A   1      43.340  26.889  29.105  1.00  0.00    -0.014 A 
BRANCH  41  42
ATOM     42  C   UNL A   1      42.706  27.761  30.121  1.00  0.00     0.031 A 
ATOM     43  C   UNL A   1      43.357  27.867  31.473  1.00  0.00     0.074 A 
ATOM     44  C   UNL A   1      41.589  28.460  29.850  1.00  0.00     0.049 A 
ATOM     45  N   UNL A   1      42.957  28.509  32.539  1.00  0.00    -0.248 NA
ATOM     46  C   UNL A   1      44.634  27.153  31.642  1.00  0.00     0.031 C 
ATOM     47  C   UNL A   1      40.899  28.487  28.563  1.00  0.00     0.029 A 
ATOM     48  N   UNL A   1      40.841  29.285  30.653  1.00  0.00    -0.354 N 
ATOM     49  C   UNL A   1      43.932  28.281  33.502  1.00  0.00     0.074 A 
ATOM     50  C   UNL A   1      44.924  27.411  32.909  1.00  0.00     0.031 C 
ATOM     51  C   UNL A   1      39.824  29.290  28.664  1.00  0.00     0.029 A 
ATOM     52  C   UNL A   1      39.731  29.802  30.031  1.00  0.00     0.049 A 
ATOM     53  H   UNL A   1      41.078  29.487  31.587  1.00  0.00     0.167 HD
ATOM     54  C   UNL A   1      44.002  28.765  34.763  1.00  0.00     0.037 A 
ATOM     55  C   UNL A   1      38.747  30.584  30.518  1.00  0.00     0.037 A 
ATOM     56  C   UNL A   1      43.014  29.625  35.354  1.00  0.00     0.049 A 
ATOM     57  C   UNL A   1      38.793  31.023  31.959  1.00  0.00     0.074 A 
ATOM     58  C   UNL A   1      42.991  30.156  36.631  1.00  0.00     0.029 A 
ATOM     59  N   UNL A   1      41.875  30.080  34.708  1.00  0.00    -0.354 N 
ATOM     60  N   UNL A   1      39.715  30.796  32.865  1.00  0.00    -0.248 NA
ATOM     61  C   UNL A   1      37.660  31.823  32.449  1.00  0.00     0.031 C 
ATOM     62  C   UNL A   1      41.814  30.895  36.774  1.00  0.00     0.029 A 
ATOM     63  C   UNL A   1      41.132  30.871  35.568  1.00  0.00     0.049 A 
ATOM     64  H   UNL A   1      41.631  29.872  33.778  1.00  0.00     0.167 HD
ATOM     65  C   UNL A   1      39.291  31.452  34.015  1.00  0.00     0.074 A 
ATOM     66  C   UNL A   1      38.033  32.092  33.693  1.00  0.00     0.031 C 
ATOM     67  C   UNL A   1      39.891  31.518  35.229  1.00  0.00     0.037 A 
BRANCH  54  68
ATOM     68  C   UNL A   1      45.186  28.375  35.596  1.00  0.00     0.057 A 
ATOM     69  C   UNL A   1      46.361  29.138  35.575  1.00  0.00     0.134 A 
ATOM     70  C   UNL A   1      45.190  27.202  36.362  1.00  0.00     0.134 A 
ATOM     71  F   UNL A   1      46.423  30.272  34.859  1.00  0.00    -0.206 F 
ATOM     72  C   UNL A   1      47.503  28.738  36.270  1.00  0.00     0.040 A 
ATOM     73  C   UNL A   1      46.318  26.805  37.081  1.00  0.00     0.040 A 
ATOM     74  F   UNL A   1      44.092  26.436  36.436  1.00  0.00    -0.206 F 
ATOM     75  C   UNL A   1      47.483  27.568  37.026  1.00  0.00     0.006 A 
ENDBRANCH  54  68
BRANCH  55  76
ATOM     76  C   UNL A   1      37.629  31.011  29.637  1.00  0.00     0.057 A 
ATOM     77  C   UNL A   1      36.533  30.177  29.386  1.00  0.00     0.134 A 
ATOM     78  C   UNL A   1      37.624  32.277  29.039  1.00  0.00     0.134 A 
ATOM     79  F   UNL A   1      36.473  28.953  29.932  1.00  0.00    -0.206 F 
ATOM     80  C   UNL A   1      35.480  30.579  28.561  1.00  0.00     0.040 A 
ATOM     81  C   UNL A   1      36.566  32.703  28.234  1.00  0.00     0.040 A 
ATOM     82  F   UNL A   1      38.632  33.132  29.262  1.00  0.00    -0.206 F 
ATOM     83  C   UNL A   1      35.492  31.849  27.988  1.00  0.00     0.006 A 
ENDBRANCH  55  76
BRANCH  67  84
ATOM     84  C   UNL A   1      39.229  32.340  36.298  1.00  0.00     0.057 A 
ATOM     85  C   UNL A   1      39.655  33.650  36.554  1.00  0.00     0.134 A 
ATOM     86  C   UNL A   1      38.235  31.809  37.129  1.00  0.00     0.134 A 
ATOM     87  F   UNL A   1      40.613  34.214  35.803  1.00  0.00    -0.206 F 
ATOM     88  C   UNL A   1      39.130  34.396  37.609  1.00  0.00     0.040 A 
ATOM     89  C   UNL A   1      37.681  32.556  38.170  1.00  0.00     0.040 A 
ATOM     90  F   UNL A   1      37.777  30.564  36.932  1.00  0.00    -0.206 F 
ATOM     91  C   UNL A   1      38.137  33.850  38.419  1.00  0.00     0.006 A 
ENDBRANCH  67  84
ENDBRANCH  41  42
ENDBRANCH  34  36
ENDBRANCH  33  34
ENDBRANCH  32  33
ENDBRANCH  31  32
ENDBRANCH  30  31
ENDBRANCH  29  30
ENDBRANCH  28  29
ENDBRANCH  27  28
ENDBRANCH   1  27
TORSDOF 23
ENDMDL
MODEL 3
REMARK VINA RESULT:      -9.8      5.025      8.466
REMARK SMILES CC[C@@H]1CCCN(S(=O)(=O)c2cc(C(=O)OCCOCCOCCOCCOC(=O)c3ccc(-c4c5nc(c(-c6c(F)cccc6F)c6ccc([nH]6)c(-c6c(F)cccc6F)c6nc(c(-c7c(F)cccc7F)c7ccc4[nH]7)C=C6)C=C5)cc3)ccc2F)C1
REMARK SMILES IDX 21 1 20 2 19 3 18 4 17 5 16 6 14 7 15 8 13 9 11 10 12 11
REMARK SMILES IDX 87 12 86 13 88 14 85 15 8 16 9 17 10 18 7 19 3 20 4 21 89 22
REMARK SMILES IDX 5 23 6 24 2 25 1 26 22 27 23 28 24 29 25 30 26 31 27 32
REMARK SMILES IDX 28 33 29 34 30 35 31 36 32 37 84 38 33 39 83 40 34 41 35 42
REMARK SMILES IDX 36 43 77 44 37 45 82 46 76 47 78 48 38 49 81 50 75 51 74 52
REMARK SMILES IDX 39 54 65 55 48 56 64 57 49 58 52 59 63 60 79 61 50 62 51 63
REMARK SMILES IDX 62 65 80 66 53 67 40 68 41 69 46 70 42 71 43 72 45 73 47 74
REMARK SMILES IDX 44 75 66 76 67 77 72 78 68 79 69 80 71 81 73 82 70 83 54 84
REMARK SMILES IDX 55 85 60 86 56 87 57 88 59 89 61 90 58 91
REMARK H PARENT 78 53 52 64
REMARK Flexibility Score: inf
ROOT
ATOM      1  C   UNL A   1      39.084  24.087  27.221  1.00  0.00     0.188 C 
ENDROOT
BRANCH   1   2
ATOM      2  C   UNL A   1      39.821  22.766  26.933  1.00  0.00     0.188 C 
BRANCH   2   3
ATOM      3  O   UNL A   1      39.024  21.841  26.205  1.00  0.00    -0.376 OA
BRANCH   3   4
ATOM      4  C   UNL A   1      37.840  22.323  25.591  1.00  0.00     0.202 C 
BRANCH   4   5
ATOM      5  C   UNL A   1      37.031  21.350  24.719  1.00  0.00     0.261 C 
BRANCH   5   6
ATOM      6  O   UNL A   1      35.737  21.808  24.310  1.00  0.00    -0.460 OA
BRANCH   6   7
ATOM      7  C   UNL A   1      34.678  21.005  24.534  1.00  0.00     0.338 C 
ATOM      8  O   UNL A   1      34.689  19.905  25.060  1.00  0.00    -0.246 OA
BRANCH   7   9
ATOM      9  C   UNL A   1      33.455  21.790  24.224  1.00  0.00     0.061 A 
ATOM     10  C   UNL A   1      32.160  23.804  24.558  1.00  0.00     0.119 A 
ATOM     11  C   UNL A   1      33.223  22.975  24.935  1.00  0.00     0.040 A 
ATOM     12  C   UNL A   1      31.349  23.464  23.482  1.00  0.00     0.143 A 
ATOM     13  C   UNL A   1      31.559  22.274  22.791  1.00  0.00     0.041 A 
ATOM     14  F   UNL A   1      30.318  24.234  23.107  1.00  0.00    -0.206 F 
ATOM     15  C   UNL A   1      32.613  21.436  23.158  1.00  0.00     0.019 A 
BRANCH  10  16
ATOM     16  S   UNL A   1      31.907  25.330  25.405  1.00  0.00     0.246 S 
ATOM     17  O   UNL A   1      32.951  25.516  26.390  1.00  0.00    -0.207 OA
ATOM     18  O   UNL A   1      30.517  25.364  25.811  1.00  0.00    -0.207 OA
BRANCH  16  19
ATOM     19  N   UNL A   1      32.121  26.511  24.165  1.00  0.00    -0.197 NA
ATOM     20  C   UNL A   1      31.688  28.888  23.483  1.00  0.00     0.004 C 
ATOM     21  C   UNL A   1      33.093  28.936  22.863  1.00  0.00     0.006 C 
ATOM     22  C   UNL A   1      31.647  27.855  24.621  1.00  0.00     0.106 C 
ATOM     23  C   UNL A   1      33.586  27.550  22.463  1.00  0.00     0.017 C 
ATOM     24  C   UNL A   1      33.514  26.582  23.635  1.00  0.00     0.102 C 
BRANCH  20  25
ATOM     25  C   UNL A   1      30.583  28.630  22.436  1.00  0.00     0.001 C 
ATOM     26  C   UNL A   1      29.680  29.843  22.246  1.00  0.00     0.004 C 
ENDBRANCH  20  25
ENDBRANCH  16  19
ENDBRANCH  10  16
ENDBRANCH   7   9
ENDBRANCH   6   7
ENDBRANCH   5   6
ENDBRANCH   4   5
ENDBRANCH   3   4
ENDBRANCH   2   3
ENDBRANCH   1   2
BRANCH   1  27
ATOM     27  O   UNL A   1      39.712  25.260  26.728  1.00  0.00    -0.377 OA
BRANCH  27  28
ATOM     28  C   UNL A   1      41.095  25.208  26.370  1.00  0.00     0.188 C 
BRANCH  28  29
ATOM     29  C   UNL A   1      41.823  26.350  25.618  1.00  0.00     0.188 C 
BRANCH  29  30
ATOM     30  O   UNL A   1      42.901  25.936  24.793  1.00  0.00    -0.376 OA
BRANCH  30  31
ATOM     31  C   UNL A   1      43.308  24.581  24.888  1.00  0.00     0.202 C 
BRANCH  31  32
ATOM     32  C   UNL A   1      44.808  24.347  24.670  1.00  0.00     0.261 C 
BRANCH  32  33
ATOM     33  O   UNL A   1      45.667  24.909  25.675  1.00  0.00    -0.460 OA
BRANCH  33  34
ATOM     34  C   UNL A   1      45.641  24.333  26.896  1.00  0.00     0.338 C 
ATOM     35  O   UNL A   1      46.262  23.355  27.269  1.00  0.00    -0.246 OA
BRANCH  34  36
ATOM     36  C   UNL A   1      44.843  25.202  27.783  1.00  0.00     0.060 A 
ATOM     37  C   UNL A   1      45.022  26.590  27.719  1.00  0.00     0.016 A 
ATOM     38  C   UNL A   1      43.925  24.642  28.672  1.00  0.00     0.016 A 
ATOM     39  C   UNL A   1      44.304  27.423  28.579  1.00  0.00     0.010 A 
ATOM     40  C   UNL A   1      43.220  25.474  29.544  1.00  0.00     0.010 A 
ATOM     41  C   UNL A   1      43.432  26.864  29.524  1.00  0.00    -0.014 A 
BRANCH  41  42
ATOM     42  C   UNL A   1      42.892  27.701  30.622  1.00  0.00     0.031 A 
ATOM     43  C   UNL A   1      41.643  28.497  30.361  1.00  0.00     0.074 A 
ATOM     44  C   UNL A   1      43.482  27.742  31.830  1.00  0.00     0.049 A 
ATOM     45  N   UNL A   1      41.022  29.346  31.137  1.00  0.00    -0.248 NA
ATOM     46  C   UNL A   1      41.007  28.304  29.046  1.00  0.00     0.031 C 
ATOM     47  C   UNL A   1      44.661  26.974  32.223  1.00  0.00     0.029 A 
ATOM     48  N   UNL A   1      43.162  28.468  32.950  1.00  0.00    -0.354 N 
ATOM     49  C   UNL A   1      39.924  29.786  30.409  1.00  0.00     0.074 A 
ATOM     50  C   UNL A   1      39.981  29.140  29.116  1.00  0.00     0.031 C 
ATOM     51  C   UNL A   1      44.966  27.270  33.499  1.00  0.00     0.029 A 
ATOM     52  C   UNL A   1      44.028  28.276  33.999  1.00  0.00     0.049 A 
ATOM     53  H   UNL A   1      42.384  29.070  32.997  1.00  0.00     0.167 HD
ATOM     54  C   UNL A   1      38.946  30.639  30.790  1.00  0.00     0.037 A 
ATOM     55  C   UNL A   1      44.065  28.859  35.213  1.00  0.00     0.037 A 
ATOM     56  C   UNL A   1      38.892  31.285  32.073  1.00  0.00     0.049 A 
ATOM     57  C   UNL A   1      43.026  29.888  35.574  1.00  0.00     0.074 A 
ATOM     58  C   UNL A   1      37.947  32.178  32.546  1.00  0.00     0.029 A 
ATOM     59  N   UNL A   1      39.820  31.106  33.087  1.00  0.00    -0.354 N 
ATOM     60  N   UNL A   1      41.994  30.303  34.877  1.00  0.00    -0.248 NA
ATOM     61  C   UNL A   1      43.155  30.534  36.889  1.00  0.00     0.031 C 
ATOM     62  C   UNL A   1      38.329  32.576  33.829  1.00  0.00     0.029 A 
ATOM     63  C   UNL A   1      39.481  31.888  34.177  1.00  0.00     0.049 A 
ATOM     64  H   UNL A   1      40.604  30.513  33.038  1.00  0.00     0.167 HD
ATOM     65  C   UNL A   1      41.337  31.229  35.679  1.00  0.00     0.074 A 
ATOM     66  C   UNL A   1      42.080  31.310  36.920  1.00  0.00     0.031 C 
ATOM     67  C   UNL A   1      40.218  31.946  35.412  1.00  0.00     0.037 A 
BRANCH  54  68
ATOM     68  C   UNL A   1      37.853  30.931  29.806  1.00  0.00     0.057 A 
ATOM     69  C   UNL A   1      37.813  32.151  29.120  1.00  0.00     0.134 A 
ATOM     70  C   UNL A   1      36.798  30.034  29.594  1.00  0.00     0.134 A 
ATOM     71  F   UNL A   1      38.792  33.055  29.280  1.00  0.00    -0.206 F 
ATOM     72  C   UNL A   1      36.753  32.477  28.273  1.00  0.00     0.040 A 
ATOM     73  C   UNL A   1      35.745  30.339  28.730  1.00  0.00     0.040 A 
ATOM     74  F   UNL A   1      36.785  28.842  30.209  1.00  0.00    -0.206 F 
ATOM     75  C   UNL A   1      35.715  31.569  28.077  1.00  0.00     0.006 A 
ENDBRANCH  54  68
BRANCH  55  76
ATOM     76  C   UNL A   1      45.124  28.485  36.187  1.00  0.00     0.057 A 
ATOM     77  C   UNL A   1      44.927  27.473  37.134  1.00  0.00     0.134 A 
ATOM     78  C   UNL A   1      46.370  29.125  36.179  1.00  0.00     0.134 A 
ATOM     79  F   UNL A   1      43.758  26.818  37.194  1.00  0.00    -0.206 F 
ATOM     80  C   UNL A   1      45.924  27.120  38.046  1.00  0.00     0.040 A 
ATOM     81  C   UNL A   1      47.384  28.764  37.067  1.00  0.00     0.040 A 
ATOM     82  F   UNL A   1      46.630  30.083  35.278  1.00  0.00    -0.206 F 
ATOM     83  C   UNL A   1      47.160  27.763  38.009  1.00  0.00     0.006 A 
ENDBRANCH  55  76
BRANCH  67  84
ATOM     84  C   UNL A   1      39.692  32.855  36.487  1.00  0.00     0.057 A 
ATOM     85  C   UNL A   1      38.623  32.452  37.298  1.00  0.00     0.134 A 
ATOM     86  C   UNL A   1      40.181  34.156  36.659  1.00  0.00     0.134 A 
ATOM     87  F   UNL A   1      38.099  31.224  37.175  1.00  0.00    -0.206 F 
ATOM     88  C   UNL A   1      38.047  33.317  38.230  1.00  0.00     0.040 A 
ATOM     89  C   UNL A   1      39.632  35.020  37.607  1.00  0.00     0.040 A 
ATOM     90  F   UNL A   1      41.207  34.601  35.919  1.00  0.00    -0.206 F 
ATOM     91  C   UNL A   1      38.554  34.604  38.388  1.00  0.00     0.006 A 
ENDBRANCH  67  84
ENDBRANCH  41  42
ENDBRANCH  34  36
ENDBRANCH  33  34
ENDBRANCH  32  33
ENDBRANCH  31  32
ENDBRANCH  30  31
ENDBRANCH  29  30
ENDBRANCH  28  29
ENDBRANCH  27  28
ENDBRANCH   1  27
TORSDOF 23
ENDMDL
