MODEL 1
REMARK VINA RESULT:     -11.1      0.000      0.000
REMARK SMILES Cn1c(SCC(=O)Nc2ccc(C(=O)OCCOCCOCCOCCOC(=O)c3ccc(-c4c5nc(c(-c6c(F)cccc6F)c6ccc([nH]6)c(-c6c(F)cccc6F)c6nc(c(-c7c(F)cccc7F)c7ccc4[nH]7)C=C6)C=C5)cc3)cc2)nc2ccccc2c1=O
REMARK SMILES IDX 20 1 19 2 18 3 17 4 16 5 15 6 13 7 14 8 12 9 9 10 10 11
REMARK SMILES IDX 85 12 11 13 84 14 8 15 6 16 7 17 5 19 4 20 3 21 1 22 2 23
REMARK SMILES IDX 93 24 86 25 92 26 94 27 87 28 91 29 88 30 90 31 89 32 21 33
REMARK SMILES IDX 22 34 23 35 24 36 25 37 26 38 27 39 28 40 29 41 30 42 31 43
REMARK SMILES IDX 83 44 32 45 82 46 33 47 34 48 35 49 76 50 36 51 81 52 75 53
REMARK SMILES IDX 77 54 37 55 80 56 74 57 73 58 38 60 64 61 47 62 63 63 48 64
REMARK SMILES IDX 51 65 62 66 78 67 49 68 50 69 61 71 79 72 52 73 39 74 40 75
REMARK SMILES IDX 45 76 41 77 42 78 44 79 46 80 43 81 65 82 66 83 71 84 67 85
REMARK SMILES IDX 68 86 70 87 72 88 69 89 53 90 54 91 59 92 55 93 56 94 58 95
REMARK SMILES IDX 60 96 57 97
REMARK H PARENT 8 18 77 59 51 70
REMARK Flexibility Score: inf
ROOT
ATOM      1  C   UNL A   1      43.535  18.642  25.521  1.00  0.00     0.188 C 
ENDROOT
BRANCH   1   2
ATOM      2  C   UNL A   1      42.850  18.279  26.850  1.00  0.00     0.188 C 
BRANCH   2   3
ATOM      3  O   UNL A   1      42.096  19.342  27.426  1.00  0.00    -0.376 OA
BRANCH   3   4
ATOM      4  C   UNL A   1      41.698  20.378  26.537  1.00  0.00     0.202 C 
BRANCH   4   5
ATOM      5  C   UNL A   1      40.490  21.190  27.021  1.00  0.00     0.261 C 
BRANCH   5   6
ATOM      6  O   UNL A   1      39.578  21.561  25.977  1.00  0.00    -0.460 OA
BRANCH   6   7
ATOM      7  C   UNL A   1      38.941  22.745  26.122  1.00  0.00     0.338 C 
ATOM      8  O   UNL A   1      39.455  23.846  26.200  1.00  0.00    -0.246 OA
BRANCH   7   9
ATOM      9  C   UNL A   1      37.494  22.502  25.923  1.00  0.00     0.060 A 
ATOM     10  C   UNL A   1      34.787  21.822  25.750  1.00  0.00     0.041 A 
ATOM     11  C   UNL A   1      35.757  20.967  25.221  1.00  0.00     0.027 A 
ATOM     12  C   UNL A   1      35.170  23.038  26.325  1.00  0.00     0.027 A 
ATOM     13  C   UNL A   1      37.108  21.316  25.289  1.00  0.00     0.018 A 
ATOM     14  C   UNL A   1      36.523  23.367  26.441  1.00  0.00     0.018 A 
BRANCH  10  15
ATOM     15  N   UNL A   1      33.421  21.543  25.650  1.00  0.00    -0.325 N 
ATOM     16  C   UNL A   1      32.420  22.262  25.055  1.00  0.00     0.234 C 
ATOM     17  O   UNL A   1      31.256  21.986  25.349  1.00  0.00    -0.274 OA
ATOM     18  H   UNL A   1      33.135  20.700  26.072  1.00  0.00     0.169 HD
BRANCH  16  19
ATOM     19  C   UNL A   1      32.747  23.159  23.882  1.00  0.00     0.178 C 
BRANCH  19  20
ATOM     20  S   UNL A   1      31.465  24.114  23.084  1.00  0.00    -0.078 SA
BRANCH  20  21
ATOM     21  C   UNL A   1      31.548  25.768  23.627  1.00  0.00     0.171 A 
ATOM     22  C   UNL A   1      32.819  26.533  21.586  1.00  0.00     0.156 C 
ATOM     23  N   UNL A   1      32.205  26.735  22.890  1.00  0.00    -0.290 N 
ATOM     24  C   UNL A   1      32.351  28.027  23.395  1.00  0.00     0.261 A 
ATOM     25  N   UNL A   1      31.106  25.952  24.832  1.00  0.00    -0.224 NA
ATOM     26  C   UNL A   1      32.012  28.219  24.813  1.00  0.00     0.066 A 
ATOM     27  O   UNL A   1      32.788  28.977  22.751  1.00  0.00    -0.269 OA
ATOM     28  C   UNL A   1      31.408  27.158  25.477  1.00  0.00     0.079 A 
ATOM     29  C   UNL A   1      32.395  29.384  25.492  1.00  0.00     0.016 A 
ATOM     30  C   UNL A   1      31.205  27.267  26.856  1.00  0.00     0.029 A 
ATOM     31  C   UNL A   1      32.198  29.475  26.869  1.00  0.00     0.001 A 
ATOM     32  C   UNL A   1      31.605  28.414  27.552  1.00  0.00     0.002 A 
ENDBRANCH  20  21
ENDBRANCH  19  20
ENDBRANCH  16  19
ENDBRANCH  10  15
ENDBRANCH   7   9
ENDBRANCH   6   7
ENDBRANCH   5   6
ENDBRANCH   4   5
ENDBRANCH   3   4
ENDBRANCH   2   3
ENDBRANCH   1   2
BRANCH   1  33
ATOM     33  O   UNL A   1      44.798  18.057  25.258  1.00  0.00    -0.377 OA
BRANCH  33  34
ATOM     34  C   UNL A   1      45.982  18.794  25.552  1.00  0.00     0.188 C 
BRANCH  34  35
ATOM     35  C   UNL A   1      46.462  19.977  24.682  1.00  0.00     0.188 C 
BRANCH  35  36
ATOM     36  O   UNL A   1      45.425  20.709  24.041  1.00  0.00    -0.376 OA
BRANCH  36  37
ATOM     37  C   UNL A   1      44.833  21.753  24.802  1.00  0.00     0.202 C 
BRANCH  37  38
ATOM     38  C   UNL A   1      44.336  22.917  23.940  1.00  0.00     0.261 C 
BRANCH  38  39
ATOM     39  O   UNL A   1      43.783  24.018  24.676  1.00  0.00    -0.460 OA
BRANCH  39  40
ATOM     40  C   UNL A   1      44.644  24.942  25.158  1.00  0.00     0.338 C 
ATOM     41  O   UNL A   1      45.742  25.231  24.719  1.00  0.00    -0.246 OA
BRANCH  40  42
ATOM     42  C   UNL A   1      43.937  25.687  26.219  1.00  0.00     0.060 A 
ATOM     43  C   UNL A   1      42.927  25.066  26.958  1.00  0.00     0.016 A 
ATOM     44  C   UNL A   1      44.260  27.031  26.446  1.00  0.00     0.016 A 
ATOM     45  C   UNL A   1      42.258  25.783  27.947  1.00  0.00     0.010 A 
ATOM     46  C   UNL A   1      43.583  27.751  27.434  1.00  0.00     0.010 A 
ATOM     47  C   UNL A   1      42.596  27.122  28.207  1.00  0.00    -0.014 A 
BRANCH  47  48
ATOM     48  C   UNL A   1      42.054  27.779  29.418  1.00  0.00     0.031 A 
ATOM     49  C   UNL A   1      42.695  27.643  30.763  1.00  0.00     0.074 A 
ATOM     50  C   UNL A   1      40.947  28.531  29.270  1.00  0.00     0.049 A 
ATOM     51  N   UNL A   1      42.397  28.262  31.879  1.00  0.00    -0.248 NA
ATOM     52  C   UNL A   1      43.803  26.686  30.879  1.00  0.00     0.031 C 
ATOM     53  C   UNL A   1      40.214  28.701  28.013  1.00  0.00     0.029 A 
ATOM     54  N   UNL A   1      40.252  29.293  30.170  1.00  0.00    -0.354 N 
ATOM     55  C   UNL A   1      43.295  27.791  32.827  1.00  0.00     0.074 A 
ATOM     56  C   UNL A   1      44.117  26.797  32.164  1.00  0.00     0.031 C 
ATOM     57  C   UNL A   1      39.184  29.536  28.218  1.00  0.00     0.029 A 
ATOM     58  C   UNL A   1      39.177  29.944  29.618  1.00  0.00     0.049 A 
ATOM     59  H   UNL A   1      40.500  29.368  31.120  1.00  0.00     0.167 HD
ATOM     60  C   UNL A   1      43.425  28.168  34.124  1.00  0.00     0.037 A 
ATOM     61  C   UNL A   1      38.288  30.783  30.176  1.00  0.00     0.037 A 
ATOM     62  C   UNL A   1      42.582  29.138  34.782  1.00  0.00     0.049 A 
ATOM     63  C   UNL A   1      38.436  31.153  31.623  1.00  0.00     0.074 A 
ATOM     64  C   UNL A   1      42.671  29.625  36.076  1.00  0.00     0.029 A 
ATOM     65  N   UNL A   1      41.479  29.751  34.205  1.00  0.00    -0.354 N 
ATOM     66  N   UNL A   1      39.353  30.783  32.482  1.00  0.00    -0.248 NA
ATOM     67  C   UNL A   1      37.427  32.068  32.172  1.00  0.00     0.031 C 
ATOM     68  C   UNL A   1      41.592  30.491  36.298  1.00  0.00     0.029 A 
ATOM     69  C   UNL A   1      40.858  30.583  35.128  1.00  0.00     0.049 A 
ATOM     70  H   UNL A   1      41.179  29.616  33.278  1.00  0.00     0.167 HD
ATOM     71  C   UNL A   1      39.045  31.434  33.668  1.00  0.00     0.074 A 
ATOM     72  C   UNL A   1      37.870  32.241  33.409  1.00  0.00     0.031 C 
ATOM     73  C   UNL A   1      39.678  31.367  34.866  1.00  0.00     0.037 A 
BRANCH  60  74
ATOM     74  C   UNL A   1      44.523  27.527  34.924  1.00  0.00     0.057 A 
ATOM     75  C   UNL A   1      44.291  26.352  35.653  1.00  0.00     0.134 A 
ATOM     76  C   UNL A   1      45.797  28.101  35.017  1.00  0.00     0.134 A 
ATOM     77  F   UNL A   1      43.090  25.755  35.620  1.00  0.00    -0.206 F 
ATOM     78  C   UNL A   1      45.287  25.773  36.442  1.00  0.00     0.040 A 
ATOM     79  C   UNL A   1      46.809  27.518  35.784  1.00  0.00     0.040 A 
ATOM     80  F   UNL A   1      46.088  29.224  34.342  1.00  0.00    -0.206 F 
ATOM     81  C   UNL A   1      46.553  26.353  36.504  1.00  0.00     0.006 A 
ENDBRANCH  60  74
BRANCH  61  82
ATOM     82  C   UNL A   1      37.195  31.353  29.353  1.00  0.00     0.057 A 
ATOM     83  C   UNL A   1      36.039  30.616  29.069  1.00  0.00     0.134 A 
ATOM     84  C   UNL A   1      37.280  32.650  28.837  1.00  0.00     0.134 A 
ATOM     85  F   UNL A   1      35.904  29.364  29.528  1.00  0.00    -0.206 F 
ATOM     86  C   UNL A   1      35.007  31.150  28.299  1.00  0.00     0.040 A 
ATOM     87  C   UNL A   1      36.244  33.206  28.086  1.00  0.00     0.040 A 
ATOM     88  F   UNL A   1      38.359  33.407  29.089  1.00  0.00    -0.206 F 
ATOM     89  C   UNL A   1      35.105  32.452  27.812  1.00  0.00     0.006 A 
ENDBRANCH  61  82
BRANCH  73  90
ATOM     90  C   UNL A   1      39.106  32.201  35.975  1.00  0.00     0.057 A 
ATOM     91  C   UNL A   1      38.204  31.651  36.895  1.00  0.00     0.134 A 
ATOM     92  C   UNL A   1      39.459  33.547  36.144  1.00  0.00     0.134 A 
ATOM     93  F   UNL A   1      37.818  30.371  36.790  1.00  0.00    -0.206 F 
ATOM     94  C   UNL A   1      37.679  32.407  37.945  1.00  0.00     0.040 A 
ATOM     95  C   UNL A   1      38.965  34.305  37.208  1.00  0.00     0.040 A 
ATOM     96  F   UNL A   1      40.334  34.130  35.310  1.00  0.00    -0.206 F 
ATOM     97  C   UNL A   1      38.068  33.735  38.110  1.00  0.00     0.006 A 
ENDBRANCH  73  90
ENDBRANCH  47  48
ENDBRANCH  40  42
ENDBRANCH  39  40
ENDBRANCH  38  39
ENDBRANCH  37  38
ENDBRANCH  36  37
ENDBRANCH  35  36
ENDBRANCH  34  35
ENDBRANCH  33  34
ENDBRANCH   1  33
TORSDOF 24
ENDMDL
MODEL 2
REMARK VINA RESULT:     -11.1      0.651      5.887
REMARK SMILES Cn1c(SCC(=O)Nc2ccc(C(=O)OCCOCCOCCOCCOC(=O)c3ccc(-c4c5nc(c(-c6c(F)cccc6F)c6ccc([nH]6)c(-c6c(F)cccc6F)c6nc(c(-c7c(F)cccc7F)c7ccc4[nH]7)C=C6)C=C5)cc3)cc2)nc2ccccc2c1=O
REMARK SMILES IDX 20 1 19 2 18 3 17 4 16 5 15 6 13 7 14 8 12 9 9 10 10 11
REMARK SMILES IDX 85 12 11 13 84 14 8 15 6 16 7 17 5 19 4 20 3 21 1 22 2 23
REMARK SMILES IDX 93 24 86 25 92 26 94 27 87 28 91 29 88 30 90 31 89 32 21 33
REMARK SMILES IDX 22 34 23 35 24 36 25 37 26 38 27 39 28 40 29 41 30 42 31 43
REMARK SMILES IDX 83 44 32 45 82 46 33 47 34 48 35 49 76 50 36 51 81 52 75 53
REMARK SMILES IDX 77 54 37 55 80 56 74 57 73 58 38 60 64 61 47 62 63 63 48 64
REMARK SMILES IDX 51 65 62 66 78 67 49 68 50 69 61 71 79 72 52 73 39 74 40 75
REMARK SMILES IDX 45 76 41 77 42 78 44 79 46 80 43 81 65 82 66 83 71 84 67 85
REMARK SMILES IDX 68 86 70 87 72 88 69 89 53 90 54 91 59 92 55 93 56 94 58 95
REMARK SMILES IDX 60 96 57 97
REMARK H PARENT 8 18 77 59 51 70
REMARK Flexibility Score: inf
ROOT
ATOM      1  C   UNL A   1      43.385  18.790  25.471  1.00  0.00     0.188 C 
ENDROOT
BRANCH   1   2
ATOM      2  C   UNL A   1      42.636  18.573  26.796  1.00  0.00     0.188 C 
BRANCH   2   3
ATOM      3  O   UNL A   1      41.798  19.660  27.178  1.00  0.00    -0.376 OA
BRANCH   3   4
ATOM      4  C   UNL A   1      41.040  20.259  26.134  1.00  0.00     0.202 C 
BRANCH   4   5
ATOM      5  C   UNL A   1      40.147  21.419  26.593  1.00  0.00     0.261 C 
BRANCH   5   6
ATOM      6  O   UNL A   1      39.049  21.696  25.711  1.00  0.00    -0.460 OA
BRANCH   6   7
ATOM      7  C   UNL A   1      38.368  22.843  25.935  1.00  0.00     0.338 C 
ATOM      8  O   UNL A   1      38.832  23.967  25.993  1.00  0.00    -0.246 OA
BRANCH   7   9
ATOM      9  C   UNL A   1      36.923  22.529  25.853  1.00  0.00     0.060 A 
ATOM     10  C   UNL A   1      34.251  21.707  25.886  1.00  0.00     0.041 A 
ATOM     11  C   UNL A   1      35.211  20.935  25.228  1.00  0.00     0.027 A 
ATOM     12  C   UNL A   1      34.622  22.915  26.488  1.00  0.00     0.027 A 
ATOM     13  C   UNL A   1      36.542  21.355  25.194  1.00  0.00     0.018 A 
ATOM     14  C   UNL A   1      35.961  23.313  26.500  1.00  0.00     0.018 A 
BRANCH  10  15
ATOM     15  N   UNL A   1      32.897  21.358  25.893  1.00  0.00    -0.325 N 
ATOM     16  C   UNL A   1      31.819  22.013  25.364  1.00  0.00     0.234 C 
ATOM     17  O   UNL A   1      30.696  21.684  25.748  1.00  0.00    -0.274 OA
ATOM     18  H   UNL A   1      32.688  20.510  26.348  1.00  0.00     0.169 HD
BRANCH  16  19
ATOM     19  C   UNL A   1      32.011  22.902  24.154  1.00  0.00     0.178 C 
BRANCH  19  20
ATOM     20  S   UNL A   1      30.651  23.866  23.511  1.00  0.00    -0.078 SA
BRANCH  20  21
ATOM     21  C   UNL A   1      30.881  25.544  23.920  1.00  0.00     0.171 A 
ATOM     22  C   UNL A   1      31.896  26.107  21.679  1.00  0.00     0.156 C 
ATOM     23  N   UNL A   1      31.475  26.424  23.035  1.00  0.00    -0.290 N 
ATOM     24  C   UNL A   1      31.745  27.737  23.425  1.00  0.00     0.261 A 
ATOM     25  N   UNL A   1      30.616  25.828  25.156  1.00  0.00    -0.224 NA
ATOM     26  C   UNL A   1      31.612  28.037  24.858  1.00  0.00     0.066 A 
ATOM     27  O   UNL A   1      32.133  28.618  22.663  1.00  0.00    -0.269 OA
ATOM     28  C   UNL A   1      31.057  27.055  25.669  1.00  0.00     0.079 A 
ATOM     29  C   UNL A   1      32.136  29.220  25.396  1.00  0.00     0.016 A 
ATOM     30  C   UNL A   1      31.048  27.262  27.052  1.00  0.00     0.029 A 
ATOM     31  C   UNL A   1      32.132  29.409  26.777  1.00  0.00     0.001 A 
ATOM     32  C   UNL A   1      31.591  28.428  27.606  1.00  0.00     0.002 A 
ENDBRANCH  20  21
ENDBRANCH  19  20
ENDBRANCH  16  19
ENDBRANCH  10  15
ENDBRANCH   7   9
ENDBRANCH   6   7
ENDBRANCH   5   6
ENDBRANCH   4   5
ENDBRANCH   3   4
ENDBRANCH   2   3
ENDBRANCH   1   2
BRANCH   1  33
ATOM     33  O   UNL A   1      44.646  18.162  25.324  1.00  0.00    -0.377 OA
BRANCH  33  34
ATOM     34  C   UNL A   1      45.832  18.939  25.460  1.00  0.00     0.188 C 
BRANCH  34  35
ATOM     35  C   UNL A   1      46.316  19.915  24.365  1.00  0.00     0.188 C 
BRANCH  35  36
ATOM     36  O   UNL A   1      45.624  21.156  24.320  1.00  0.00    -0.376 OA
BRANCH  36  37
ATOM     37  C   UNL A   1      46.402  22.317  24.581  1.00  0.00     0.202 C 
BRANCH  37  38
ATOM     38  C   UNL A   1      45.567  23.599  24.633  1.00  0.00     0.261 C 
BRANCH  38  39
ATOM     39  O   UNL A   1      44.764  23.747  25.814  1.00  0.00    -0.460 OA
BRANCH  39  40
ATOM     40  C   UNL A   1      43.422  23.788  25.655  1.00  0.00     0.338 C 
ATOM     41  O   UNL A   1      42.731  23.030  24.999  1.00  0.00    -0.246 OA
BRANCH  40  42
ATOM     42  C   UNL A   1      42.903  24.818  26.577  1.00  0.00     0.060 A 
ATOM     43  C   UNL A   1      41.727  24.587  27.294  1.00  0.00     0.016 A 
ATOM     44  C   UNL A   1      43.579  26.039  26.691  1.00  0.00     0.016 A 
ATOM     45  C   UNL A   1      41.240  25.572  28.152  1.00  0.00     0.010 A 
ATOM     46  C   UNL A   1      43.086  27.028  27.547  1.00  0.00     0.010 A 
ATOM     47  C   UNL A   1      41.928  26.789  28.301  1.00  0.00    -0.014 A 
BRANCH  47  48
ATOM     48  C   UNL A   1      41.536  27.707  29.394  1.00  0.00     0.031 A 
ATOM     49  C   UNL A   1      40.386  28.657  29.274  1.00  0.00     0.074 A 
ATOM     50  C   UNL A   1      42.253  27.655  30.532  1.00  0.00     0.049 A 
ATOM     51  N   UNL A   1      39.859  29.426  30.195  1.00  0.00    -0.248 NA
ATOM     52  C   UNL A   1      39.750  28.770  27.955  1.00  0.00     0.031 C 
ATOM     53  C   UNL A   1      43.421  26.796  30.745  1.00  0.00     0.029 A 
ATOM     54  N   UNL A   1      42.108  28.324  31.717  1.00  0.00    -0.354 N 
ATOM     55  C   UNL A   1      38.813  30.098  29.577  1.00  0.00     0.074 A 
ATOM     56  C   UNL A   1      38.813  29.680  28.189  1.00  0.00     0.031 C 
ATOM     57  C   UNL A   1      43.871  26.974  31.997  1.00  0.00     0.029 A 
ATOM     58  C   UNL A   1      43.036  27.968  32.663  1.00  0.00     0.049 A 
ATOM     59  H   UNL A   1      41.404  28.995  31.877  1.00  0.00     0.167 HD
ATOM     60  C   UNL A   1      37.931  30.970  30.127  1.00  0.00     0.037 A 
ATOM     61  C   UNL A   1      43.194  28.388  33.930  1.00  0.00     0.037 A 
ATOM     62  C   UNL A   1      37.958  31.401  31.505  1.00  0.00     0.049 A 
ATOM     63  C   UNL A   1      42.224  29.381  34.499  1.00  0.00     0.074 A 
ATOM     64  C   UNL A   1      37.075  32.238  32.167  1.00  0.00     0.029 A 
ATOM     65  N   UNL A   1      38.935  31.050  32.427  1.00  0.00    -0.354 N 
ATOM     66  N   UNL A   1      41.174  29.928  33.937  1.00  0.00    -0.248 NA
ATOM     67  C   UNL A   1      42.457  29.804  35.886  1.00  0.00     0.031 C 
ATOM     68  C   UNL A   1      37.546  32.435  33.472  1.00  0.00     0.029 A 
ATOM     69  C   UNL A   1      38.695  31.682  33.640  1.00  0.00     0.049 A 
ATOM     70  H   UNL A   1      39.688  30.443  32.247  1.00  0.00     0.167 HD
ATOM     71  C   UNL A   1      40.610  30.746  34.905  1.00  0.00     0.074 A 
ATOM     72  C   UNL A   1      41.420  30.602  36.098  1.00  0.00     0.031 C 
ATOM     73  C   UNL A   1      39.519  31.547  34.815  1.00  0.00     0.037 A 
BRANCH  60  74
ATOM     74  C   UNL A   1      36.856  31.521  29.236  1.00  0.00     0.057 A 
ATOM     75  C   UNL A   1      36.891  32.853  28.803  1.00  0.00     0.134 A 
ATOM     76  C   UNL A   1      35.754  30.747  28.847  1.00  0.00     0.134 A 
ATOM     77  F   UNL A   1      37.909  33.655  29.148  1.00  0.00    -0.206 F 
ATOM     78  C   UNL A   1      35.871  33.393  28.016  1.00  0.00     0.040 A 
ATOM     79  C   UNL A   1      34.740  31.269  28.040  1.00  0.00     0.040 A 
ATOM     80  F   UNL A   1      35.659  29.462  29.224  1.00  0.00    -0.206 F 
ATOM     81  C   UNL A   1      34.795  32.598  27.627  1.00  0.00     0.006 A 
ENDBRANCH  60  74
BRANCH  61  82
ATOM     82  C   UNL A   1      44.300  27.847  34.754  1.00  0.00     0.057 A 
ATOM     83  C   UNL A   1      45.541  28.493  34.820  1.00  0.00     0.134 A 
ATOM     84  C   UNL A   1      44.139  26.674  35.499  1.00  0.00     0.134 A 
ATOM     85  F   UNL A   1      45.758  29.615  34.120  1.00  0.00    -0.206 F 
ATOM     86  C   UNL A   1      46.583  27.989  35.597  1.00  0.00     0.040 A 
ATOM     87  C   UNL A   1      45.165  26.173  36.300  1.00  0.00     0.040 A 
ATOM     88  F   UNL A   1      42.968  26.021  35.484  1.00  0.00    -0.206 F 
ATOM     89  C   UNL A   1      46.393  26.830  36.347  1.00  0.00     0.006 A 
ENDBRANCH  61  82
BRANCH  73  90
ATOM     90  C   UNL A   1      39.145  32.316  36.049  1.00  0.00     0.057 A 
ATOM     91  C   UNL A   1      39.631  33.612  36.261  1.00  0.00     0.134 A 
ATOM     92  C   UNL A   1      38.291  31.780  37.023  1.00  0.00     0.134 A 
ATOM     93  F   UNL A   1      40.457  34.186  35.373  1.00  0.00    -0.206 F 
ATOM     94  C   UNL A   1      39.276  34.349  37.393  1.00  0.00     0.040 A 
ATOM     95  C   UNL A   1      37.905  32.518  38.143  1.00  0.00     0.040 A 
ATOM     96  F   UNL A   1      37.775  30.550  36.871  1.00  0.00    -0.206 F 
ATOM     97  C   UNL A   1      38.402  33.806  38.332  1.00  0.00     0.006 A 
ENDBRANCH  73  90
ENDBRANCH  47  48
ENDBRANCH  40  42
ENDBRANCH  39  40
ENDBRANCH  38  39
ENDBRANCH  37  38
ENDBRANCH  36  37
ENDBRANCH  35  36
ENDBRANCH  34  35
ENDBRANCH  33  34
ENDBRANCH   1  33
TORSDOF 24
ENDMDL
MODEL 3
REMARK VINA RESULT:     -10.3      4.530      6.644
REMARK SMILES Cn1c(SCC(=O)Nc2ccc(C(=O)OCCOCCOCCOCCOC(=O)c3ccc(-c4c5nc(c(-c6c(F)cccc6F)c6ccc([nH]6)c(-c6c(F)cccc6F)c6nc(c(-c7c(F)cccc7F)c7ccc4[nH]7)C=C6)C=C5)cc3)cc2)nc2ccccc2c1=O
REMARK SMILES IDX 20 1 19 2 18 3 17 4 16 5 15 6 13 7 14 8 12 9 9 10 10 11
REMARK SMILES IDX 85 12 11 13 84 14 8 15 6 16 7 17 5 19 4 20 3 21 1 22 2 23
REMARK SMILES IDX 93 24 86 25 92 26 94 27 87 28 91 29 88 30 90 31 89 32 21 33
REMARK SMILES IDX 22 34 23 35 24 36 25 37 26 38 27 39 28 40 29 41 30 42 31 43
REMARK SMILES IDX 83 44 32 45 82 46 33 47 34 48 35 49 76 50 36 51 81 52 75 53
REMARK SMILES IDX 77 54 37 55 80 56 74 57 73 58 38 60 64 61 47 62 63 63 48 64
REMARK SMILES IDX 51 65 62 66 78 67 49 68 50 69 61 71 79 72 52 73 39 74 40 75
REMARK SMILES IDX 45 76 41 77 42 78 44 79 46 80 43 81 65 82 66 83 71 84 67 85
REMARK SMILES IDX 68 86 70 87 72 88 69 89 53 90 54 91 59 92 55 93 56 94 58 95
REMARK SMILES IDX 60 96 57 97
REMARK H PARENT 8 18 77 59 51 70
REMARK Flexibility Score: inf
ROOT
ATOM      1  C   UNL A   1      43.809  23.637  27.179  1.00  0.00     0.188 C 
ENDROOT
BRANCH   1   2
ATOM      2  C   UNL A   1      42.466  23.862  26.463  1.00  0.00     0.188 C 
BRANCH   2   3
ATOM      3  O   UNL A   1      42.323  25.156  25.885  1.00  0.00    -0.376 OA
BRANCH   3   4
ATOM      4  C   UNL A   1      40.992  25.566  25.595  1.00  0.00     0.202 C 
BRANCH   4   5
ATOM      5  C   UNL A   1      40.071  25.623  26.821  1.00  0.00     0.261 C 
BRANCH   5   6
ATOM      6  O   UNL A   1      40.210  26.819  27.602  1.00  0.00    -0.460 OA
BRANCH   6   7
ATOM      7  C   UNL A   1      40.837  26.694  28.793  1.00  0.00     0.338 C 
ATOM      8  O   UNL A   1      41.619  25.820  29.119  1.00  0.00    -0.246 OA
BRANCH   7   9
ATOM      9  C   UNL A   1      40.600  27.941  29.557  1.00  0.00     0.060 A 
ATOM     10  C   UNL A   1      39.897  30.323  30.841  1.00  0.00     0.041 A 
ATOM     11  C   UNL A   1      40.298  30.343  29.504  1.00  0.00     0.027 A 
ATOM     12  C   UNL A   1      39.891  29.115  31.548  1.00  0.00     0.027 A 
ATOM     13  C   UNL A   1      40.669  29.156  28.867  1.00  0.00     0.018 A 
ATOM     14  C   UNL A   1      40.212  27.919  30.901  1.00  0.00     0.018 A 
BRANCH  10  15
ATOM     15  N   UNL A   1      39.576  31.493  31.536  1.00  0.00    -0.325 N 
ATOM     16  C   UNL A   1      38.789  32.548  31.160  1.00  0.00     0.234 C 
ATOM     17  O   UNL A   1      38.890  33.599  31.795  1.00  0.00    -0.274 OA
ATOM     18  H   UNL A   1      39.977  31.570  32.431  1.00  0.00     0.169 HD
BRANCH  16  19
ATOM     19  C   UNL A   1      37.653  32.318  30.188  1.00  0.00     0.178 C 
BRANCH  19  20
ATOM     20  S   UNL A   1      36.064  31.744  30.769  1.00  0.00    -0.078 SA
BRANCH  20  21
ATOM     21  C   UNL A   1      34.947  33.081  30.827  1.00  0.00     0.171 A 
ATOM     22  C   UNL A   1      34.410  32.935  28.365  1.00  0.00     0.156 C 
ATOM     23  N   UNL A   1      34.307  33.532  29.688  1.00  0.00    -0.290 N 
ATOM     24  C   UNL A   1      33.501  34.670  29.739  1.00  0.00     0.261 A 
ATOM     25  N   UNL A   1      34.920  33.698  31.966  1.00  0.00    -0.224 NA
ATOM     26  C   UNL A   1      33.584  35.480  30.964  1.00  0.00     0.066 A 
ATOM     27  O   UNL A   1      32.786  35.053  28.817  1.00  0.00    -0.269 OA
ATOM     28  C   UNL A   1      34.306  34.956  32.029  1.00  0.00     0.079 A 
ATOM     29  C   UNL A   1      33.056  36.777  31.006  1.00  0.00     0.016 A 
ATOM     30  C   UNL A   1      34.516  35.764  33.151  1.00  0.00     0.029 A 
ATOM     31  C   UNL A   1      33.282  37.577  32.124  1.00  0.00     0.001 A 
ATOM     32  C   UNL A   1      34.016  37.072  33.197  1.00  0.00     0.002 A 
ENDBRANCH  20  21
ENDBRANCH  19  20
ENDBRANCH  16  19
ENDBRANCH  10  15
ENDBRANCH   7   9
ENDBRANCH   6   7
ENDBRANCH   5   6
ENDBRANCH   4   5
ENDBRANCH   3   4
ENDBRANCH   2   3
ENDBRANCH   1   2
BRANCH   1  33
ATOM     33  O   UNL A   1      44.374  24.739  27.866  1.00  0.00    -0.377 OA
BRANCH  33  34
ATOM     34  C   UNL A   1      45.721  24.658  28.325  1.00  0.00     0.188 C 
BRANCH  34  35
ATOM     35  C   UNL A   1      46.932  24.807  27.377  1.00  0.00     0.188 C 
BRANCH  35  36
ATOM     36  O   UNL A   1      47.153  23.703  26.508  1.00  0.00    -0.376 OA
BRANCH  36  37
ATOM     37  C   UNL A   1      46.882  23.927  25.131  1.00  0.00     0.202 C 
BRANCH  37  38
ATOM     38  C   UNL A   1      47.404  25.275  24.628  1.00  0.00     0.261 C 
BRANCH  38  39
ATOM     39  O   UNL A   1      46.387  26.253  24.362  1.00  0.00    -0.460 OA
BRANCH  39  40
ATOM     40  C   UNL A   1      46.714  27.554  24.528  1.00  0.00     0.338 C 
ATOM     41  O   UNL A   1      47.279  28.283  23.734  1.00  0.00    -0.246 OA
BRANCH  40  42
ATOM     42  C   UNL A   1      46.093  28.003  25.791  1.00  0.00     0.060 A 
ATOM     43  C   UNL A   1      46.883  28.558  26.801  1.00  0.00     0.016 A 
ATOM     44  C   UNL A   1      44.717  27.826  25.979  1.00  0.00     0.016 A 
ATOM     45  C   UNL A   1      46.288  28.965  27.993  1.00  0.00     0.010 A 
ATOM     46  C   UNL A   1      44.123  28.229  27.179  1.00  0.00     0.010 A 
ATOM     47  C   UNL A   1      44.902  28.824  28.181  1.00  0.00    -0.014 A 
BRANCH  47  48
ATOM     48  C   UNL A   1      44.262  29.488  29.340  1.00  0.00     0.031 A 
ATOM     49  C   UNL A   1      43.968  28.768  30.619  1.00  0.00     0.074 A 
ATOM     50  C   UNL A   1      43.955  30.793  29.212  1.00  0.00     0.049 A 
ATOM     51  N   UNL A   1      43.525  29.257  31.751  1.00  0.00    -0.248 NA
ATOM     52  C   UNL A   1      44.186  27.316  30.630  1.00  0.00     0.031 C 
ATOM     53  C   UNL A   1      44.159  31.584  27.997  1.00  0.00     0.029 A 
ATOM     54  N   UNL A   1      43.417  31.680  30.105  1.00  0.00    -0.354 N 
ATOM     55  C   UNL A   1      43.434  28.180  32.621  1.00  0.00     0.074 A 
ATOM     56  C   UNL A   1      43.821  27.003  31.868  1.00  0.00     0.031 C 
ATOM     57  C   UNL A   1      43.773  32.848  28.229  1.00  0.00     0.029 A 
ATOM     58  C   UNL A   1      43.281  32.948  29.599  1.00  0.00     0.049 A 
ATOM     59  H   UNL A   1      43.155  31.433  31.022  1.00  0.00     0.167 HD
ATOM     60  C   UNL A   1      43.074  28.182  33.929  1.00  0.00     0.037 A 
ATOM     61  C   UNL A   1      42.819  34.071  30.177  1.00  0.00     0.037 A 
ATOM     62  C   UNL A   1      42.662  29.356  34.662  1.00  0.00     0.049 A 
ATOM     63  C   UNL A   1      42.393  34.034  31.614  1.00  0.00     0.074 A 
ATOM     64  C   UNL A   1      42.332  29.468  36.002  1.00  0.00     0.029 A 
ATOM     65  N   UNL A   1      42.499  30.619  34.109  1.00  0.00    -0.354 N 
ATOM     66  N   UNL A   1      42.412  33.032  32.458  1.00  0.00    -0.248 NA
ATOM     67  C   UNL A   1      41.891  35.292  32.182  1.00  0.00     0.031 C 
ATOM     68  C   UNL A   1      41.919  30.784  36.249  1.00  0.00     0.029 A 
ATOM     69  C   UNL A   1      42.038  31.506  35.074  1.00  0.00     0.049 A 
ATOM     70  H   UNL A   1      42.682  30.852  33.171  1.00  0.00     0.167 HD
ATOM     71  C   UNL A   1      41.944  33.540  33.661  1.00  0.00     0.074 A 
ATOM     72  C   UNL A   1      41.674  34.947  33.443  1.00  0.00     0.031 C 
ATOM     73  C   UNL A   1      41.753  32.899  34.841  1.00  0.00     0.037 A 
BRANCH  60  74
ATOM     74  C   UNL A   1      43.107  26.870  34.658  1.00  0.00     0.057 A 
ATOM     75  C   UNL A   1      44.311  26.351  35.154  1.00  0.00     0.134 A 
ATOM     76  C   UNL A   1      41.954  26.092  34.825  1.00  0.00     0.134 A 
ATOM     77  F   UNL A   1      45.455  27.037  35.019  1.00  0.00    -0.206 F 
ATOM     78  C   UNL A   1      44.365  25.108  35.789  1.00  0.00     0.040 A 
ATOM     79  C   UNL A   1      41.991  24.857  35.479  1.00  0.00     0.040 A 
ATOM     80  F   UNL A   1      40.767  26.530  34.376  1.00  0.00    -0.206 F 
ATOM     81  C   UNL A   1      43.201  24.360  35.958  1.00  0.00     0.006 A 
ENDBRANCH  60  74
BRANCH  61  82
ATOM     82  C   UNL A   1      42.764  35.331  29.398  1.00  0.00     0.057 A 
ATOM     83  C   UNL A   1      43.873  36.181  29.312  1.00  0.00     0.134 A 
ATOM     84  C   UNL A   1      41.602  35.709  28.717  1.00  0.00     0.134 A 
ATOM     85  F   UNL A   1      45.011  35.876  29.952  1.00  0.00    -0.206 F 
ATOM     86  C   UNL A   1      43.826  37.365  28.577  1.00  0.00     0.040 A 
ATOM     87  C   UNL A   1      41.550  36.878  27.958  1.00  0.00     0.040 A 
ATOM     88  F   UNL A   1      40.514  34.926  28.753  1.00  0.00    -0.206 F 
ATOM     89  C   UNL A   1      42.665  37.712  27.890  1.00  0.00     0.006 A 
ENDBRANCH  61  82
BRANCH  73  90
ATOM     90  C   UNL A   1      41.235  33.729  35.980  1.00  0.00     0.057 A 
ATOM     91  C   UNL A   1      42.114  34.425  36.819  1.00  0.00     0.134 A 
ATOM     92  C   UNL A   1      39.862  33.851  36.239  1.00  0.00     0.134 A 
ATOM     93  F   UNL A   1      43.440  34.348  36.632  1.00  0.00    -0.206 F 
ATOM     94  C   UNL A   1      41.647  35.218  37.869  1.00  0.00     0.040 A 
ATOM     95  C   UNL A   1      39.382  34.664  37.267  1.00  0.00     0.040 A 
ATOM     96  F   UNL A   1      38.965  33.226  35.461  1.00  0.00    -0.206 F 
ATOM     97  C   UNL A   1      40.277  35.348  38.089  1.00  0.00     0.006 A 
ENDBRANCH  73  90
ENDBRANCH  47  48
ENDBRANCH  40  42
ENDBRANCH  39  40
ENDBRANCH  38  39
ENDBRANCH  37  38
ENDBRANCH  36  37
ENDBRANCH  35  36
ENDBRANCH  34  35
ENDBRANCH  33  34
ENDBRANCH   1  33
TORSDOF 24
ENDMDL
