MODEL 1
REMARK VINA RESULT:     -10.1      0.000      0.000
REMARK SMILES O=C(COc1ccc([N+](=O)[O-])cc1)Nc1ccc(C(=O)OCCOCCOCCOCCOC(=O)c2ccc(-c3c4nc(c(-c5c(F)cccc5F)c5ccc([nH]5)c(-c5c(F)cccc5F)c5nc(c(-c6c(F)cccc6F)c6ccc3[nH]6)C=C5)C=C4)cc2)c(O)c1
REMARK SMILES IDX 25 1 24 2 23 3 22 4 21 5 19 6 20 7 18 8 15 9 16 10 92 11
REMARK SMILES IDX 17 12 90 13 14 14 1 15 2 16 3 18 4 19 5 20 6 21 13 22 7 23
REMARK SMILES IDX 12 24 8 25 9 26 10 27 11 28 91 29 26 31 27 32 28 33 29 34
REMARK SMILES IDX 30 35 31 36 32 37 33 38 34 39 35 40 36 41 37 42 89 43 38 44
REMARK SMILES IDX 88 45 39 46 40 47 41 48 82 49 42 50 87 51 81 52 83 53 43 54
REMARK SMILES IDX 86 55 80 56 79 57 44 59 70 60 53 61 69 62 54 63 57 64 68 65
REMARK SMILES IDX 84 66 55 67 56 68 67 70 85 71 58 72 45 73 46 74 51 75 47 76
REMARK SMILES IDX 48 77 50 78 52 79 49 80 71 81 72 82 77 83 73 84 74 85 76 86
REMARK SMILES IDX 78 87 75 88 59 89 60 90 65 91 61 92 62 93 64 94 66 95 63 96
REMARK H PARENT 14 17 91 30 83 58 57 69
REMARK Flexibility Score: inf
ROOT
ATOM      1  C   UNL A   1      32.376  29.183  27.262  1.00  0.00     0.188 C 
ENDROOT
BRANCH   1   2
ATOM      2  O   UNL A   1      31.878  30.409  26.762  1.00  0.00    -0.376 OA
BRANCH   2   3
ATOM      3  C   UNL A   1      31.401  30.484  25.434  1.00  0.00     0.202 C 
BRANCH   3   4
ATOM      4  C   UNL A   1      31.407  29.209  24.584  1.00  0.00     0.261 C 
BRANCH   4   5
ATOM      5  O   UNL A   1      30.589  29.259  23.415  1.00  0.00    -0.460 OA
BRANCH   5   6
ATOM      6  C   UNL A   1      29.585  28.360  23.335  1.00  0.00     0.341 C 
ATOM      7  O   UNL A   1      28.406  28.608  23.146  1.00  0.00    -0.246 OA
BRANCH   6   8
ATOM      8  C   UNL A   1      30.155  26.995  23.279  1.00  0.00     0.101 A 
ATOM      9  C   UNL A   1      31.260  24.421  23.373  1.00  0.00     0.045 A 
ATOM     10  C   UNL A   1      30.277  24.792  24.295  1.00  0.00     0.027 A 
ATOM     11  C   UNL A   1      31.590  25.292  22.331  1.00  0.00     0.073 A 
ATOM     12  C   UNL A   1      29.749  26.084  24.267  1.00  0.00     0.022 A 
ATOM     13  C   UNL A   1      31.034  26.571  22.280  1.00  0.00     0.132 A 
BRANCH   9  14
ATOM     14  N   UNL A   1      31.959  23.224  23.628  1.00  0.00    -0.323 N 
ATOM     15  O   UNL A   1      33.593  23.980  25.118  1.00  0.00    -0.271 OA
ATOM     16  C   UNL A   1      32.976  23.076  24.563  1.00  0.00     0.262 C 
ATOM     17  H   UNL A   1      31.706  22.431  23.104  1.00  0.00     0.170 HD
BRANCH  16  18
ATOM     18  C   UNL A   1      33.250  21.610  24.913  1.00  0.00     0.329 C 
BRANCH  18  19
ATOM     19  O   UNL A   1      32.798  20.667  23.940  1.00  0.00    -0.484 OA
BRANCH  19  20
ATOM     20  C   UNL A   1      32.945  19.362  24.334  1.00  0.00     0.120 A 
ATOM     21  C   UNL A   1      33.174  18.406  23.344  1.00  0.00     0.053 A 
ATOM     22  C   UNL A   1      32.726  18.963  25.655  1.00  0.00     0.053 A 
ATOM     23  C   UNL A   1      33.197  17.045  23.672  1.00  0.00     0.089 A 
ATOM     24  C   UNL A   1      32.740  17.606  25.992  1.00  0.00     0.089 A 
ATOM     25  C   UNL A   1      32.968  16.650  24.997  1.00  0.00     0.269 A 
BRANCH  25  26
ATOM     26  N   UNL A   1      32.935  15.223  25.344  1.00  0.00     0.062 N 
ATOM     27  O   UNL A   1      34.002  14.594  25.297  1.00  0.00    -0.258 OA
ATOM     28  O   UNL A   1      31.841  14.731  25.655  1.00  0.00    -0.258 OA
ENDBRANCH  25  26
ENDBRANCH  19  20
ENDBRANCH  18  19
ENDBRANCH  16  18
ENDBRANCH   9  14
BRANCH  13  29
ATOM     29  O   UNL A   1      31.394  27.409  21.261  1.00  0.00    -0.507 OA
ATOM     30  H   UNL A   1      31.791  27.061  20.487  1.00  0.00     0.293 HD
ENDBRANCH  13  29
ENDBRANCH   6   8
ENDBRANCH   5   6
ENDBRANCH   4   5
ENDBRANCH   3   4
ENDBRANCH   2   3
ENDBRANCH   1   2
BRANCH   1  31
ATOM     31  C   UNL A   1      33.896  29.168  27.571  1.00  0.00     0.188 C 
BRANCH  31  32
ATOM     32  O   UNL A   1      34.739  30.298  27.365  1.00  0.00    -0.377 OA
BRANCH  32  33
ATOM     33  C   UNL A   1      34.835  31.305  28.364  1.00  0.00     0.188 C 
BRANCH  33  34
ATOM     34  C   UNL A   1      34.112  32.648  28.126  1.00  0.00     0.188 C 
BRANCH  34  35
ATOM     35  O   UNL A   1      34.408  33.633  29.100  1.00  0.00    -0.376 OA
BRANCH  35  36
ATOM     36  C   UNL A   1      34.182  34.990  28.766  1.00  0.00     0.202 C 
BRANCH  36  37
ATOM     37  C   UNL A   1      33.226  35.824  29.633  1.00  0.00     0.261 C 
BRANCH  37  38
ATOM     38  O   UNL A   1      32.603  35.159  30.741  1.00  0.00    -0.460 OA
BRANCH  38  39
ATOM     39  C   UNL A   1      32.797  35.674  31.971  1.00  0.00     0.338 C 
ATOM     40  O   UNL A   1      32.064  36.440  32.578  1.00  0.00    -0.246 OA
BRANCH  39  41
ATOM     41  C   UNL A   1      33.980  35.004  32.548  1.00  0.00     0.060 A 
ATOM     42  C   UNL A   1      35.233  35.627  32.463  1.00  0.00     0.016 A 
ATOM     43  C   UNL A   1      33.846  33.765  33.179  1.00  0.00     0.016 A 
ATOM     44  C   UNL A   1      36.364  34.992  32.975  1.00  0.00     0.010 A 
ATOM     45  C   UNL A   1      34.983  33.119  33.669  1.00  0.00     0.010 A 
ATOM     46  C   UNL A   1      36.251  33.713  33.533  1.00  0.00    -0.014 A 
BRANCH  46  47
ATOM     47  C   UNL A   1      37.471  32.902  33.759  1.00  0.00     0.031 A 
ATOM     48  C   UNL A   1      38.257  33.146  35.018  1.00  0.00     0.074 A 
ATOM     49  C   UNL A   1      37.862  31.957  32.888  1.00  0.00     0.049 A 
ATOM     50  N   UNL A   1      39.379  32.606  35.419  1.00  0.00    -0.248 NA
ATOM     51  C   UNL A   1      37.701  34.141  35.949  1.00  0.00     0.031 C 
ATOM     52  C   UNL A   1      37.162  31.594  31.659  1.00  0.00     0.029 A 
ATOM     53  N   UNL A   1      38.960  31.134  32.908  1.00  0.00    -0.354 N 
ATOM     54  C   UNL A   1      39.665  33.202  36.641  1.00  0.00     0.074 A 
ATOM     55  C   UNL A   1      38.622  34.170  36.898  1.00  0.00     0.031 C 
ATOM     56  C   UNL A   1      37.854  30.625  31.036  1.00  0.00     0.029 A 
ATOM     57  C   UNL A   1      39.061  30.325  31.804  1.00  0.00     0.049 A 
ATOM     58  H   UNL A   1      39.613  31.123  33.646  1.00  0.00     0.167 HD
ATOM     59  C   UNL A   1      40.699  32.958  37.480  1.00  0.00     0.037 A 
ATOM     60  C   UNL A   1      40.031  29.460  31.448  1.00  0.00     0.037 A 
ATOM     61  C   UNL A   1      41.739  31.999  37.217  1.00  0.00     0.049 A 
ATOM     62  C   UNL A   1      41.218  29.264  32.357  1.00  0.00     0.074 A 
ATOM     63  C   UNL A   1      42.827  31.669  38.006  1.00  0.00     0.029 A 
ATOM     64  N   UNL A   1      41.825  31.224  36.070  1.00  0.00    -0.354 N 
ATOM     65  N   UNL A   1      41.473  29.816  33.520  1.00  0.00    -0.248 NA
ATOM     66  C   UNL A   1      42.249  28.319  31.905  1.00  0.00     0.031 C 
ATOM     67  C   UNL A   1      43.604  30.738  37.309  1.00  0.00     0.029 A 
ATOM     68  C   UNL A   1      42.963  30.436  36.118  1.00  0.00     0.049 A 
ATOM     69  H   UNL A   1      41.174  31.232  35.332  1.00  0.00     0.167 HD
ATOM     70  C   UNL A   1      42.670  29.257  33.955  1.00  0.00     0.074 A 
ATOM     71  C   UNL A   1      43.085  28.318  32.934  1.00  0.00     0.031 C 
ATOM     72  C   UNL A   1      43.359  29.496  35.098  1.00  0.00     0.037 A 
BRANCH  59  73
ATOM     73  C   UNL A   1      40.769  33.772  38.741  1.00  0.00     0.057 A 
ATOM     74  C   UNL A   1      40.054  33.424  39.894  1.00  0.00     0.134 A 
ATOM     75  C   UNL A   1      41.572  34.918  38.803  1.00  0.00     0.134 A 
ATOM     76  F   UNL A   1      39.251  32.348  39.899  1.00  0.00    -0.206 F 
ATOM     77  C   UNL A   1      40.107  34.203  41.051  1.00  0.00     0.040 A 
ATOM     78  C   UNL A   1      41.661  35.686  39.965  1.00  0.00     0.040 A 
ATOM     79  F   UNL A   1      42.288  35.308  37.737  1.00  0.00    -0.206 F 
ATOM     80  C   UNL A   1      40.919  35.334  41.090  1.00  0.00     0.006 A 
ENDBRANCH  59  73
BRANCH  60  81
ATOM     81  C   UNL A   1      39.930  28.712  30.167  1.00  0.00     0.057 A 
ATOM     82  C   UNL A   1      39.256  27.488  30.092  1.00  0.00     0.134 A 
ATOM     83  C   UNL A   1      40.524  29.193  28.994  1.00  0.00     0.134 A 
ATOM     84  F   UNL A   1      38.688  26.962  31.187  1.00  0.00    -0.206 F 
ATOM     85  C   UNL A   1      39.191  26.760  28.903  1.00  0.00     0.040 A 
ATOM     86  C   UNL A   1      40.443  28.490  27.790  1.00  0.00     0.040 A 
ATOM     87  F   UNL A   1      41.186  30.360  28.997  1.00  0.00    -0.206 F 
ATOM     88  C   UNL A   1      39.781  27.265  27.745  1.00  0.00     0.006 A 
ENDBRANCH  60  81
BRANCH  72  89
ATOM     89  C   UNL A   1      44.606  28.690  35.337  1.00  0.00     0.057 A 
ATOM     90  C   UNL A   1      44.580  27.444  35.978  1.00  0.00     0.134 A 
ATOM     91  C   UNL A   1      45.847  29.153  34.878  1.00  0.00     0.134 A 
ATOM     92  F   UNL A   1      43.428  26.945  36.449  1.00  0.00    -0.206 F 
ATOM     93  C   UNL A   1      45.747  26.704  36.180  1.00  0.00     0.040 A 
ATOM     94  C   UNL A   1      47.014  28.407  35.046  1.00  0.00     0.040 A 
ATOM     95  F   UNL A   1      45.943  30.331  34.244  1.00  0.00    -0.206 F 
ATOM     96  C   UNL A   1      46.968  27.182  35.707  1.00  0.00     0.006 A 
ENDBRANCH  72  89
ENDBRANCH  46  47
ENDBRANCH  39  41
ENDBRANCH  38  39
ENDBRANCH  37  38
ENDBRANCH  36  37
ENDBRANCH  35  36
ENDBRANCH  34  35
ENDBRANCH  33  34
ENDBRANCH  32  33
ENDBRANCH  31  32
ENDBRANCH   1  31
TORSDOF 26
ENDMDL
MODEL 2
REMARK VINA RESULT:     -10.1      3.820      5.500
REMARK SMILES O=C(COc1ccc([N+](=O)[O-])cc1)Nc1ccc(C(=O)OCCOCCOCCOCCOC(=O)c2ccc(-c3c4nc(c(-c5c(F)cccc5F)c5ccc([nH]5)c(-c5c(F)cccc5F)c5nc(c(-c6c(F)cccc6F)c6ccc3[nH]6)C=C5)C=C4)cc2)c(O)c1
REMARK SMILES IDX 25 1 24 2 23 3 22 4 21 5 19 6 20 7 18 8 15 9 16 10 92 11
REMARK SMILES IDX 17 12 90 13 14 14 1 15 2 16 3 18 4 19 5 20 6 21 13 22 7 23
REMARK SMILES IDX 12 24 8 25 9 26 10 27 11 28 91 29 26 31 27 32 28 33 29 34
REMARK SMILES IDX 30 35 31 36 32 37 33 38 34 39 35 40 36 41 37 42 89 43 38 44
REMARK SMILES IDX 88 45 39 46 40 47 41 48 82 49 42 50 87 51 81 52 83 53 43 54
REMARK SMILES IDX 86 55 80 56 79 57 44 59 70 60 53 61 69 62 54 63 57 64 68 65
REMARK SMILES IDX 84 66 55 67 56 68 67 70 85 71 58 72 45 73 46 74 51 75 47 76
REMARK SMILES IDX 48 77 50 78 52 79 49 80 71 81 72 82 77 83 73 84 74 85 76 86
REMARK SMILES IDX 78 87 75 88 59 89 60 90 65 91 61 92 62 93 64 94 66 95 63 96
REMARK H PARENT 14 17 91 30 83 58 57 69
REMARK Flexibility Score: inf
ROOT
ATOM      1  C   UNL A   1      33.044  25.386  25.570  1.00  0.00     0.188 C 
ENDROOT
BRANCH   1   2
ATOM      2  O   UNL A   1      32.202  25.415  24.433  1.00  0.00    -0.376 OA
BRANCH   2   3
ATOM      3  C   UNL A   1      32.755  25.659  23.156  1.00  0.00     0.202 C 
BRANCH   3   4
ATOM      4  C   UNL A   1      32.585  24.590  22.072  1.00  0.00     0.261 C 
BRANCH   4   5
ATOM      5  O   UNL A   1      33.555  23.543  22.101  1.00  0.00    -0.460 OA
BRANCH   5   6
ATOM      6  C   UNL A   1      33.420  22.613  23.070  1.00  0.00     0.341 C 
ATOM      7  O   UNL A   1      32.478  21.851  23.216  1.00  0.00    -0.246 OA
BRANCH   6   8
ATOM      8  C   UNL A   1      34.698  22.486  23.807  1.00  0.00     0.101 A 
ATOM      9  C   UNL A   1      37.213  22.277  25.027  1.00  0.00     0.045 A 
ATOM     10  C   UNL A   1      36.949  23.332  24.148  1.00  0.00     0.027 A 
ATOM     11  C   UNL A   1      36.179  21.409  25.390  1.00  0.00     0.073 A 
ATOM     12  C   UNL A   1      35.706  23.419  23.518  1.00  0.00     0.022 A 
ATOM     13  C   UNL A   1      34.924  21.517  24.787  1.00  0.00     0.132 A 
BRANCH   9  14
ATOM     14  N   UNL A   1      38.557  22.075  25.400  1.00  0.00    -0.323 N 
ATOM     15  O   UNL A   1      38.733  23.540  27.213  1.00  0.00    -0.271 OA
ATOM     16  C   UNL A   1      39.165  22.620  26.524  1.00  0.00     0.262 C 
ATOM     17  H   UNL A   1      39.107  21.502  24.820  1.00  0.00     0.170 HD
BRANCH  16  18
ATOM     18  C   UNL A   1      40.469  21.908  26.895  1.00  0.00     0.329 C 
BRANCH  18  19
ATOM     19  O   UNL A   1      41.645  22.463  26.304  1.00  0.00    -0.484 OA
BRANCH  19  20
ATOM     20  C   UNL A   1      42.592  21.525  25.984  1.00  0.00     0.120 A 
ATOM     21  C   UNL A   1      43.775  21.970  25.394  1.00  0.00     0.053 A 
ATOM     22  C   UNL A   1      42.339  20.155  26.098  1.00  0.00     0.053 A 
ATOM     23  C   UNL A   1      44.719  21.048  24.926  1.00  0.00     0.089 A 
ATOM     24  C   UNL A   1      43.271  19.226  25.626  1.00  0.00     0.089 A 
ATOM     25  C   UNL A   1      44.455  19.676  25.034  1.00  0.00     0.269 A 
BRANCH  25  26
ATOM     26  N   UNL A   1      45.411  18.699  24.496  1.00  0.00     0.062 N 
ATOM     27  O   UNL A   1      45.823  17.815  25.261  1.00  0.00    -0.258 OA
ATOM     28  O   UNL A   1      45.755  18.821  23.312  1.00  0.00    -0.258 OA
ENDBRANCH  25  26
ENDBRANCH  19  20
ENDBRANCH  18  19
ENDBRANCH  16  18
ENDBRANCH   9  14
BRANCH  13  29
ATOM     29  O   UNL A   1      33.940  20.639  25.146  1.00  0.00    -0.507 OA
ATOM     30  H   UNL A   1      34.133  19.934  25.732  1.00  0.00     0.293 HD
ENDBRANCH  13  29
ENDBRANCH   6   8
ENDBRANCH   5   6
ENDBRANCH   4   5
ENDBRANCH   3   4
ENDBRANCH   2   3
ENDBRANCH   1   2
BRANCH   1  31
ATOM     31  C   UNL A   1      32.986  26.652  26.465  1.00  0.00     0.188 C 
BRANCH  31  32
ATOM     32  O   UNL A   1      33.902  27.735  26.333  1.00  0.00    -0.377 OA
BRANCH  32  33
ATOM     33  C   UNL A   1      33.578  29.009  26.873  1.00  0.00     0.188 C 
BRANCH  33  34
ATOM     34  C   UNL A   1      32.095  29.436  26.912  1.00  0.00     0.188 C 
BRANCH  34  35
ATOM     35  O   UNL A   1      31.889  30.802  26.600  1.00  0.00    -0.376 OA
BRANCH  35  36
ATOM     36  C   UNL A   1      32.737  31.759  27.207  1.00  0.00     0.202 C 
BRANCH  36  37
ATOM     37  C   UNL A   1      32.247  33.209  27.350  1.00  0.00     0.261 C 
BRANCH  37  38
ATOM     38  O   UNL A   1      32.627  33.911  28.542  1.00  0.00    -0.460 OA
BRANCH  38  39
ATOM     39  C   UNL A   1      33.694  34.731  28.474  1.00  0.00     0.338 C 
ATOM     40  O   UNL A   1      33.737  35.852  27.990  1.00  0.00    -0.246 OA
BRANCH  39  41
ATOM     41  C   UNL A   1      34.780  34.109  29.257  1.00  0.00     0.060 A 
ATOM     42  C   UNL A   1      36.103  34.521  29.045  1.00  0.00     0.016 A 
ATOM     43  C   UNL A   1      34.487  33.125  30.204  1.00  0.00     0.016 A 
ATOM     44  C   UNL A   1      37.143  33.920  29.753  1.00  0.00     0.010 A 
ATOM     45  C   UNL A   1      35.531  32.506  30.895  1.00  0.00     0.010 A 
ATOM     46  C   UNL A   1      36.865  32.875  30.643  1.00  0.00    -0.014 A 
BRANCH  46  47
ATOM     47  C   UNL A   1      37.970  32.015  31.130  1.00  0.00     0.031 A 
ATOM     48  C   UNL A   1      38.424  32.188  32.553  1.00  0.00     0.074 A 
ATOM     49  C   UNL A   1      38.543  31.087  30.344  1.00  0.00     0.049 A 
ATOM     50  N   UNL A   1      39.397  31.596  33.197  1.00  0.00    -0.248 NA
ATOM     51  C   UNL A   1      37.679  33.169  33.358  1.00  0.00     0.031 C 
ATOM     52  C   UNL A   1      38.161  30.792  28.966  1.00  0.00     0.029 A 
ATOM     53  N   UNL A   1      39.580  30.226  30.601  1.00  0.00    -0.354 N 
ATOM     54  C   UNL A   1      39.385  32.139  34.476  1.00  0.00     0.074 A 
ATOM     55  C   UNL A   1      38.335  33.134  34.506  1.00  0.00     0.031 C 
ATOM     56  C   UNL A   1      38.962  29.821  28.493  1.00  0.00     0.029 A 
ATOM     57  C   UNL A   1      39.933  29.453  29.523  1.00  0.00     0.049 A 
ATOM     58  H   UNL A   1      40.028  30.168  31.476  1.00  0.00     0.167 HD
ATOM     59  C   UNL A   1      40.171  31.831  35.534  1.00  0.00     0.037 A 
ATOM     60  C   UNL A   1      40.939  28.568  29.382  1.00  0.00     0.037 A 
ATOM     61  C   UNL A   1      41.219  30.846  35.497  1.00  0.00     0.049 A 
ATOM     62  C   UNL A   1      41.856  28.300  30.549  1.00  0.00     0.074 A 
ATOM     63  C   UNL A   1      42.069  30.452  36.515  1.00  0.00     0.029 A 
ATOM     64  N   UNL A   1      41.570  30.109  34.375  1.00  0.00    -0.354 N 
ATOM     65  N   UNL A   1      41.828  28.803  31.760  1.00  0.00    -0.248 NA
ATOM     66  C   UNL A   1      42.944  27.337  30.327  1.00  0.00     0.031 C 
ATOM     67  C   UNL A   1      42.971  29.520  35.994  1.00  0.00     0.029 A 
ATOM     68  C   UNL A   1      42.640  29.281  34.670  1.00  0.00     0.049 A 
ATOM     69  H   UNL A   1      41.122  30.165  33.500  1.00  0.00     0.167 HD
ATOM     70  C   UNL A   1      42.865  28.188  32.454  1.00  0.00     0.074 A 
ATOM     71  C   UNL A   1      43.498  27.271  31.529  1.00  0.00     0.031 C 
ATOM     72  C   UNL A   1      43.254  28.364  33.742  1.00  0.00     0.037 A 
BRANCH  59  73
ATOM     73  C   UNL A   1      39.946  32.598  36.806  1.00  0.00     0.057 A 
ATOM     74  C   UNL A   1      40.785  33.648  37.201  1.00  0.00     0.134 A 
ATOM     75  C   UNL A   1      38.868  32.286  37.643  1.00  0.00     0.134 A 
ATOM     76  F   UNL A   1      41.848  33.988  36.455  1.00  0.00    -0.206 F 
ATOM     77  C   UNL A   1      40.581  34.337  38.398  1.00  0.00     0.040 A 
ATOM     78  C   UNL A   1      38.633  32.989  38.825  1.00  0.00     0.040 A 
ATOM     79  F   UNL A   1      38.021  31.295  37.324  1.00  0.00    -0.206 F 
ATOM     80  C   UNL A   1      39.497  34.012  39.210  1.00  0.00     0.006 A 
ENDBRANCH  59  73
BRANCH  60  81
ATOM     81  C   UNL A   1      41.140  27.869  28.087  1.00  0.00     0.057 A 
ATOM     82  C   UNL A   1      41.943  28.420  27.081  1.00  0.00     0.134 A 
ATOM     83  C   UNL A   1      40.518  26.644  27.815  1.00  0.00     0.134 A 
ATOM     84  F   UNL A   1      42.545  29.602  27.270  1.00  0.00    -0.206 F 
ATOM     85  C   UNL A   1      42.104  27.789  25.846  1.00  0.00     0.040 A 
ATOM     86  C   UNL A   1      40.693  25.988  26.596  1.00  0.00     0.040 A 
ATOM     87  F   UNL A   1      39.735  26.063  28.736  1.00  0.00    -0.206 F 
ATOM     88  C   UNL A   1      41.483  26.565  25.603  1.00  0.00     0.006 A 
ENDBRANCH  60  81
BRANCH  72  89
ATOM     89  C   UNL A   1      44.381  27.507  34.248  1.00  0.00     0.057 A 
ATOM     90  C   UNL A   1      45.710  27.950  34.262  1.00  0.00     0.134 A 
ATOM     91  C   UNL A   1      44.122  26.232  34.770  1.00  0.00     0.134 A 
ATOM     92  F   UNL A   1      46.030  29.158  33.772  1.00  0.00    -0.206 F 
ATOM     93  C   UNL A   1      46.743  27.146  34.748  1.00  0.00     0.040 A 
ATOM     94  C   UNL A   1      45.141  25.432  35.288  1.00  0.00     0.040 A 
ATOM     95  F   UNL A   1      42.871  25.749  34.799  1.00  0.00    -0.206 F 
ATOM     96  C   UNL A   1      46.458  25.885  35.269  1.00  0.00     0.006 A 
ENDBRANCH  72  89
ENDBRANCH  46  47
ENDBRANCH  39  41
ENDBRANCH  38  39
ENDBRANCH  37  38
ENDBRANCH  36  37
ENDBRANCH  35  36
ENDBRANCH  34  35
ENDBRANCH  33  34
ENDBRANCH  32  33
ENDBRANCH  31  32
ENDBRANCH   1  31
TORSDOF 26
ENDMDL
MODEL 3
REMARK VINA RESULT:     -10.0      3.858      6.713
REMARK SMILES O=C(COc1ccc([N+](=O)[O-])cc1)Nc1ccc(C(=O)OCCOCCOCCOCCOC(=O)c2ccc(-c3c4nc(c(-c5c(F)cccc5F)c5ccc([nH]5)c(-c5c(F)cccc5F)c5nc(c(-c6c(F)cccc6F)c6ccc3[nH]6)C=C5)C=C4)cc2)c(O)c1
REMARK SMILES IDX 25 1 24 2 23 3 22 4 21 5 19 6 20 7 18 8 15 9 16 10 92 11
REMARK SMILES IDX 17 12 90 13 14 14 1 15 2 16 3 18 4 19 5 20 6 21 13 22 7 23
REMARK SMILES IDX 12 24 8 25 9 26 10 27 11 28 91 29 26 31 27 32 28 33 29 34
REMARK SMILES IDX 30 35 31 36 32 37 33 38 34 39 35 40 36 41 37 42 89 43 38 44
REMARK SMILES IDX 88 45 39 46 40 47 41 48 82 49 42 50 87 51 81 52 83 53 43 54
REMARK SMILES IDX 86 55 80 56 79 57 44 59 70 60 53 61 69 62 54 63 57 64 68 65
REMARK SMILES IDX 84 66 55 67 56 68 67 70 85 71 58 72 45 73 46 74 51 75 47 76
REMARK SMILES IDX 48 77 50 78 52 79 49 80 71 81 72 82 77 83 73 84 74 85 76 86
REMARK SMILES IDX 78 87 75 88 59 89 60 90 65 91 61 92 62 93 64 94 66 95 63 96
REMARK H PARENT 14 17 91 30 83 58 57 69
REMARK Flexibility Score: inf
ROOT
ATOM      1  C   UNL A   1      32.168  26.677  25.942  1.00  0.00     0.188 C 
ENDROOT
BRANCH   1   2
ATOM      2  O   UNL A   1      31.854  25.654  26.867  1.00  0.00    -0.376 OA
BRANCH   2   3
ATOM      3  C   UNL A   1      31.303  24.436  26.408  1.00  0.00     0.202 C 
BRANCH   3   4
ATOM      4  C   UNL A   1      32.098  23.146  26.632  1.00  0.00     0.261 C 
BRANCH   4   5
ATOM      5  O   UNL A   1      33.506  23.260  26.425  1.00  0.00    -0.460 OA
BRANCH   5   6
ATOM      6  C   UNL A   1      34.025  22.581  25.381  1.00  0.00     0.341 C 
ATOM      7  O   UNL A   1      33.446  22.290  24.346  1.00  0.00    -0.246 OA
BRANCH   6   8
ATOM      8  C   UNL A   1      35.486  22.435  25.570  1.00  0.00     0.101 A 
ATOM      9  C   UNL A   1      38.275  22.328  25.822  1.00  0.00     0.045 A 
ATOM     10  C   UNL A   1      37.598  23.527  26.064  1.00  0.00     0.027 A 
ATOM     11  C   UNL A   1      37.544  21.161  25.584  1.00  0.00     0.073 A 
ATOM     12  C   UNL A   1      36.211  23.587  25.910  1.00  0.00     0.022 A 
ATOM     13  C   UNL A   1      36.154  21.213  25.465  1.00  0.00     0.132 A 
BRANCH   9  14
ATOM     14  N   UNL A   1      39.678  22.397  25.707  1.00  0.00    -0.323 N 
ATOM     15  O   UNL A   1      40.332  21.298  27.664  1.00  0.00    -0.271 OA
ATOM     16  C   UNL A   1      40.581  21.775  26.561  1.00  0.00     0.262 C 
ATOM     17  H   UNL A   1      40.047  22.925  24.964  1.00  0.00     0.170 HD
BRANCH  16  18
ATOM     18  C   UNL A   1      41.988  21.675  25.963  1.00  0.00     0.329 C 
BRANCH  18  19
ATOM     19  O   UNL A   1      43.040  21.554  26.922  1.00  0.00    -0.484 OA
BRANCH  19  20
ATOM     20  C   UNL A   1      43.993  22.534  26.815  1.00  0.00     0.120 A 
ATOM     21  C   UNL A   1      44.097  23.458  27.855  1.00  0.00     0.053 A 
ATOM     22  C   UNL A   1      44.742  22.708  25.648  1.00  0.00     0.053 A 
ATOM     23  C   UNL A   1      44.959  24.555  27.739  1.00  0.00     0.089 A 
ATOM     24  C   UNL A   1      45.600  23.804  25.518  1.00  0.00     0.089 A 
ATOM     25  C   UNL A   1      45.700  24.729  26.563  1.00  0.00     0.269 A 
BRANCH  25  26
ATOM     26  N   UNL A   1      46.565  25.906  26.406  1.00  0.00     0.062 N 
ATOM     27  O   UNL A   1      46.558  26.483  25.309  1.00  0.00    -0.258 OA
ATOM     28  O   UNL A   1      47.256  26.247  27.376  1.00  0.00    -0.258 OA
ENDBRANCH  25  26
ENDBRANCH  19  20
ENDBRANCH  18  19
ENDBRANCH  16  18
ENDBRANCH   9  14
BRANCH  13  29
ATOM     29  O   UNL A   1      35.469  20.058  25.208  1.00  0.00    -0.507 OA
ATOM     30  H   UNL A   1      34.928  19.677  25.871  1.00  0.00     0.293 HD
ENDBRANCH  13  29
ENDBRANCH   6   8
ENDBRANCH   5   6
ENDBRANCH   4   5
ENDBRANCH   3   4
ENDBRANCH   2   3
ENDBRANCH   1   2
BRANCH   1  31
ATOM     31  C   UNL A   1      31.182  26.814  24.752  1.00  0.00     0.188 C 
BRANCH  31  32
ATOM     32  O   UNL A   1      30.923  28.054  24.100  1.00  0.00    -0.377 OA
BRANCH  32  33
ATOM     33  C   UNL A   1      31.752  29.179  24.359  1.00  0.00     0.188 C 
BRANCH  33  34
ATOM     34  C   UNL A   1      31.132  30.399  25.074  1.00  0.00     0.188 C 
BRANCH  34  35
ATOM     35  O   UNL A   1      31.459  30.477  26.450  1.00  0.00    -0.376 OA
BRANCH  35  36
ATOM     36  C   UNL A   1      32.474  31.382  26.843  1.00  0.00     0.202 C 
BRANCH  36  37
ATOM     37  C   UNL A   1      32.155  32.885  26.901  1.00  0.00     0.261 C 
BRANCH  37  38
ATOM     38  O   UNL A   1      32.332  33.540  28.165  1.00  0.00    -0.460 OA
BRANCH  38  39
ATOM     39  C   UNL A   1      33.412  34.332  28.315  1.00  0.00     0.338 C 
ATOM     40  O   UNL A   1      33.437  35.553  28.346  1.00  0.00    -0.246 OA
BRANCH  39  41
ATOM     41  C   UNL A   1      34.561  33.457  28.622  1.00  0.00     0.060 A 
ATOM     42  C   UNL A   1      34.333  32.197  29.195  1.00  0.00     0.016 A 
ATOM     43  C   UNL A   1      35.861  33.880  28.337  1.00  0.00     0.016 A 
ATOM     44  C   UNL A   1      35.409  31.374  29.521  1.00  0.00     0.010 A 
ATOM     45  C   UNL A   1      36.940  33.065  28.687  1.00  0.00     0.010 A 
ATOM     46  C   UNL A   1      36.719  31.827  29.316  1.00  0.00    -0.014 A 
BRANCH  46  47
ATOM     47  C   UNL A   1      37.849  31.119  29.964  1.00  0.00     0.031 A 
ATOM     48  C   UNL A   1      38.122  31.404  31.415  1.00  0.00     0.074 A 
ATOM     49  C   UNL A   1      38.601  30.229  29.295  1.00  0.00     0.049 A 
ATOM     50  N   UNL A   1      39.075  30.954  32.190  1.00  0.00    -0.248 NA
ATOM     51  C   UNL A   1      37.190  32.329  32.082  1.00  0.00     0.031 C 
ATOM     52  C   UNL A   1      38.408  29.833  27.903  1.00  0.00     0.029 A 
ATOM     53  N   UNL A   1      39.690  29.503  29.707  1.00  0.00    -0.354 N 
ATOM     54  C   UNL A   1      38.863  31.547  33.428  1.00  0.00     0.074 A 
ATOM     55  C   UNL A   1      37.715  32.418  33.293  1.00  0.00     0.031 C 
ATOM     56  C   UNL A   1      39.356  28.939  27.571  1.00  0.00     0.029 A 
ATOM     57  C   UNL A   1      40.241  28.728  28.716  1.00  0.00     0.049 A 
ATOM     58  H   UNL A   1      40.043  29.533  30.626  1.00  0.00     0.167 HD
ATOM     59  C   UNL A   1      39.556  31.376  34.578  1.00  0.00     0.037 A 
ATOM     60  C   UNL A   1      41.346  27.958  28.731  1.00  0.00     0.037 A 
ATOM     61  C   UNL A   1      40.702  30.515  34.706  1.00  0.00     0.049 A 
ATOM     62  C   UNL A   1      42.152  27.846  30.001  1.00  0.00     0.074 A 
ATOM     63  C   UNL A   1      41.471  30.264  35.828  1.00  0.00     0.029 A 
ATOM     64  N   UNL A   1      41.251  29.775  33.670  1.00  0.00    -0.354 N 
ATOM     65  N   UNL A   1      41.936  28.394  31.173  1.00  0.00    -0.248 NA
ATOM     66  C   UNL A   1      43.355  27.002  29.948  1.00  0.00     0.031 C 
ATOM     67  C   UNL A   1      42.521  29.418  35.458  1.00  0.00     0.029 A 
ATOM     68  C   UNL A   1      42.365  29.086  34.121  1.00  0.00     0.049 A 
ATOM     69  H   UNL A   1      40.900  29.742  32.750  1.00  0.00     0.167 HD
ATOM     70  C   UNL A   1      42.950  27.931  32.005  1.00  0.00     0.074 A 
ATOM     71  C   UNL A   1      43.776  27.052  31.204  1.00  0.00     0.031 C 
ATOM     72  C   UNL A   1      43.173  28.205  33.314  1.00  0.00     0.037 A 
BRANCH  59  73
ATOM     73  C   UNL A   1      39.111  32.167  35.775  1.00  0.00     0.057 A 
ATOM     74  C   UNL A   1      38.239  31.638  36.736  1.00  0.00     0.134 A 
ATOM     75  C   UNL A   1      39.568  33.477  35.972  1.00  0.00     0.134 A 
ATOM     76  F   UNL A   1      37.748  30.397  36.600  1.00  0.00    -0.206 F 
ATOM     77  C   UNL A   1      37.811  32.393  37.830  1.00  0.00     0.040 A 
ATOM     78  C   UNL A   1      39.174  34.229  37.079  1.00  0.00     0.040 A 
ATOM     79  F   UNL A   1      40.408  34.045  35.093  1.00  0.00    -0.206 F 
ATOM     80  C   UNL A   1      38.286  33.691  38.007  1.00  0.00     0.006 A 
ENDBRANCH  59  73
BRANCH  60  81
ATOM     81  C   UNL A   1      41.764  27.230  27.504  1.00  0.00     0.057 A 
ATOM     82  C   UNL A   1      42.665  27.796  26.596  1.00  0.00     0.134 A 
ATOM     83  C   UNL A   1      41.254  25.962  27.200  1.00  0.00     0.134 A 
ATOM     84  F   UNL A   1      43.169  29.018  26.817  1.00  0.00    -0.206 F 
ATOM     85  C   UNL A   1      43.031  27.136  25.421  1.00  0.00     0.040 A 
ATOM     86  C   UNL A   1      41.633  25.278  26.044  1.00  0.00     0.040 A 
ATOM     87  F   UNL A   1      40.384  25.364  28.029  1.00  0.00    -0.206 F 
ATOM     88  C   UNL A   1      42.519  25.870  25.146  1.00  0.00     0.006 A 
ENDBRANCH  60  81
BRANCH  72  89
ATOM     89  C   UNL A   1      44.323  27.504  33.983  1.00  0.00     0.057 A 
ATOM     90  C   UNL A   1      44.203  26.218  34.525  1.00  0.00     0.134 A 
ATOM     91  C   UNL A   1      45.584  28.114  34.046  1.00  0.00     0.134 A 
ATOM     92  F   UNL A   1      43.023  25.578  34.505  1.00  0.00    -0.206 F 
ATOM     93  C   UNL A   1      45.285  25.577  35.131  1.00  0.00     0.040 A 
ATOM     94  C   UNL A   1      46.681  27.471  34.620  1.00  0.00     0.040 A 
ATOM     95  F   UNL A   1      45.774  29.340  33.536  1.00  0.00    -0.206 F 
ATOM     96  C   UNL A   1      46.531  26.201  35.174  1.00  0.00     0.006 A 
ENDBRANCH  72  89
ENDBRANCH  46  47
ENDBRANCH  39  41
ENDBRANCH  38  39
ENDBRANCH  37  38
ENDBRANCH  36  37
ENDBRANCH  35  36
ENDBRANCH  34  35
ENDBRANCH  33  34
ENDBRANCH  32  33
ENDBRANCH  31  32
ENDBRANCH   1  31
TORSDOF 26
ENDMDL
