MODEL 1
REMARK VINA RESULT:     -11.0      0.000      0.000
REMARK SMILES Nn1c(S[C@@H](C(=O)OCCOCCOCCOCCOC(=O)c2ccc(-c3c4nc(c(-c5c(F)cccc5F)c5ccc([nH]5)c(-c5c(F)cccc5F)c5nc(c(-c6c(F)cccc6F)c6ccc3[nH]6)C=C5)C=C4)cc2)c2ccccc2)nc2ccc(Br)cc2c1=O
REMARK SMILES IDX 13 1 12 2 11 3 10 4 9 5 8 6 6 7 7 8 5 9 4 10 3 11 2 12 91 13
REMARK SMILES IDX 83 14 90 15 92 16 84 17 89 18 85 19 87 20 86 21 88 22 1 23
REMARK SMILES IDX 77 26 78 27 82 28 79 29 81 30 80 31 14 32 15 33 16 34 17 35
REMARK SMILES IDX 18 36 19 37 20 38 21 39 22 40 23 41 24 42 76 43 25 44 75 45
REMARK SMILES IDX 26 46 27 47 28 48 69 49 29 50 74 51 68 52 70 53 30 54 73 55
REMARK SMILES IDX 67 56 66 57 31 59 57 60 40 61 56 62 41 63 44 64 55 65 71 66
REMARK SMILES IDX 42 67 43 68 54 70 72 71 45 72 32 73 33 74 38 75 34 76 35 77
REMARK SMILES IDX 37 78 39 79 36 80 58 81 59 82 64 83 60 84 61 85 63 86 65 87
REMARK SMILES IDX 62 88 46 89 47 90 52 91 48 92 49 93 51 94 53 95 50 96
REMARK H PARENT 1 24 1 25 70 58 44 69
REMARK Flexibility Score: inf
ROOT
ATOM      1  C   UNL A   1      36.497  22.000  25.228  1.00  0.00     0.188 C 
ENDROOT
BRANCH   1   2
ATOM      2  C   UNL A   1      35.235  22.847  25.016  1.00  0.00     0.188 C 
BRANCH   2   3
ATOM      3  O   UNL A   1      35.371  24.247  24.845  1.00  0.00    -0.376 OA
BRANCH   3   4
ATOM      4  C   UNL A   1      34.303  25.084  25.258  1.00  0.00     0.202 C 
BRANCH   4   5
ATOM      5  C   UNL A   1      33.963  26.333  24.434  1.00  0.00     0.261 C 
BRANCH   5   6
ATOM      6  O   UNL A   1      32.814  27.106  24.857  1.00  0.00    -0.462 OA
BRANCH   6   7
ATOM      7  C   UNL A   1      32.123  27.749  23.862  1.00  0.00     0.324 C 
ATOM      8  O   UNL A   1      32.690  28.500  23.071  1.00  0.00    -0.251 OA
BRANCH   7   9
ATOM      9  C   UNL A   1      30.573  27.574  23.945  1.00  0.00     0.194 C 
BRANCH   9  10
ATOM     10  S   UNL A   1      29.960  25.986  23.359  1.00  0.00    -0.066 SA
BRANCH  10  11
ATOM     11  C   UNL A   1      30.625  24.579  24.170  1.00  0.00     0.191 A 
ATOM     12  N   UNL A   1      30.547  24.307  25.538  1.00  0.00    -0.202 N 
ATOM     13  C   UNL A   1      31.167  23.183  26.103  1.00  0.00     0.280 A 
ATOM     14  N   UNL A   1      31.209  23.758  23.347  1.00  0.00    -0.222 NA
ATOM     15  C   UNL A   1      31.724  22.204  25.163  1.00  0.00     0.069 A 
ATOM     16  O   UNL A   1      31.204  22.967  27.314  1.00  0.00    -0.267 OA
ATOM     17  C   UNL A   1      31.698  22.531  23.811  1.00  0.00     0.079 A 
ATOM     18  C   UNL A   1      32.123  20.934  25.605  1.00  0.00     0.031 A 
ATOM     19  C   UNL A   1      32.085  21.559  22.884  1.00  0.00     0.030 A 
ATOM     20  C   UNL A   1      32.475  19.971  24.663  1.00  0.00     0.018 A 
ATOM     21  C   UNL A   1      32.461  20.276  23.304  1.00  0.00     0.018 A 
ATOM     22  Br  UNL A   1      32.894  18.216  25.228  1.00  0.00    -0.051 Br
BRANCH  12  23
ATOM     23  N   UNL A   1      29.775  25.075  26.446  1.00  0.00    -0.334 N 
ATOM     24  H   UNL A   1      29.898  24.961  27.416  1.00  0.00     0.178 HD
ATOM     25  H   UNL A   1      29.116  25.723  26.106  1.00  0.00     0.178 HD
ENDBRANCH  12  23
ENDBRANCH  10  11
ENDBRANCH   9  10
BRANCH   9  26
ATOM     26  C   UNL A   1      29.811  28.858  23.572  1.00  0.00    -0.023 A 
ATOM     27  C   UNL A   1      30.183  30.152  23.961  1.00  0.00     0.005 A 
ATOM     28  C   UNL A   1      28.581  28.716  22.899  1.00  0.00     0.005 A 
ATOM     29  C   UNL A   1      29.253  31.196  23.931  1.00  0.00     0.000 A 
ATOM     30  C   UNL A   1      27.663  29.762  22.840  1.00  0.00     0.000 A 
ATOM     31  C   UNL A   1      27.981  30.988  23.407  1.00  0.00     0.000 A 
ENDBRANCH   9  26
ENDBRANCH   7   9
ENDBRANCH   6   7
ENDBRANCH   5   6
ENDBRANCH   4   5
ENDBRANCH   3   4
ENDBRANCH   2   3
ENDBRANCH   1   2
BRANCH   1  32
ATOM     32  O   UNL A   1      37.776  22.563  25.031  1.00  0.00    -0.377 OA
BRANCH  32  33
ATOM     33  C   UNL A   1      38.725  22.492  26.071  1.00  0.00     0.188 C 
BRANCH  33  34
ATOM     34  C   UNL A   1      39.792  21.386  26.094  1.00  0.00     0.188 C 
BRANCH  34  35
ATOM     35  O   UNL A   1      41.069  21.764  26.589  1.00  0.00    -0.376 OA
BRANCH  35  36
ATOM     36  C   UNL A   1      42.189  21.069  26.051  1.00  0.00     0.202 C 
BRANCH  36  37
ATOM     37  C   UNL A   1      43.261  21.995  25.478  1.00  0.00     0.261 C 
BRANCH  37  38
ATOM     38  O   UNL A   1      42.813  23.316  25.182  1.00  0.00    -0.460 OA
BRANCH  38  39
ATOM     39  C   UNL A   1      43.716  24.309  25.297  1.00  0.00     0.338 C 
ATOM     40  O   UNL A   1      44.655  24.560  24.563  1.00  0.00    -0.246 OA
BRANCH  39  41
ATOM     41  C   UNL A   1      43.213  25.168  26.375  1.00  0.00     0.060 A 
ATOM     42  C   UNL A   1      42.078  24.787  27.098  1.00  0.00     0.016 A 
ATOM     43  C   UNL A   1      43.817  26.414  26.572  1.00  0.00     0.016 A 
ATOM     44  C   UNL A   1      41.545  25.661  28.037  1.00  0.00     0.010 A 
ATOM     45  C   UNL A   1      43.266  27.299  27.491  1.00  0.00     0.010 A 
ATOM     46  C   UNL A   1      42.146  26.914  28.245  1.00  0.00    -0.014 A 
BRANCH  46  47
ATOM     47  C   UNL A   1      41.769  27.708  29.427  1.00  0.00     0.031 A 
ATOM     48  C   UNL A   1      42.492  27.603  30.728  1.00  0.00     0.074 A 
ATOM     49  C   UNL A   1      40.707  28.519  29.275  1.00  0.00     0.049 A 
ATOM     50  N   UNL A   1      42.280  28.269  31.833  1.00  0.00    -0.248 NA
ATOM     51  C   UNL A   1      43.586  26.625  30.806  1.00  0.00     0.031 C 
ATOM     52  C   UNL A   1      39.933  28.660  28.037  1.00  0.00     0.029 A 
ATOM     53  N   UNL A   1      40.093  29.365  30.152  1.00  0.00    -0.354 N 
ATOM     54  C   UNL A   1      43.228  27.813  32.739  1.00  0.00     0.074 A 
ATOM     55  C   UNL A   1      43.987  26.778  32.063  1.00  0.00     0.031 C 
ATOM     56  C   UNL A   1      38.949  29.545  28.233  1.00  0.00     0.029 A 
ATOM     57  C   UNL A   1      39.015  30.016  29.610  1.00  0.00     0.049 A 
ATOM     58  H   UNL A   1      40.394  29.495  31.080  1.00  0.00     0.167 HD
ATOM     59  C   UNL A   1      43.441  28.238  34.008  1.00  0.00     0.037 A 
ATOM     60  C   UNL A   1      38.170  30.898  30.168  1.00  0.00     0.037 A 
ATOM     61  C   UNL A   1      42.640  29.242  34.667  1.00  0.00     0.049 A 
ATOM     62  C   UNL A   1      38.399  31.303  31.591  1.00  0.00     0.074 A 
ATOM     63  C   UNL A   1      42.780  29.765  35.941  1.00  0.00     0.029 A 
ATOM     64  N   UNL A   1      41.534  29.865  34.103  1.00  0.00    -0.354 N 
ATOM     65  N   UNL A   1      39.342  30.919  32.417  1.00  0.00    -0.248 NA
ATOM     66  C   UNL A   1      37.452  32.270  32.155  1.00  0.00     0.031 C 
ATOM     67  C   UNL A   1      41.731  30.665  36.165  1.00  0.00     0.029 A 
ATOM     68  C   UNL A   1      40.964  30.744  35.013  1.00  0.00     0.049 A 
ATOM     69  H   UNL A   1      41.202  29.707  33.191  1.00  0.00     0.167 HD
ATOM     70  C   UNL A   1      39.117  31.614  33.595  1.00  0.00     0.074 A 
ATOM     71  C   UNL A   1      37.961  32.461  33.363  1.00  0.00     0.031 C 
ATOM     72  C   UNL A   1      39.801  31.560  34.765  1.00  0.00     0.037 A 
BRANCH  59  73
ATOM     73  C   UNL A   1      44.576  27.610  34.767  1.00  0.00     0.057 A 
ATOM     74  C   UNL A   1      44.376  26.466  35.552  1.00  0.00     0.134 A 
ATOM     75  C   UNL A   1      45.864  28.163  34.755  1.00  0.00     0.134 A 
ATOM     76  F   UNL A   1      43.167  25.888  35.619  1.00  0.00    -0.206 F 
ATOM     77  C   UNL A   1      45.414  25.896  36.293  1.00  0.00     0.040 A 
ATOM     78  C   UNL A   1      46.916  27.587  35.473  1.00  0.00     0.040 A 
ATOM     79  F   UNL A   1      46.128  29.254  34.022  1.00  0.00    -0.206 F 
ATOM     80  C   UNL A   1      46.690  26.454  36.249  1.00  0.00     0.006 A 
ENDBRANCH  59  73
BRANCH  60  81
ATOM     81  C   UNL A   1      37.066  31.471  29.364  1.00  0.00     0.057 A 
ATOM     82  C   UNL A   1      35.908  30.737  29.082  1.00  0.00     0.134 A 
ATOM     83  C   UNL A   1      37.155  32.766  28.844  1.00  0.00     0.134 A 
ATOM     84  F   UNL A   1      35.774  29.482  29.538  1.00  0.00    -0.206 F 
ATOM     85  C   UNL A   1      34.877  31.269  28.309  1.00  0.00     0.040 A 
ATOM     86  C   UNL A   1      36.120  33.322  28.091  1.00  0.00     0.040 A 
ATOM     87  F   UNL A   1      38.239  33.517  29.086  1.00  0.00    -0.206 F 
ATOM     88  C   UNL A   1      34.979  32.569  27.818  1.00  0.00     0.006 A 
ENDBRANCH  60  81
BRANCH  72  89
ATOM     89  C   UNL A   1      39.307  32.455  35.863  1.00  0.00     0.057 A 
ATOM     90  C   UNL A   1      38.362  31.994  36.788  1.00  0.00     0.134 A 
ATOM     91  C   UNL A   1      39.787  33.762  36.022  1.00  0.00     0.134 A 
ATOM     92  F   UNL A   1      37.861  30.755  36.692  1.00  0.00    -0.206 F 
ATOM     93  C   UNL A   1      37.918  32.800  37.837  1.00  0.00     0.040 A 
ATOM     94  C   UNL A   1      39.373  34.566  37.084  1.00  0.00     0.040 A 
ATOM     95  F   UNL A   1      40.710  34.254  35.181  1.00  0.00    -0.206 F 
ATOM     96  C   UNL A   1      38.432  34.086  37.993  1.00  0.00     0.006 A 
ENDBRANCH  72  89
ENDBRANCH  46  47
ENDBRANCH  39  41
ENDBRANCH  38  39
ENDBRANCH  37  38
ENDBRANCH  36  37
ENDBRANCH  35  36
ENDBRANCH  34  35
ENDBRANCH  33  34
ENDBRANCH  32  33
ENDBRANCH   1  32
TORSDOF 24
ENDMDL
MODEL 2
REMARK VINA RESULT:     -10.9      2.282      7.408
REMARK SMILES Nn1c(S[C@@H](C(=O)OCCOCCOCCOCCOC(=O)c2ccc(-c3c4nc(c(-c5c(F)cccc5F)c5ccc([nH]5)c(-c5c(F)cccc5F)c5nc(c(-c6c(F)cccc6F)c6ccc3[nH]6)C=C5)C=C4)cc2)c2ccccc2)nc2ccc(Br)cc2c1=O
REMARK SMILES IDX 13 1 12 2 11 3 10 4 9 5 8 6 6 7 7 8 5 9 4 10 3 11 2 12 91 13
REMARK SMILES IDX 83 14 90 15 92 16 84 17 89 18 85 19 87 20 86 21 88 22 1 23
REMARK SMILES IDX 77 26 78 27 82 28 79 29 81 30 80 31 14 32 15 33 16 34 17 35
REMARK SMILES IDX 18 36 19 37 20 38 21 39 22 40 23 41 24 42 76 43 25 44 75 45
REMARK SMILES IDX 26 46 27 47 28 48 69 49 29 50 74 51 68 52 70 53 30 54 73 55
REMARK SMILES IDX 67 56 66 57 31 59 57 60 40 61 56 62 41 63 44 64 55 65 71 66
REMARK SMILES IDX 42 67 43 68 54 70 72 71 45 72 32 73 33 74 38 75 34 76 35 77
REMARK SMILES IDX 37 78 39 79 36 80 58 81 59 82 64 83 60 84 61 85 63 86 65 87
REMARK SMILES IDX 62 88 46 89 47 90 52 91 48 92 49 93 51 94 53 95 50 96
REMARK H PARENT 1 24 1 25 70 58 44 69
REMARK Flexibility Score: inf
ROOT
ATOM      1  C   UNL A   1      41.796  20.326  26.431  1.00  0.00     0.188 C 
ENDROOT
BRANCH   1   2
ATOM      2  C   UNL A   1      40.578  21.253  26.542  1.00  0.00     0.188 C 
BRANCH   2   3
ATOM      3  O   UNL A   1      39.598  21.222  25.520  1.00  0.00    -0.376 OA
BRANCH   3   4
ATOM      4  C   UNL A   1      38.404  21.963  25.707  1.00  0.00     0.202 C 
BRANCH   4   5
ATOM      5  C   UNL A   1      37.299  21.892  24.644  1.00  0.00     0.261 C 
BRANCH   5   6
ATOM      6  O   UNL A   1      35.986  21.472  25.088  1.00  0.00    -0.462 OA
BRANCH   6   7
ATOM      7  C   UNL A   1      34.940  21.801  24.264  1.00  0.00     0.324 C 
ATOM      8  O   UNL A   1      35.070  22.625  23.361  1.00  0.00    -0.251 OA
BRANCH   7   9
ATOM      9  C   UNL A   1      33.573  21.177  24.689  1.00  0.00     0.194 C 
BRANCH   9  10
ATOM     10  S   UNL A   1      32.936  21.758  26.269  1.00  0.00    -0.066 SA
BRANCH  10  11
ATOM     11  C   UNL A   1      32.268  23.381  26.259  1.00  0.00     0.191 A 
ATOM     12  N   UNL A   1      30.932  23.719  26.486  1.00  0.00    -0.202 N 
ATOM     13  C   UNL A   1      30.480  25.044  26.394  1.00  0.00     0.280 A 
ATOM     14  N   UNL A   1      33.169  24.291  26.032  1.00  0.00    -0.222 NA
ATOM     15  C   UNL A   1      31.513  26.077  26.252  1.00  0.00     0.069 A 
ATOM     16  O   UNL A   1      29.295  25.365  26.488  1.00  0.00    -0.267 OA
ATOM     17  C   UNL A   1      32.827  25.646  26.099  1.00  0.00     0.079 A 
ATOM     18  C   UNL A   1      31.197  27.433  26.417  1.00  0.00     0.031 A 
ATOM     19  C   UNL A   1      33.846  26.605  26.109  1.00  0.00     0.030 A 
ATOM     20  C   UNL A   1      32.229  28.367  26.456  1.00  0.00     0.018 A 
ATOM     21  C   UNL A   1      33.552  27.961  26.300  1.00  0.00     0.018 A 
ATOM     22  Br  UNL A   1      31.837  30.183  26.803  1.00  0.00    -0.051 Br
BRANCH  12  23
ATOM     23  N   UNL A   1      29.949  22.788  26.909  1.00  0.00    -0.334 N 
ATOM     24  H   UNL A   1      30.215  21.876  27.168  1.00  0.00     0.178 HD
ATOM     25  H   UNL A   1      29.002  23.053  26.943  1.00  0.00     0.178 HD
ENDBRANCH  12  23
ENDBRANCH  10  11
ENDBRANCH   9  10
BRANCH   9  26
ATOM     26  C   UNL A   1      33.469  19.683  24.340  1.00  0.00    -0.023 A 
ATOM     27  C   UNL A   1      34.283  18.675  24.878  1.00  0.00     0.005 A 
ATOM     28  C   UNL A   1      32.578  19.310  23.313  1.00  0.00     0.005 A 
ATOM     29  C   UNL A   1      34.400  17.439  24.234  1.00  0.00     0.000 A 
ATOM     30  C   UNL A   1      32.671  18.069  22.689  1.00  0.00     0.000 A 
ATOM     31  C   UNL A   1      33.622  17.154  23.117  1.00  0.00     0.000 A 
ENDBRANCH   9  26
ENDBRANCH   7   9
ENDBRANCH   6   7
ENDBRANCH   5   6
ENDBRANCH   4   5
ENDBRANCH   3   4
ENDBRANCH   2   3
ENDBRANCH   1   2
BRANCH   1  32
ATOM     32  O   UNL A   1      42.805  20.585  25.480  1.00  0.00    -0.377 OA
BRANCH  32  33
ATOM     33  C   UNL A   1      43.887  19.689  25.365  1.00  0.00     0.188 C 
BRANCH  33  34
ATOM     34  C   UNL A   1      45.151  20.072  24.578  1.00  0.00     0.188 C 
BRANCH  34  35
ATOM     35  O   UNL A   1      46.033  20.983  25.221  1.00  0.00    -0.376 OA
BRANCH  35  36
ATOM     36  C   UNL A   1      45.921  22.349  24.840  1.00  0.00     0.202 C 
BRANCH  36  37
ATOM     37  C   UNL A   1      45.451  23.261  25.974  1.00  0.00     0.261 C 
BRANCH  37  38
ATOM     38  O   UNL A   1      44.809  24.460  25.548  1.00  0.00    -0.460 OA
BRANCH  38  39
ATOM     39  C   UNL A   1      43.463  24.466  25.543  1.00  0.00     0.338 C 
ATOM     40  O   UNL A   1      42.711  23.790  24.863  1.00  0.00    -0.246 OA
BRANCH  39  41
ATOM     41  C   UNL A   1      43.073  25.304  26.683  1.00  0.00     0.060 A 
ATOM     42  C   UNL A   1      43.667  26.557  26.861  1.00  0.00     0.016 A 
ATOM     43  C   UNL A   1      42.200  24.770  27.636  1.00  0.00     0.016 A 
ATOM     44  C   UNL A   1      43.375  27.291  28.004  1.00  0.00     0.010 A 
ATOM     45  C   UNL A   1      41.932  25.492  28.793  1.00  0.00     0.010 A 
ATOM     46  C   UNL A   1      42.497  26.765  28.966  1.00  0.00    -0.014 A 
BRANCH  46  47
ATOM     47  C   UNL A   1      41.964  27.650  30.016  1.00  0.00     0.031 A 
ATOM     48  C   UNL A   1      40.789  28.542  29.794  1.00  0.00     0.074 A 
ATOM     49  C   UNL A   1      42.621  27.629  31.190  1.00  0.00     0.049 A 
ATOM     50  N   UNL A   1      40.203  29.344  30.645  1.00  0.00    -0.248 NA
ATOM     51  C   UNL A   1      40.198  28.545  28.449  1.00  0.00     0.031 C 
ATOM     52  C   UNL A   1      43.795  26.798  31.476  1.00  0.00     0.029 A 
ATOM     53  N   UNL A   1      42.409  28.321  32.348  1.00  0.00    -0.354 N 
ATOM     54  C   UNL A   1      39.156  29.934  29.952  1.00  0.00     0.074 A 
ATOM     55  C   UNL A   1      39.217  29.429  28.594  1.00  0.00     0.031 C 
ATOM     56  C   UNL A   1      44.196  27.024  32.733  1.00  0.00     0.029 A 
ATOM     57  C   UNL A   1      43.321  28.025  33.328  1.00  0.00     0.049 A 
ATOM     58  H   UNL A   1      41.675  28.965  32.467  1.00  0.00     0.167 HD
ATOM     59  C   UNL A   1      38.229  30.804  30.422  1.00  0.00     0.037 A 
ATOM     60  C   UNL A   1      43.437  28.513  34.574  1.00  0.00     0.037 A 
ATOM     61  C   UNL A   1      38.219  31.320  31.770  1.00  0.00     0.049 A 
ATOM     62  C   UNL A   1      42.430  29.517  35.043  1.00  0.00     0.074 A 
ATOM     63  C   UNL A   1      37.316  32.188  32.360  1.00  0.00     0.029 A 
ATOM     64  N   UNL A   1      39.174  31.026  32.736  1.00  0.00    -0.354 N 
ATOM     65  N   UNL A   1      41.400  30.015  34.403  1.00  0.00    -0.248 NA
ATOM     66  C   UNL A   1      42.597  30.018  36.411  1.00  0.00     0.031 C 
ATOM     67  C   UNL A   1      37.751  32.456  33.664  1.00  0.00     0.029 A 
ATOM     68  C   UNL A   1      38.899  31.718  33.906  1.00  0.00     0.049 A 
ATOM     69  H   UNL A   1      39.935  30.416  32.608  1.00  0.00     0.167 HD
ATOM     70  C   UNL A   1      40.779  30.874  35.296  1.00  0.00     0.074 A 
ATOM     71  C   UNL A   1      41.539  30.807  36.531  1.00  0.00     0.031 C 
ATOM     72  C   UNL A   1      39.682  31.650  35.116  1.00  0.00     0.037 A 
BRANCH  59  73
ATOM     73  C   UNL A   1      37.159  31.258  29.469  1.00  0.00     0.057 A 
ATOM     74  C   UNL A   1      36.095  30.414  29.121  1.00  0.00     0.134 A 
ATOM     75  C   UNL A   1      37.203  32.519  28.859  1.00  0.00     0.134 A 
ATOM     76  F   UNL A   1      35.994  29.188  29.658  1.00  0.00    -0.206 F 
ATOM     77  C   UNL A   1      35.116  30.810  28.207  1.00  0.00     0.040 A 
ATOM     78  C   UNL A   1      36.216  32.935  27.962  1.00  0.00     0.040 A 
ATOM     79  F   UNL A   1      38.190  33.379  29.149  1.00  0.00    -0.206 F 
ATOM     80  C   UNL A   1      35.171  32.076  27.629  1.00  0.00     0.006 A 
ENDBRANCH  59  73
BRANCH  60  81
ATOM     81  C   UNL A   1      44.522  28.028  35.457  1.00  0.00     0.057 A 
ATOM     82  C   UNL A   1      45.751  28.693  35.539  1.00  0.00     0.134 A 
ATOM     83  C   UNL A   1      44.357  26.874  36.228  1.00  0.00     0.134 A 
ATOM     84  F   UNL A   1      45.976  29.795  34.808  1.00  0.00    -0.206 F 
ATOM     85  C   UNL A   1      46.780  28.225  36.356  1.00  0.00     0.040 A 
ATOM     86  C   UNL A   1      45.367  26.409  37.070  1.00  0.00     0.040 A 
ATOM     87  F   UNL A   1      43.199  26.199  36.193  1.00  0.00    -0.206 F 
ATOM     88  C   UNL A   1      46.585  27.084  37.131  1.00  0.00     0.006 A 
ENDBRANCH  60  81
BRANCH  72  89
ATOM     89  C   UNL A   1      39.250  32.470  36.295  1.00  0.00     0.057 A 
ATOM     90  C   UNL A   1      38.333  31.959  37.223  1.00  0.00     0.134 A 
ATOM     91  C   UNL A   1      39.762  33.754  36.528  1.00  0.00     0.134 A 
ATOM     92  F   UNL A   1      37.804  30.739  37.058  1.00  0.00    -0.206 F 
ATOM     93  C   UNL A   1      37.948  32.694  38.344  1.00  0.00     0.040 A 
ATOM     94  C   UNL A   1      39.406  34.485  37.661  1.00  0.00     0.040 A 
ATOM     95  F   UNL A   1      40.660  34.290  35.687  1.00  0.00    -0.206 F 
ATOM     96  C   UNL A   1      38.493  33.957  38.571  1.00  0.00     0.006 A 
ENDBRANCH  72  89
ENDBRANCH  46  47
ENDBRANCH  39  41
ENDBRANCH  38  39
ENDBRANCH  37  38
ENDBRANCH  36  37
ENDBRANCH  35  36
ENDBRANCH  34  35
ENDBRANCH  33  34
ENDBRANCH  32  33
ENDBRANCH   1  32
TORSDOF 24
ENDMDL
MODEL 3
REMARK VINA RESULT:     -10.8      0.649      5.840
REMARK SMILES Nn1c(S[C@@H](C(=O)OCCOCCOCCOCCOC(=O)c2ccc(-c3c4nc(c(-c5c(F)cccc5F)c5ccc([nH]5)c(-c5c(F)cccc5F)c5nc(c(-c6c(F)cccc6F)c6ccc3[nH]6)C=C5)C=C4)cc2)c2ccccc2)nc2ccc(Br)cc2c1=O
REMARK SMILES IDX 13 1 12 2 11 3 10 4 9 5 8 6 6 7 7 8 5 9 4 10 3 11 2 12 91 13
REMARK SMILES IDX 83 14 90 15 92 16 84 17 89 18 85 19 87 20 86 21 88 22 1 23
REMARK SMILES IDX 77 26 78 27 82 28 79 29 81 30 80 31 14 32 15 33 16 34 17 35
REMARK SMILES IDX 18 36 19 37 20 38 21 39 22 40 23 41 24 42 76 43 25 44 75 45
REMARK SMILES IDX 26 46 27 47 28 48 69 49 29 50 74 51 68 52 70 53 30 54 73 55
REMARK SMILES IDX 67 56 66 57 31 59 57 60 40 61 56 62 41 63 44 64 55 65 71 66
REMARK SMILES IDX 42 67 43 68 54 70 72 71 45 72 32 73 33 74 38 75 34 76 35 77
REMARK SMILES IDX 37 78 39 79 36 80 58 81 59 82 64 83 60 84 61 85 63 86 65 87
REMARK SMILES IDX 62 88 46 89 47 90 52 91 48 92 49 93 51 94 53 95 50 96
REMARK H PARENT 1 24 1 25 70 58 44 69
REMARK Flexibility Score: inf
ROOT
ATOM      1  C   UNL A   1      36.209  23.578  25.784  1.00  0.00     0.188 C 
ENDROOT
BRANCH   1   2
ATOM      2  C   UNL A   1      35.207  24.482  25.053  1.00  0.00     0.188 C 
BRANCH   2   3
ATOM      3  O   UNL A   1      33.962  24.761  25.667  1.00  0.00    -0.376 OA
BRANCH   3   4
ATOM      4  C   UNL A   1      33.665  26.104  26.012  1.00  0.00     0.202 C 
BRANCH   4   5
ATOM      5  C   UNL A   1      33.608  27.170  24.909  1.00  0.00     0.261 C 
BRANCH   5   6
ATOM      6  O   UNL A   1      32.793  26.872  23.750  1.00  0.00    -0.462 OA
BRANCH   6   7
ATOM      7  C   UNL A   1      32.023  27.904  23.277  1.00  0.00     0.324 C 
ATOM      8  O   UNL A   1      32.521  28.847  22.666  1.00  0.00    -0.251 OA
BRANCH   7   9
ATOM      9  C   UNL A   1      30.530  27.848  23.732  1.00  0.00     0.194 C 
BRANCH   9  10
ATOM     10  S   UNL A   1      29.702  26.280  23.415  1.00  0.00    -0.066 SA
BRANCH  10  11
ATOM     11  C   UNL A   1      30.395  24.888  24.228  1.00  0.00     0.191 A 
ATOM     12  N   UNL A   1      30.280  24.591  25.588  1.00  0.00    -0.202 N 
ATOM     13  C   UNL A   1      30.924  23.483  26.159  1.00  0.00     0.280 A 
ATOM     14  N   UNL A   1      31.040  24.104  23.415  1.00  0.00    -0.222 NA
ATOM     15  C   UNL A   1      31.554  22.543  25.226  1.00  0.00     0.069 A 
ATOM     16  O   UNL A   1      30.927  23.249  27.368  1.00  0.00    -0.267 OA
ATOM     17  C   UNL A   1      31.561  22.891  23.878  1.00  0.00     0.079 A 
ATOM     18  C   UNL A   1      31.987  21.283  25.663  1.00  0.00     0.031 A 
ATOM     19  C   UNL A   1      32.021  21.950  22.951  1.00  0.00     0.030 A 
ATOM     20  C   UNL A   1      32.411  20.350  24.720  1.00  0.00     0.018 A 
ATOM     21  C   UNL A   1      32.433  20.677  23.366  1.00  0.00     0.018 A 
ATOM     22  Br  UNL A   1      32.881  18.604  25.273  1.00  0.00    -0.051 Br
BRANCH  12  23
ATOM     23  N   UNL A   1      29.446  25.313  26.479  1.00  0.00    -0.334 N 
ATOM     24  H   UNL A   1      29.469  25.117  27.444  1.00  0.00     0.178 HD
ATOM     25  H   UNL A   1      28.843  26.010  26.134  1.00  0.00     0.178 HD
ENDBRANCH  12  23
ENDBRANCH  10  11
ENDBRANCH   9  10
BRANCH   9  26
ATOM     26  C   UNL A   1      29.778  29.162  23.462  1.00  0.00    -0.023 A 
ATOM     27  C   UNL A   1      30.108  30.404  24.021  1.00  0.00     0.005 A 
ATOM     28  C   UNL A   1      28.595  29.095  22.698  1.00  0.00     0.005 A 
ATOM     29  C   UNL A   1      29.169  31.441  24.052  1.00  0.00     0.000 A 
ATOM     30  C   UNL A   1      27.671  30.136  22.701  1.00  0.00     0.000 A 
ATOM     31  C   UNL A   1      27.936  31.289  23.426  1.00  0.00     0.000 A 
ENDBRANCH   9  26
ENDBRANCH   7   9
ENDBRANCH   6   7
ENDBRANCH   5   6
ENDBRANCH   4   5
ENDBRANCH   3   4
ENDBRANCH   2   3
ENDBRANCH   1   2
BRANCH   1  32
ATOM     32  O   UNL A   1      37.556  23.524  25.368  1.00  0.00    -0.377 OA
BRANCH  32  33
ATOM     33  C   UNL A   1      38.549  23.157  26.299  1.00  0.00     0.188 C 
BRANCH  33  34
ATOM     34  C   UNL A   1      39.362  21.865  26.120  1.00  0.00     0.188 C 
BRANCH  34  35
ATOM     35  O   UNL A   1      40.598  21.805  26.819  1.00  0.00    -0.376 OA
BRANCH  35  36
ATOM     36  C   UNL A   1      41.666  21.132  26.162  1.00  0.00     0.202 C 
BRANCH  36  37
ATOM     37  C   UNL A   1      42.792  22.066  25.719  1.00  0.00     0.261 C 
BRANCH  37  38
ATOM     38  O   UNL A   1      42.381  23.399  25.426  1.00  0.00    -0.460 OA
BRANCH  38  39
ATOM     39  C   UNL A   1      43.309  24.368  25.553  1.00  0.00     0.338 C 
ATOM     40  O   UNL A   1      44.301  24.552  24.872  1.00  0.00    -0.246 OA
BRANCH  39  41
ATOM     41  C   UNL A   1      42.769  25.294  26.555  1.00  0.00     0.060 A 
ATOM     42  C   UNL A   1      41.619  24.951  27.274  1.00  0.00     0.016 A 
ATOM     43  C   UNL A   1      43.353  26.559  26.678  1.00  0.00     0.016 A 
ATOM     44  C   UNL A   1      41.052  25.882  28.135  1.00  0.00     0.010 A 
ATOM     45  C   UNL A   1      42.768  27.500  27.517  1.00  0.00     0.010 A 
ATOM     46  C   UNL A   1      41.633  27.154  28.268  1.00  0.00    -0.014 A 
BRANCH  46  47
ATOM     47  C   UNL A   1      41.216  28.024  29.381  1.00  0.00     0.031 A 
ATOM     48  C   UNL A   1      40.073  28.978  29.269  1.00  0.00     0.074 A 
ATOM     49  C   UNL A   1      41.949  27.933  30.505  1.00  0.00     0.049 A 
ATOM     50  N   UNL A   1      39.586  29.775  30.184  1.00  0.00    -0.248 NA
ATOM     51  C   UNL A   1      39.394  29.055  27.969  1.00  0.00     0.031 C 
ATOM     52  C   UNL A   1      43.098  27.038  30.682  1.00  0.00     0.029 A 
ATOM     53  N   UNL A   1      41.850  28.592  31.696  1.00  0.00    -0.354 N 
ATOM     54  C   UNL A   1      38.524  30.436  29.584  1.00  0.00     0.074 A 
ATOM     55  C   UNL A   1      38.469  29.977  28.209  1.00  0.00     0.031 C 
ATOM     56  C   UNL A   1      43.594  27.201  31.915  1.00  0.00     0.029 A 
ATOM     57  C   UNL A   1      42.811  28.220  32.601  1.00  0.00     0.049 A 
ATOM     58  H   UNL A   1      41.158  29.265  31.886  1.00  0.00     0.167 HD
ATOM     59  C   UNL A   1      37.674  31.331  30.144  1.00  0.00     0.037 A 
ATOM     60  C   UNL A   1      43.034  28.658  33.850  1.00  0.00     0.037 A 
ATOM     61  C   UNL A   1      37.780  31.800  31.506  1.00  0.00     0.049 A 
ATOM     62  C   UNL A   1      42.111  29.690  34.420  1.00  0.00     0.074 A 
ATOM     63  C   UNL A   1      36.962  32.686  32.185  1.00  0.00     0.029 A 
ATOM     64  N   UNL A   1      38.783  31.428  32.393  1.00  0.00    -0.354 N 
ATOM     65  N   UNL A   1      41.065  30.257  33.869  1.00  0.00    -0.248 NA
ATOM     66  C   UNL A   1      42.394  30.135  35.788  1.00  0.00     0.031 C 
ATOM     67  C   UNL A   1      37.497  32.889  33.463  1.00  0.00     0.029 A 
ATOM     68  C   UNL A   1      38.621  32.090  33.602  1.00  0.00     0.049 A 
ATOM     69  H   UNL A   1      39.503  30.788  32.194  1.00  0.00     0.167 HD
ATOM     70  C   UNL A   1      40.549  31.112  34.830  1.00  0.00     0.074 A 
ATOM     71  C   UNL A   1      41.387  30.967  36.007  1.00  0.00     0.031 C 
ATOM     72  C   UNL A   1      39.481  31.943  34.751  1.00  0.00     0.037 A 
BRANCH  59  73
ATOM     73  C   UNL A   1      36.565  31.867  29.283  1.00  0.00     0.057 A 
ATOM     74  C   UNL A   1      36.579  33.192  28.828  1.00  0.00     0.134 A 
ATOM     75  C   UNL A   1      35.457  31.081  28.937  1.00  0.00     0.134 A 
ATOM     76  F   UNL A   1      37.603  34.006  29.129  1.00  0.00    -0.206 F 
ATOM     77  C   UNL A   1      35.535  33.713  28.059  1.00  0.00     0.040 A 
ATOM     78  C   UNL A   1      34.419  31.584  28.148  1.00  0.00     0.040 A 
ATOM     79  F   UNL A   1      35.380  29.802  29.335  1.00  0.00    -0.206 F 
ATOM     80  C   UNL A   1      34.454  32.906  27.712  1.00  0.00     0.006 A 
ENDBRANCH  59  73
BRANCH  60  81
ATOM     81  C   UNL A   1      44.152  28.093  34.641  1.00  0.00     0.057 A 
ATOM     82  C   UNL A   1      44.006  26.906  35.369  1.00  0.00     0.134 A 
ATOM     83  C   UNL A   1      45.389  28.741  34.699  1.00  0.00     0.134 A 
ATOM     84  F   UNL A   1      42.836  26.249  35.367  1.00  0.00    -0.206 F 
ATOM     85  C   UNL A   1      45.052  26.384  36.129  1.00  0.00     0.040 A 
ATOM     86  C   UNL A   1      46.453  28.217  35.434  1.00  0.00     0.040 A 
ATOM     87  F   UNL A   1      45.587  29.880  34.018  1.00  0.00    -0.206 F 
ATOM     88  C   UNL A   1      46.282  27.037  36.156  1.00  0.00     0.006 A 
ENDBRANCH  60  81
BRANCH  72  89
ATOM     89  C   UNL A   1      39.170  32.741  35.983  1.00  0.00     0.057 A 
ATOM     90  C   UNL A   1      38.391  32.193  37.010  1.00  0.00     0.134 A 
ATOM     91  C   UNL A   1      39.663  34.039  36.165  1.00  0.00     0.134 A 
ATOM     92  F   UNL A   1      37.886  30.957  36.898  1.00  0.00    -0.206 F 
ATOM     93  C   UNL A   1      38.121  32.907  38.178  1.00  0.00     0.040 A 
ATOM     94  C   UNL A   1      39.425  34.751  37.341  1.00  0.00     0.040 A 
ATOM     95  F   UNL A   1      40.434  34.611  35.227  1.00  0.00    -0.206 F 
ATOM     96  C   UNL A   1      38.649  34.186  38.351  1.00  0.00     0.006 A 
ENDBRANCH  72  89
ENDBRANCH  46  47
ENDBRANCH  39  41
ENDBRANCH  38  39
ENDBRANCH  37  38
ENDBRANCH  36  37
ENDBRANCH  35  36
ENDBRANCH  34  35
ENDBRANCH  33  34
ENDBRANCH  32  33
ENDBRANCH   1  32
TORSDOF 24
ENDMDL
