MODEL 1
REMARK VINA RESULT:     -10.7      0.000      0.000
REMARK SMILES C[C@]1(C(=O)N2CCC(CC(=O)OCCOCCOCCOCCOC(=O)c3ccc(-c4c5nc(c(-c6c(F)cccc6F)c6ccc([nH]6)c(-c6c(F)cccc6F)c6nc(c(-c7c(F)cccc7F)c7ccc4[nH]7)C=C6)C=C5)cc3)CC2)CCC[NH2+]1
REMARK SMILES IDX 18 1 17 2 16 3 15 4 14 5 13 6 12 7 10 8 11 9 9 10 8 11 3 12
REMARK SMILES IDX 4 13 5 14 6 15 82 16 7 17 81 18 2 19 1 20 83 21 86 22 84 23
REMARK SMILES IDX 85 24 19 27 20 28 21 29 22 30 23 31 24 32 25 33 26 34 27 35
REMARK SMILES IDX 28 36 80 37 29 38 79 39 30 40 31 41 32 42 73 43 33 44 78 45
REMARK SMILES IDX 72 46 74 47 34 48 77 49 71 50 70 51 35 53 61 54 44 55 60 56
REMARK SMILES IDX 45 57 48 58 59 59 75 60 46 61 47 62 58 64 76 65 49 66 36 67
REMARK SMILES IDX 37 68 42 69 38 70 39 71 41 72 43 73 40 74 62 75 63 76 68 77
REMARK SMILES IDX 64 78 65 79 67 80 69 81 66 82 50 83 51 84 56 85 52 86 53 87
REMARK SMILES IDX 55 88 57 89 54 90
REMARK H PARENT 86 25 86 26 74 52 48 63
REMARK Flexibility Score: inf
ROOT
ATOM      1  O   UNL A   1      34.325  32.286  28.848  1.00  0.00    -0.377 OA
ENDROOT
BRANCH   1   2
ATOM      2  C   UNL A   1      34.210  31.299  27.839  1.00  0.00     0.188 C 
BRANCH   2   3
ATOM      3  C   UNL A   1      35.370  30.314  27.654  1.00  0.00     0.188 C 
BRANCH   3   4
ATOM      4  O   UNL A   1      35.107  29.120  26.955  1.00  0.00    -0.376 OA
BRANCH   4   5
ATOM      5  C   UNL A   1      33.806  28.553  26.943  1.00  0.00     0.202 C 
BRANCH   5   6
ATOM      6  C   UNL A   1      33.315  27.462  25.973  1.00  0.00     0.261 C 
BRANCH   6   7
ATOM      7  O   UNL A   1      33.678  26.102  26.256  1.00  0.00    -0.463 OA
BRANCH   7   8
ATOM      8  C   UNL A   1      34.039  25.353  25.188  1.00  0.00     0.306 C 
ATOM      9  O   UNL A   1      33.496  25.417  24.088  1.00  0.00    -0.252 OA
BRANCH   8  10
ATOM     10  C   UNL A   1      35.221  24.428  25.405  1.00  0.00     0.126 C 
BRANCH  10  11
ATOM     11  C   UNL A   1      35.056  22.943  25.754  1.00  0.00     0.003 C 
ATOM     12  C   UNL A   1      32.892  19.757  24.695  1.00  0.00     0.283 C 
ATOM     13  O   UNL A   1      31.807  20.348  24.649  1.00  0.00    -0.268 OA
ATOM     14  N   UNL A   1      33.956  20.284  25.420  1.00  0.00    -0.337 N 
ATOM     15  C   UNL A   1      33.655  21.063  26.612  1.00  0.00     0.120 C 
ATOM     16  C   UNL A   1      35.227  20.589  24.775  1.00  0.00     0.120 C 
ATOM     17  C   UNL A   1      33.687  22.564  26.327  1.00  0.00     0.026 C 
ATOM     18  C   UNL A   1      35.343  22.091  24.496  1.00  0.00     0.026 C 
BRANCH  12  19
ATOM     19  C   UNL A   1      33.005  18.271  24.247  1.00  0.00     0.173 C 
ATOM     20  C   UNL A   1      32.517  18.209  22.788  1.00  0.00     0.090 C 
ATOM     21  C   UNL A   1      34.445  17.781  24.390  1.00  0.00     0.084 C 
ATOM     22  N   UNL A   1      32.229  17.324  25.085  1.00  0.00    -0.334 N 
ATOM     23  C   UNL A   1      34.305  16.277  24.484  1.00  0.00     0.068 C 
ATOM     24  C   UNL A   1      32.991  16.080  25.217  1.00  0.00     0.261 C 
ATOM     25  H   UNL A   1      31.331  17.131  24.643  1.00  0.00     0.347 HD
ATOM     26  H   UNL A   1      32.065  17.730  26.006  1.00  0.00     0.347 HD
ENDBRANCH  12  19
ENDBRANCH  10  11
ENDBRANCH   8  10
ENDBRANCH   7   8
ENDBRANCH   6   7
ENDBRANCH   5   6
ENDBRANCH   4   5
ENDBRANCH   3   4
ENDBRANCH   2   3
ENDBRANCH   1   2
BRANCH   1  27
ATOM     27  C   UNL A   1      34.044  33.649  28.546  1.00  0.00     0.188 C 
BRANCH  27  28
ATOM     28  C   UNL A   1      33.516  34.621  29.619  1.00  0.00     0.188 C 
BRANCH  28  29
ATOM     29  O   UNL A   1      33.740  34.221  30.960  1.00  0.00    -0.376 OA
BRANCH  29  30
ATOM     30  C   UNL A   1      34.148  35.207  31.898  1.00  0.00     0.202 C 
BRANCH  30  31
ATOM     31  C   UNL A   1      35.282  34.826  32.863  1.00  0.00     0.261 C 
BRANCH  31  32
ATOM     32  O   UNL A   1      36.238  33.877  32.356  1.00  0.00    -0.460 OA
BRANCH  32  33
ATOM     33  C   UNL A   1      36.492  32.792  33.117  1.00  0.00     0.338 C 
ATOM     34  O   UNL A   1      36.050  32.540  34.220  1.00  0.00    -0.246 OA
BRANCH  33  35
ATOM     35  C   UNL A   1      37.279  31.839  32.311  1.00  0.00     0.060 A 
ATOM     36  C   UNL A   1      38.273  31.089  32.950  1.00  0.00     0.016 A 
ATOM     37  C   UNL A   1      37.088  31.743  30.931  1.00  0.00     0.016 A 
ATOM     38  C   UNL A   1      39.134  30.296  32.197  1.00  0.00     0.010 A 
ATOM     39  C   UNL A   1      37.964  30.961  30.173  1.00  0.00     0.010 A 
ATOM     40  C   UNL A   1      39.027  30.284  30.800  1.00  0.00    -0.014 A 
BRANCH  40  41
ATOM     41  C   UNL A   1      40.183  29.801  30.006  1.00  0.00     0.031 A 
ATOM     42  C   UNL A   1      41.328  30.753  29.775  1.00  0.00     0.074 A 
ATOM     43  C   UNL A   1      40.258  28.533  29.567  1.00  0.00     0.049 A 
ATOM     44  N   UNL A   1      42.455  30.563  29.140  1.00  0.00    -0.248 NA
ATOM     45  C   UNL A   1      41.180  32.104  30.345  1.00  0.00     0.031 C 
ATOM     46  C   UNL A   1      39.241  27.505  29.768  1.00  0.00     0.029 A 
ATOM     47  N   UNL A   1      41.248  27.897  28.861  1.00  0.00    -0.354 N 
ATOM     48  C   UNL A   1      43.144  31.767  29.229  1.00  0.00     0.074 A 
ATOM     49  C   UNL A   1      42.295  32.693  29.944  1.00  0.00     0.031 C 
ATOM     50  C   UNL A   1      39.658  26.362  29.194  1.00  0.00     0.029 A 
ATOM     51  C   UNL A   1      40.960  26.589  28.566  1.00  0.00     0.049 A 
ATOM     52  H   UNL A   1      42.086  28.338  28.593  1.00  0.00     0.167 HD
ATOM     53  C   UNL A   1      44.382  32.073  28.772  1.00  0.00     0.037 A 
ATOM     54  C   UNL A   1      41.663  25.684  27.856  1.00  0.00     0.037 A 
ATOM     55  C   UNL A   1      45.227  31.152  28.062  1.00  0.00     0.049 A 
ATOM     56  C   UNL A   1      43.008  26.069  27.293  1.00  0.00     0.074 A 
ATOM     57  C   UNL A   1      46.499  31.362  27.558  1.00  0.00     0.029 A 
ATOM     58  N   UNL A   1      44.883  29.846  27.749  1.00  0.00    -0.354 N 
ATOM     59  N   UNL A   1      43.659  27.202  27.401  1.00  0.00    -0.248 NA
ATOM     60  C   UNL A   1      43.721  25.041  26.521  1.00  0.00     0.031 C 
ATOM     61  C   UNL A   1      46.902  30.199  26.894  1.00  0.00     0.029 A 
ATOM     62  C   UNL A   1      45.908  29.244  27.042  1.00  0.00     0.049 A 
ATOM     63  H   UNL A   1      44.034  29.411  27.995  1.00  0.00     0.167 HD
ATOM     64  C   UNL A   1      44.871  27.011  26.745  1.00  0.00     0.074 A 
ATOM     65  C   UNL A   1      44.867  25.650  26.252  1.00  0.00     0.031 C 
ATOM     66  C   UNL A   1      45.898  27.881  26.573  1.00  0.00     0.037 A 
BRANCH  53  67
ATOM     67  C   UNL A   1      44.875  33.471  29.001  1.00  0.00     0.057 A 
ATOM     68  C   UNL A   1      44.607  34.512  28.101  1.00  0.00     0.134 A 
ATOM     69  C   UNL A   1      45.618  33.785  30.147  1.00  0.00     0.134 A 
ATOM     70  F   UNL A   1      43.919  34.276  26.975  1.00  0.00    -0.206 F 
ATOM     71  C   UNL A   1      45.083  35.807  28.319  1.00  0.00     0.040 A 
ATOM     72  C   UNL A   1      46.072  35.082  30.391  1.00  0.00     0.040 A 
ATOM     73  F   UNL A   1      45.909  32.838  31.051  1.00  0.00    -0.206 F 
ATOM     74  C   UNL A   1      45.812  36.095  29.471  1.00  0.00     0.006 A 
ENDBRANCH  53  67
BRANCH  54  75
ATOM     75  C   UNL A   1      41.114  24.322  27.629  1.00  0.00     0.057 A 
ATOM     76  C   UNL A   1      41.603  23.211  28.326  1.00  0.00     0.134 A 
ATOM     77  C   UNL A   1      40.108  24.093  26.680  1.00  0.00     0.134 A 
ATOM     78  F   UNL A   1      42.583  23.360  29.230  1.00  0.00    -0.206 F 
ATOM     79  C   UNL A   1      41.133  21.921  28.073  1.00  0.00     0.040 A 
ATOM     80  C   UNL A   1      39.608  22.814  26.437  1.00  0.00     0.040 A 
ATOM     81  F   UNL A   1      39.597  25.114  25.978  1.00  0.00    -0.206 F 
ATOM     82  C   UNL A   1      40.127  21.721  27.128  1.00  0.00     0.006 A 
ENDBRANCH  54  75
BRANCH  66  83
ATOM     83  C   UNL A   1      47.128  27.372  25.876  1.00  0.00     0.057 A 
ATOM     84  C   UNL A   1      48.171  26.740  26.564  1.00  0.00     0.134 A 
ATOM     85  C   UNL A   1      47.248  27.483  24.484  1.00  0.00     0.134 A 
ATOM     86  F   UNL A   1      48.124  26.607  27.898  1.00  0.00    -0.206 F 
ATOM     87  C   UNL A   1      49.304  26.267  25.898  1.00  0.00     0.040 A 
ATOM     88  C   UNL A   1      48.360  26.985  23.803  1.00  0.00     0.040 A 
ATOM     89  F   UNL A   1      46.280  28.066  23.760  1.00  0.00    -0.206 F 
ATOM     90  C   UNL A   1      49.396  26.383  24.512  1.00  0.00     0.006 A 
ENDBRANCH  66  83
ENDBRANCH  40  41
ENDBRANCH  33  35
ENDBRANCH  32  33
ENDBRANCH  31  32
ENDBRANCH  30  31
ENDBRANCH  29  30
ENDBRANCH  28  29
ENDBRANCH  27  28
ENDBRANCH   1  27
TORSDOF 22
ENDMDL
MODEL 2
REMARK VINA RESULT:     -10.0      4.755     10.484
REMARK SMILES C[C@]1(C(=O)N2CCC(CC(=O)OCCOCCOCCOCCOC(=O)c3ccc(-c4c5nc(c(-c6c(F)cccc6F)c6ccc([nH]6)c(-c6c(F)cccc6F)c6nc(c(-c7c(F)cccc7F)c7ccc4[nH]7)C=C6)C=C5)cc3)CC2)CCC[NH2+]1
REMARK SMILES IDX 18 1 17 2 16 3 15 4 14 5 13 6 12 7 10 8 11 9 9 10 8 11 3 12
REMARK SMILES IDX 4 13 5 14 6 15 82 16 7 17 81 18 2 19 1 20 83 21 86 22 84 23
REMARK SMILES IDX 85 24 19 27 20 28 21 29 22 30 23 31 24 32 25 33 26 34 27 35
REMARK SMILES IDX 28 36 80 37 29 38 79 39 30 40 31 41 32 42 73 43 33 44 78 45
REMARK SMILES IDX 72 46 74 47 34 48 77 49 71 50 70 51 35 53 61 54 44 55 60 56
REMARK SMILES IDX 45 57 48 58 59 59 75 60 46 61 47 62 58 64 76 65 49 66 36 67
REMARK SMILES IDX 37 68 42 69 38 70 39 71 41 72 43 73 40 74 62 75 63 76 68 77
REMARK SMILES IDX 64 78 65 79 67 80 69 81 66 82 50 83 51 84 56 85 52 86 53 87
REMARK SMILES IDX 55 88 57 89 54 90
REMARK H PARENT 86 25 86 26 74 52 48 63
REMARK Flexibility Score: inf
ROOT
ATOM      1  O   UNL A   1      40.982  19.519  26.335  1.00  0.00    -0.377 OA
ENDROOT
BRANCH   1   2
ATOM      2  C   UNL A   1      40.944  20.861  26.788  1.00  0.00     0.188 C 
BRANCH   2   3
ATOM      3  C   UNL A   1      39.850  21.780  26.233  1.00  0.00     0.188 C 
BRANCH   3   4
ATOM      4  O   UNL A   1      38.739  21.173  25.616  1.00  0.00    -0.376 OA
BRANCH   4   5
ATOM      5  C   UNL A   1      37.503  21.860  25.502  1.00  0.00     0.202 C 
BRANCH   5   6
ATOM      6  C   UNL A   1      36.113  21.198  25.467  1.00  0.00     0.261 C 
BRANCH   6   7
ATOM      7  O   UNL A   1      35.222  21.564  24.401  1.00  0.00    -0.463 OA
BRANCH   7   8
ATOM      8  C   UNL A   1      33.904  21.559  24.706  1.00  0.00     0.306 C 
ATOM      9  O   UNL A   1      33.463  21.576  25.852  1.00  0.00    -0.252 OA
BRANCH   8  10
ATOM     10  C   UNL A   1      32.957  21.579  23.521  1.00  0.00     0.126 C 
BRANCH  10  11
ATOM     11  C   UNL A   1      32.086  22.795  23.180  1.00  0.00     0.003 C 
ATOM     12  C   UNL A   1      31.643  26.638  24.178  1.00  0.00     0.283 C 
ATOM     13  O   UNL A   1      31.747  26.467  25.398  1.00  0.00    -0.268 OA
ATOM     14  N   UNL A   1      31.304  25.581  23.340  1.00  0.00    -0.337 N 
ATOM     15  C   UNL A   1      30.435  24.539  23.868  1.00  0.00     0.120 C 
ATOM     16  C   UNL A   1      32.183  25.174  22.250  1.00  0.00     0.120 C 
ATOM     17  C   UNL A   1      31.234  23.324  24.339  1.00  0.00     0.026 C 
ATOM     18  C   UNL A   1      32.988  23.930  22.642  1.00  0.00     0.026 C 
BRANCH  12  19
ATOM     19  C   UNL A   1      31.548  28.073  23.584  1.00  0.00     0.173 C 
ATOM     20  C   UNL A   1      32.986  28.518  23.264  1.00  0.00     0.090 C 
ATOM     21  C   UNL A   1      30.659  28.076  22.341  1.00  0.00     0.084 C 
ATOM     22  N   UNL A   1      30.896  29.059  24.481  1.00  0.00    -0.334 N 
ATOM     23  C   UNL A   1      30.205  29.515  22.226  1.00  0.00     0.068 C 
ATOM     24  C   UNL A   1      30.093  29.976  23.667  1.00  0.00     0.261 C 
ATOM     25  H   UNL A   1      31.607  29.584  24.989  1.00  0.00     0.347 HD
ATOM     26  H   UNL A   1      30.298  28.576  25.151  1.00  0.00     0.347 HD
ENDBRANCH  12  19
ENDBRANCH  10  11
ENDBRANCH   8  10
ENDBRANCH   7   8
ENDBRANCH   6   7
ENDBRANCH   5   6
ENDBRANCH   4   5
ENDBRANCH   3   4
ENDBRANCH   2   3
ENDBRANCH   1   2
BRANCH   1  27
ATOM     27  C   UNL A   1      42.166  19.004  25.733  1.00  0.00     0.188 C 
BRANCH  27  28
ATOM     28  C   UNL A   1      43.545  19.645  25.987  1.00  0.00     0.188 C 
BRANCH  28  29
ATOM     29  O   UNL A   1      44.369  19.779  24.841  1.00  0.00    -0.376 OA
BRANCH  29  30
ATOM     30  C   UNL A   1      44.882  21.066  24.527  1.00  0.00     0.202 C 
BRANCH  30  31
ATOM     31  C   UNL A   1      43.944  22.264  24.750  1.00  0.00     0.261 C 
BRANCH  31  32
ATOM     32  O   UNL A   1      44.284  23.124  25.851  1.00  0.00    -0.460 OA
BRANCH  32  33
ATOM     33  C   UNL A   1      44.611  24.401  25.558  1.00  0.00     0.338 C 
ATOM     34  O   UNL A   1      45.426  24.789  24.745  1.00  0.00    -0.246 OA
BRANCH  33  35
ATOM     35  C   UNL A   1      43.678  25.291  26.275  1.00  0.00     0.060 A 
ATOM     36  C   UNL A   1      44.024  26.639  26.422  1.00  0.00     0.016 A 
ATOM     37  C   UNL A   1      42.513  24.785  26.856  1.00  0.00     0.016 A 
ATOM     38  C   UNL A   1      43.245  27.471  27.221  1.00  0.00     0.010 A 
ATOM     39  C   UNL A   1      41.740  25.617  27.671  1.00  0.00     0.010 A 
ATOM     40  C   UNL A   1      42.141  26.946  27.904  1.00  0.00    -0.014 A 
BRANCH  40  41
ATOM     41  C   UNL A   1      41.594  27.705  29.055  1.00  0.00     0.031 A 
ATOM     42  C   UNL A   1      42.313  27.599  30.375  1.00  0.00     0.074 A 
ATOM     43  C   UNL A   1      40.539  28.527  28.923  1.00  0.00     0.049 A 
ATOM     44  N   UNL A   1      42.051  28.180  31.517  1.00  0.00    -0.248 NA
ATOM     45  C   UNL A   1      43.494  26.717  30.408  1.00  0.00     0.031 C 
ATOM     46  C   UNL A   1      39.791  28.754  27.690  1.00  0.00     0.029 A 
ATOM     47  N   UNL A   1      39.922  29.331  29.847  1.00  0.00    -0.354 N 
ATOM     48  C   UNL A   1      43.026  27.732  32.400  1.00  0.00     0.074 A 
ATOM     49  C   UNL A   1      43.862  26.801  31.676  1.00  0.00     0.031 C 
ATOM     50  C   UNL A   1      38.808  29.639  27.935  1.00  0.00     0.029 A 
ATOM     51  C   UNL A   1      38.846  30.020  29.347  1.00  0.00     0.049 A 
ATOM     52  H   UNL A   1      40.223  29.407  30.782  1.00  0.00     0.167 HD
ATOM     53  C   UNL A   1      43.222  28.077  33.695  1.00  0.00     0.037 A 
ATOM     54  C   UNL A   1      37.984  30.851  29.964  1.00  0.00     0.037 A 
ATOM     55  C   UNL A   1      42.391  29.003  34.415  1.00  0.00     0.049 A 
ATOM     56  C   UNL A   1      38.178  31.164  31.427  1.00  0.00     0.074 A 
ATOM     57  C   UNL A   1      42.505  29.422  35.729  1.00  0.00     0.029 A 
ATOM     58  N   UNL A   1      41.288  29.651  33.882  1.00  0.00    -0.354 N 
ATOM     59  N   UNL A   1      39.114  30.752  32.247  1.00  0.00    -0.248 NA
ATOM     60  C   UNL A   1      37.199  32.070  32.046  1.00  0.00     0.031 C 
ATOM     61  C   UNL A   1      41.438  30.282  36.006  1.00  0.00     0.029 A 
ATOM     62  C   UNL A   1      40.699  30.450  34.846  1.00  0.00     0.049 A 
ATOM     63  H   UNL A   1      40.970  29.557  32.955  1.00  0.00     0.167 HD
ATOM     64  C   UNL A   1      38.861  31.378  33.464  1.00  0.00     0.074 A 
ATOM     65  C   UNL A   1      37.688  32.203  33.270  1.00  0.00     0.031 C 
ATOM     66  C   UNL A   1      39.541  31.282  34.633  1.00  0.00     0.037 A 
BRANCH  53  67
ATOM     67  C   UNL A   1      44.360  27.419  34.419  1.00  0.00     0.057 A 
ATOM     68  C   UNL A   1      44.208  26.201  35.096  1.00  0.00     0.134 A 
ATOM     69  C   UNL A   1      45.632  28.006  34.427  1.00  0.00     0.134 A 
ATOM     70  F   UNL A   1      43.013  25.595  35.144  1.00  0.00    -0.206 F 
ATOM     71  C   UNL A   1      45.272  25.606  35.776  1.00  0.00     0.040 A 
ATOM     72  C   UNL A   1      46.710  27.406  35.078  1.00  0.00     0.040 A 
ATOM     73  F   UNL A   1      45.849  29.171  33.798  1.00  0.00    -0.206 F 
ATOM     74  C   UNL A   1      46.529  26.206  35.763  1.00  0.00     0.006 A 
ENDBRANCH  53  67
BRANCH  54  75
ATOM     75  C   UNL A   1      36.852  31.450  29.211  1.00  0.00     0.057 A 
ATOM     76  C   UNL A   1      35.716  30.702  28.882  1.00  0.00     0.134 A 
ATOM     77  C   UNL A   1      36.896  32.779  28.769  1.00  0.00     0.134 A 
ATOM     78  F   UNL A   1      35.623  29.417  29.255  1.00  0.00    -0.206 F 
ATOM     79  C   UNL A   1      34.676  31.242  28.123  1.00  0.00     0.040 A 
ATOM     80  C   UNL A   1      35.852  33.341  28.034  1.00  0.00     0.040 A 
ATOM     81  F   UNL A   1      37.957  33.550  29.049  1.00  0.00    -0.206 F 
ATOM     82  C   UNL A   1      34.741  32.569  27.701  1.00  0.00     0.006 A 
ENDBRANCH  54  75
BRANCH  66  83
ATOM     83  C   UNL A   1      39.075  32.137  35.778  1.00  0.00     0.057 A 
ATOM     84  C   UNL A   1      38.223  31.651  36.777  1.00  0.00     0.134 A 
ATOM     85  C   UNL A   1      39.521  33.461  35.898  1.00  0.00     0.134 A 
ATOM     86  F   UNL A   1      37.752  30.396  36.719  1.00  0.00    -0.206 F 
ATOM     87  C   UNL A   1      37.806  32.459  37.838  1.00  0.00     0.040 A 
ATOM     88  C   UNL A   1      39.138  34.267  36.971  1.00  0.00     0.040 A 
ATOM     89  F   UNL A   1      40.350  33.987  34.984  1.00  0.00    -0.206 F 
ATOM     90  C   UNL A   1      38.270  33.770  37.939  1.00  0.00     0.006 A 
ENDBRANCH  66  83
ENDBRANCH  40  41
ENDBRANCH  33  35
ENDBRANCH  32  33
ENDBRANCH  31  32
ENDBRANCH  30  31
ENDBRANCH  29  30
ENDBRANCH  28  29
ENDBRANCH  27  28
ENDBRANCH   1  27
TORSDOF 22
ENDMDL
MODEL 3
REMARK VINA RESULT:     -10.0      1.562      2.939
REMARK SMILES C[C@]1(C(=O)N2CCC(CC(=O)OCCOCCOCCOCCOC(=O)c3ccc(-c4c5nc(c(-c6c(F)cccc6F)c6ccc([nH]6)c(-c6c(F)cccc6F)c6nc(c(-c7c(F)cccc7F)c7ccc4[nH]7)C=C6)C=C5)cc3)CC2)CCC[NH2+]1
REMARK SMILES IDX 18 1 17 2 16 3 15 4 14 5 13 6 12 7 10 8 11 9 9 10 8 11 3 12
REMARK SMILES IDX 4 13 5 14 6 15 82 16 7 17 81 18 2 19 1 20 83 21 86 22 84 23
REMARK SMILES IDX 85 24 19 27 20 28 21 29 22 30 23 31 24 32 25 33 26 34 27 35
REMARK SMILES IDX 28 36 80 37 29 38 79 39 30 40 31 41 32 42 73 43 33 44 78 45
REMARK SMILES IDX 72 46 74 47 34 48 77 49 71 50 70 51 35 53 61 54 44 55 60 56
REMARK SMILES IDX 45 57 48 58 59 59 75 60 46 61 47 62 58 64 76 65 49 66 36 67
REMARK SMILES IDX 37 68 42 69 38 70 39 71 41 72 43 73 40 74 62 75 63 76 68 77
REMARK SMILES IDX 64 78 65 79 67 80 69 81 66 82 50 83 51 84 56 85 52 86 53 87
REMARK SMILES IDX 55 88 57 89 54 90
REMARK H PARENT 86 25 86 26 74 52 48 63
REMARK Flexibility Score: inf
ROOT
ATOM      1  O   UNL A   1      34.671  32.144  28.108  1.00  0.00    -0.377 OA
ENDROOT
BRANCH   1   2
ATOM      2  C   UNL A   1      34.251  30.936  27.500  1.00  0.00     0.188 C 
BRANCH   2   3
ATOM      3  C   UNL A   1      32.765  30.776  27.160  1.00  0.00     0.188 C 
BRANCH   3   4
ATOM      4  O   UNL A   1      32.368  29.591  26.510  1.00  0.00    -0.376 OA
BRANCH   4   5
ATOM      5  C   UNL A   1      32.953  29.206  25.276  1.00  0.00     0.202 C 
BRANCH   5   6
ATOM      6  C   UNL A   1      32.200  29.043  23.942  1.00  0.00     0.261 C 
BRANCH   6   7
ATOM      7  O   UNL A   1      30.783  29.271  23.940  1.00  0.00    -0.463 OA
BRANCH   7   8
ATOM      8  C   UNL A   1      30.068  28.540  23.054  1.00  0.00     0.306 C 
ATOM      9  O   UNL A   1      29.987  28.800  21.856  1.00  0.00    -0.252 OA
BRANCH   8  10
ATOM     10  C   UNL A   1      29.383  27.311  23.619  1.00  0.00     0.126 C 
BRANCH  10  11
ATOM     11  C   UNL A   1      30.089  25.955  23.745  1.00  0.00     0.003 C 
ATOM     12  C   UNL A   1      33.672  24.425  24.629  1.00  0.00     0.283 C 
ATOM     13  O   UNL A   1      34.325  25.229  23.954  1.00  0.00    -0.268 OA
ATOM     14  N   UNL A   1      32.321  24.217  24.371  1.00  0.00    -0.337 N 
ATOM     15  C   UNL A   1      31.855  24.355  22.999  1.00  0.00     0.120 C 
ATOM     16  C   UNL A   1      31.316  24.444  25.401  1.00  0.00     0.120 C 
ATOM     17  C   UNL A   1      31.233  25.729  22.751  1.00  0.00     0.026 C 
ATOM     18  C   UNL A   1      30.620  25.793  25.188  1.00  0.00     0.026 C 
BRANCH  12  19
ATOM     19  C   UNL A   1      34.390  23.386  25.538  1.00  0.00     0.173 C 
ATOM     20  C   UNL A   1      35.862  23.826  25.639  1.00  0.00     0.090 C 
ATOM     21  C   UNL A   1      33.716  23.324  26.908  1.00  0.00     0.084 C 
ATOM     22  N   UNL A   1      34.307  21.989  25.045  1.00  0.00    -0.334 N 
ATOM     23  C   UNL A   1      34.104  21.960  27.438  1.00  0.00     0.068 C 
ATOM     24  C   UNL A   1      34.165  21.093  26.195  1.00  0.00     0.261 C 
ATOM     25  H   UNL A   1      35.156  21.755  24.531  1.00  0.00     0.347 HD
ATOM     26  H   UNL A   1      33.504  21.887  24.425  1.00  0.00     0.347 HD
ENDBRANCH  12  19
ENDBRANCH  10  11
ENDBRANCH   8  10
ENDBRANCH   7   8
ENDBRANCH   6   7
ENDBRANCH   5   6
ENDBRANCH   4   5
ENDBRANCH   3   4
ENDBRANCH   2   3
ENDBRANCH   1   2
BRANCH   1  27
ATOM     27  C   UNL A   1      33.890  33.327  27.955  1.00  0.00     0.188 C 
BRANCH  27  28
ATOM     28  C   UNL A   1      33.445  34.161  29.172  1.00  0.00     0.188 C 
BRANCH  28  29
ATOM     29  O   UNL A   1      34.147  33.898  30.376  1.00  0.00    -0.376 OA
BRANCH  29  30
ATOM     30  C   UNL A   1      34.924  34.942  30.944  1.00  0.00     0.202 C 
BRANCH  30  31
ATOM     31  C   UNL A   1      35.415  34.741  32.386  1.00  0.00     0.261 C 
BRANCH  31  32
ATOM     32  O   UNL A   1      36.602  33.941  32.534  1.00  0.00    -0.460 OA
BRANCH  32  33
ATOM     33  C   UNL A   1      36.453  32.708  33.062  1.00  0.00     0.338 C 
ATOM     34  O   UNL A   1      35.694  32.368  33.948  1.00  0.00    -0.246 OA
BRANCH  33  35
ATOM     35  C   UNL A   1      37.252  31.764  32.259  1.00  0.00     0.060 A 
ATOM     36  C   UNL A   1      38.256  31.028  32.901  1.00  0.00     0.016 A 
ATOM     37  C   UNL A   1      37.062  31.661  30.879  1.00  0.00     0.016 A 
ATOM     38  C   UNL A   1      39.128  30.245  32.150  1.00  0.00     0.010 A 
ATOM     39  C   UNL A   1      37.949  30.888  30.124  1.00  0.00     0.010 A 
ATOM     40  C   UNL A   1      39.021  30.227  30.753  1.00  0.00    -0.014 A 
BRANCH  40  41
ATOM     41  C   UNL A   1      40.183  29.757  29.960  1.00  0.00     0.031 A 
ATOM     42  C   UNL A   1      41.323  30.718  29.742  1.00  0.00     0.074 A 
ATOM     43  C   UNL A   1      40.268  28.493  29.512  1.00  0.00     0.049 A 
ATOM     44  N   UNL A   1      42.454  30.540  29.110  1.00  0.00    -0.248 NA
ATOM     45  C   UNL A   1      41.165  32.064  30.321  1.00  0.00     0.031 C 
ATOM     46  C   UNL A   1      39.256  27.457  29.701  1.00  0.00     0.029 A 
ATOM     47  N   UNL A   1      41.265  27.869  28.806  1.00  0.00    -0.354 N 
ATOM     48  C   UNL A   1      43.136  31.747  29.211  1.00  0.00     0.074 A 
ATOM     49  C   UNL A   1      42.278  32.662  29.929  1.00  0.00     0.031 C 
ATOM     50  C   UNL A   1      39.683  26.322  29.120  1.00  0.00     0.029 A 
ATOM     51  C   UNL A   1      40.986  26.561  28.499  1.00  0.00     0.049 A 
ATOM     52  H   UNL A   1      42.102  28.317  28.545  1.00  0.00     0.167 HD
ATOM     53  C   UNL A   1      44.373  32.064  28.762  1.00  0.00     0.037 A 
ATOM     54  C   UNL A   1      41.697  25.666  27.786  1.00  0.00     0.037 A 
ATOM     55  C   UNL A   1      45.227  31.154  28.048  1.00  0.00     0.049 A 
ATOM     56  C   UNL A   1      43.043  26.063  27.232  1.00  0.00     0.074 A 
ATOM     57  C   UNL A   1      46.500  31.375  27.552  1.00  0.00     0.029 A 
ATOM     58  N   UNL A   1      44.892  29.848  27.725  1.00  0.00    -0.354 N 
ATOM     59  N   UNL A   1      43.687  27.200  27.351  1.00  0.00    -0.248 NA
ATOM     60  C   UNL A   1      43.766  25.046  26.455  1.00  0.00     0.031 C 
ATOM     61  C   UNL A   1      46.913  30.220  26.881  1.00  0.00     0.029 A 
ATOM     62  C   UNL A   1      45.925  29.258  27.017  1.00  0.00     0.049 A 
ATOM     63  H   UNL A   1      44.045  29.406  27.963  1.00  0.00     0.167 HD
ATOM     64  C   UNL A   1      44.903  27.021  26.699  1.00  0.00     0.074 A 
ATOM     65  C   UNL A   1      44.909  25.664  26.196  1.00  0.00     0.031 C 
ATOM     66  C   UNL A   1      45.924  27.899  26.538  1.00  0.00     0.037 A 
BRANCH  53  67
ATOM     67  C   UNL A   1      44.857  33.464  29.004  1.00  0.00     0.057 A 
ATOM     68  C   UNL A   1      45.593  33.811  30.145  1.00  0.00     0.134 A 
ATOM     69  C   UNL A   1      44.594  34.478  28.074  1.00  0.00     0.134 A 
ATOM     70  F   UNL A   1      45.862  32.893  31.085  1.00  0.00    -0.206 F 
ATOM     71  C   UNL A   1      46.026  35.119  30.366  1.00  0.00     0.040 A 
ATOM     72  C   UNL A   1      45.049  35.783  28.268  1.00  0.00     0.040 A 
ATOM     73  F   UNL A   1      43.897  34.216  26.959  1.00  0.00    -0.206 F 
ATOM     74  C   UNL A   1      45.760  36.109  29.421  1.00  0.00     0.006 A 
ENDBRANCH  53  67
BRANCH  54  75
ATOM     75  C   UNL A   1      41.158  24.302  27.546  1.00  0.00     0.057 A 
ATOM     76  C   UNL A   1      40.121  24.077  26.633  1.00  0.00     0.134 A 
ATOM     77  C   UNL A   1      41.645  23.194  28.252  1.00  0.00     0.134 A 
ATOM     78  F   UNL A   1      39.595  25.100  25.944  1.00  0.00    -0.206 F 
ATOM     79  C   UNL A   1      39.571  22.807  26.448  1.00  0.00     0.040 A 
ATOM     80  C   UNL A   1      41.124  21.915  28.056  1.00  0.00     0.040 A 
ATOM     81  F   UNL A   1      42.637  23.342  29.142  1.00  0.00    -0.206 F 
ATOM     82  C   UNL A   1      40.077  21.720  27.158  1.00  0.00     0.006 A 
ENDBRANCH  54  75
BRANCH  66  83
ATOM     83  C   UNL A   1      47.161  27.402  25.843  1.00  0.00     0.057 A 
ATOM     84  C   UNL A   1      48.185  26.733  26.524  1.00  0.00     0.134 A 
ATOM     85  C   UNL A   1      47.305  27.564  24.458  1.00  0.00     0.134 A 
ATOM     86  F   UNL A   1      48.114  26.551  27.851  1.00  0.00    -0.206 F 
ATOM     87  C   UNL A   1      49.324  26.273  25.858  1.00  0.00     0.040 A 
ATOM     88  C   UNL A   1      48.423  27.080  23.777  1.00  0.00     0.040 A 
ATOM     89  F   UNL A   1      46.356  28.184  23.740  1.00  0.00    -0.206 F 
ATOM     90  C   UNL A   1      49.441  26.440  24.479  1.00  0.00     0.006 A 
ENDBRANCH  66  83
ENDBRANCH  40  41
ENDBRANCH  33  35
ENDBRANCH  32  33
ENDBRANCH  31  32
ENDBRANCH  30  31
ENDBRANCH  29  30
ENDBRANCH  28  29
ENDBRANCH  27  28
ENDBRANCH   1  27
TORSDOF 22
ENDMDL
