MODEL 1
REMARK VINA RESULT:      -9.5      0.000      0.000
REMARK SMILES C[C@@H](NS(=O)(=O)c1ccccc1)C(=O)OCCOCCOCCOCCOC(=O)c1ccc(-c2c3nc(c(-c4c(F)cccc4F)c4ccc([nH]4)c(-c4c(F)cccc4F)c4nc(c(-c5c(F)cccc5F)c5ccc2[nH]5)C=C4)C=C3)cc1
REMARK SMILES IDX 20 1 19 2 18 3 17 4 16 5 15 6 13 7 14 8 2 9 1 10 3 11 4 13
REMARK SMILES IDX 5 14 6 15 7 16 8 17 12 18 9 19 11 20 10 21 21 22 22 23 23 24
REMARK SMILES IDX 24 25 25 26 26 27 27 28 28 29 29 30 30 31 31 32 83 33 32 34
REMARK SMILES IDX 82 35 33 36 34 37 35 38 76 39 36 40 81 41 75 42 77 43 37 44
REMARK SMILES IDX 80 45 74 46 73 47 38 49 64 50 47 51 63 52 48 53 51 54 62 55
REMARK SMILES IDX 78 56 49 57 50 58 61 60 79 61 52 62 39 63 40 64 45 65 41 66
REMARK SMILES IDX 42 67 44 68 46 69 43 70 65 71 66 72 71 73 67 74 68 75 70 76
REMARK SMILES IDX 72 77 69 78 53 79 54 80 59 81 55 82 56 83 58 84 60 85 57 86
REMARK H PARENT 3 12 77 48 51 59
REMARK Flexibility Score: inf
ROOT
ATOM      1  C   UNL A   1      38.150  22.422  26.170  1.00  0.00     0.188 C 
ENDROOT
BRANCH   1   2
ATOM      2  C   UNL A   1      37.219  23.066  25.133  1.00  0.00     0.188 C 
BRANCH   2   3
ATOM      3  O   UNL A   1      36.394  24.107  25.637  1.00  0.00    -0.376 OA
BRANCH   3   4
ATOM      4  C   UNL A   1      35.004  24.039  25.353  1.00  0.00     0.202 C 
BRANCH   4   5
ATOM      5  C   UNL A   1      34.415  25.245  24.617  1.00  0.00     0.261 C 
BRANCH   5   6
ATOM      6  O   UNL A   1      33.944  25.098  23.264  1.00  0.00    -0.462 OA
BRANCH   6   7
ATOM      7  C   UNL A   1      33.494  26.145  22.530  1.00  0.00     0.323 C 
ATOM      8  O   UNL A   1      33.785  26.386  21.367  1.00  0.00    -0.250 OA
BRANCH   7   9
ATOM      9  C   UNL A   1      32.688  27.110  23.382  1.00  0.00     0.176 C 
ATOM     10  C   UNL A   1      32.875  28.567  22.967  1.00  0.00     0.038 C 
BRANCH   9  11
ATOM     11  N   UNL A   1      31.262  26.728  23.282  1.00  0.00    -0.197 NA
ATOM     12  H   UNL A   1      31.210  25.917  22.665  1.00  0.00     0.142 HD
BRANCH  11  13
ATOM     13  S   UNL A   1      30.435  26.329  24.702  1.00  0.00     0.241 S 
ATOM     14  O   UNL A   1      30.929  27.210  25.736  1.00  0.00    -0.207 OA
ATOM     15  O   UNL A   1      29.037  26.307  24.333  1.00  0.00    -0.207 OA
BRANCH  13  16
ATOM     16  C   UNL A   1      30.887  24.658  25.097  1.00  0.00     0.082 A 
ATOM     17  C   UNL A   1      31.188  24.337  26.425  1.00  0.00     0.022 A 
ATOM     18  C   UNL A   1      31.013  23.695  24.092  1.00  0.00     0.022 A 
ATOM     19  C   UNL A   1      31.643  23.055  26.744  1.00  0.00     0.001 A 
ATOM     20  C   UNL A   1      31.478  22.417  24.419  1.00  0.00     0.001 A 
ATOM     21  C   UNL A   1      31.801  22.102  25.739  1.00  0.00     0.000 A 
ENDBRANCH  13  16
ENDBRANCH  11  13
ENDBRANCH   9  11
ENDBRANCH   7   9
ENDBRANCH   6   7
ENDBRANCH   5   6
ENDBRANCH   4   5
ENDBRANCH   3   4
ENDBRANCH   2   3
ENDBRANCH   1   2
BRANCH   1  22
ATOM     22  O   UNL A   1      39.500  22.177  25.807  1.00  0.00    -0.377 OA
BRANCH  22  23
ATOM     23  C   UNL A   1      40.107  20.933  26.137  1.00  0.00     0.188 C 
BRANCH  23  24
ATOM     24  C   UNL A   1      40.810  20.723  27.489  1.00  0.00     0.188 C 
BRANCH  24  25
ATOM     25  O   UNL A   1      42.137  20.223  27.392  1.00  0.00    -0.376 OA
BRANCH  25  26
ATOM     26  C   UNL A   1      42.641  20.044  26.077  1.00  0.00     0.202 C 
BRANCH  26  27
ATOM     27  C   UNL A   1      43.764  21.017  25.705  1.00  0.00     0.261 C 
BRANCH  27  28
ATOM     28  O   UNL A   1      43.682  22.325  26.293  1.00  0.00    -0.460 OA
BRANCH  28  29
ATOM     29  C   UNL A   1      43.588  23.401  25.482  1.00  0.00     0.338 C 
ATOM     30  O   UNL A   1      43.787  23.454  24.283  1.00  0.00    -0.246 OA
BRANCH  29  31
ATOM     31  C   UNL A   1      43.016  24.497  26.287  1.00  0.00     0.060 A 
ATOM     32  C   UNL A   1      43.464  25.811  26.083  1.00  0.00     0.016 A 
ATOM     33  C   UNL A   1      42.005  24.223  27.210  1.00  0.00     0.016 A 
ATOM     34  C   UNL A   1      42.916  26.856  26.830  1.00  0.00     0.010 A 
ATOM     35  C   UNL A   1      41.478  25.262  27.973  1.00  0.00     0.010 A 
ATOM     36  C   UNL A   1      41.957  26.573  27.812  1.00  0.00    -0.014 A 
BRANCH  36  37
ATOM     37  C   UNL A   1      41.641  27.563  28.866  1.00  0.00     0.031 A 
ATOM     38  C   UNL A   1      42.406  27.462  30.153  1.00  0.00     0.074 A 
ATOM     39  C   UNL A   1      40.653  28.463  28.729  1.00  0.00     0.049 A 
ATOM     40  N   UNL A   1      42.209  28.071  31.292  1.00  0.00    -0.248 NA
ATOM     41  C   UNL A   1      43.541  26.522  30.157  1.00  0.00     0.031 C 
ATOM     42  C   UNL A   1      39.857  28.672  27.522  1.00  0.00     0.029 A 
ATOM     43  N   UNL A   1      40.129  29.344  29.641  1.00  0.00    -0.354 N 
ATOM     44  C   UNL A   1      43.177  27.571  32.153  1.00  0.00     0.074 A 
ATOM     45  C   UNL A   1      43.951  26.600  31.412  1.00  0.00     0.031 C 
ATOM     46  C   UNL A   1      38.915  29.597  27.782  1.00  0.00     0.029 A 
ATOM     47  C   UNL A   1      39.021  30.012  29.181  1.00  0.00     0.049 A 
ATOM     48  H   UNL A   1      40.510  29.483  30.538  1.00  0.00     0.167 HD
ATOM     49  C   UNL A   1      43.400  27.889  33.449  1.00  0.00     0.037 A 
ATOM     50  C   UNL A   1      38.170  30.829  29.832  1.00  0.00     0.037 A 
ATOM     51  C   UNL A   1      42.620  28.843  34.185  1.00  0.00     0.049 A 
ATOM     52  C   UNL A   1      38.398  31.132  31.291  1.00  0.00     0.074 A 
ATOM     53  C   UNL A   1      42.781  29.262  35.493  1.00  0.00     0.029 A 
ATOM     54  N   UNL A   1      41.516  29.513  33.679  1.00  0.00    -0.354 N 
ATOM     55  N   UNL A   1      39.340  30.690  32.090  1.00  0.00    -0.248 NA
ATOM     56  C   UNL A   1      37.444  32.044  31.941  1.00  0.00     0.031 C 
ATOM     57  C   UNL A   1      41.741  30.148  35.794  1.00  0.00     0.029 A 
ATOM     58  C   UNL A   1      40.967  30.322  34.657  1.00  0.00     0.049 A 
ATOM     59  H   UNL A   1      41.175  29.426  32.759  1.00  0.00     0.167 HD
ATOM     60  C   UNL A   1      39.110  31.288  33.324  1.00  0.00     0.074 A 
ATOM     61  C   UNL A   1      37.939  32.127  33.169  1.00  0.00     0.031 C 
ATOM     62  C   UNL A   1      39.807  31.159  34.480  1.00  0.00     0.037 A 
BRANCH  49  63
ATOM     63  C   UNL A   1      44.503  27.154  34.149  1.00  0.00     0.057 A 
ATOM     64  C   UNL A   1      44.292  25.914  34.769  1.00  0.00     0.134 A 
ATOM     65  C   UNL A   1      45.787  27.706  34.223  1.00  0.00     0.134 A 
ATOM     66  F   UNL A   1      43.078  25.343  34.754  1.00  0.00    -0.206 F 
ATOM     67  C   UNL A   1      45.313  25.268  35.468  1.00  0.00     0.040 A 
ATOM     68  C   UNL A   1      46.821  27.055  34.896  1.00  0.00     0.040 A 
ATOM     69  F   UNL A   1      46.053  28.890  33.654  1.00  0.00    -0.206 F 
ATOM     70  C   UNL A   1      46.582  25.837  35.530  1.00  0.00     0.006 A 
ENDBRANCH  49  63
BRANCH  50  71
ATOM     71  C   UNL A   1      37.000  31.395  29.114  1.00  0.00     0.057 A 
ATOM     72  C   UNL A   1      35.849  30.633  28.888  1.00  0.00     0.134 A 
ATOM     73  C   UNL A   1      37.006  32.712  28.639  1.00  0.00     0.134 A 
ATOM     74  F   UNL A   1      35.793  29.357  29.295  1.00  0.00    -0.206 F 
ATOM     75  C   UNL A   1      34.746  31.159  28.210  1.00  0.00     0.040 A 
ATOM     76  C   UNL A   1      35.902  33.258  27.981  1.00  0.00     0.040 A 
ATOM     77  F   UNL A   1      38.080  33.494  28.824  1.00  0.00    -0.206 F 
ATOM     78  C   UNL A   1      34.768  32.478  27.761  1.00  0.00     0.006 A 
ENDBRANCH  50  71
BRANCH  62  79
ATOM     79  C   UNL A   1      39.358  31.967  35.662  1.00  0.00     0.057 A 
ATOM     80  C   UNL A   1      39.797  33.280  35.873  1.00  0.00     0.134 A 
ATOM     81  C   UNL A   1      38.403  31.452  36.550  1.00  0.00     0.134 A 
ATOM     82  F   UNL A   1      40.716  33.827  35.063  1.00  0.00    -0.206 F 
ATOM     83  C   UNL A   1      39.306  34.050  36.928  1.00  0.00     0.040 A 
ATOM     84  C   UNL A   1      37.888  32.221  37.594  1.00  0.00     0.040 A 
ATOM     85  F   UNL A   1      37.933  30.205  36.396  1.00  0.00    -0.206 F 
ATOM     86  C   UNL A   1      38.340  33.524  37.785  1.00  0.00     0.006 A 
ENDBRANCH  62  79
ENDBRANCH  36  37
ENDBRANCH  29  31
ENDBRANCH  28  29
ENDBRANCH  27  28
ENDBRANCH  26  27
ENDBRANCH  25  26
ENDBRANCH  24  25
ENDBRANCH  23  24
ENDBRANCH  22  23
ENDBRANCH   1  22
TORSDOF 23
ENDMDL
MODEL 2
REMARK VINA RESULT:      -9.5      4.476      9.612
REMARK SMILES C[C@@H](NS(=O)(=O)c1ccccc1)C(=O)OCCOCCOCCOCCOC(=O)c1ccc(-c2c3nc(c(-c4c(F)cccc4F)c4ccc([nH]4)c(-c4c(F)cccc4F)c4nc(c(-c5c(F)cccc5F)c5ccc2[nH]5)C=C4)C=C3)cc1
REMARK SMILES IDX 20 1 19 2 18 3 17 4 16 5 15 6 13 7 14 8 2 9 1 10 3 11 4 13
REMARK SMILES IDX 5 14 6 15 7 16 8 17 12 18 9 19 11 20 10 21 21 22 22 23 23 24
REMARK SMILES IDX 24 25 25 26 26 27 27 28 28 29 29 30 30 31 31 32 83 33 32 34
REMARK SMILES IDX 82 35 33 36 34 37 35 38 76 39 36 40 81 41 75 42 77 43 37 44
REMARK SMILES IDX 80 45 74 46 73 47 38 49 64 50 47 51 63 52 48 53 51 54 62 55
REMARK SMILES IDX 78 56 49 57 50 58 61 60 79 61 52 62 39 63 40 64 45 65 41 66
REMARK SMILES IDX 42 67 44 68 46 69 43 70 65 71 66 72 71 73 67 74 68 75 70 76
REMARK SMILES IDX 72 77 69 78 53 79 54 80 59 81 55 82 56 83 58 84 60 85 57 86
REMARK H PARENT 3 12 77 48 51 59
REMARK Flexibility Score: inf
ROOT
ATOM      1  C   UNL A   1      33.745  29.506  27.368  1.00  0.00     0.188 C 
ENDROOT
BRANCH   1   2
ATOM      2  C   UNL A   1      33.317  28.578  26.222  1.00  0.00     0.188 C 
BRANCH   2   3
ATOM      3  O   UNL A   1      32.518  29.195  25.222  1.00  0.00    -0.376 OA
BRANCH   3   4
ATOM      4  C   UNL A   1      31.739  28.348  24.390  1.00  0.00     0.202 C 
BRANCH   4   5
ATOM      5  C   UNL A   1      32.288  28.106  22.982  1.00  0.00     0.261 C 
BRANCH   5   6
ATOM      6  O   UNL A   1      31.862  26.952  22.234  1.00  0.00    -0.462 OA
BRANCH   6   7
ATOM      7  C   UNL A   1      32.555  25.788  22.228  1.00  0.00     0.323 C 
ATOM      8  O   UNL A   1      33.508  25.522  21.510  1.00  0.00    -0.250 OA
BRANCH   7   9
ATOM      9  C   UNL A   1      31.900  24.751  23.125  1.00  0.00     0.176 C 
ATOM     10  C   UNL A   1      30.382  24.893  23.185  1.00  0.00     0.038 C 
BRANCH   9  11
ATOM     11  N   UNL A   1      32.270  23.410  22.620  1.00  0.00    -0.197 NA
ATOM     12  H   UNL A   1      33.119  23.521  22.066  1.00  0.00     0.142 HD
BRANCH  11  13
ATOM     13  S   UNL A   1      32.564  22.181  23.743  1.00  0.00     0.241 S 
ATOM     14  O   UNL A   1      31.931  22.583  24.979  1.00  0.00    -0.207 OA
ATOM     15  O   UNL A   1      32.194  20.956  23.070  1.00  0.00    -0.207 OA
BRANCH  13  16
ATOM     16  C   UNL A   1      34.322  22.125  23.981  1.00  0.00     0.082 A 
ATOM     17  C   UNL A   1      35.127  23.033  23.284  1.00  0.00     0.022 A 
ATOM     18  C   UNL A   1      34.903  21.145  24.792  1.00  0.00     0.022 A 
ATOM     19  C   UNL A   1      36.518  22.943  23.377  1.00  0.00     0.001 A 
ATOM     20  C   UNL A   1      36.297  21.056  24.872  1.00  0.00     0.001 A 
ATOM     21  C   UNL A   1      37.101  21.947  24.159  1.00  0.00     0.000 A 
ENDBRANCH  13  16
ENDBRANCH  11  13
ENDBRANCH   9  11
ENDBRANCH   7   9
ENDBRANCH   6   7
ENDBRANCH   5   6
ENDBRANCH   4   5
ENDBRANCH   3   4
ENDBRANCH   2   3
ENDBRANCH   1   2
BRANCH   1  22
ATOM     22  O   UNL A   1      33.163  30.798  27.446  1.00  0.00    -0.377 OA
BRANCH  22  23
ATOM     23  C   UNL A   1      33.960  31.911  27.832  1.00  0.00     0.188 C 
BRANCH  23  24
ATOM     24  C   UNL A   1      33.343  33.310  28.008  1.00  0.00     0.188 C 
BRANCH  24  25
ATOM     25  O   UNL A   1      34.291  34.362  28.123  1.00  0.00    -0.376 OA
BRANCH  25  26
ATOM     26  C   UNL A   1      34.116  35.243  29.222  1.00  0.00     0.202 C 
BRANCH  26  27
ATOM     27  C   UNL A   1      34.331  34.583  30.588  1.00  0.00     0.261 C 
BRANCH  27  28
ATOM     28  O   UNL A   1      35.556  33.849  30.744  1.00  0.00    -0.460 OA
BRANCH  28  29
ATOM     29  C   UNL A   1      35.589  32.809  31.605  1.00  0.00     0.338 C 
ATOM     30  O   UNL A   1      34.793  32.541  32.486  1.00  0.00    -0.246 OA
BRANCH  29  31
ATOM     31  C   UNL A   1      36.690  31.928  31.173  1.00  0.00     0.060 A 
ATOM     32  C   UNL A   1      37.485  31.291  32.138  1.00  0.00     0.016 A 
ATOM     33  C   UNL A   1      36.901  31.701  29.812  1.00  0.00     0.016 A 
ATOM     34  C   UNL A   1      38.520  30.444  31.737  1.00  0.00     0.010 A 
ATOM     35  C   UNL A   1      37.950  30.877  29.413  1.00  0.00     0.010 A 
ATOM     36  C   UNL A   1      38.784  30.276  30.371  1.00  0.00    -0.014 A 
BRANCH  36  37
ATOM     37  C   UNL A   1      40.076  29.715  29.915  1.00  0.00     0.031 A 
ATOM     38  C   UNL A   1      41.223  30.670  29.765  1.00  0.00     0.074 A 
ATOM     39  C   UNL A   1      40.209  28.426  29.558  1.00  0.00     0.049 A 
ATOM     40  N   UNL A   1      42.396  30.488  29.216  1.00  0.00    -0.248 NA
ATOM     41  C   UNL A   1      41.005  32.029  30.290  1.00  0.00     0.031 C 
ATOM     42  C   UNL A   1      39.177  27.401  29.679  1.00  0.00     0.029 A 
ATOM     43  N   UNL A   1      41.271  27.776  28.982  1.00  0.00    -0.354 N 
ATOM     44  C   UNL A   1      43.043  31.713  29.310  1.00  0.00     0.074 A 
ATOM     45  C   UNL A   1      42.132  32.633  29.952  1.00  0.00     0.031 C 
ATOM     46  C   UNL A   1      39.644  26.254  29.153  1.00  0.00     0.029 A 
ATOM     47  C   UNL A   1      40.990  26.480  28.626  1.00  0.00     0.049 A 
ATOM     48  H   UNL A   1      42.149  28.198  28.837  1.00  0.00     0.167 HD
ATOM     49  C   UNL A   1      44.287  32.043  28.892  1.00  0.00     0.037 A 
ATOM     50  C   UNL A   1      41.723  25.597  27.918  1.00  0.00     0.037 A 
ATOM     51  C   UNL A   1      45.183  31.131  28.241  1.00  0.00     0.049 A 
ATOM     52  C   UNL A   1      43.085  25.998  27.412  1.00  0.00     0.074 A 
ATOM     53  C   UNL A   1      46.476  31.355  27.807  1.00  0.00     0.029 A 
ATOM     54  N   UNL A   1      44.868  29.820  27.915  1.00  0.00    -0.354 N 
ATOM     55  N   UNL A   1      43.710  27.144  27.538  1.00  0.00    -0.248 NA
ATOM     56  C   UNL A   1      43.842  24.984  26.661  1.00  0.00     0.031 C 
ATOM     57  C   UNL A   1      46.926  30.194  27.170  1.00  0.00     0.029 A 
ATOM     58  C   UNL A   1      45.933  29.231  27.257  1.00  0.00     0.049 A 
ATOM     59  H   UNL A   1      44.014  29.375  28.121  1.00  0.00     0.167 HD
ATOM     60  C   UNL A   1      44.940  26.982  26.910  1.00  0.00     0.074 A 
ATOM     61  C   UNL A   1      44.974  25.626  26.403  1.00  0.00     0.031 C 
ATOM     62  C   UNL A   1      45.952  27.874  26.769  1.00  0.00     0.037 A 
BRANCH  49  63
ATOM     63  C   UNL A   1      44.713  33.467  29.090  1.00  0.00     0.057 A 
ATOM     64  C   UNL A   1      44.476  34.455  28.124  1.00  0.00     0.134 A 
ATOM     65  C   UNL A   1      45.391  33.849  30.253  1.00  0.00     0.134 A 
ATOM     66  F   UNL A   1      43.851  34.148  26.976  1.00  0.00    -0.206 F 
ATOM     67  C   UNL A   1      44.929  35.763  28.294  1.00  0.00     0.040 A 
ATOM     68  C   UNL A   1      45.825  35.160  30.446  1.00  0.00     0.040 A 
ATOM     69  F   UNL A   1      45.652  32.951  31.215  1.00  0.00    -0.206 F 
ATOM     70  C   UNL A   1      45.604  36.120  29.460  1.00  0.00     0.006 A 
ENDBRANCH  49  63
BRANCH  50  71
ATOM     71  C   UNL A   1      41.166  24.254  27.618  1.00  0.00     0.057 A 
ATOM     72  C   UNL A   1      41.605  23.116  28.303  1.00  0.00     0.134 A 
ATOM     73  C   UNL A   1      40.178  24.078  26.641  1.00  0.00     0.134 A 
ATOM     74  F   UNL A   1      42.568  23.217  29.231  1.00  0.00    -0.206 F 
ATOM     75  C   UNL A   1      41.088  21.849  28.023  1.00  0.00     0.040 A 
ATOM     76  C   UNL A   1      39.635  22.822  26.367  1.00  0.00     0.040 A 
ATOM     77  F   UNL A   1      39.715  25.129  25.949  1.00  0.00    -0.206 F 
ATOM     78  C   UNL A   1      40.093  21.701  27.057  1.00  0.00     0.006 A 
ENDBRANCH  50  71
BRANCH  62  79
ATOM     79  C   UNL A   1      47.201  27.412  26.078  1.00  0.00     0.057 A 
ATOM     80  C   UNL A   1      48.243  26.785  26.770  1.00  0.00     0.134 A 
ATOM     81  C   UNL A   1      47.318  27.517  24.685  1.00  0.00     0.134 A 
ATOM     82  F   UNL A   1      48.195  26.663  28.106  1.00  0.00    -0.206 F 
ATOM     83  C   UNL A   1      49.362  26.283  26.103  1.00  0.00     0.040 A 
ATOM     84  C   UNL A   1      48.420  26.998  24.005  1.00  0.00     0.040 A 
ATOM     85  F   UNL A   1      46.348  28.096  23.961  1.00  0.00    -0.206 F 
ATOM     86  C   UNL A   1      49.447  26.379  24.715  1.00  0.00     0.006 A 
ENDBRANCH  62  79
ENDBRANCH  36  37
ENDBRANCH  29  31
ENDBRANCH  28  29
ENDBRANCH  27  28
ENDBRANCH  26  27
ENDBRANCH  25  26
ENDBRANCH  24  25
ENDBRANCH  23  24
ENDBRANCH  22  23
ENDBRANCH   1  22
TORSDOF 23
ENDMDL
MODEL 3
REMARK VINA RESULT:      -9.3      4.509      9.908
REMARK SMILES C[C@@H](NS(=O)(=O)c1ccccc1)C(=O)OCCOCCOCCOCCOC(=O)c1ccc(-c2c3nc(c(-c4c(F)cccc4F)c4ccc([nH]4)c(-c4c(F)cccc4F)c4nc(c(-c5c(F)cccc5F)c5ccc2[nH]5)C=C4)C=C3)cc1
REMARK SMILES IDX 20 1 19 2 18 3 17 4 16 5 15 6 13 7 14 8 2 9 1 10 3 11 4 13
REMARK SMILES IDX 5 14 6 15 7 16 8 17 12 18 9 19 11 20 10 21 21 22 22 23 23 24
REMARK SMILES IDX 24 25 25 26 26 27 27 28 28 29 29 30 30 31 31 32 83 33 32 34
REMARK SMILES IDX 82 35 33 36 34 37 35 38 76 39 36 40 81 41 75 42 77 43 37 44
REMARK SMILES IDX 80 45 74 46 73 47 38 49 64 50 47 51 63 52 48 53 51 54 62 55
REMARK SMILES IDX 78 56 49 57 50 58 61 60 79 61 52 62 39 63 40 64 45 65 41 66
REMARK SMILES IDX 42 67 44 68 46 69 43 70 65 71 66 72 71 73 67 74 68 75 70 76
REMARK SMILES IDX 72 77 69 78 53 79 54 80 59 81 55 82 56 83 58 84 60 85 57 86
REMARK H PARENT 3 12 77 48 51 59
REMARK Flexibility Score: inf
ROOT
ATOM      1  C   UNL A   1      33.790  34.465  29.251  1.00  0.00     0.188 C 
ENDROOT
BRANCH   1   2
ATOM      2  C   UNL A   1      33.555  33.707  27.937  1.00  0.00     0.188 C 
BRANCH   2   3
ATOM      3  O   UNL A   1      33.463  32.296  28.070  1.00  0.00    -0.376 OA
BRANCH   3   4
ATOM      4  C   UNL A   1      32.537  31.616  27.236  1.00  0.00     0.202 C 
BRANCH   4   5
ATOM      5  C   UNL A   1      33.075  30.379  26.512  1.00  0.00     0.261 C 
BRANCH   5   6
ATOM      6  O   UNL A   1      32.380  29.863  25.361  1.00  0.00    -0.462 OA
BRANCH   6   7
ATOM      7  C   UNL A   1      32.786  28.753  24.699  1.00  0.00     0.323 C 
ATOM      8  O   UNL A   1      33.849  28.613  24.113  1.00  0.00    -0.250 OA
BRANCH   7   9
ATOM      9  C   UNL A   1      31.673  27.721  24.620  1.00  0.00     0.176 C 
ATOM     10  C   UNL A   1      30.813  27.870  23.369  1.00  0.00     0.038 C 
BRANCH   9  11
ATOM     11  N   UNL A   1      32.293  26.377  24.660  1.00  0.00    -0.197 NA
ATOM     12  H   UNL A   1      33.299  26.512  24.763  1.00  0.00     0.142 HD
BRANCH  11  13
ATOM     13  S   UNL A   1      31.807  25.302  25.870  1.00  0.00     0.241 S 
ATOM     14  O   UNL A   1      31.574  26.090  27.061  1.00  0.00    -0.207 OA
ATOM     15  O   UNL A   1      30.756  24.508  25.274  1.00  0.00    -0.207 OA
BRANCH  13  16
ATOM     16  C   UNL A   1      33.176  24.209  26.155  1.00  0.00     0.082 A 
ATOM     17  C   UNL A   1      34.443  24.579  25.688  1.00  0.00     0.022 A 
ATOM     18  C   UNL A   1      32.985  22.968  26.768  1.00  0.00     0.022 A 
ATOM     19  C   UNL A   1      35.515  23.692  25.811  1.00  0.00     0.001 A 
ATOM     20  C   UNL A   1      34.062  22.082  26.878  1.00  0.00     0.001 A 
ATOM     21  C   UNL A   1      35.320  22.440  26.393  1.00  0.00     0.000 A 
ENDBRANCH  13  16
ENDBRANCH  11  13
ENDBRANCH   9  11
ENDBRANCH   7   9
ENDBRANCH   6   7
ENDBRANCH   5   6
ENDBRANCH   4   5
ENDBRANCH   3   4
ENDBRANCH   2   3
ENDBRANCH   1   2
BRANCH   1  22
ATOM     22  O   UNL A   1      32.673  35.046  29.906  1.00  0.00    -0.377 OA
BRANCH  22  23
ATOM     23  C   UNL A   1      32.878  35.988  30.952  1.00  0.00     0.188 C 
BRANCH  23  24
ATOM     24  C   UNL A   1      33.403  35.547  32.330  1.00  0.00     0.188 C 
BRANCH  24  25
ATOM     25  O   UNL A   1      34.688  36.056  32.661  1.00  0.00    -0.376 OA
BRANCH  25  26
ATOM     26  C   UNL A   1      35.515  35.206  33.440  1.00  0.00     0.202 C 
BRANCH  26  27
ATOM     27  C   UNL A   1      34.868  33.863  33.792  1.00  0.00     0.261 C 
BRANCH  27  28
ATOM     28  O   UNL A   1      35.515  32.696  33.259  1.00  0.00    -0.460 OA
BRANCH  28  29
ATOM     29  C   UNL A   1      35.113  32.214  32.064  1.00  0.00     0.338 C 
ATOM     30  O   UNL A   1      34.093  32.479  31.455  1.00  0.00    -0.246 OA
BRANCH  29  31
ATOM     31  C   UNL A   1      36.232  31.420  31.522  1.00  0.00     0.060 A 
ATOM     32  C   UNL A   1      36.920  30.531  32.362  1.00  0.00     0.016 A 
ATOM     33  C   UNL A   1      36.565  31.527  30.170  1.00  0.00     0.016 A 
ATOM     34  C   UNL A   1      37.970  29.765  31.852  1.00  0.00     0.010 A 
ATOM     35  C   UNL A   1      37.629  30.783  29.669  1.00  0.00     0.010 A 
ATOM     36  C   UNL A   1      38.358  29.929  30.515  1.00  0.00    -0.014 A 
BRANCH  36  37
ATOM     37  C   UNL A   1      39.675  29.442  30.046  1.00  0.00     0.031 A 
ATOM     38  C   UNL A   1      40.773  30.457  29.917  1.00  0.00     0.074 A 
ATOM     39  C   UNL A   1      39.871  28.170  29.661  1.00  0.00     0.049 A 
ATOM     40  N   UNL A   1      41.952  30.345  29.364  1.00  0.00    -0.248 NA
ATOM     41  C   UNL A   1      40.489  31.791  30.472  1.00  0.00     0.031 C 
ATOM     42  C   UNL A   1      38.891  27.092  29.760  1.00  0.00     0.029 A 
ATOM     43  N   UNL A   1      40.963  27.586  29.069  1.00  0.00    -0.354 N 
ATOM     44  C   UNL A   1      42.538  31.598  29.484  1.00  0.00     0.074 A 
ATOM     45  C   UNL A   1      41.584  32.458  30.147  1.00  0.00     0.031 C 
ATOM     46  C   UNL A   1      39.414  25.982  29.208  1.00  0.00     0.029 A 
ATOM     47  C   UNL A   1      40.746  26.286  28.685  1.00  0.00     0.049 A 
ATOM     48  H   UNL A   1      41.818  28.054  28.933  1.00  0.00     0.167 HD
ATOM     49  C   UNL A   1      43.763  31.999  29.073  1.00  0.00     0.037 A 
ATOM     50  C   UNL A   1      41.520  25.456  27.957  1.00  0.00     0.037 A 
ATOM     51  C   UNL A   1      44.702  31.146  28.401  1.00  0.00     0.049 A 
ATOM     52  C   UNL A   1      42.860  25.935  27.459  1.00  0.00     0.074 A 
ATOM     53  C   UNL A   1      45.982  31.444  27.971  1.00  0.00     0.029 A 
ATOM     54  N   UNL A   1      44.453  29.829  28.046  1.00  0.00    -0.354 N 
ATOM     55  N   UNL A   1      43.428  27.108  27.611  1.00  0.00    -0.248 NA
ATOM     56  C   UNL A   1      43.664  24.977  26.685  1.00  0.00     0.031 C 
ATOM     57  C   UNL A   1      46.488  30.321  27.308  1.00  0.00     0.029 A 
ATOM     58  C   UNL A   1      45.544  29.308  27.375  1.00  0.00     0.049 A 
ATOM     59  H   UNL A   1      43.621  29.338  28.243  1.00  0.00     0.167 HD
ATOM     60  C   UNL A   1      44.663  27.021  26.978  1.00  0.00     0.074 A 
ATOM     61  C   UNL A   1      44.763  25.680  26.441  1.00  0.00     0.031 C 
ATOM     62  C   UNL A   1      45.629  27.965  26.857  1.00  0.00     0.037 A 
BRANCH  49  63
ATOM     63  C   UNL A   1      44.119  33.437  29.302  1.00  0.00     0.057 A 
ATOM     64  C   UNL A   1      44.637  33.889  30.524  1.00  0.00     0.134 A 
ATOM     65  C   UNL A   1      43.917  34.386  28.293  1.00  0.00     0.134 A 
ATOM     66  F   UNL A   1      44.831  33.033  31.538  1.00  0.00    -0.206 F 
ATOM     67  C   UNL A   1      44.908  35.240  30.743  1.00  0.00     0.040 A 
ATOM     68  C   UNL A   1      44.211  35.735  28.492  1.00  0.00     0.040 A 
ATOM     69  F   UNL A   1      43.422  34.019  27.102  1.00  0.00    -0.206 F 
ATOM     70  C   UNL A   1      44.698  36.167  29.725  1.00  0.00     0.006 A 
ENDBRANCH  49  63
BRANCH  50  71
ATOM     71  C   UNL A   1      41.030  24.094  27.628  1.00  0.00     0.057 A 
ATOM     72  C   UNL A   1      40.045  23.891  26.656  1.00  0.00     0.134 A 
ATOM     73  C   UNL A   1      41.539  22.962  28.277  1.00  0.00     0.134 A 
ATOM     74  F   UNL A   1      39.500  24.938  26.019  1.00  0.00    -0.206 F 
ATOM     75  C   UNL A   1      39.578  22.612  26.344  1.00  0.00     0.040 A 
ATOM     76  C   UNL A   1      41.099  21.676  27.959  1.00  0.00     0.040 A 
ATOM     77  F   UNL A   1      42.485  23.090  29.220  1.00  0.00    -0.206 F 
ATOM     78  C   UNL A   1      40.112  21.499  26.992  1.00  0.00     0.006 A 
ENDBRANCH  50  71
BRANCH  62  79
ATOM     79  C   UNL A   1      46.898  27.581  26.154  1.00  0.00     0.057 A 
ATOM     80  C   UNL A   1      48.002  27.066  26.845  1.00  0.00     0.134 A 
ATOM     81  C   UNL A   1      46.980  27.644  24.757  1.00  0.00     0.134 A 
ATOM     82  F   UNL A   1      47.989  26.989  28.185  1.00  0.00    -0.206 F 
ATOM     83  C   UNL A   1      49.144  26.633  26.171  1.00  0.00     0.040 A 
ATOM     84  C   UNL A   1      48.107  27.192  24.071  1.00  0.00     0.040 A 
ATOM     85  F   UNL A   1      45.952  28.116  24.035  1.00  0.00    -0.206 F 
ATOM     86  C   UNL A   1      49.195  26.685  24.779  1.00  0.00     0.006 A 
ENDBRANCH  62  79
ENDBRANCH  36  37
ENDBRANCH  29  31
ENDBRANCH  28  29
ENDBRANCH  27  28
ENDBRANCH  26  27
ENDBRANCH  25  26
ENDBRANCH  24  25
ENDBRANCH  23  24
ENDBRANCH  22  23
ENDBRANCH   1  22
TORSDOF 23
ENDMDL
