MODEL 1
REMARK VINA RESULT:     -10.9      0.000      0.000
REMARK SMILES Cc1nc(-c2ccccc2Cl)nc2sc(C(=O)OCCOCCOCCOCCOC(=O)c3ccc(-c4c5nc(c(-c6c(F)cccc6F)c6ccc([nH]6)c(-c6c(F)cccc6F)c6nc(c(-c7c(F)cccc7F)c7ccc4[nH]7)C=C6)C=C5)cc3)c(N)c12
REMARK SMILES IDX 25 1 24 2 23 3 22 4 21 5 20 6 19 7 18 8 16 9 17 10 15 11
REMARK SMILES IDX 1 12 2 13 3 14 89 15 4 16 13 17 87 18 12 19 14 20 5 21 6 22
REMARK SMILES IDX 10 23 7 24 9 25 11 26 8 27 88 28 26 31 27 32 28 33 29 34
REMARK SMILES IDX 30 35 31 36 32 37 33 38 34 39 86 40 35 41 85 42 36 43 37 44
REMARK SMILES IDX 38 45 79 46 39 47 84 48 78 49 80 50 40 51 83 52 77 53 76 54
REMARK SMILES IDX 41 56 67 57 50 58 66 59 51 60 54 61 65 62 81 63 52 64 53 65
REMARK SMILES IDX 64 67 82 68 55 69 42 70 43 71 48 72 44 73 45 74 47 75 49 76
REMARK SMILES IDX 46 77 68 78 69 79 74 80 70 81 71 82 73 83 75 84 72 85 56 86
REMARK SMILES IDX 57 87 62 88 58 89 59 90 61 91 63 92 60 93
REMARK H PARENT 88 29 88 30 80 55 54 66
REMARK Flexibility Score: inf
ROOT
ATOM      1  C   UNL A   1      34.948  31.693  27.795  1.00  0.00     0.188 C 
ENDROOT
BRANCH   1   2
ATOM      2  O   UNL A   1      35.030  30.279  27.686  1.00  0.00    -0.377 OA
BRANCH   2   3
ATOM      3  C   UNL A   1      33.935  29.499  27.222  1.00  0.00     0.188 C 
BRANCH   3   4
ATOM      4  C   UNL A   1      34.085  28.412  26.133  1.00  0.00     0.188 C 
BRANCH   4   5
ATOM      5  O   UNL A   1      33.345  28.662  24.960  1.00  0.00    -0.376 OA
BRANCH   5   6
ATOM      6  C   UNL A   1      32.236  29.520  24.929  1.00  0.00     0.202 C 
BRANCH   6   7
ATOM      7  C   UNL A   1      31.010  29.211  24.067  1.00  0.00     0.261 C 
BRANCH   7   8
ATOM      8  O   UNL A   1      30.485  27.888  24.133  1.00  0.00    -0.459 OA
BRANCH   8   9
ATOM      9  C   UNL A   1      30.697  27.053  23.086  1.00  0.00     0.350 C 
ATOM     10  O   UNL A   1      30.817  27.426  21.912  1.00  0.00    -0.245 OA
BRANCH   9  11
ATOM     11  C   UNL A   1      30.927  25.716  23.577  1.00  0.00     0.138 A 
ATOM     12  C   UNL A   1      29.982  22.694  27.051  1.00  0.00     0.067 C 
ATOM     13  C   UNL A   1      30.733  22.652  25.755  1.00  0.00     0.052 A 
ATOM     14  N   UNL A   1      31.406  21.480  25.534  1.00  0.00    -0.233 NA
ATOM     15  C   UNL A   1      30.884  23.707  24.822  1.00  0.00     0.057 A 
ATOM     16  C   UNL A   1      32.152  21.330  24.428  1.00  0.00     0.162 A 
ATOM     17  C   UNL A   1      31.709  23.410  23.746  1.00  0.00     0.130 A 
ATOM     18  C   UNL A   1      30.398  25.067  24.684  1.00  0.00     0.069 A 
ATOM     19  N   UNL A   1      32.340  22.261  23.497  1.00  0.00    -0.217 NA
ATOM     20  S   UNL A   1      31.948  24.691  22.674  1.00  0.00    -0.106 S 
BRANCH  16  21
ATOM     21  C   UNL A   1      32.956  20.116  24.249  1.00  0.00     0.038 A 
ATOM     22  C   UNL A   1      32.381  19.038  23.531  1.00  0.00     0.013 A 
ATOM     23  C   UNL A   1      34.233  19.920  24.795  1.00  0.00     0.052 A 
ATOM     24  C   UNL A   1      33.037  17.818  23.378  1.00  0.00     0.001 A 
ATOM     25  C   UNL A   1      34.893  18.691  24.637  1.00  0.00     0.021 A 
ATOM     26  Cl  UNL A   1      35.039  21.119  25.748  1.00  0.00    -0.084 Cl
ATOM     27  C   UNL A   1      34.296  17.643  23.936  1.00  0.00     0.002 A 
ENDBRANCH  16  21
BRANCH  18  28
ATOM     28  N   UNL A   1      29.501  25.665  25.500  1.00  0.00    -0.397 N 
ATOM     29  H   UNL A   1      28.611  25.911  25.158  1.00  0.00     0.156 HD
ATOM     30  H   UNL A   1      29.737  25.854  26.438  1.00  0.00     0.156 HD
ENDBRANCH  18  28
ENDBRANCH   9  11
ENDBRANCH   8   9
ENDBRANCH   7   8
ENDBRANCH   6   7
ENDBRANCH   5   6
ENDBRANCH   4   5
ENDBRANCH   3   4
ENDBRANCH   2   3
ENDBRANCH   1   2
BRANCH   1  31
ATOM     31  C   UNL A   1      33.595  32.412  28.012  1.00  0.00     0.188 C 
BRANCH  31  32
ATOM     32  O   UNL A   1      33.612  33.811  27.794  1.00  0.00    -0.376 OA
BRANCH  32  33
ATOM     33  C   UNL A   1      33.270  34.734  28.804  1.00  0.00     0.202 C 
BRANCH  33  34
ATOM     34  C   UNL A   1      34.131  34.790  30.057  1.00  0.00     0.261 C 
BRANCH  34  35
ATOM     35  O   UNL A   1      33.511  34.267  31.217  1.00  0.00    -0.460 OA
BRANCH  35  36
ATOM     36  C   UNL A   1      33.935  34.807  32.365  1.00  0.00     0.338 C 
ATOM     37  O   UNL A   1      33.516  35.817  32.932  1.00  0.00    -0.246 OA
BRANCH  36  38
ATOM     38  C   UNL A   1      35.107  34.073  32.796  1.00  0.00     0.060 A 
ATOM     39  C   UNL A   1      36.313  34.767  32.888  1.00  0.00     0.016 A 
ATOM     40  C   UNL A   1      35.028  32.673  32.752  1.00  0.00     0.016 A 
ATOM     41  C   UNL A   1      37.473  34.048  32.728  1.00  0.00     0.010 A 
ATOM     42  C   UNL A   1      36.180  31.967  32.557  1.00  0.00     0.010 A 
ATOM     43  C   UNL A   1      37.373  32.676  32.469  1.00  0.00    -0.014 A 
BRANCH  43  44
ATOM     44  C   UNL A   1      38.583  31.949  32.175  1.00  0.00     0.031 A 
ATOM     45  C   UNL A   1      39.415  31.742  33.377  1.00  0.00     0.074 A 
ATOM     46  C   UNL A   1      38.813  31.433  30.955  1.00  0.00     0.049 A 
ATOM     47  N   UNL A   1      40.571  32.257  33.626  1.00  0.00    -0.248 NA
ATOM     48  C   UNL A   1      38.807  31.041  34.520  1.00  0.00     0.031 C 
ATOM     49  C   UNL A   1      37.893  31.361  29.816  1.00  0.00     0.029 A 
ATOM     50  N   UNL A   1      39.907  30.766  30.506  1.00  0.00    -0.354 N 
ATOM     51  C   UNL A   1      40.932  31.752  34.870  1.00  0.00     0.074 A 
ATOM     52  C   UNL A   1      39.738  31.212  35.456  1.00  0.00     0.031 C 
ATOM     53  C   UNL A   1      38.386  30.498  28.899  1.00  0.00     0.029 A 
ATOM     54  C   UNL A   1      39.703  30.058  29.327  1.00  0.00     0.049 A 
ATOM     55  H   UNL A   1      40.771  30.781  30.975  1.00  0.00     0.167 HD
ATOM     56  C   UNL A   1      42.240  31.549  35.176  1.00  0.00     0.037 A 
ATOM     57  C   UNL A   1      40.541  29.127  28.805  1.00  0.00     0.037 A 
ATOM     58  C   UNL A   1      43.095  32.320  34.306  1.00  0.00     0.049 A 
ATOM     59  C   UNL A   1      41.868  29.323  29.444  1.00  0.00     0.074 A 
ATOM     60  C   UNL A   1      43.250  33.667  34.045  1.00  0.00     0.029 A 
ATOM     61  N   UNL A   1      43.690  31.656  33.263  1.00  0.00    -0.354 N 
ATOM     62  N   UNL A   1      42.635  30.356  29.232  1.00  0.00    -0.248 NA
ATOM     63  C   UNL A   1      42.146  28.583  30.667  1.00  0.00     0.031 C 
ATOM     64  C   UNL A   1      43.543  33.745  32.653  1.00  0.00     0.029 A 
ATOM     65  C   UNL A   1      43.612  32.447  32.148  1.00  0.00     0.049 A 
ATOM     66  H   UNL A   1      44.103  30.764  33.310  1.00  0.00     0.167 HD
ATOM     67  C   UNL A   1      43.181  30.651  30.473  1.00  0.00     0.074 A 
ATOM     68  C   UNL A   1      42.927  29.468  31.291  1.00  0.00     0.031 C 
ATOM     69  C   UNL A   1      43.519  31.933  30.799  1.00  0.00     0.037 A 
BRANCH  56  70
ATOM     70  C   UNL A   1      42.738  30.355  35.955  1.00  0.00     0.057 A 
ATOM     71  C   UNL A   1      43.683  30.564  36.976  1.00  0.00     0.134 A 
ATOM     72  C   UNL A   1      42.566  29.008  35.572  1.00  0.00     0.134 A 
ATOM     73  F   UNL A   1      43.955  31.800  37.420  1.00  0.00    -0.206 F 
ATOM     74  C   UNL A   1      44.448  29.524  37.515  1.00  0.00     0.040 A 
ATOM     75  C   UNL A   1      43.285  27.956  36.145  1.00  0.00     0.040 A 
ATOM     76  F   UNL A   1      41.774  28.632  34.563  1.00  0.00    -0.206 F 
ATOM     77  C   UNL A   1      44.254  28.215  37.096  1.00  0.00     0.006 A 
ENDBRANCH  56  70
BRANCH  57  78
ATOM     78  C   UNL A   1      40.215  27.893  28.050  1.00  0.00     0.057 A 
ATOM     79  C   UNL A   1      40.788  27.648  26.793  1.00  0.00     0.134 A 
ATOM     80  C   UNL A   1      39.569  26.799  28.653  1.00  0.00     0.134 A 
ATOM     81  F   UNL A   1      41.458  28.615  26.150  1.00  0.00    -0.206 F 
ATOM     82  C   UNL A   1      40.755  26.384  26.189  1.00  0.00     0.040 A 
ATOM     83  C   UNL A   1      39.520  25.535  28.057  1.00  0.00     0.040 A 
ATOM     84  F   UNL A   1      39.043  26.893  29.882  1.00  0.00    -0.206 F 
ATOM     85  C   UNL A   1      40.130  25.318  26.828  1.00  0.00     0.006 A 
ENDBRANCH  57  78
BRANCH  69  86
ATOM     86  C   UNL A   1      43.568  32.954  29.694  1.00  0.00     0.057 A 
ATOM     87  C   UNL A   1      42.504  33.804  29.354  1.00  0.00     0.134 A 
ATOM     88  C   UNL A   1      44.799  33.204  29.077  1.00  0.00     0.134 A 
ATOM     89  F   UNL A   1      41.312  33.701  29.956  1.00  0.00    -0.206 F 
ATOM     90  C   UNL A   1      42.656  34.836  28.423  1.00  0.00     0.040 A 
ATOM     91  C   UNL A   1      44.973  34.255  28.175  1.00  0.00     0.040 A 
ATOM     92  F   UNL A   1      45.874  32.463  29.391  1.00  0.00    -0.206 F 
ATOM     93  C   UNL A   1      43.898  35.072  27.840  1.00  0.00     0.006 A 
ENDBRANCH  69  86
ENDBRANCH  43  44
ENDBRANCH  36  38
ENDBRANCH  35  36
ENDBRANCH  34  35
ENDBRANCH  33  34
ENDBRANCH  32  33
ENDBRANCH  31  32
ENDBRANCH   1  31
TORSDOF 22
ENDMDL
MODEL 2
REMARK VINA RESULT:     -10.7      3.731      8.052
REMARK SMILES Cc1nc(-c2ccccc2Cl)nc2sc(C(=O)OCCOCCOCCOCCOC(=O)c3ccc(-c4c5nc(c(-c6c(F)cccc6F)c6ccc([nH]6)c(-c6c(F)cccc6F)c6nc(c(-c7c(F)cccc7F)c7ccc4[nH]7)C=C6)C=C5)cc3)c(N)c12
REMARK SMILES IDX 25 1 24 2 23 3 22 4 21 5 20 6 19 7 18 8 16 9 17 10 15 11
REMARK SMILES IDX 1 12 2 13 3 14 89 15 4 16 13 17 87 18 12 19 14 20 5 21 6 22
REMARK SMILES IDX 10 23 7 24 9 25 11 26 8 27 88 28 26 31 27 32 28 33 29 34
REMARK SMILES IDX 30 35 31 36 32 37 33 38 34 39 86 40 35 41 85 42 36 43 37 44
REMARK SMILES IDX 38 45 79 46 39 47 84 48 78 49 80 50 40 51 83 52 77 53 76 54
REMARK SMILES IDX 41 56 67 57 50 58 66 59 51 60 54 61 65 62 81 63 52 64 53 65
REMARK SMILES IDX 64 67 82 68 55 69 42 70 43 71 48 72 44 73 45 74 47 75 49 76
REMARK SMILES IDX 46 77 68 78 69 79 74 80 70 81 71 82 73 83 75 84 72 85 56 86
REMARK SMILES IDX 57 87 62 88 58 89 59 90 61 91 63 92 60 93
REMARK H PARENT 88 29 88 30 80 55 54 66
REMARK Flexibility Score: inf
ROOT
ATOM      1  C   UNL A   1      35.125  24.230  24.552  1.00  0.00     0.188 C 
ENDROOT
BRANCH   1   2
ATOM      2  O   UNL A   1      34.284  24.209  25.697  1.00  0.00    -0.377 OA
BRANCH   2   3
ATOM      3  C   UNL A   1      33.558  25.358  26.113  1.00  0.00     0.188 C 
BRANCH   3   4
ATOM      4  C   UNL A   1      34.091  26.797  25.925  1.00  0.00     0.188 C 
BRANCH   4   5
ATOM      5  O   UNL A   1      33.282  27.611  25.107  1.00  0.00    -0.376 OA
BRANCH   5   6
ATOM      6  C   UNL A   1      33.679  28.042  23.832  1.00  0.00     0.202 C 
BRANCH   6   7
ATOM      7  C   UNL A   1      32.655  28.430  22.764  1.00  0.00     0.261 C 
BRANCH   7   8
ATOM      8  O   UNL A   1      31.878  27.380  22.195  1.00  0.00    -0.459 OA
BRANCH   8   9
ATOM      9  C   UNL A   1      30.762  26.971  22.848  1.00  0.00     0.350 C 
ATOM     10  O   UNL A   1      29.697  27.601  22.866  1.00  0.00    -0.245 OA
BRANCH   9  11
ATOM     11  C   UNL A   1      30.966  25.636  23.357  1.00  0.00     0.138 A 
ATOM     12  C   UNL A   1      30.039  22.706  26.914  1.00  0.00     0.067 C 
ATOM     13  C   UNL A   1      30.747  22.618  25.596  1.00  0.00     0.052 A 
ATOM     14  N   UNL A   1      31.375  21.422  25.375  1.00  0.00    -0.233 NA
ATOM     15  C   UNL A   1      30.901  23.652  24.639  1.00  0.00     0.057 A 
ATOM     16  C   UNL A   1      32.081  21.229  24.249  1.00  0.00     0.162 A 
ATOM     17  C   UNL A   1      31.680  23.310  23.543  1.00  0.00     0.130 A 
ATOM     18  C   UNL A   1      30.453  25.023  24.492  1.00  0.00     0.069 A 
ATOM     19  N   UNL A   1      32.267  22.137  23.296  1.00  0.00    -0.217 NA
ATOM     20  S   UNL A   1      31.925  24.564  22.441  1.00  0.00    -0.106 S 
BRANCH  16  21
ATOM     21  C   UNL A   1      32.839  19.987  24.067  1.00  0.00     0.038 A 
ATOM     22  C   UNL A   1      32.289  18.988  23.228  1.00  0.00     0.013 A 
ATOM     23  C   UNL A   1      34.046  19.689  24.719  1.00  0.00     0.052 A 
ATOM     24  C   UNL A   1      32.898  17.746  23.057  1.00  0.00     0.001 A 
ATOM     25  C   UNL A   1      34.660  18.439  24.543  1.00  0.00     0.021 A 
ATOM     26  Cl  UNL A   1      34.809  20.783  25.822  1.00  0.00    -0.084 Cl
ATOM     27  C   UNL A   1      34.085  17.470  23.720  1.00  0.00     0.002 A 
ENDBRANCH  16  21
BRANCH  18  28
ATOM     28  N   UNL A   1      29.602  25.664  25.324  1.00  0.00    -0.397 N 
ATOM     29  H   UNL A   1      28.933  26.289  24.960  1.00  0.00     0.156 HD
ATOM     30  H   UNL A   1      29.649  25.506  26.295  1.00  0.00     0.156 HD
ENDBRANCH  18  28
ENDBRANCH   9  11
ENDBRANCH   8   9
ENDBRANCH   7   8
ENDBRANCH   6   7
ENDBRANCH   5   6
ENDBRANCH   4   5
ENDBRANCH   3   4
ENDBRANCH   2   3
ENDBRANCH   1   2
BRANCH   1  31
ATOM     31  C   UNL A   1      36.566  23.669  24.595  1.00  0.00     0.188 C 
BRANCH  31  32
ATOM     32  O   UNL A   1      37.098  23.466  25.891  1.00  0.00    -0.376 OA
BRANCH  32  33
ATOM     33  C   UNL A   1      38.288  22.740  26.112  1.00  0.00     0.202 C 
BRANCH  33  34
ATOM     34  C   UNL A   1      38.304  21.256  25.779  1.00  0.00     0.261 C 
BRANCH  34  35
ATOM     35  O   UNL A   1      39.426  20.836  25.027  1.00  0.00    -0.460 OA
BRANCH  35  36
ATOM     36  C   UNL A   1      40.283  20.055  25.695  1.00  0.00     0.338 C 
ATOM     37  O   UNL A   1      40.285  18.828  25.783  1.00  0.00    -0.246 OA
BRANCH  36  38
ATOM     38  C   UNL A   1      41.170  20.916  26.451  1.00  0.00     0.060 A 
ATOM     39  C   UNL A   1      41.068  20.896  27.842  1.00  0.00     0.016 A 
ATOM     40  C   UNL A   1      41.811  21.943  25.743  1.00  0.00     0.016 A 
ATOM     41  C   UNL A   1      41.439  22.030  28.522  1.00  0.00     0.010 A 
ATOM     42  C   UNL A   1      42.144  23.082  26.418  1.00  0.00     0.010 A 
ATOM     43  C   UNL A   1      41.877  23.134  27.782  1.00  0.00    -0.014 A 
BRANCH  43  44
ATOM     44  C   UNL A   1      42.144  24.364  28.486  1.00  0.00     0.031 A 
ATOM     45  C   UNL A   1      41.088  25.372  28.266  1.00  0.00     0.074 A 
ATOM     46  C   UNL A   1      43.184  24.478  29.330  1.00  0.00     0.049 A 
ATOM     47  N   UNL A   1      41.192  26.488  27.628  1.00  0.00    -0.248 NA
ATOM     48  C   UNL A   1      39.707  25.008  28.626  1.00  0.00     0.031 C 
ATOM     49  C   UNL A   1      44.085  23.423  29.801  1.00  0.00     0.029 A 
ATOM     50  N   UNL A   1      43.595  25.566  30.031  1.00  0.00    -0.354 N 
ATOM     51  C   UNL A   1      39.932  27.071  27.710  1.00  0.00     0.074 A 
ATOM     52  C   UNL A   1      39.027  26.036  28.122  1.00  0.00     0.031 C 
ATOM     53  C   UNL A   1      44.782  23.876  30.868  1.00  0.00     0.029 A 
ATOM     54  C   UNL A   1      44.469  25.280  31.074  1.00  0.00     0.049 A 
ATOM     55  H   UNL A   1      43.299  26.480  29.820  1.00  0.00     0.167 HD
ATOM     56  C   UNL A   1      39.801  28.423  27.727  1.00  0.00     0.037 A 
ATOM     57  C   UNL A   1      44.830  26.135  32.064  1.00  0.00     0.037 A 
ATOM     58  C   UNL A   1      40.984  29.059  27.202  1.00  0.00     0.049 A 
ATOM     59  C   UNL A   1      44.503  27.508  31.600  1.00  0.00     0.074 A 
ATOM     60  C   UNL A   1      41.645  29.028  25.989  1.00  0.00     0.029 A 
ATOM     61  N   UNL A   1      41.875  29.574  28.111  1.00  0.00    -0.354 N 
ATOM     62  N   UNL A   1      45.128  28.120  30.632  1.00  0.00    -0.248 NA
ATOM     63  C   UNL A   1      43.182  28.032  31.916  1.00  0.00     0.031 C 
ATOM     64  C   UNL A   1      43.029  29.115  26.317  1.00  0.00     0.029 A 
ATOM     65  C   UNL A   1      43.142  29.256  27.701  1.00  0.00     0.049 A 
ATOM     66  H   UNL A   1      41.641  30.084  28.919  1.00  0.00     0.167 HD
ATOM     67  C   UNL A   1      44.133  28.797  29.942  1.00  0.00     0.074 A 
ATOM     68  C   UNL A   1      42.978  28.790  30.836  1.00  0.00     0.031 C 
ATOM     69  C   UNL A   1      44.251  29.034  28.603  1.00  0.00     0.037 A 
BRANCH  56  70
ATOM     70  C   UNL A   1      38.804  29.152  28.595  1.00  0.00     0.057 A 
ATOM     71  C   UNL A   1      38.851  28.954  29.986  1.00  0.00     0.134 A 
ATOM     72  C   UNL A   1      37.639  29.796  28.127  1.00  0.00     0.134 A 
ATOM     73  F   UNL A   1      39.896  28.337  30.559  1.00  0.00    -0.206 F 
ATOM     74  C   UNL A   1      37.790  29.298  30.831  1.00  0.00     0.040 A 
ATOM     75  C   UNL A   1      36.598  30.194  28.969  1.00  0.00     0.040 A 
ATOM     76  F   UNL A   1      37.384  29.990  26.829  1.00  0.00    -0.206 F 
ATOM     77  C   UNL A   1      36.656  29.916  30.322  1.00  0.00     0.006 A 
ENDBRANCH  56  70
BRANCH  57  78
ATOM     78  C   UNL A   1      45.133  25.845  33.486  1.00  0.00     0.057 A 
ATOM     79  C   UNL A   1      46.291  26.355  34.093  1.00  0.00     0.134 A 
ATOM     80  C   UNL A   1      44.168  25.310  34.359  1.00  0.00     0.134 A 
ATOM     81  F   UNL A   1      47.255  26.920  33.352  1.00  0.00    -0.206 F 
ATOM     82  C   UNL A   1      46.463  26.368  35.483  1.00  0.00     0.040 A 
ATOM     83  C   UNL A   1      44.333  25.308  35.748  1.00  0.00     0.040 A 
ATOM     84  F   UNL A   1      42.993  24.855  33.902  1.00  0.00    -0.206 F 
ATOM     85  C   UNL A   1      45.476  25.854  36.317  1.00  0.00     0.006 A 
ENDBRANCH  57  78
BRANCH  69  86
ATOM     86  C   UNL A   1      45.596  28.817  27.962  1.00  0.00     0.057 A 
ATOM     87  C   UNL A   1      46.028  27.595  27.424  1.00  0.00     0.134 A 
ATOM     88  C   UNL A   1      46.404  29.935  27.725  1.00  0.00     0.134 A 
ATOM     89  F   UNL A   1      45.280  26.489  27.521  1.00  0.00    -0.206 F 
ATOM     90  C   UNL A   1      47.223  27.490  26.705  1.00  0.00     0.040 A 
ATOM     91  C   UNL A   1      47.579  29.850  26.977  1.00  0.00     0.040 A 
ATOM     92  F   UNL A   1      46.028  31.145  28.167  1.00  0.00    -0.206 F 
ATOM     93  C   UNL A   1      47.996  28.623  26.469  1.00  0.00     0.006 A 
ENDBRANCH  69  86
ENDBRANCH  43  44
ENDBRANCH  36  38
ENDBRANCH  35  36
ENDBRANCH  34  35
ENDBRANCH  33  34
ENDBRANCH  32  33
ENDBRANCH  31  32
ENDBRANCH   1  31
TORSDOF 22
ENDMDL
MODEL 3
REMARK VINA RESULT:     -10.2      2.652      7.293
REMARK SMILES Cc1nc(-c2ccccc2Cl)nc2sc(C(=O)OCCOCCOCCOCCOC(=O)c3ccc(-c4c5nc(c(-c6c(F)cccc6F)c6ccc([nH]6)c(-c6c(F)cccc6F)c6nc(c(-c7c(F)cccc7F)c7ccc4[nH]7)C=C6)C=C5)cc3)c(N)c12
REMARK SMILES IDX 25 1 24 2 23 3 22 4 21 5 20 6 19 7 18 8 16 9 17 10 15 11
REMARK SMILES IDX 1 12 2 13 3 14 89 15 4 16 13 17 87 18 12 19 14 20 5 21 6 22
REMARK SMILES IDX 10 23 7 24 9 25 11 26 8 27 88 28 26 31 27 32 28 33 29 34
REMARK SMILES IDX 30 35 31 36 32 37 33 38 34 39 86 40 35 41 85 42 36 43 37 44
REMARK SMILES IDX 38 45 79 46 39 47 84 48 78 49 80 50 40 51 83 52 77 53 76 54
REMARK SMILES IDX 41 56 67 57 50 58 66 59 51 60 54 61 65 62 81 63 52 64 53 65
REMARK SMILES IDX 64 67 82 68 55 69 42 70 43 71 48 72 44 73 45 74 47 75 49 76
REMARK SMILES IDX 46 77 68 78 69 79 74 80 70 81 71 82 73 83 75 84 72 85 56 86
REMARK SMILES IDX 57 87 62 88 58 89 59 90 61 91 63 92 60 93
REMARK H PARENT 88 29 88 30 80 55 54 66
REMARK Flexibility Score: inf
ROOT
ATOM      1  C   UNL A   1      36.613  23.052  26.179  1.00  0.00     0.188 C 
ENDROOT
BRANCH   1   2
ATOM      2  O   UNL A   1      35.766  23.603  25.180  1.00  0.00    -0.377 OA
BRANCH   2   3
ATOM      3  C   UNL A   1      34.636  24.399  25.513  1.00  0.00     0.188 C 
BRANCH   3   4
ATOM      4  C   UNL A   1      34.496  25.876  25.078  1.00  0.00     0.188 C 
BRANCH   4   5
ATOM      5  O   UNL A   1      33.544  26.609  25.815  1.00  0.00    -0.376 OA
BRANCH   5   6
ATOM      6  C   UNL A   1      33.284  27.968  25.582  1.00  0.00     0.202 C 
BRANCH   6   7
ATOM      7  C   UNL A   1      32.245  28.418  24.554  1.00  0.00     0.261 C 
BRANCH   7   8
ATOM      8  O   UNL A   1      32.256  27.765  23.288  1.00  0.00    -0.459 OA
BRANCH   8   9
ATOM      9  C   UNL A   1      31.159  27.065  22.910  1.00  0.00     0.350 C 
ATOM     10  O   UNL A   1      30.280  27.501  22.156  1.00  0.00    -0.245 OA
BRANCH   9  11
ATOM     11  C   UNL A   1      31.272  25.705  23.380  1.00  0.00     0.138 A 
ATOM     12  C   UNL A   1      30.193  22.754  26.876  1.00  0.00     0.067 C 
ATOM     13  C   UNL A   1      30.871  22.651  25.544  1.00  0.00     0.052 A 
ATOM     14  N   UNL A   1      31.406  21.419  25.280  1.00  0.00    -0.233 NA
ATOM     15  C   UNL A   1      31.084  23.696  24.611  1.00  0.00     0.057 A 
ATOM     16  C   UNL A   1      32.077  21.205  24.136  1.00  0.00     0.162 A 
ATOM     17  C   UNL A   1      31.818  23.328  23.493  1.00  0.00     0.130 A 
ATOM     18  C   UNL A   1      30.735  25.100  24.508  1.00  0.00     0.069 A 
ATOM     19  N   UNL A   1      32.313  22.124  23.204  1.00  0.00    -0.217 NA
ATOM     20  S   UNL A   1      32.135  24.591  22.418  1.00  0.00    -0.106 S 
BRANCH  16  21
ATOM     21  C   UNL A   1      32.740  19.917  23.907  1.00  0.00     0.038 A 
ATOM     22  C   UNL A   1      32.154  19.023  22.979  1.00  0.00     0.013 A 
ATOM     23  C   UNL A   1      33.882  19.478  24.594  1.00  0.00     0.052 A 
ATOM     24  C   UNL A   1      32.667  17.747  22.754  1.00  0.00     0.001 A 
ATOM     25  C   UNL A   1      34.400  18.193  24.365  1.00  0.00     0.021 A 
ATOM     26  Cl  UNL A   1      34.674  20.431  25.803  1.00  0.00    -0.084 Cl
ATOM     27  C   UNL A   1      33.792  17.330  23.452  1.00  0.00     0.002 A 
ENDBRANCH  16  21
BRANCH  18  28
ATOM     28  N   UNL A   1      29.947  25.778  25.373  1.00  0.00    -0.397 N 
ATOM     29  H   UNL A   1      30.218  26.670  25.690  1.00  0.00     0.156 HD
ATOM     30  H   UNL A   1      29.102  25.381  25.684  1.00  0.00     0.156 HD
ENDBRANCH  18  28
ENDBRANCH   9  11
ENDBRANCH   8   9
ENDBRANCH   7   8
ENDBRANCH   6   7
ENDBRANCH   5   6
ENDBRANCH   4   5
ENDBRANCH   3   4
ENDBRANCH   2   3
ENDBRANCH   1   2
BRANCH   1  31
ATOM     31  C   UNL A   1      38.153  23.173  26.091  1.00  0.00     0.188 C 
BRANCH  31  32
ATOM     32  O   UNL A   1      38.832  21.990  25.712  1.00  0.00    -0.376 OA
BRANCH  32  33
ATOM     33  C   UNL A   1      40.015  21.563  26.350  1.00  0.00     0.202 C 
BRANCH  33  34
ATOM     34  C   UNL A   1      40.492  22.323  27.578  1.00  0.00     0.261 C 
BRANCH  34  35
ATOM     35  O   UNL A   1      41.779  22.896  27.450  1.00  0.00    -0.460 OA
BRANCH  35  36
ATOM     36  C   UNL A   1      41.821  24.008  26.707  1.00  0.00     0.338 C 
ATOM     37  O   UNL A   1      42.388  24.183  25.629  1.00  0.00    -0.246 OA
BRANCH  36  38
ATOM     38  C   UNL A   1      41.186  25.070  27.462  1.00  0.00     0.060 A 
ATOM     39  C   UNL A   1      40.283  25.895  26.791  1.00  0.00     0.016 A 
ATOM     40  C   UNL A   1      41.770  25.409  28.691  1.00  0.00     0.016 A 
ATOM     41  C   UNL A   1      40.120  27.174  27.265  1.00  0.00     0.010 A 
ATOM     42  C   UNL A   1      41.634  26.692  29.138  1.00  0.00     0.010 A 
ATOM     43  C   UNL A   1      40.875  27.573  28.374  1.00  0.00    -0.014 A 
BRANCH  43  44
ATOM     44  C   UNL A   1      40.799  28.951  28.791  1.00  0.00     0.031 A 
ATOM     45  C   UNL A   1      41.975  29.731  28.358  1.00  0.00     0.074 A 
ATOM     46  C   UNL A   1      39.700  29.442  29.392  1.00  0.00     0.049 A 
ATOM     47  N   UNL A   1      42.891  30.245  29.106  1.00  0.00    -0.248 NA
ATOM     48  C   UNL A   1      42.275  29.776  26.917  1.00  0.00     0.031 C 
ATOM     49  C   UNL A   1      38.404  28.785  29.581  1.00  0.00     0.029 A 
ATOM     50  N   UNL A   1      39.484  30.690  29.880  1.00  0.00    -0.354 N 
ATOM     51  C   UNL A   1      43.762  30.879  28.227  1.00  0.00     0.074 A 
ATOM     52  C   UNL A   1      43.466  30.370  26.918  1.00  0.00     0.031 C 
ATOM     53  C   UNL A   1      37.483  29.711  29.934  1.00  0.00     0.029 A 
ATOM     54  C   UNL A   1      38.147  30.990  30.116  1.00  0.00     0.049 A 
ATOM     55  H   UNL A   1      40.212  31.330  30.051  1.00  0.00     0.167 HD
ATOM     56  C   UNL A   1      44.442  31.989  28.615  1.00  0.00     0.037 A 
ATOM     57  C   UNL A   1      37.643  32.225  30.364  1.00  0.00     0.037 A 
ATOM     58  C   UNL A   1      44.489  32.085  30.053  1.00  0.00     0.049 A 
ATOM     59  C   UNL A   1      38.779  33.089  30.776  1.00  0.00     0.074 A 
ATOM     60  C   UNL A   1      44.995  31.289  31.062  1.00  0.00     0.029 A 
ATOM     61  N   UNL A   1      43.608  32.950  30.653  1.00  0.00    -0.354 N 
ATOM     62  N   UNL A   1      39.425  32.957  31.902  1.00  0.00    -0.248 NA
ATOM     63  C   UNL A   1      39.488  33.818  29.735  1.00  0.00     0.031 C 
ATOM     64  C   UNL A   1      44.073  31.423  32.140  1.00  0.00     0.029 A 
ATOM     65  C   UNL A   1      43.089  32.337  31.762  1.00  0.00     0.049 A 
ATOM     66  H   UNL A   1      43.387  33.856  30.339  1.00  0.00     0.167 HD
ATOM     67  C   UNL A   1      40.754  33.190  31.576  1.00  0.00     0.074 A 
ATOM     68  C   UNL A   1      40.717  33.814  30.256  1.00  0.00     0.031 C 
ATOM     69  C   UNL A   1      41.759  32.584  32.274  1.00  0.00     0.037 A 
BRANCH  56  70
ATOM     70  C   UNL A   1      44.680  33.177  27.714  1.00  0.00     0.057 A 
ATOM     71  C   UNL A   1      45.984  33.414  27.243  1.00  0.00     0.134 A 
ATOM     72  C   UNL A   1      43.777  34.245  27.523  1.00  0.00     0.134 A 
ATOM     73  F   UNL A   1      46.945  32.487  27.379  1.00  0.00    -0.206 F 
ATOM     74  C   UNL A   1      46.375  34.643  26.699  1.00  0.00     0.040 A 
ATOM     75  C   UNL A   1      44.144  35.455  26.929  1.00  0.00     0.040 A 
ATOM     76  F   UNL A   1      42.522  34.229  27.981  1.00  0.00    -0.206 F 
ATOM     77  C   UNL A   1      45.454  35.671  26.545  1.00  0.00     0.006 A 
ENDBRANCH  56  70
BRANCH  57  78
ATOM     78  C   UNL A   1      36.333  32.797  29.970  1.00  0.00     0.057 A 
ATOM     79  C   UNL A   1      35.492  33.390  30.924  1.00  0.00     0.134 A 
ATOM     80  C   UNL A   1      35.998  33.036  28.625  1.00  0.00     0.134 A 
ATOM     81  F   UNL A   1      35.746  33.253  32.234  1.00  0.00    -0.206 F 
ATOM     82  C   UNL A   1      34.408  34.202  30.565  1.00  0.00     0.040 A 
ATOM     83  C   UNL A   1      34.913  33.837  28.253  1.00  0.00     0.040 A 
ATOM     84  F   UNL A   1      36.765  32.579  27.626  1.00  0.00    -0.206 F 
ATOM     85  C   UNL A   1      34.123  34.438  29.224  1.00  0.00     0.006 A 
ENDBRANCH  57  78
BRANCH  69  86
ATOM     86  C   UNL A   1      41.411  31.911  33.574  1.00  0.00     0.057 A 
ATOM     87  C   UNL A   1      41.291  32.579  34.804  1.00  0.00     0.134 A 
ATOM     88  C   UNL A   1      41.006  30.572  33.539  1.00  0.00     0.134 A 
ATOM     89  F   UNL A   1      41.569  33.884  34.916  1.00  0.00    -0.206 F 
ATOM     90  C   UNL A   1      40.816  31.931  35.948  1.00  0.00     0.040 A 
ATOM     91  C   UNL A   1      40.494  29.926  34.666  1.00  0.00     0.040 A 
ATOM     92  F   UNL A   1      41.045  29.885  32.387  1.00  0.00    -0.206 F 
ATOM     93  C   UNL A   1      40.404  30.604  35.878  1.00  0.00     0.006 A 
ENDBRANCH  69  86
ENDBRANCH  43  44
ENDBRANCH  36  38
ENDBRANCH  35  36
ENDBRANCH  34  35
ENDBRANCH  33  34
ENDBRANCH  32  33
ENDBRANCH  31  32
ENDBRANCH   1  31
TORSDOF 22
ENDMDL
