MODEL 1
REMARK VINA RESULT:     -10.1      0.000      0.000
REMARK SMILES N#CCSc1nnnn1-c1ccc(C(=O)OCCOCCOCCOCCOC(=O)c2ccc(-c3c4nc(c(-c5c(F)cccc5F)c5ccc([nH]5)c(-c5c(F)cccc5F)c5nc(c(-c6c(F)cccc6F)c6ccc3[nH]6)C=C5)C=C4)cc2)cc1
REMARK SMILES IDX 21 1 20 2 19 3 18 4 17 5 16 6 14 7 15 8 13 9 10 10 11 11
REMARK SMILES IDX 86 12 12 13 85 14 9 15 5 16 6 17 7 18 8 19 4 20 3 21 2 22
REMARK SMILES IDX 1 23 22 24 23 25 24 26 25 27 26 28 27 29 28 30 29 31 30 32
REMARK SMILES IDX 31 33 32 34 84 35 33 36 83 37 34 38 35 39 36 40 77 41 37 42
REMARK SMILES IDX 82 43 76 44 78 45 38 46 81 47 75 48 74 49 39 51 65 52 48 53
REMARK SMILES IDX 64 54 49 55 52 56 63 57 79 58 50 59 51 60 62 62 80 63 53 64
REMARK SMILES IDX 40 65 41 66 46 67 42 68 43 69 45 70 47 71 44 72 66 73 67 74
REMARK SMILES IDX 72 75 68 76 69 77 71 78 73 79 70 80 54 81 55 82 60 83 56 84
REMARK SMILES IDX 57 85 59 86 61 87 58 88
REMARK H PARENT 78 50 52 61
REMARK Flexibility Score: inf
ROOT
ATOM      1  C   UNL A   1      36.407  23.233  25.976  1.00  0.00     0.188 C 
ENDROOT
BRANCH   1   2
ATOM      2  C   UNL A   1      35.156  22.812  26.783  1.00  0.00     0.188 C 
BRANCH   2   3
ATOM      3  O   UNL A   1      34.791  21.457  26.605  1.00  0.00    -0.376 OA
BRANCH   3   4
ATOM      4  C   UNL A   1      33.445  21.109  26.385  1.00  0.00     0.202 C 
BRANCH   4   5
ATOM      5  C   UNL A   1      33.068  20.464  25.046  1.00  0.00     0.261 C 
BRANCH   5   6
ATOM      6  O   UNL A   1      33.532  21.140  23.872  1.00  0.00    -0.460 OA
BRANCH   6   7
ATOM      7  C   UNL A   1      32.582  21.684  23.086  1.00  0.00     0.338 C 
ATOM      8  O   UNL A   1      31.925  21.112  22.228  1.00  0.00    -0.246 OA
BRANCH   7   9
ATOM      9  C   UNL A   1      32.320  23.061  23.556  1.00  0.00     0.060 A 
ATOM     10  C   UNL A   1      31.934  25.557  24.691  1.00  0.00     0.069 A 
ATOM     11  C   UNL A   1      33.200  25.223  24.202  1.00  0.00     0.029 A 
ATOM     12  C   UNL A   1      30.832  24.719  24.470  1.00  0.00     0.029 A 
ATOM     13  C   UNL A   1      33.397  23.951  23.670  1.00  0.00     0.018 A 
ATOM     14  C   UNL A   1      31.024  23.470  23.885  1.00  0.00     0.018 A 
BRANCH  10  15
ATOM     15  N   UNL A   1      31.829  26.643  25.583  1.00  0.00    -0.187 N 
ATOM     16  C   UNL A   1      31.745  27.994  25.283  1.00  0.00     0.215 A 
ATOM     17  N   UNL A   1      31.488  28.663  26.384  1.00  0.00    -0.101 NA
ATOM     18  N   UNL A   1      31.377  27.719  27.375  1.00  0.00    -0.022 NA
ATOM     19  N   UNL A   1      31.510  26.492  26.889  1.00  0.00    -0.039 NA
BRANCH  16  20
ATOM     20  S   UNL A   1      31.721  28.659  23.679  1.00  0.00    -0.069 SA
BRANCH  20  21
ATOM     21  C   UNL A   1      30.265  29.743  23.752  1.00  0.00     0.198 C 
BRANCH  21  22
ATOM     22  C   UNL A   1      29.427  29.804  22.485  1.00  0.00     0.074 C 
ATOM     23  N   UNL A   1      28.732  29.854  21.434  1.00  0.00    -0.197 NA
ENDBRANCH  21  22
ENDBRANCH  20  21
ENDBRANCH  16  20
ENDBRANCH  10  15
ENDBRANCH   7   9
ENDBRANCH   6   7
ENDBRANCH   5   6
ENDBRANCH   4   5
ENDBRANCH   3   4
ENDBRANCH   2   3
ENDBRANCH   1   2
BRANCH   1  24
ATOM     24  O   UNL A   1      37.365  22.266  25.563  1.00  0.00    -0.377 OA
BRANCH  24  25
ATOM     25  C   UNL A   1      38.686  22.283  26.095  1.00  0.00     0.188 C 
BRANCH  25  26
ATOM     26  C   UNL A   1      39.595  21.021  26.124  1.00  0.00     0.188 C 
BRANCH  26  27
ATOM     27  O   UNL A   1      40.398  20.861  27.278  1.00  0.00    -0.376 OA
BRANCH  27  28
ATOM     28  C   UNL A   1      41.766  20.515  27.265  1.00  0.00     0.202 C 
BRANCH  28  29
ATOM     29  C   UNL A   1      42.275  19.423  26.333  1.00  0.00     0.261 C 
BRANCH  29  30
ATOM     30  O   UNL A   1      42.820  19.918  25.133  1.00  0.00    -0.460 OA
BRANCH  30  31
ATOM     31  C   UNL A   1      44.154  19.849  25.062  1.00  0.00     0.338 C 
ATOM     32  O   UNL A   1      44.860  18.860  25.260  1.00  0.00    -0.246 OA
BRANCH  31  33
ATOM     33  C   UNL A   1      44.662  21.195  24.806  1.00  0.00     0.060 A 
ATOM     34  C   UNL A   1      45.743  21.570  25.602  1.00  0.00     0.016 A 
ATOM     35  C   UNL A   1      43.751  22.117  24.269  1.00  0.00     0.016 A 
ATOM     36  C   UNL A   1      45.668  22.801  26.194  1.00  0.00     0.010 A 
ATOM     37  C   UNL A   1      43.652  23.326  24.892  1.00  0.00     0.010 A 
ATOM     38  C   UNL A   1      44.543  23.587  25.926  1.00  0.00    -0.014 A 
BRANCH  38  39
ATOM     39  C   UNL A   1      44.335  24.746  26.749  1.00  0.00     0.031 A 
ATOM     40  C   UNL A   1      45.467  25.677  26.663  1.00  0.00     0.074 A 
ATOM     41  C   UNL A   1      43.190  24.949  27.424  1.00  0.00     0.049 A 
ATOM     42  N   UNL A   1      46.392  25.874  27.540  1.00  0.00    -0.248 NA
ATOM     43  C   UNL A   1      45.736  26.277  25.346  1.00  0.00     0.031 C 
ATOM     44  C   UNL A   1      41.915  24.236  27.313  1.00  0.00     0.029 A 
ATOM     45  N   UNL A   1      42.916  25.936  28.312  1.00  0.00    -0.354 N 
ATOM     46  C   UNL A   1      47.235  26.810  26.958  1.00  0.00     0.074 A 
ATOM     47  C   UNL A   1      46.937  26.813  25.553  1.00  0.00     0.031 C 
ATOM     48  C   UNL A   1      40.951  24.958  27.934  1.00  0.00     0.029 A 
ATOM     49  C   UNL A   1      41.568  26.096  28.593  1.00  0.00     0.049 A 
ATOM     50  H   UNL A   1      43.616  26.493  28.724  1.00  0.00     0.167 HD
ATOM     51  C   UNL A   1      47.874  27.734  27.720  1.00  0.00     0.037 A 
ATOM     52  C   UNL A   1      41.036  27.164  29.237  1.00  0.00     0.037 A 
ATOM     53  C   UNL A   1      47.919  27.328  29.103  1.00  0.00     0.049 A 
ATOM     54  C   UNL A   1      42.149  27.851  29.950  1.00  0.00     0.074 A 
ATOM     55  C   UNL A   1      48.447  26.247  29.781  1.00  0.00     0.029 A 
ATOM     56  N   UNL A   1      47.011  27.901  29.961  1.00  0.00    -0.354 N 
ATOM     57  N   UNL A   1      42.788  27.337  30.966  1.00  0.00    -0.248 NA
ATOM     58  C   UNL A   1      42.864  28.897  29.232  1.00  0.00     0.031 C 
ATOM     59  C   UNL A   1      47.508  25.958  30.815  1.00  0.00     0.029 A 
ATOM     60  C   UNL A   1      46.487  26.906  30.746  1.00  0.00     0.049 A 
ATOM     61  H   UNL A   1      46.780  28.857  30.005  1.00  0.00     0.167 HD
ATOM     62  C   UNL A   1      44.118  27.685  30.768  1.00  0.00     0.074 A 
ATOM     63  C   UNL A   1      44.092  28.707  29.724  1.00  0.00     0.031 C 
ATOM     64  C   UNL A   1      45.132  26.909  31.254  1.00  0.00     0.037 A 
BRANCH  51  65
ATOM     65  C   UNL A   1      48.075  29.161  27.277  1.00  0.00     0.057 A 
ATOM     66  C   UNL A   1      49.360  29.720  27.368  1.00  0.00     0.134 A 
ATOM     67  C   UNL A   1      47.037  30.087  27.030  1.00  0.00     0.134 A 
ATOM     68  F   UNL A   1      50.428  28.948  27.617  1.00  0.00    -0.206 F 
ATOM     69  C   UNL A   1      49.583  31.099  27.291  1.00  0.00     0.040 A 
ATOM     70  C   UNL A   1      47.257  31.459  26.893  1.00  0.00     0.040 A 
ATOM     71  F   UNL A   1      45.744  29.748  27.008  1.00  0.00    -0.206 F 
ATOM     72  C   UNL A   1      48.529  31.974  27.057  1.00  0.00     0.006 A 
ENDBRANCH  51  65
BRANCH  52  73
ATOM     73  C   UNL A   1      39.747  27.838  28.960  1.00  0.00     0.057 A 
ATOM     74  C   UNL A   1      38.785  28.001  29.965  1.00  0.00     0.134 A 
ATOM     75  C   UNL A   1      39.546  28.584  27.785  1.00  0.00     0.134 A 
ATOM     76  F   UNL A   1      38.917  27.368  31.140  1.00  0.00    -0.206 F 
ATOM     77  C   UNL A   1      37.695  28.869  29.819  1.00  0.00     0.040 A 
ATOM     78  C   UNL A   1      38.459  29.450  27.623  1.00  0.00     0.040 A 
ATOM     79  F   UNL A   1      40.446  28.570  26.791  1.00  0.00    -0.206 F 
ATOM     80  C   UNL A   1      37.534  29.604  28.647  1.00  0.00     0.006 A 
ENDBRANCH  52  73
BRANCH  64  81
ATOM     81  C   UNL A   1      44.770  25.811  32.220  1.00  0.00     0.057 A 
ATOM     82  C   UNL A   1      44.456  24.498  31.837  1.00  0.00     0.134 A 
ATOM     83  C   UNL A   1      44.890  26.057  33.591  1.00  0.00     0.134 A 
ATOM     84  F   UNL A   1      44.416  24.144  30.546  1.00  0.00    -0.206 F 
ATOM     85  C   UNL A   1      44.232  23.488  32.778  1.00  0.00     0.040 A 
ATOM     86  C   UNL A   1      44.703  25.050  34.541  1.00  0.00     0.040 A 
ATOM     87  F   UNL A   1      45.243  27.275  34.031  1.00  0.00    -0.206 F 
ATOM     88  C   UNL A   1      44.363  23.762  34.136  1.00  0.00     0.006 A 
ENDBRANCH  64  81
ENDBRANCH  38  39
ENDBRANCH  31  33
ENDBRANCH  30  31
ENDBRANCH  29  30
ENDBRANCH  28  29
ENDBRANCH  27  28
ENDBRANCH  26  27
ENDBRANCH  25  26
ENDBRANCH  24  25
ENDBRANCH   1  24
TORSDOF 24
ENDMDL
MODEL 2
REMARK VINA RESULT:      -9.0      1.595      2.327
REMARK SMILES N#CCSc1nnnn1-c1ccc(C(=O)OCCOCCOCCOCCOC(=O)c2ccc(-c3c4nc(c(-c5c(F)cccc5F)c5ccc([nH]5)c(-c5c(F)cccc5F)c5nc(c(-c6c(F)cccc6F)c6ccc3[nH]6)C=C5)C=C4)cc2)cc1
REMARK SMILES IDX 21 1 20 2 19 3 18 4 17 5 16 6 14 7 15 8 13 9 10 10 11 11
REMARK SMILES IDX 86 12 12 13 85 14 9 15 5 16 6 17 7 18 8 19 4 20 3 21 2 22
REMARK SMILES IDX 1 23 22 24 23 25 24 26 25 27 26 28 27 29 28 30 29 31 30 32
REMARK SMILES IDX 31 33 32 34 84 35 33 36 83 37 34 38 35 39 36 40 77 41 37 42
REMARK SMILES IDX 82 43 76 44 78 45 38 46 81 47 75 48 74 49 39 51 65 52 48 53
REMARK SMILES IDX 64 54 49 55 52 56 63 57 79 58 50 59 51 60 62 62 80 63 53 64
REMARK SMILES IDX 40 65 41 66 46 67 42 68 43 69 45 70 47 71 44 72 66 73 67 74
REMARK SMILES IDX 72 75 68 76 69 77 71 78 73 79 70 80 54 81 55 82 60 83 56 84
REMARK SMILES IDX 57 85 59 86 61 87 58 88
REMARK H PARENT 78 50 52 61
REMARK Flexibility Score: inf
ROOT
ATOM      1  C   UNL A   1      35.561  22.599  26.263  1.00  0.00     0.188 C 
ENDROOT
BRANCH   1   2
ATOM      2  C   UNL A   1      34.433  21.556  26.446  1.00  0.00     0.188 C 
BRANCH   2   3
ATOM      3  O   UNL A   1      34.455  20.517  25.487  1.00  0.00    -0.376 OA
BRANCH   3   4
ATOM      4  C   UNL A   1      33.257  19.892  25.091  1.00  0.00     0.202 C 
BRANCH   4   5
ATOM      5  C   UNL A   1      32.380  20.593  24.046  1.00  0.00     0.261 C 
BRANCH   5   6
ATOM      6  O   UNL A   1      32.173  21.996  24.241  1.00  0.00    -0.460 OA
BRANCH   6   7
ATOM      7  C   UNL A   1      31.217  22.338  25.128  1.00  0.00     0.338 C 
ATOM      8  O   UNL A   1      30.905  21.727  26.140  1.00  0.00    -0.246 OA
BRANCH   7   9
ATOM      9  C   UNL A   1      30.721  23.686  24.781  1.00  0.00     0.060 A 
ATOM     10  C   UNL A   1      30.065  26.291  24.109  1.00  0.00     0.069 A 
ATOM     11  C   UNL A   1      30.371  25.385  23.090  1.00  0.00     0.029 A 
ATOM     12  C   UNL A   1      29.928  25.863  25.437  1.00  0.00     0.029 A 
ATOM     13  C   UNL A   1      30.741  24.087  23.438  1.00  0.00     0.018 A 
ATOM     14  C   UNL A   1      30.243  24.548  25.772  1.00  0.00     0.018 A 
BRANCH  10  15
ATOM     15  N   UNL A   1      30.101  27.667  23.810  1.00  0.00    -0.187 N 
ATOM     16  C   UNL A   1      31.183  28.532  23.879  1.00  0.00     0.215 A 
ATOM     17  N   UNL A   1      30.842  29.687  23.355  1.00  0.00    -0.101 NA
ATOM     18  N   UNL A   1      29.548  29.533  22.923  1.00  0.00    -0.022 NA
ATOM     19  N   UNL A   1      29.116  28.296  23.129  1.00  0.00    -0.039 NA
BRANCH  16  20
ATOM     20  S   UNL A   1      32.793  28.077  24.342  1.00  0.00    -0.069 SA
BRANCH  20  21
ATOM     21  C   UNL A   1      32.955  28.891  25.958  1.00  0.00     0.198 C 
BRANCH  21  22
ATOM     22  C   UNL A   1      32.103  28.310  27.074  1.00  0.00     0.074 C 
ATOM     23  N   UNL A   1      31.396  27.827  28.000  1.00  0.00    -0.197 NA
ENDBRANCH  21  22
ENDBRANCH  20  21
ENDBRANCH  16  20
ENDBRANCH  10  15
ENDBRANCH   7   9
ENDBRANCH   6   7
ENDBRANCH   5   6
ENDBRANCH   4   5
ENDBRANCH   3   4
ENDBRANCH   2   3
ENDBRANCH   1   2
BRANCH   1  24
ATOM     24  O   UNL A   1      36.179  22.786  24.996  1.00  0.00    -0.377 OA
BRANCH  24  25
ATOM     25  C   UNL A   1      37.416  22.148  24.693  1.00  0.00     0.188 C 
BRANCH  25  26
ATOM     26  C   UNL A   1      37.686  20.649  25.005  1.00  0.00     0.188 C 
BRANCH  26  27
ATOM     27  O   UNL A   1      38.884  20.365  25.701  1.00  0.00    -0.376 OA
BRANCH  27  28
ATOM     28  C   UNL A   1      39.801  21.339  26.152  1.00  0.00     0.202 C 
BRANCH  28  29
ATOM     29  C   UNL A   1      41.264  20.976  26.370  1.00  0.00     0.261 C 
BRANCH  29  30
ATOM     30  O   UNL A   1      42.120  21.470  25.367  1.00  0.00    -0.460 OA
BRANCH  30  31
ATOM     31  C   UNL A   1      43.404  21.126  25.518  1.00  0.00     0.338 C 
ATOM     32  O   UNL A   1      43.857  19.992  25.684  1.00  0.00    -0.246 OA
BRANCH  31  33
ATOM     33  C   UNL A   1      44.198  22.352  25.559  1.00  0.00     0.060 A 
ATOM     34  C   UNL A   1      44.857  22.578  26.766  1.00  0.00     0.016 A 
ATOM     35  C   UNL A   1      43.796  23.387  24.702  1.00  0.00     0.016 A 
ATOM     36  C   UNL A   1      44.741  23.832  27.301  1.00  0.00     0.010 A 
ATOM     37  C   UNL A   1      43.641  24.625  25.253  1.00  0.00     0.010 A 
ATOM     38  C   UNL A   1      44.008  24.782  26.584  1.00  0.00    -0.014 A 
BRANCH  38  39
ATOM     39  C   UNL A   1      43.659  25.999  27.264  1.00  0.00     0.031 A 
ATOM     40  C   UNL A   1      44.652  27.054  27.021  1.00  0.00     0.074 A 
ATOM     41  C   UNL A   1      42.511  26.132  27.950  1.00  0.00     0.049 A 
ATOM     42  N   UNL A   1      45.558  27.483  27.831  1.00  0.00    -0.248 NA
ATOM     43  C   UNL A   1      44.809  27.510  25.630  1.00  0.00     0.031 C 
ATOM     44  C   UNL A   1      41.344  25.247  27.976  1.00  0.00     0.029 A 
ATOM     45  N   UNL A   1      42.122  27.179  28.718  1.00  0.00    -0.354 N 
ATOM     46  C   UNL A   1      46.252  28.441  27.106  1.00  0.00     0.074 A 
ATOM     47  C   UNL A   1      45.929  28.224  25.724  1.00  0.00     0.031 C 
ATOM     48  C   UNL A   1      40.303  25.907  28.538  1.00  0.00     0.029 A 
ATOM     49  C   UNL A   1      40.771  27.192  29.027  1.00  0.00     0.049 A 
ATOM     50  H   UNL A   1      42.747  27.873  29.032  1.00  0.00     0.167 HD
ATOM     51  C   UNL A   1      46.774  29.532  27.723  1.00  0.00     0.037 A 
ATOM     52  C   UNL A   1      40.110  28.254  29.553  1.00  0.00     0.037 A 
ATOM     53  C   UNL A   1      46.902  29.316  29.143  1.00  0.00     0.049 A 
ATOM     54  C   UNL A   1      41.133  29.169  30.133  1.00  0.00     0.074 A 
ATOM     55  C   UNL A   1      47.587  28.411  29.930  1.00  0.00     0.029 A 
ATOM     56  N   UNL A   1      45.942  29.868  29.957  1.00  0.00    -0.354 N 
ATOM     57  N   UNL A   1      41.857  28.880  31.180  1.00  0.00    -0.248 NA
ATOM     58  C   UNL A   1      41.684  30.200  29.265  1.00  0.00     0.031 C 
ATOM     59  C   UNL A   1      46.717  28.135  31.027  1.00  0.00     0.029 A 
ATOM     60  C   UNL A   1      45.575  28.921  30.879  1.00  0.00     0.049 A 
ATOM     61  H   UNL A   1      45.582  30.782  29.890  1.00  0.00     0.167 HD
ATOM     62  C   UNL A   1      43.122  29.373  30.891  1.00  0.00     0.074 A 
ATOM     63  C   UNL A   1      42.935  30.241  29.730  1.00  0.00     0.031 C 
ATOM     64  C   UNL A   1      44.242  28.808  31.432  1.00  0.00     0.037 A 
BRANCH  51  65
ATOM     65  C   UNL A   1      46.769  30.904  27.100  1.00  0.00     0.057 A 
ATOM     66  C   UNL A   1      47.961  31.646  27.094  1.00  0.00     0.134 A 
ATOM     67  C   UNL A   1      45.609  31.635  26.756  1.00  0.00     0.134 A 
ATOM     68  F   UNL A   1      49.128  31.073  27.418  1.00  0.00    -0.206 F 
ATOM     69  C   UNL A   1      47.984  33.022  26.838  1.00  0.00     0.040 A 
ATOM     70  C   UNL A   1      45.630  32.995  26.443  1.00  0.00     0.040 A 
ATOM     71  F   UNL A   1      44.377  31.115  26.803  1.00  0.00    -0.206 F 
ATOM     72  C   UNL A   1      46.815  33.701  26.516  1.00  0.00     0.006 A 
ENDBRANCH  51  65
BRANCH  52  73
ATOM     73  C   UNL A   1      38.736  28.709  29.242  1.00  0.00     0.057 A 
ATOM     74  C   UNL A   1      37.771  28.832  30.249  1.00  0.00     0.134 A 
ATOM     75  C   UNL A   1      38.419  29.299  28.005  1.00  0.00     0.134 A 
ATOM     76  F   UNL A   1      38.002  28.344  31.476  1.00  0.00    -0.206 F 
ATOM     77  C   UNL A   1      36.566  29.520  30.045  1.00  0.00     0.040 A 
ATOM     78  C   UNL A   1      37.219  29.982  27.786  1.00  0.00     0.040 A 
ATOM     79  F   UNL A   1      39.303  29.313  26.997  1.00  0.00    -0.206 F 
ATOM     80  C   UNL A   1      36.291  30.105  28.812  1.00  0.00     0.006 A 
ENDBRANCH  52  73
BRANCH  64  81
ATOM     81  C   UNL A   1      44.054  27.805  32.539  1.00  0.00     0.057 A 
ATOM     82  C   UNL A   1      44.048  26.415  32.349  1.00  0.00     0.134 A 
ATOM     83  C   UNL A   1      44.027  28.261  33.861  1.00  0.00     0.134 A 
ATOM     84  F   UNL A   1      44.169  25.883  31.126  1.00  0.00    -0.206 F 
ATOM     85  C   UNL A   1      43.977  25.523  33.424  1.00  0.00     0.040 A 
ATOM     86  C   UNL A   1      43.990  27.381  34.946  1.00  0.00     0.040 A 
ATOM     87  F   UNL A   1      44.086  29.576  34.123  1.00  0.00    -0.206 F 
ATOM     88  C   UNL A   1      43.955  26.007  34.729  1.00  0.00     0.006 A 
ENDBRANCH  64  81
ENDBRANCH  38  39
ENDBRANCH  31  33
ENDBRANCH  30  31
ENDBRANCH  29  30
ENDBRANCH  28  29
ENDBRANCH  27  28
ENDBRANCH  26  27
ENDBRANCH  25  26
ENDBRANCH  24  25
ENDBRANCH   1  24
TORSDOF 24
ENDMDL
MODEL 3
REMARK VINA RESULT:      -8.5      4.108      8.205
REMARK SMILES N#CCSc1nnnn1-c1ccc(C(=O)OCCOCCOCCOCCOC(=O)c2ccc(-c3c4nc(c(-c5c(F)cccc5F)c5ccc([nH]5)c(-c5c(F)cccc5F)c5nc(c(-c6c(F)cccc6F)c6ccc3[nH]6)C=C5)C=C4)cc2)cc1
REMARK SMILES IDX 21 1 20 2 19 3 18 4 17 5 16 6 14 7 15 8 13 9 10 10 11 11
REMARK SMILES IDX 86 12 12 13 85 14 9 15 5 16 6 17 7 18 8 19 4 20 3 21 2 22
REMARK SMILES IDX 1 23 22 24 23 25 24 26 25 27 26 28 27 29 28 30 29 31 30 32
REMARK SMILES IDX 31 33 32 34 84 35 33 36 83 37 34 38 35 39 36 40 77 41 37 42
REMARK SMILES IDX 82 43 76 44 78 45 38 46 81 47 75 48 74 49 39 51 65 52 48 53
REMARK SMILES IDX 64 54 49 55 52 56 63 57 79 58 50 59 51 60 62 62 80 63 53 64
REMARK SMILES IDX 40 65 41 66 46 67 42 68 43 69 45 70 47 71 44 72 66 73 67 74
REMARK SMILES IDX 72 75 68 76 69 77 71 78 73 79 70 80 54 81 55 82 60 83 56 84
REMARK SMILES IDX 57 85 59 86 61 87 58 88
REMARK H PARENT 78 50 52 61
REMARK Flexibility Score: inf
ROOT
ATOM      1  C   UNL A   1      35.450  22.697  26.520  1.00  0.00     0.188 C 
ENDROOT
BRANCH   1   2
ATOM      2  C   UNL A   1      34.482  21.514  26.757  1.00  0.00     0.188 C 
BRANCH   2   3
ATOM      3  O   UNL A   1      34.405  20.612  25.670  1.00  0.00    -0.376 OA
BRANCH   3   4
ATOM      4  C   UNL A   1      33.175  20.020  25.327  1.00  0.00     0.202 C 
BRANCH   4   5
ATOM      5  C   UNL A   1      32.378  20.617  24.160  1.00  0.00     0.261 C 
BRANCH   5   6
ATOM      6  O   UNL A   1      32.335  22.047  24.099  1.00  0.00    -0.460 OA
BRANCH   6   7
ATOM      7  C   UNL A   1      31.505  22.654  24.971  1.00  0.00     0.338 C 
ATOM      8  O   UNL A   1      31.268  22.307  26.119  1.00  0.00    -0.246 OA
BRANCH   7   9
ATOM      9  C   UNL A   1      31.059  23.931  24.377  1.00  0.00     0.060 A 
ATOM     10  C   UNL A   1      30.460  26.444  23.377  1.00  0.00     0.069 A 
ATOM     11  C   UNL A   1      31.348  25.626  22.670  1.00  0.00     0.029 A 
ATOM     12  C   UNL A   1      29.754  25.952  24.484  1.00  0.00     0.029 A 
ATOM     13  C   UNL A   1      31.676  24.380  23.201  1.00  0.00     0.018 A 
ATOM     14  C   UNL A   1      30.044  24.683  24.977  1.00  0.00     0.018 A 
BRANCH  10  15
ATOM     15  N   UNL A   1      30.447  27.822  23.084  1.00  0.00    -0.187 N 
ATOM     16  C   UNL A   1      31.051  28.854  23.785  1.00  0.00     0.215 A 
ATOM     17  N   UNL A   1      30.945  29.964  23.091  1.00  0.00    -0.101 NA
ATOM     18  N   UNL A   1      30.299  29.616  21.930  1.00  0.00    -0.022 NA
ATOM     19  N   UNL A   1      30.058  28.313  21.884  1.00  0.00    -0.039 NA
BRANCH  16  20
ATOM     20  S   UNL A   1      32.015  28.655  25.216  1.00  0.00    -0.069 SA
BRANCH  20  21
ATOM     21  C   UNL A   1      33.698  28.701  24.534  1.00  0.00     0.198 C 
BRANCH  21  22
ATOM     22  C   UNL A   1      33.820  28.350  23.060  1.00  0.00     0.074 C 
ATOM     23  N   UNL A   1      33.921  28.058  21.838  1.00  0.00    -0.197 NA
ENDBRANCH  21  22
ENDBRANCH  20  21
ENDBRANCH  16  20
ENDBRANCH  10  15
ENDBRANCH   7   9
ENDBRANCH   6   7
ENDBRANCH   5   6
ENDBRANCH   4   5
ENDBRANCH   3   4
ENDBRANCH   2   3
ENDBRANCH   1   2
BRANCH   1  24
ATOM     24  O   UNL A   1      35.806  23.091  25.200  1.00  0.00    -0.377 OA
BRANCH  24  25
ATOM     25  C   UNL A   1      37.080  22.752  24.662  1.00  0.00     0.188 C 
BRANCH  25  26
ATOM     26  C   UNL A   1      37.834  21.447  25.049  1.00  0.00     0.188 C 
BRANCH  26  27
ATOM     27  O   UNL A   1      39.045  21.618  25.759  1.00  0.00    -0.376 OA
BRANCH  27  28
ATOM     28  C   UNL A   1      39.300  22.659  26.677  1.00  0.00     0.202 C 
BRANCH  28  29
ATOM     29  C   UNL A   1      40.603  23.444  26.610  1.00  0.00     0.261 C 
BRANCH  29  30
ATOM     30  O   UNL A   1      40.442  24.761  26.139  1.00  0.00    -0.460 OA
BRANCH  30  31
ATOM     31  C   UNL A   1      41.129  25.681  26.825  1.00  0.00     0.338 C 
ATOM     32  O   UNL A   1      42.334  25.672  27.081  1.00  0.00    -0.246 OA
BRANCH  31  33
ATOM     33  C   UNL A   1      40.180  26.675  27.322  1.00  0.00     0.060 A 
ATOM     34  C   UNL A   1      40.442  27.982  26.917  1.00  0.00     0.016 A 
ATOM     35  C   UNL A   1      39.516  26.362  28.518  1.00  0.00     0.016 A 
ATOM     36  C   UNL A   1      40.411  28.942  27.892  1.00  0.00     0.010 A 
ATOM     37  C   UNL A   1      39.528  27.308  29.500  1.00  0.00     0.010 A 
ATOM     38  C   UNL A   1      40.090  28.542  29.193  1.00  0.00    -0.014 A 
BRANCH  38  39
ATOM     39  C   UNL A   1      40.323  29.485  30.251  1.00  0.00     0.031 A 
ATOM     40  C   UNL A   1      39.144  30.329  30.488  1.00  0.00     0.074 A 
ATOM     41  C   UNL A   1      41.461  29.493  30.965  1.00  0.00     0.049 A 
ATOM     42  N   UNL A   1      38.976  31.560  30.144  1.00  0.00    -0.248 NA
ATOM     43  C   UNL A   1      37.921  29.648  30.943  1.00  0.00     0.031 C 
ATOM     44  C   UNL A   1      42.537  28.499  30.998  1.00  0.00     0.029 A 
ATOM     45  N   UNL A   1      41.843  30.393  31.905  1.00  0.00    -0.354 N 
ATOM     46  C   UNL A   1      37.688  31.868  30.558  1.00  0.00     0.074 A 
ATOM     47  C   UNL A   1      37.020  30.617  30.789  1.00  0.00     0.031 C 
ATOM     48  C   UNL A   1      43.328  28.741  32.072  1.00  0.00     0.029 A 
ATOM     49  C   UNL A   1      42.894  29.974  32.706  1.00  0.00     0.049 A 
ATOM     50  H   UNL A   1      41.411  31.272  32.010  1.00  0.00     0.167 HD
ATOM     51  C   UNL A   1      37.381  33.117  30.991  1.00  0.00     0.037 A 
ATOM     52  C   UNL A   1      43.273  30.579  33.860  1.00  0.00     0.037 A 
ATOM     53  C   UNL A   1      38.357  34.079  30.541  1.00  0.00     0.049 A 
ATOM     54  C   UNL A   1      42.693  31.951  33.851  1.00  0.00     0.074 A 
ATOM     55  C   UNL A   1      38.807  34.502  29.306  1.00  0.00     0.029 A 
ATOM     56  N   UNL A   1      39.310  34.483  31.445  1.00  0.00    -0.354 N 
ATOM     57  N   UNL A   1      43.069  32.894  33.030  1.00  0.00    -0.248 NA
ATOM     58  C   UNL A   1      41.369  32.126  34.433  1.00  0.00     0.031 C 
ATOM     59  C   UNL A   1      40.206  34.724  29.473  1.00  0.00     0.029 A 
ATOM     60  C   UNL A   1      40.525  34.478  30.808  1.00  0.00     0.049 A 
ATOM     61  H   UNL A   1      39.150  34.734  32.383  1.00  0.00     0.167 HD
ATOM     62  C   UNL A   1      41.896  33.547  32.671  1.00  0.00     0.074 A 
ATOM     63  C   UNL A   1      40.893  33.077  33.624  1.00  0.00     0.031 C 
ATOM     64  C   UNL A   1      41.779  34.176  31.464  1.00  0.00     0.037 A 
BRANCH  51  65
ATOM     65  C   UNL A   1      36.446  33.377  32.144  1.00  0.00     0.057 A 
ATOM     66  C   UNL A   1      35.337  34.212  31.938  1.00  0.00     0.134 A 
ATOM     67  C   UNL A   1      36.723  33.076  33.497  1.00  0.00     0.134 A 
ATOM     68  F   UNL A   1      34.979  34.585  30.700  1.00  0.00    -0.206 F 
ATOM     69  C   UNL A   1      34.607  34.762  32.998  1.00  0.00     0.040 A 
ATOM     70  C   UNL A   1      35.966  33.573  34.558  1.00  0.00     0.040 A 
ATOM     71  F   UNL A   1      37.795  32.376  33.885  1.00  0.00    -0.206 F 
ATOM     72  C   UNL A   1      34.924  34.447  34.313  1.00  0.00     0.006 A 
ENDBRANCH  51  65
BRANCH  52  73
ATOM     73  C   UNL A   1      43.748  29.935  35.105  1.00  0.00     0.057 A 
ATOM     74  C   UNL A   1      43.060  28.853  35.668  1.00  0.00     0.134 A 
ATOM     75  C   UNL A   1      45.036  30.181  35.614  1.00  0.00     0.134 A 
ATOM     76  F   UNL A   1      41.845  28.511  35.215  1.00  0.00    -0.206 F 
ATOM     77  C   UNL A   1      43.625  28.049  36.668  1.00  0.00     0.040 A 
ATOM     78  C   UNL A   1      45.611  29.391  36.615  1.00  0.00     0.040 A 
ATOM     79  F   UNL A   1      45.818  31.138  35.092  1.00  0.00    -0.206 F 
ATOM     80  C   UNL A   1      44.910  28.312  37.138  1.00  0.00     0.006 A 
ENDBRANCH  52  73
BRANCH  64  81
ATOM     81  C   UNL A   1      43.030  34.359  30.647  1.00  0.00     0.057 A 
ATOM     82  C   UNL A   1      43.465  33.460  29.662  1.00  0.00     0.134 A 
ATOM     83  C   UNL A   1      43.737  35.561  30.760  1.00  0.00     0.134 A 
ATOM     84  F   UNL A   1      42.794  32.327  29.414  1.00  0.00    -0.206 F 
ATOM     85  C   UNL A   1      44.576  33.728  28.856  1.00  0.00     0.040 A 
ATOM     86  C   UNL A   1      44.827  35.857  29.938  1.00  0.00     0.040 A 
ATOM     87  F   UNL A   1      43.346  36.494  31.642  1.00  0.00    -0.206 F 
ATOM     88  C   UNL A   1      45.256  34.935  28.988  1.00  0.00     0.006 A 
ENDBRANCH  64  81
ENDBRANCH  38  39
ENDBRANCH  31  33
ENDBRANCH  30  31
ENDBRANCH  29  30
ENDBRANCH  28  29
ENDBRANCH  27  28
ENDBRANCH  26  27
ENDBRANCH  25  26
ENDBRANCH  24  25
ENDBRANCH   1  24
TORSDOF 24
ENDMDL
