MODEL 1
REMARK VINA RESULT:     -10.0      0.000      0.000
REMARK SMILES Cc1ccccc1[C@@H](CC(=O)OCCOCCOCCOCCOC(=O)c1ccc(-c2c3nc(c(-c4c(F)cccc4F)c4ccc([nH]4)c(-c4c(F)cccc4F)c4nc(c(-c5c(F)cccc5F)c5ccc2[nH]5)C=C4)C=C3)cc1)NC(=O)C(F)(F)F
REMARK SMILES IDX 17 1 16 2 15 3 14 4 13 5 12 6 10 7 11 8 9 9 8 10 7 11 1 12
REMARK SMILES IDX 2 13 3 14 4 15 6 16 5 17 81 18 82 19 83 21 84 22 85 23 86 24
REMARK SMILES IDX 87 25 18 26 19 27 20 28 21 29 22 30 23 31 24 32 25 33 26 34
REMARK SMILES IDX 27 35 28 36 80 37 29 38 79 39 30 40 31 41 32 42 73 43 33 44
REMARK SMILES IDX 78 45 72 46 74 47 34 48 77 49 71 50 70 51 35 53 61 54 44 55
REMARK SMILES IDX 60 56 45 57 48 58 59 59 75 60 46 61 47 62 58 64 76 65 49 66
REMARK SMILES IDX 36 67 37 68 42 69 38 70 39 71 41 72 43 73 40 74 62 75 63 76
REMARK SMILES IDX 68 77 64 78 65 79 67 80 69 81 66 82 50 83 51 84 56 85 52 86
REMARK SMILES IDX 53 87 55 88 57 89 54 90
REMARK H PARENT 81 20 74 52 48 63
REMARK Flexibility Score: inf
ROOT
ATOM      1  C   UNL A   1      34.221  21.455  26.575  1.00  0.00     0.188 C 
ENDROOT
BRANCH   1   2
ATOM      2  C   UNL A   1      33.411  20.537  25.653  1.00  0.00     0.188 C 
BRANCH   2   3
ATOM      3  O   UNL A   1      32.088  20.931  25.335  1.00  0.00    -0.376 OA
BRANCH   3   4
ATOM      4  C   UNL A   1      31.909  22.331  25.198  1.00  0.00     0.202 C 
BRANCH   4   5
ATOM      5  C   UNL A   1      31.610  22.866  23.803  1.00  0.00     0.261 C 
BRANCH   5   6
ATOM      6  O   UNL A   1      32.535  23.966  23.547  1.00  0.00    -0.463 OA
BRANCH   6   7
ATOM      7  C   UNL A   1      32.632  24.666  22.412  1.00  0.00     0.308 C 
ATOM      8  O   UNL A   1      33.285  24.274  21.449  1.00  0.00    -0.252 OA
BRANCH   7   9
ATOM      9  C   UNL A   1      31.928  26.056  22.459  1.00  0.00     0.152 C 
BRANCH   9  10
ATOM     10  C   UNL A   1      30.886  26.688  23.515  1.00  0.00     0.124 C 
BRANCH  10  11
ATOM     11  C   UNL A   1      30.061  28.068  23.254  1.00  0.00    -0.022 A 
ATOM     12  C   UNL A   1      27.758  26.507  23.877  1.00  0.00     0.045 C 
ATOM     13  C   UNL A   1      28.296  27.804  23.243  1.00  0.00    -0.046 A 
ATOM     14  C   UNL A   1      27.100  29.115  23.347  1.00  0.00     0.004 A 
ATOM     15  C   UNL A   1      27.481  30.801  23.518  1.00  0.00     0.000 A 
ATOM     16  C   UNL A   1      30.607  29.834  23.321  1.00  0.00     0.006 A 
ATOM     17  C   UNL A   1      29.192  31.267  23.536  1.00  0.00     0.000 A 
ENDBRANCH  10  11
BRANCH  10  18
ATOM     18  N   UNL A   1      30.982  26.346  24.932  1.00  0.00    -0.341 N 
ATOM     19  C   UNL A   1      31.898  26.564  25.929  1.00  0.00     0.326 C 
ATOM     20  H   UNL A   1      30.201  25.836  25.248  1.00  0.00     0.164 HD
ATOM     21  O   UNL A   1      31.506  26.281  27.073  1.00  0.00    -0.265 OA
BRANCH  19  22
ATOM     22  C   UNL A   1      33.324  27.088  25.667  1.00  0.00     0.471 C 
ATOM     23  F   UNL A   1      33.877  27.619  26.792  1.00  0.00    -0.162 F 
ATOM     24  F   UNL A   1      34.181  26.132  25.227  1.00  0.00    -0.162 F 
ATOM     25  F   UNL A   1      33.349  28.076  24.727  1.00  0.00    -0.162 F 
ENDBRANCH  19  22
ENDBRANCH  10  18
ENDBRANCH   9  10
ENDBRANCH   7   9
ENDBRANCH   6   7
ENDBRANCH   5   6
ENDBRANCH   4   5
ENDBRANCH   3   4
ENDBRANCH   2   3
ENDBRANCH   1   2
BRANCH   1  26
ATOM     26  O   UNL A   1      35.367  22.041  25.972  1.00  0.00    -0.377 OA
BRANCH  26  27
ATOM     27  C   UNL A   1      36.439  21.173  25.732  1.00  0.00     0.188 C 
BRANCH  27  28
ATOM     28  C   UNL A   1      37.521  21.669  24.866  1.00  0.00     0.188 C 
BRANCH  28  29
ATOM     29  O   UNL A   1      38.655  22.278  25.399  1.00  0.00    -0.376 OA
BRANCH  29  30
ATOM     30  C   UNL A   1      39.297  21.616  26.470  1.00  0.00     0.202 C 
BRANCH  30  31
ATOM     31  C   UNL A   1      40.690  21.015  26.165  1.00  0.00     0.261 C 
BRANCH  31  32
ATOM     32  O   UNL A   1      41.619  22.067  25.715  1.00  0.00    -0.460 OA
BRANCH  32  33
ATOM     33  C   UNL A   1      42.906  21.691  25.393  1.00  0.00     0.338 C 
ATOM     34  O   UNL A   1      43.234  20.537  25.155  1.00  0.00    -0.246 OA
BRANCH  33  35
ATOM     35  C   UNL A   1      43.938  22.780  25.741  1.00  0.00     0.060 A 
ATOM     36  C   UNL A   1      44.359  22.940  27.073  1.00  0.00     0.016 A 
ATOM     37  C   UNL A   1      44.142  23.872  24.913  1.00  0.00     0.016 A 
ATOM     38  C   UNL A   1      44.636  24.233  27.631  1.00  0.00     0.010 A 
ATOM     39  C   UNL A   1      44.338  25.152  25.497  1.00  0.00     0.010 A 
ATOM     40  C   UNL A   1      44.436  25.390  26.887  1.00  0.00    -0.014 A 
BRANCH  40  41
ATOM     41  C   UNL A   1      44.271  26.818  27.421  1.00  0.00     0.031 A 
ATOM     42  C   UNL A   1      42.875  27.417  27.342  1.00  0.00     0.074 A 
ATOM     43  C   UNL A   1      45.149  27.454  28.287  1.00  0.00     0.049 A 
ATOM     44  N   UNL A   1      42.524  28.530  27.887  1.00  0.00    -0.248 NA
ATOM     45  C   UNL A   1      41.702  26.736  26.805  1.00  0.00     0.031 C 
ATOM     46  C   UNL A   1      44.914  28.589  29.185  1.00  0.00     0.029 A 
ATOM     47  N   UNL A   1      46.435  27.156  28.721  1.00  0.00    -0.354 N 
ATOM     48  C   UNL A   1      41.169  28.525  28.158  1.00  0.00     0.074 A 
ATOM     49  C   UNL A   1      40.694  27.397  27.397  1.00  0.00     0.031 C 
ATOM     50  C   UNL A   1      45.988  28.994  29.895  1.00  0.00     0.029 A 
ATOM     51  C   UNL A   1      47.082  28.276  29.343  1.00  0.00     0.049 A 
ATOM     52  H   UNL A   1      46.857  26.273  28.613  1.00  0.00     0.167 HD
ATOM     53  C   UNL A   1      40.689  29.425  29.086  1.00  0.00     0.037 A 
ATOM     54  C   UNL A   1      48.283  28.828  28.979  1.00  0.00     0.037 A 
ATOM     55  C   UNL A   1      41.768  30.378  29.505  1.00  0.00     0.049 A 
ATOM     56  C   UNL A   1      47.650  30.065  28.023  1.00  0.00     0.074 A 
ATOM     57  C   UNL A   1      42.358  30.806  30.685  1.00  0.00     0.029 A 
ATOM     58  N   UNL A   1      42.594  30.900  28.511  1.00  0.00    -0.354 N 
ATOM     59  N   UNL A   1      46.339  30.282  28.008  1.00  0.00    -0.248 NA
ATOM     60  C   UNL A   1      48.236  31.172  27.250  1.00  0.00     0.031 C 
ATOM     61  C   UNL A   1      43.598  31.481  30.353  1.00  0.00     0.029 A 
ATOM     62  C   UNL A   1      43.764  31.481  28.969  1.00  0.00     0.049 A 
ATOM     63  H   UNL A   1      42.364  30.856  27.555  1.00  0.00     0.167 HD
ATOM     64  C   UNL A   1      45.936  31.511  27.631  1.00  0.00     0.074 A 
ATOM     65  C   UNL A   1      47.150  31.951  26.950  1.00  0.00     0.031 C 
ATOM     66  C   UNL A   1      44.702  32.063  27.970  1.00  0.00     0.037 A 
BRANCH  53  67
ATOM     67  C   UNL A   1      39.281  29.447  29.715  1.00  0.00     0.057 A 
ATOM     68  C   UNL A   1      38.156  29.828  28.945  1.00  0.00     0.134 A 
ATOM     69  C   UNL A   1      38.943  29.135  31.051  1.00  0.00     0.134 A 
ATOM     70  F   UNL A   1      38.272  30.163  27.654  1.00  0.00    -0.206 F 
ATOM     71  C   UNL A   1      36.840  29.882  29.442  1.00  0.00     0.040 A 
ATOM     72  C   UNL A   1      37.623  29.153  31.554  1.00  0.00     0.040 A 
ATOM     73  F   UNL A   1      39.861  28.814  31.965  1.00  0.00    -0.206 F 
ATOM     74  C   UNL A   1      36.562  29.528  30.749  1.00  0.00     0.006 A 
ENDBRANCH  53  67
BRANCH  54  75
ATOM     75  C   UNL A   1      49.356  27.501  28.764  1.00  0.00     0.057 A 
ATOM     76  C   UNL A   1      49.501  25.703  27.815  1.00  0.00     0.134 A 
ATOM     77  C   UNL A   1      50.841  28.535  28.679  1.00  0.00     0.134 A 
ATOM     78  F   UNL A   1      48.666  24.634  27.627  1.00  0.00    -0.206 F 
ATOM     79  C   UNL A   1      51.000  25.347  26.847  1.00  0.00     0.040 A 
ATOM     80  C   UNL A   1      52.194  28.051  27.703  1.00  0.00     0.040 A 
ATOM     81  F   UNL A   1      50.948  29.651  29.420  1.00  0.00    -0.206 F 
ATOM     82  C   UNL A   1      52.270  26.547  26.804  1.00  0.00     0.006 A 
ENDBRANCH  54  75
BRANCH  66  83
ATOM     83  C   UNL A   1      44.200  33.329  27.341  1.00  0.00     0.057 A 
ATOM     84  C   UNL A   1      43.928  33.409  25.983  1.00  0.00     0.134 A 
ATOM     85  C   UNL A   1      44.003  34.525  28.080  1.00  0.00     0.134 A 
ATOM     86  F   UNL A   1      44.281  32.422  25.147  1.00  0.00    -0.206 F 
ATOM     87  C   UNL A   1      43.289  34.521  25.437  1.00  0.00     0.040 A 
ATOM     88  C   UNL A   1      43.455  35.672  27.527  1.00  0.00     0.040 A 
ATOM     89  F   UNL A   1      44.284  34.650  29.382  1.00  0.00    -0.206 F 
ATOM     90  C   UNL A   1      43.032  35.647  26.214  1.00  0.00     0.006 A 
ENDBRANCH  66  83
ENDBRANCH  40  41
ENDBRANCH  33  35
ENDBRANCH  32  33
ENDBRANCH  31  32
ENDBRANCH  30  31
ENDBRANCH  29  30
ENDBRANCH  28  29
ENDBRANCH  27  28
ENDBRANCH  26  27
ENDBRANCH   1  26
TORSDOF 24
ENDMDL
MODEL 2
REMARK VINA RESULT:      -9.8      4.699      9.738
REMARK SMILES Cc1ccccc1[C@@H](CC(=O)OCCOCCOCCOCCOC(=O)c1ccc(-c2c3nc(c(-c4c(F)cccc4F)c4ccc([nH]4)c(-c4c(F)cccc4F)c4nc(c(-c5c(F)cccc5F)c5ccc2[nH]5)C=C4)C=C3)cc1)NC(=O)C(F)(F)F
REMARK SMILES IDX 17 1 16 2 15 3 14 4 13 5 12 6 10 7 11 8 9 9 8 10 7 11 1 12
REMARK SMILES IDX 2 13 3 14 4 15 6 16 5 17 81 18 82 19 83 21 84 22 85 23 86 24
REMARK SMILES IDX 87 25 18 26 19 27 20 28 21 29 22 30 23 31 24 32 25 33 26 34
REMARK SMILES IDX 27 35 28 36 80 37 29 38 79 39 30 40 31 41 32 42 73 43 33 44
REMARK SMILES IDX 78 45 72 46 74 47 34 48 77 49 71 50 70 51 35 53 61 54 44 55
REMARK SMILES IDX 60 56 45 57 48 58 59 59 75 60 46 61 47 62 58 64 76 65 49 66
REMARK SMILES IDX 36 67 37 68 42 69 38 70 39 71 41 72 43 73 40 74 62 75 63 76
REMARK SMILES IDX 68 77 64 78 65 79 67 80 69 81 66 82 50 83 51 84 56 85 52 86
REMARK SMILES IDX 53 87 55 88 57 89 54 90
REMARK H PARENT 81 20 74 52 48 63
REMARK Flexibility Score: inf
ROOT
ATOM      1  C   UNL A   1      34.456  30.431  27.044  1.00  0.00     0.188 C 
ENDROOT
BRANCH   1   2
ATOM      2  C   UNL A   1      33.588  29.273  26.541  1.00  0.00     0.188 C 
BRANCH   2   3
ATOM      3  O   UNL A   1      33.156  28.317  27.493  1.00  0.00    -0.376 OA
BRANCH   3   4
ATOM      4  C   UNL A   1      31.760  28.071  27.487  1.00  0.00     0.202 C 
BRANCH   4   5
ATOM      5  C   UNL A   1      31.231  27.064  26.475  1.00  0.00     0.261 C 
BRANCH   5   6
ATOM      6  O   UNL A   1      32.082  25.880  26.547  1.00  0.00    -0.463 OA
BRANCH   6   7
ATOM      7  C   UNL A   1      31.669  24.609  26.518  1.00  0.00     0.308 C 
ATOM      8  O   UNL A   1      30.919  24.140  27.370  1.00  0.00    -0.252 OA
BRANCH   7   9
ATOM      9  C   UNL A   1      32.297  23.761  25.371  1.00  0.00     0.152 C 
BRANCH   9  10
ATOM     10  C   UNL A   1      32.481  24.065  23.798  1.00  0.00     0.124 C 
BRANCH  10  11
ATOM     11  C   UNL A   1      32.438  25.561  23.155  1.00  0.00    -0.022 A 
ATOM     12  C   UNL A   1      29.639  25.427  23.675  1.00  0.00     0.045 C 
ATOM     13  C   UNL A   1      30.769  26.139  22.907  1.00  0.00    -0.046 A 
ATOM     14  C   UNL A   1      30.349  27.833  22.570  1.00  0.00     0.004 A 
ATOM     15  C   UNL A   1      31.486  29.144  22.485  1.00  0.00     0.000 A 
ATOM     16  C   UNL A   1      33.763  26.840  22.982  1.00  0.00     0.006 A 
ATOM     17  C   UNL A   1      33.206  28.766  22.694  1.00  0.00     0.000 A 
ENDBRANCH  10  11
BRANCH  10  18
ATOM     18  N   UNL A   1      32.211  23.019  22.814  1.00  0.00    -0.341 N 
ATOM     19  C   UNL A   1      32.237  21.648  22.815  1.00  0.00     0.326 C 
ATOM     20  H   UNL A   1      31.947  23.387  21.940  1.00  0.00     0.164 HD
ATOM     21  O   UNL A   1      31.732  21.113  21.815  1.00  0.00    -0.265 OA
BRANCH  19  22
ATOM     22  C   UNL A   1      32.869  20.815  23.948  1.00  0.00     0.471 C 
ATOM     23  F   UNL A   1      34.094  21.296  24.300  1.00  0.00    -0.162 F 
ATOM     24  F   UNL A   1      32.124  20.787  25.082  1.00  0.00    -0.162 F 
ATOM     25  F   UNL A   1      33.059  19.512  23.591  1.00  0.00    -0.162 F 
ENDBRANCH  19  22
ENDBRANCH  10  18
ENDBRANCH   9  10
ENDBRANCH   7   9
ENDBRANCH   6   7
ENDBRANCH   5   6
ENDBRANCH   4   5
ENDBRANCH   3   4
ENDBRANCH   2   3
ENDBRANCH   1   2
BRANCH   1  26
ATOM     26  O   UNL A   1      33.897  31.164  28.127  1.00  0.00    -0.377 OA
BRANCH  26  27
ATOM     27  C   UNL A   1      33.380  32.424  27.806  1.00  0.00     0.188 C 
BRANCH  27  28
ATOM     28  C   UNL A   1      33.922  33.578  28.542  1.00  0.00     0.188 C 
BRANCH  28  29
ATOM     29  O   UNL A   1      33.244  34.131  29.626  1.00  0.00    -0.376 OA
BRANCH  29  30
ATOM     30  C   UNL A   1      33.366  35.526  29.817  1.00  0.00     0.202 C 
BRANCH  30  31
ATOM     31  C   UNL A   1      33.555  36.001  31.278  1.00  0.00     0.261 C 
BRANCH  31  32
ATOM     32  O   UNL A   1      33.803  34.852  32.167  1.00  0.00    -0.460 OA
BRANCH  32  33
ATOM     33  C   UNL A   1      35.109  34.589  32.526  1.00  0.00     0.338 C 
ATOM     34  O   UNL A   1      35.843  35.413  33.053  1.00  0.00    -0.246 OA
BRANCH  33  35
ATOM     35  C   UNL A   1      35.655  33.316  31.853  1.00  0.00     0.060 A 
ATOM     36  C   UNL A   1      35.536  32.077  32.507  1.00  0.00     0.016 A 
ATOM     37  C   UNL A   1      36.622  33.380  30.863  1.00  0.00     0.016 A 
ATOM     38  C   UNL A   1      36.561  31.076  32.427  1.00  0.00     0.010 A 
ATOM     39  C   UNL A   1      37.666  32.418  30.857  1.00  0.00     0.010 A 
ATOM     40  C   UNL A   1      37.747  31.320  31.745  1.00  0.00    -0.014 A 
BRANCH  40  41
ATOM     41  C   UNL A   1      39.077  30.573  31.901  1.00  0.00     0.031 A 
ATOM     42  C   UNL A   1      39.208  29.255  31.153  1.00  0.00     0.074 A 
ATOM     43  C   UNL A   1      40.267  31.141  32.330  1.00  0.00     0.049 A 
ATOM     44  N   UNL A   1      40.301  28.583  31.040  1.00  0.00    -0.248 NA
ATOM     45  C   UNL A   1      38.175  28.665  30.309  1.00  0.00     0.031 C 
ATOM     46  C   UNL A   1      41.646  30.688  32.120  1.00  0.00     0.029 A 
ATOM     47  N   UNL A   1      40.577  32.359  32.924  1.00  0.00    -0.354 N 
ATOM     48  C   UNL A   1      40.278  27.817  29.891  1.00  0.00     0.074 A 
ATOM     49  C   UNL A   1      38.889  27.860  29.506  1.00  0.00     0.031 C 
ATOM     50  C   UNL A   1      42.599  31.457  32.687  1.00  0.00     0.029 A 
ATOM     51  C   UNL A   1      41.887  32.372  33.509  1.00  0.00     0.049 A 
ATOM     52  H   UNL A   1      39.964  33.129  32.942  1.00  0.00     0.167 HD
ATOM     53  C   UNL A   1      41.477  27.359  29.390  1.00  0.00     0.037 A 
ATOM     54  C   UNL A   1      42.195  32.661  34.813  1.00  0.00     0.037 A 
ATOM     55  C   UNL A   1      42.598  27.668  30.337  1.00  0.00     0.049 A 
ATOM     56  C   UNL A   1      42.256  31.066  35.360  1.00  0.00     0.074 A 
ATOM     57  C   UNL A   1      43.825  28.313  30.300  1.00  0.00     0.029 A 
ATOM     58  N   UNL A   1      42.375  27.452  31.696  1.00  0.00    -0.354 N 
ATOM     59  N   UNL A   1      42.187  30.067  34.487  1.00  0.00    -0.248 NA
ATOM     60  C   UNL A   1      42.554  30.432  36.654  1.00  0.00     0.031 C 
ATOM     61  C   UNL A   1      44.246  28.567  31.665  1.00  0.00     0.029 A 
ATOM     62  C   UNL A   1      43.284  28.066  32.542  1.00  0.00     0.049 A 
ATOM     63  H   UNL A   1      41.627  26.907  32.030  1.00  0.00     0.167 HD
ATOM     64  C   UNL A   1      42.693  28.884  34.885  1.00  0.00     0.074 A 
ATOM     65  C   UNL A   1      42.700  29.111  36.327  1.00  0.00     0.031 C 
ATOM     66  C   UNL A   1      43.117  27.885  34.010  1.00  0.00     0.037 A 
BRANCH  53  67
ATOM     67  C   UNL A   1      41.719  26.699  28.017  1.00  0.00     0.057 A 
ATOM     68  C   UNL A   1      42.363  25.442  27.928  1.00  0.00     0.134 A 
ATOM     69  C   UNL A   1      41.376  27.224  26.751  1.00  0.00     0.134 A 
ATOM     70  F   UNL A   1      42.767  24.782  29.021  1.00  0.00    -0.206 F 
ATOM     71  C   UNL A   1      42.628  24.774  26.717  1.00  0.00     0.040 A 
ATOM     72  C   UNL A   1      41.606  26.550  25.530  1.00  0.00     0.040 A 
ATOM     73  F   UNL A   1      40.818  28.427  26.602  1.00  0.00    -0.206 F 
ATOM     74  C   UNL A   1      42.235  25.318  25.508  1.00  0.00     0.006 A 
ENDBRANCH  53  67
BRANCH  54  75
ATOM     75  C   UNL A   1      41.305  34.083  35.193  1.00  0.00     0.057 A 
ATOM     76  C   UNL A   1      39.493  34.691  35.900  1.00  0.00     0.134 A 
ATOM     77  C   UNL A   1      42.732  34.958  35.887  1.00  0.00     0.134 A 
ATOM     78  F   UNL A   1      38.191  34.335  35.668  1.00  0.00    -0.206 F 
ATOM     79  C   UNL A   1      39.448  35.912  37.248  1.00  0.00     0.040 A 
ATOM     80  C   UNL A   1      42.519  36.100  37.179  1.00  0.00     0.040 A 
ATOM     81  F   UNL A   1      43.961  34.793  35.370  1.00  0.00    -0.206 F 
ATOM     82  C   UNL A   1      40.962  36.541  37.854  1.00  0.00     0.006 A 
ENDBRANCH  54  75
BRANCH  66  83
ATOM     83  C   UNL A   1      43.453  26.503  34.487  1.00  0.00     0.057 A 
ATOM     84  C   UNL A   1      42.470  25.618  34.907  1.00  0.00     0.134 A 
ATOM     85  C   UNL A   1      44.787  26.025  34.568  1.00  0.00     0.134 A 
ATOM     86  F   UNL A   1      41.205  26.024  35.086  1.00  0.00    -0.206 F 
ATOM     87  C   UNL A   1      42.764  24.282  35.171  1.00  0.00     0.040 A 
ATOM     88  C   UNL A   1      45.102  24.722  34.921  1.00  0.00     0.040 A 
ATOM     89  F   UNL A   1      45.862  26.765  34.274  1.00  0.00    -0.206 F 
ATOM     90  C   UNL A   1      44.079  23.826  35.157  1.00  0.00     0.006 A 
ENDBRANCH  66  83
ENDBRANCH  40  41
ENDBRANCH  33  35
ENDBRANCH  32  33
ENDBRANCH  31  32
ENDBRANCH  30  31
ENDBRANCH  29  30
ENDBRANCH  28  29
ENDBRANCH  27  28
ENDBRANCH  26  27
ENDBRANCH   1  26
TORSDOF 24
ENDMDL
MODEL 3
REMARK VINA RESULT:      -9.7      4.687      9.537
REMARK SMILES Cc1ccccc1[C@@H](CC(=O)OCCOCCOCCOCCOC(=O)c1ccc(-c2c3nc(c(-c4c(F)cccc4F)c4ccc([nH]4)c(-c4c(F)cccc4F)c4nc(c(-c5c(F)cccc5F)c5ccc2[nH]5)C=C4)C=C3)cc1)NC(=O)C(F)(F)F
REMARK SMILES IDX 17 1 16 2 15 3 14 4 13 5 12 6 10 7 11 8 9 9 8 10 7 11 1 12
REMARK SMILES IDX 2 13 3 14 4 15 6 16 5 17 81 18 82 19 83 21 84 22 85 23 86 24
REMARK SMILES IDX 87 25 18 26 19 27 20 28 21 29 22 30 23 31 24 32 25 33 26 34
REMARK SMILES IDX 27 35 28 36 80 37 29 38 79 39 30 40 31 41 32 42 73 43 33 44
REMARK SMILES IDX 78 45 72 46 74 47 34 48 77 49 71 50 70 51 35 53 61 54 44 55
REMARK SMILES IDX 60 56 45 57 48 58 59 59 75 60 46 61 47 62 58 64 76 65 49 66
REMARK SMILES IDX 36 67 37 68 42 69 38 70 39 71 41 72 43 73 40 74 62 75 63 76
REMARK SMILES IDX 68 77 64 78 65 79 67 80 69 81 66 82 50 83 51 84 56 85 52 86
REMARK SMILES IDX 53 87 55 88 57 89 54 90
REMARK H PARENT 81 20 74 52 48 63
REMARK Flexibility Score: inf
ROOT
ATOM      1  C   UNL A   1      34.633  29.352  27.538  1.00  0.00     0.188 C 
ENDROOT
BRANCH   1   2
ATOM      2  C   UNL A   1      33.839  29.167  26.240  1.00  0.00     0.188 C 
BRANCH   2   3
ATOM      3  O   UNL A   1      32.435  29.341  26.301  1.00  0.00    -0.376 OA
BRANCH   3   4
ATOM      4  C   UNL A   1      31.772  29.205  25.055  1.00  0.00     0.202 C 
BRANCH   4   5
ATOM      5  C   UNL A   1      31.216  27.830  24.704  1.00  0.00     0.261 C 
BRANCH   5   6
ATOM      6  O   UNL A   1      30.921  27.143  25.958  1.00  0.00    -0.463 OA
BRANCH   6   7
ATOM      7  C   UNL A   1      31.294  25.901  26.283  1.00  0.00     0.308 C 
ATOM      8  O   UNL A   1      30.501  25.063  26.704  1.00  0.00    -0.252 OA
BRANCH   7   9
ATOM      9  C   UNL A   1      32.828  25.647  26.171  1.00  0.00     0.152 C 
BRANCH   9  10
ATOM     10  C   UNL A   1      33.718  24.999  24.994  1.00  0.00     0.124 C 
BRANCH  10  11
ATOM     11  C   UNL A   1      34.786  23.791  25.229  1.00  0.00    -0.022 A 
ATOM     12  C   UNL A   1      32.550  22.075  24.806  1.00  0.00     0.045 C 
ATOM     13  C   UNL A   1      33.987  22.200  25.345  1.00  0.00    -0.046 A 
ATOM     14  C   UNL A   1      34.851  20.650  25.240  1.00  0.00     0.004 A 
ATOM     15  C   UNL A   1      36.558  20.477  24.965  1.00  0.00     0.000 A 
ATOM     16  C   UNL A   1      36.626  23.753  25.045  1.00  0.00     0.006 A 
ATOM     17  C   UNL A   1      37.532  21.954  24.834  1.00  0.00     0.000 A 
ENDBRANCH  10  11
BRANCH  10  18
ATOM     18  N   UNL A   1      33.983  25.758  23.774  1.00  0.00    -0.341 N 
ATOM     19  C   UNL A   1      33.645  25.630  22.451  1.00  0.00     0.326 C 
ATOM     20  H   UNL A   1      34.537  26.555  23.942  1.00  0.00     0.164 HD
ATOM     21  O   UNL A   1      33.901  26.618  21.745  1.00  0.00    -0.265 OA
BRANCH  19  22
ATOM     22  C   UNL A   1      33.021  24.350  21.859  1.00  0.00     0.471 C 
ATOM     23  F   UNL A   1      33.810  23.261  22.077  1.00  0.00    -0.162 F 
ATOM     24  F   UNL A   1      31.800  24.053  22.372  1.00  0.00    -0.162 F 
ATOM     25  F   UNL A   1      32.851  24.432  20.508  1.00  0.00    -0.162 F 
ENDBRANCH  19  22
ENDBRANCH  10  18
ENDBRANCH   9  10
ENDBRANCH   7   9
ENDBRANCH   6   7
ENDBRANCH   5   6
ENDBRANCH   4   5
ENDBRANCH   3   4
ENDBRANCH   2   3
ENDBRANCH   1   2
BRANCH   1  26
ATOM     26  O   UNL A   1      35.545  30.443  27.525  1.00  0.00    -0.377 OA
BRANCH  26  27
ATOM     27  C   UNL A   1      34.997  31.696  27.826  1.00  0.00     0.188 C 
BRANCH  27  28
ATOM     28  C   UNL A   1      35.003  32.107  29.240  1.00  0.00     0.188 C 
BRANCH  28  29
ATOM     29  O   UNL A   1      35.714  31.390  30.201  1.00  0.00    -0.376 OA
BRANCH  29  30
ATOM     30  C   UNL A   1      35.575  31.805  31.544  1.00  0.00     0.202 C 
BRANCH  30  31
ATOM     31  C   UNL A   1      34.666  33.033  31.789  1.00  0.00     0.261 C 
BRANCH  31  32
ATOM     32  O   UNL A   1      35.434  34.282  31.642  1.00  0.00    -0.460 OA
BRANCH  32  33
ATOM     33  C   UNL A   1      36.023  34.811  32.773  1.00  0.00     0.338 C 
ATOM     34  O   UNL A   1      35.442  35.553  33.552  1.00  0.00    -0.246 OA
BRANCH  33  35
ATOM     35  C   UNL A   1      37.558  34.693  32.741  1.00  0.00     0.060 A 
ATOM     36  C   UNL A   1      38.215  34.484  31.516  1.00  0.00     0.016 A 
ATOM     37  C   UNL A   1      38.279  34.353  33.874  1.00  0.00     0.016 A 
ATOM     38  C   UNL A   1      39.380  33.651  31.413  1.00  0.00     0.010 A 
ATOM     39  C   UNL A   1      39.380  33.465  33.748  1.00  0.00     0.010 A 
ATOM     40  C   UNL A   1      39.867  32.965  32.519  1.00  0.00    -0.014 A 
BRANCH  40  41
ATOM     41  C   UNL A   1      40.798  31.746  32.516  1.00  0.00     0.031 A 
ATOM     42  C   UNL A   1      40.286  30.502  31.808  1.00  0.00     0.074 A 
ATOM     43  C   UNL A   1      42.165  31.784  32.752  1.00  0.00     0.049 A 
ATOM     44  N   UNL A   1      40.994  29.452  31.569  1.00  0.00    -0.248 NA
ATOM     45  C   UNL A   1      38.994  30.390  31.140  1.00  0.00     0.031 C 
ATOM     46  C   UNL A   1      43.204  30.823  32.369  1.00  0.00     0.029 A 
ATOM     47  N   UNL A   1      43.014  32.764  33.250  1.00  0.00    -0.354 N 
ATOM     48  C   UNL A   1      40.503  28.783  30.465  1.00  0.00     0.074 A 
ATOM     49  C   UNL A   1      39.206  29.384  30.276  1.00  0.00     0.031 C 
ATOM     50  C   UNL A   1      44.455  31.137  32.767  1.00  0.00     0.029 A 
ATOM     51  C   UNL A   1      44.291  32.241  33.645  1.00  0.00     0.049 A 
ATOM     52  H   UNL A   1      42.767  33.714  33.324  1.00  0.00     0.167 HD
ATOM     53  C   UNL A   1      41.336  27.895  29.819  1.00  0.00     0.037 A 
ATOM     54  C   UNL A   1      44.872  32.357  34.881  1.00  0.00     0.037 A 
ATOM     55  C   UNL A   1      42.611  27.712  30.587  1.00  0.00     0.049 A 
ATOM     56  C   UNL A   1      44.373  30.859  35.474  1.00  0.00     0.074 A 
ATOM     57  C   UNL A   1      43.974  27.815  30.354  1.00  0.00     0.029 A 
ATOM     58  N   UNL A   1      42.518  27.575  31.971  1.00  0.00    -0.354 N 
ATOM     59  N   UNL A   1      43.788  29.988  34.659  1.00  0.00    -0.248 NA
ATOM     60  C   UNL A   1      44.577  30.131  36.737  1.00  0.00     0.031 C 
ATOM     61  C   UNL A   1      44.652  27.851  31.635  1.00  0.00     0.029 A 
ATOM     62  C   UNL A   1      43.707  27.757  32.657  1.00  0.00     0.049 A 
ATOM     63  H   UNL A   1      41.672  27.365  32.427  1.00  0.00     0.167 HD
ATOM     64  C   UNL A   1      43.833  28.693  35.027  1.00  0.00     0.074 A 
ATOM     65  C   UNL A   1      44.137  28.868  36.444  1.00  0.00     0.031 C 
ATOM     66  C   UNL A   1      43.695  27.626  34.140  1.00  0.00     0.037 A 
BRANCH  53  67
ATOM     67  C   UNL A   1      41.095  27.223  28.452  1.00  0.00     0.057 A 
ATOM     68  C   UNL A   1      41.791  27.665  27.301  1.00  0.00     0.134 A 
ATOM     69  C   UNL A   1      40.200  26.166  28.171  1.00  0.00     0.134 A 
ATOM     70  F   UNL A   1      42.684  28.660  27.362  1.00  0.00    -0.206 F 
ATOM     71  C   UNL A   1      41.625  27.112  26.016  1.00  0.00     0.040 A 
ATOM     72  C   UNL A   1      40.048  25.580  26.895  1.00  0.00     0.040 A 
ATOM     73  F   UNL A   1      39.398  25.642  29.100  1.00  0.00    -0.206 F 
ATOM     74  C   UNL A   1      40.763  26.052  25.808  1.00  0.00     0.006 A 
ENDBRANCH  53  67
BRANCH  54  75
ATOM     75  C   UNL A   1      44.686  34.007  35.327  1.00  0.00     0.057 A 
ATOM     76  C   UNL A   1      43.264  35.451  35.546  1.00  0.00     0.134 A 
ATOM     77  C   UNL A   1      45.912  33.931  36.658  1.00  0.00     0.134 A 
ATOM     78  F   UNL A   1      42.182  35.867  34.816  1.00  0.00    -0.206 F 
ATOM     79  C   UNL A   1      43.233  36.417  37.087  1.00  0.00     0.040 A 
ATOM     80  C   UNL A   1      45.737  34.925  38.072  1.00  0.00     0.040 A 
ATOM     81  F   UNL A   1      47.008  33.162  36.544  1.00  0.00    -0.206 F 
ATOM     82  C   UNL A   1      44.449  36.093  38.300  1.00  0.00     0.006 A 
ENDBRANCH  54  75
BRANCH  66  83
ATOM     83  C   UNL A   1      43.518  26.216  34.617  1.00  0.00     0.057 A 
ATOM     84  C   UNL A   1      42.329  25.782  35.187  1.00  0.00     0.134 A 
ATOM     85  C   UNL A   1      44.556  25.250  34.549  1.00  0.00     0.134 A 
ATOM     86  F   UNL A   1      41.359  26.650  35.507  1.00  0.00    -0.206 F 
ATOM     87  C   UNL A   1      42.106  24.434  35.457  1.00  0.00     0.040 A 
ATOM     88  C   UNL A   1      44.375  23.922  34.904  1.00  0.00     0.040 A 
ATOM     89  F   UNL A   1      45.789  25.512  34.098  1.00  0.00    -0.206 F 
ATOM     90  C   UNL A   1      43.122  23.497  35.295  1.00  0.00     0.006 A 
ENDBRANCH  66  83
ENDBRANCH  40  41
ENDBRANCH  33  35
ENDBRANCH  32  33
ENDBRANCH  31  32
ENDBRANCH  30  31
ENDBRANCH  29  30
ENDBRANCH  28  29
ENDBRANCH  27  28
ENDBRANCH  26  27
ENDBRANCH   1  26
TORSDOF 24
ENDMDL
