MODEL 1
REMARK VINA RESULT:      -9.8      0.000      0.000
REMARK SMILES CC(C)[C@H](NC(=O)CCNC(=O)c1ccoc1)C(=O)OCCOCCOCCOCCOC(=O)c1ccc(-c2c3nc(c(-c4c(F)cccc4F)c4ccc([nH]4)c(-c4c(F)cccc4F)c4nc(c(-c5c(F)cccc5F)c5ccc2[nH]5)C=C4)C=C3)cc1
REMARK SMILES IDX 24 1 23 2 22 3 21 4 20 5 18 6 19 7 4 8 2 9 1 10 3 11 5 12
REMARK SMILES IDX 6 13 7 15 8 16 9 17 10 18 11 19 12 21 13 22 14 23 17 24
REMARK SMILES IDX 15 25 16 26 25 27 26 28 27 29 28 30 29 31 30 32 31 33 32 34
REMARK SMILES IDX 33 35 34 36 35 37 36 38 88 39 37 40 87 41 38 42 39 43 40 44
REMARK SMILES IDX 81 45 41 46 86 47 80 48 82 49 42 50 85 51 79 52 78 53 43 55
REMARK SMILES IDX 69 56 52 57 68 58 53 59 56 60 67 61 83 62 54 63 55 64 66 66
REMARK SMILES IDX 84 67 57 68 44 69 45 70 50 71 46 72 47 73 49 74 51 75 48 76
REMARK SMILES IDX 70 77 71 78 76 79 72 80 73 81 75 82 77 83 74 84 58 85 59 86
REMARK SMILES IDX 64 87 60 88 61 89 63 90 65 91 62 92
REMARK H PARENT 5 14 10 20 82 54 56 65
REMARK Flexibility Score: inf
ROOT
ATOM      1  C   UNL A   1      38.809  21.620  26.027  1.00  0.00     0.188 C 
ENDROOT
BRANCH   1   2
ATOM      2  O   UNL A   1      37.819  22.593  25.696  1.00  0.00    -0.376 OA
BRANCH   2   3
ATOM      3  C   UNL A   1      36.770  22.367  24.751  1.00  0.00     0.202 C 
BRANCH   3   4
ATOM      4  C   UNL A   1      36.125  23.725  24.183  1.00  0.00     0.261 C 
BRANCH   4   5
ATOM      5  O   UNL A   1      34.708  23.920  24.545  1.00  0.00    -0.462 OA
BRANCH   5   6
ATOM      6  C   UNL A   1      33.765  24.623  23.841  1.00  0.00     0.328 C 
ATOM      7  O   UNL A   1      33.904  24.896  22.653  1.00  0.00    -0.250 OA
BRANCH   6   8
ATOM      8  C   UNL A   1      32.366  24.928  24.656  1.00  0.00     0.194 C 
BRANCH   8   9
ATOM      9  C   UNL A   1      31.838  26.384  24.497  1.00  0.00     0.017 C 
ATOM     10  C   UNL A   1      30.322  26.432  24.164  1.00  0.00     0.010 C 
ATOM     11  C   UNL A   1      32.088  27.217  25.749  1.00  0.00     0.010 C 
ENDBRANCH   8   9
BRANCH   8  12
ATOM     12  N   UNL A   1      31.970  24.488  26.019  1.00  0.00    -0.342 N 
ATOM     13  C   UNL A   1      31.987  23.234  26.534  1.00  0.00     0.222 C 
ATOM     14  H   UNL A   1      31.655  25.198  26.626  1.00  0.00     0.164 HD
ATOM     15  O   UNL A   1      32.308  22.996  27.691  1.00  0.00    -0.275 OA
BRANCH  13  16
ATOM     16  C   UNL A   1      31.349  22.253  25.646  1.00  0.00     0.121 C 
BRANCH  16  17
ATOM     17  C   UNL A   1      32.419  21.162  25.353  1.00  0.00     0.126 C 
BRANCH  17  18
ATOM     18  N   UNL A   1      32.405  20.212  24.130  1.00  0.00    -0.351 N 
ATOM     19  C   UNL A   1      32.600  18.932  23.595  1.00  0.00     0.254 C 
ATOM     20  H   UNL A   1      32.128  20.772  23.370  1.00  0.00     0.163 HD
ATOM     21  O   UNL A   1      32.212  18.856  22.421  1.00  0.00    -0.269 OA
BRANCH  19  22
ATOM     22  C   UNL A   1      33.271  17.730  24.139  1.00  0.00     0.077 A 
ATOM     23  C   UNL A   1      33.223  17.101  25.437  1.00  0.00     0.056 A 
ATOM     24  C   UNL A   1      33.850  16.731  23.363  1.00  0.00     0.208 A 
ATOM     25  C   UNL A   1      33.991  15.960  25.395  1.00  0.00     0.195 A 
ATOM     26  O   UNL A   1      34.358  15.717  24.116  1.00  0.00    -0.472 OA
ENDBRANCH  19  22
ENDBRANCH  17  18
ENDBRANCH  16  17
ENDBRANCH  13  16
ENDBRANCH   8  12
ENDBRANCH   6   8
ENDBRANCH   5   6
ENDBRANCH   4   5
ENDBRANCH   3   4
ENDBRANCH   2   3
ENDBRANCH   1   2
BRANCH   1  27
ATOM     27  C   UNL A   1      39.926  22.168  26.952  1.00  0.00     0.188 C 
BRANCH  27  28
ATOM     28  O   UNL A   1      41.194  21.538  26.800  1.00  0.00    -0.377 OA
BRANCH  28  29
ATOM     29  C   UNL A   1      41.191  20.304  26.104  1.00  0.00     0.188 C 
BRANCH  29  30
ATOM     30  C   UNL A   1      42.524  19.554  26.165  1.00  0.00     0.188 C 
BRANCH  30  31
ATOM     31  O   UNL A   1      43.402  19.576  25.044  1.00  0.00    -0.376 OA
BRANCH  31  32
ATOM     32  C   UNL A   1      44.507  20.469  25.023  1.00  0.00     0.202 C 
BRANCH  32  33
ATOM     33  C   UNL A   1      44.146  21.958  25.066  1.00  0.00     0.261 C 
BRANCH  33  34
ATOM     34  O   UNL A   1      44.359  22.561  26.352  1.00  0.00    -0.460 OA
BRANCH  34  35
ATOM     35  C   UNL A   1      44.879  23.818  26.322  1.00  0.00     0.338 C 
ATOM     36  O   UNL A   1      45.914  24.177  25.822  1.00  0.00    -0.246 OA
BRANCH  35  37
ATOM     37  C   UNL A   1      43.888  24.764  26.891  1.00  0.00     0.060 A 
ATOM     38  C   UNL A   1      43.998  26.123  26.560  1.00  0.00     0.016 A 
ATOM     39  C   UNL A   1      42.932  24.334  27.812  1.00  0.00     0.016 A 
ATOM     40  C   UNL A   1      43.203  27.069  27.205  1.00  0.00     0.010 A 
ATOM     41  C   UNL A   1      42.160  25.283  28.484  1.00  0.00     0.010 A 
ATOM     42  C   UNL A   1      42.338  26.654  28.225  1.00  0.00    -0.014 A 
BRANCH  42  43
ATOM     43  C   UNL A   1      41.877  27.631  29.240  1.00  0.00     0.031 A 
ATOM     44  C   UNL A   1      42.608  27.653  30.557  1.00  0.00     0.074 A 
ATOM     45  C   UNL A   1      40.838  28.454  29.026  1.00  0.00     0.049 A 
ATOM     46  N   UNL A   1      42.310  28.278  31.665  1.00  0.00    -0.248 NA
ATOM     47  C   UNL A   1      43.843  26.852  30.629  1.00  0.00     0.031 C 
ATOM     48  C   UNL A   1      40.097  28.582  27.773  1.00  0.00     0.029 A 
ATOM     49  N   UNL A   1      40.215  29.328  29.880  1.00  0.00    -0.354 N 
ATOM     50  C   UNL A   1      43.312  27.936  32.565  1.00  0.00     0.074 A 
ATOM     51  C   UNL A   1      44.219  27.043  31.884  1.00  0.00     0.031 C 
ATOM     52  C   UNL A   1      39.100  29.468  27.949  1.00  0.00     0.029 A 
ATOM     53  C   UNL A   1      39.108  29.931  29.338  1.00  0.00     0.049 A 
ATOM     54  H   UNL A   1      40.533  29.506  30.795  1.00  0.00     0.167 HD
ATOM     55  C   UNL A   1      43.461  28.327  33.852  1.00  0.00     0.037 A 
ATOM     56  C   UNL A   1      38.190  30.731  29.914  1.00  0.00     0.037 A 
ATOM     57  C   UNL A   1      42.549  29.197  34.538  1.00  0.00     0.049 A 
ATOM     58  C   UNL A   1      38.318  31.071  31.378  1.00  0.00     0.074 A 
ATOM     59  C   UNL A   1      42.585  29.622  35.853  1.00  0.00     0.029 A 
ATOM     60  N   UNL A   1      41.429  29.769  33.957  1.00  0.00    -0.354 N 
ATOM     61  N   UNL A   1      39.252  30.728  32.231  1.00  0.00    -0.248 NA
ATOM     62  C   UNL A   1      37.255  31.904  31.963  1.00  0.00     0.031 C 
ATOM     63  C   UNL A   1      41.467  30.432  36.076  1.00  0.00     0.029 A 
ATOM     64  C   UNL A   1      40.761  30.542  34.889  1.00  0.00     0.049 A 
ATOM     65  H   UNL A   1      41.151  29.646  33.020  1.00  0.00     0.167 HD
ATOM     66  C   UNL A   1      38.913  31.332  33.436  1.00  0.00     0.074 A 
ATOM     67  C   UNL A   1      37.684  32.061  33.208  1.00  0.00     0.031 C 
ATOM     68  C   UNL A   1      39.560  31.291  34.626  1.00  0.00     0.037 A 
BRANCH  55  69
ATOM     69  C   UNL A   1      44.638  27.780  34.600  1.00  0.00     0.057 A 
ATOM     70  C   UNL A   1      45.862  28.458  34.643  1.00  0.00     0.134 A 
ATOM     71  C   UNL A   1      44.544  26.565  35.290  1.00  0.00     0.134 A 
ATOM     72  F   UNL A   1      46.022  29.615  33.981  1.00  0.00    -0.206 F 
ATOM     73  C   UNL A   1      46.959  27.937  35.331  1.00  0.00     0.040 A 
ATOM     74  C   UNL A   1      45.626  26.045  35.999  1.00  0.00     0.040 A 
ATOM     75  F   UNL A   1      43.399  25.866  35.282  1.00  0.00    -0.206 F 
ATOM     76  C   UNL A   1      46.840  26.730  36.017  1.00  0.00     0.006 A 
ENDBRANCH  55  69
BRANCH  56  77
ATOM     77  C   UNL A   1      37.041  31.247  29.127  1.00  0.00     0.057 A 
ATOM     78  C   UNL A   1      37.018  32.568  28.664  1.00  0.00     0.134 A 
ATOM     79  C   UNL A   1      35.920  30.451  28.861  1.00  0.00     0.134 A 
ATOM     80  F   UNL A   1      38.050  33.387  28.911  1.00  0.00    -0.206 F 
ATOM     81  C   UNL A   1      35.914  33.085  27.983  1.00  0.00     0.040 A 
ATOM     82  C   UNL A   1      34.820  30.947  28.160  1.00  0.00     0.040 A 
ATOM     83  F   UNL A   1      35.879  29.178  29.280  1.00  0.00    -0.206 F 
ATOM     84  C   UNL A   1      34.812  32.272  27.727  1.00  0.00     0.006 A 
ENDBRANCH  56  77
BRANCH  68  85
ATOM     85  C   UNL A   1      39.004  32.106  35.753  1.00  0.00     0.057 A 
ATOM     86  C   UNL A   1      38.197  31.543  36.748  1.00  0.00     0.134 A 
ATOM     87  C   UNL A   1      39.352  33.457  35.883  1.00  0.00     0.134 A 
ATOM     88  F   UNL A   1      37.823  30.258  36.675  1.00  0.00    -0.206 F 
ATOM     89  C   UNL A   1      37.750  32.299  37.833  1.00  0.00     0.040 A 
ATOM     90  C   UNL A   1      38.928  34.217  36.974  1.00  0.00     0.040 A 
ATOM     91  F   UNL A   1      40.131  34.051  34.967  1.00  0.00    -0.206 F 
ATOM     92  C   UNL A   1      38.122  33.638  37.952  1.00  0.00     0.006 A 
ENDBRANCH  68  85
ENDBRANCH  42  43
ENDBRANCH  35  37
ENDBRANCH  34  35
ENDBRANCH  33  34
ENDBRANCH  32  33
ENDBRANCH  31  32
ENDBRANCH  30  31
ENDBRANCH  29  30
ENDBRANCH  28  29
ENDBRANCH  27  28
ENDBRANCH   1  27
TORSDOF 26
ENDMDL
MODEL 2
REMARK VINA RESULT:      -9.3      3.088      6.147
REMARK SMILES CC(C)[C@H](NC(=O)CCNC(=O)c1ccoc1)C(=O)OCCOCCOCCOCCOC(=O)c1ccc(-c2c3nc(c(-c4c(F)cccc4F)c4ccc([nH]4)c(-c4c(F)cccc4F)c4nc(c(-c5c(F)cccc5F)c5ccc2[nH]5)C=C4)C=C3)cc1
REMARK SMILES IDX 24 1 23 2 22 3 21 4 20 5 18 6 19 7 4 8 2 9 1 10 3 11 5 12
REMARK SMILES IDX 6 13 7 15 8 16 9 17 10 18 11 19 12 21 13 22 14 23 17 24
REMARK SMILES IDX 15 25 16 26 25 27 26 28 27 29 28 30 29 31 30 32 31 33 32 34
REMARK SMILES IDX 33 35 34 36 35 37 36 38 88 39 37 40 87 41 38 42 39 43 40 44
REMARK SMILES IDX 81 45 41 46 86 47 80 48 82 49 42 50 85 51 79 52 78 53 43 55
REMARK SMILES IDX 69 56 52 57 68 58 53 59 56 60 67 61 83 62 54 63 55 64 66 66
REMARK SMILES IDX 84 67 57 68 44 69 45 70 50 71 46 72 47 73 49 74 51 75 48 76
REMARK SMILES IDX 70 77 71 78 76 79 72 80 73 81 75 82 77 83 74 84 58 85 59 86
REMARK SMILES IDX 64 87 60 88 61 89 63 90 65 91 62 92
REMARK H PARENT 5 14 10 20 82 54 56 65
REMARK Flexibility Score: inf
ROOT
ATOM      1  C   UNL A   1      31.058  23.856  24.981  1.00  0.00     0.188 C 
ENDROOT
BRANCH   1   2
ATOM      2  O   UNL A   1      30.857  23.830  23.569  1.00  0.00    -0.376 OA
BRANCH   2   3
ATOM      3  C   UNL A   1      31.794  24.355  22.625  1.00  0.00     0.202 C 
BRANCH   3   4
ATOM      4  C   UNL A   1      33.266  24.556  23.237  1.00  0.00     0.261 C 
BRANCH   4   5
ATOM      5  O   UNL A   1      33.529  25.914  23.749  1.00  0.00    -0.462 OA
BRANCH   5   6
ATOM      6  C   UNL A   1      33.886  26.262  25.026  1.00  0.00     0.328 C 
ATOM      7  O   UNL A   1      34.395  25.461  25.805  1.00  0.00    -0.250 OA
BRANCH   6   8
ATOM      8  C   UNL A   1      33.734  27.863  25.384  1.00  0.00     0.194 C 
BRANCH   8   9
ATOM      9  C   UNL A   1      33.550  28.164  26.901  1.00  0.00     0.017 C 
ATOM     10  C   UNL A   1      33.914  29.629  27.263  1.00  0.00     0.010 C 
ATOM     11  C   UNL A   1      32.124  27.887  27.364  1.00  0.00     0.010 C 
ENDBRANCH   8   9
BRANCH   8  12
ATOM     12  N   UNL A   1      32.970  28.909  24.657  1.00  0.00    -0.342 N 
ATOM     13  C   UNL A   1      31.633  28.975  24.441  1.00  0.00     0.222 C 
ATOM     14  H   UNL A   1      33.503  29.649  24.283  1.00  0.00     0.164 HD
ATOM     15  O   UNL A   1      31.007  30.026  24.474  1.00  0.00    -0.275 OA
BRANCH  13  16
ATOM     16  C   UNL A   1      31.083  27.713  23.928  1.00  0.00     0.121 C 
BRANCH  16  17
ATOM     17  C   UNL A   1      30.074  28.095  22.806  1.00  0.00     0.126 C 
BRANCH  17  18
ATOM     18  N   UNL A   1      28.659  28.674  23.047  1.00  0.00    -0.351 N 
ATOM     19  C   UNL A   1      27.772  29.756  22.986  1.00  0.00     0.254 C 
ATOM     20  H   UNL A   1      28.133  27.929  23.417  1.00  0.00     0.163 HD
ATOM     21  O   UNL A   1      26.608  29.419  23.237  1.00  0.00    -0.269 OA
BRANCH  19  22
ATOM     22  C   UNL A   1      28.002  31.207  22.791  1.00  0.00     0.077 A 
ATOM     23  C   UNL A   1      28.674  32.196  23.600  1.00  0.00     0.056 A 
ATOM     24  C   UNL A   1      27.897  31.864  21.570  1.00  0.00     0.208 A 
ATOM     25  C   UNL A   1      28.660  33.393  22.922  1.00  0.00     0.195 A 
ATOM     26  O   UNL A   1      28.205  33.187  21.665  1.00  0.00    -0.472 OA
ENDBRANCH  19  22
ENDBRANCH  17  18
ENDBRANCH  16  17
ENDBRANCH  13  16
ENDBRANCH   8  12
ENDBRANCH   6   8
ENDBRANCH   5   6
ENDBRANCH   4   5
ENDBRANCH   3   4
ENDBRANCH   2   3
ENDBRANCH   1   2
BRANCH   1  27
ATOM     27  C   UNL A   1      31.101  22.446  25.624  1.00  0.00     0.188 C 
BRANCH  27  28
ATOM     28  O   UNL A   1      32.069  21.562  25.069  1.00  0.00    -0.377 OA
BRANCH  28  29
ATOM     29  C   UNL A   1      33.135  21.198  25.928  1.00  0.00     0.188 C 
BRANCH  29  30
ATOM     30  C   UNL A   1      34.503  21.714  25.473  1.00  0.00     0.188 C 
BRANCH  30  31
ATOM     31  O   UNL A   1      35.669  20.932  25.705  1.00  0.00    -0.376 OA
BRANCH  31  32
ATOM     32  C   UNL A   1      36.883  21.250  25.039  1.00  0.00     0.202 C 
BRANCH  32  33
ATOM     33  C   UNL A   1      37.746  22.316  25.723  1.00  0.00     0.261 C 
BRANCH  33  34
ATOM     34  O   UNL A   1      39.154  22.140  25.505  1.00  0.00    -0.460 OA
BRANCH  34  35
ATOM     35  C   UNL A   1      39.943  22.396  26.584  1.00  0.00     0.338 C 
ATOM     36  O   UNL A   1      40.744  21.662  27.104  1.00  0.00    -0.246 OA
BRANCH  35  37
ATOM     37  C   UNL A   1      39.786  23.820  26.969  1.00  0.00     0.060 A 
ATOM     38  C   UNL A   1      40.624  24.770  26.368  1.00  0.00     0.016 A 
ATOM     39  C   UNL A   1      38.897  24.197  27.977  1.00  0.00     0.016 A 
ATOM     40  C   UNL A   1      40.633  26.087  26.824  1.00  0.00     0.010 A 
ATOM     41  C   UNL A   1      38.930  25.507  28.459  1.00  0.00     0.010 A 
ATOM     42  C   UNL A   1      39.840  26.436  27.924  1.00  0.00    -0.014 A 
BRANCH  42  43
ATOM     43  C   UNL A   1      40.186  27.631  28.729  1.00  0.00     0.031 A 
ATOM     44  C   UNL A   1      41.492  27.603  29.478  1.00  0.00     0.074 A 
ATOM     45  C   UNL A   1      39.371  28.695  28.822  1.00  0.00     0.049 A 
ATOM     46  N   UNL A   1      41.954  28.430  30.379  1.00  0.00    -0.248 NA
ATOM     47  C   UNL A   1      42.397  26.482  29.168  1.00  0.00     0.031 C 
ATOM     48  C   UNL A   1      38.120  28.875  28.090  1.00  0.00     0.029 A 
ATOM     49  N   UNL A   1      39.478  29.822  29.598  1.00  0.00    -0.354 N 
ATOM     50  C   UNL A   1      43.193  27.921  30.749  1.00  0.00     0.074 A 
ATOM     51  C   UNL A   1      43.409  26.713  29.988  1.00  0.00     0.031 C 
ATOM     52  C   UNL A   1      37.559  30.038  28.473  1.00  0.00     0.029 A 
ATOM     53  C   UNL A   1      38.391  30.655  29.507  1.00  0.00     0.049 A 
ATOM     54  H   UNL A   1      40.260  30.013  30.165  1.00  0.00     0.167 HD
ATOM     55  C   UNL A   1      44.074  28.414  31.650  1.00  0.00     0.037 A 
ATOM     56  C   UNL A   1      38.092  31.764  30.211  1.00  0.00     0.037 A 
ATOM     57  C   UNL A   1      43.851  29.603  32.424  1.00  0.00     0.049 A 
ATOM     58  C   UNL A   1      39.040  32.240  31.284  1.00  0.00     0.074 A 
ATOM     59  C   UNL A   1      44.660  30.167  33.393  1.00  0.00     0.029 A 
ATOM     60  N   UNL A   1      42.728  30.406  32.315  1.00  0.00    -0.354 N 
ATOM     61  N   UNL A   1      40.198  31.745  31.646  1.00  0.00    -0.248 NA
ATOM     62  C   UNL A   1      38.632  33.425  32.054  1.00  0.00     0.031 C 
ATOM     63  C   UNL A   1      44.011  31.299  33.892  1.00  0.00     0.029 A 
ATOM     64  C   UNL A   1      42.819  31.461  33.205  1.00  0.00     0.049 A 
ATOM     65  H   UNL A   1      41.978  30.251  31.696  1.00  0.00     0.167 HD
ATOM     66  C   UNL A   1      40.673  32.576  32.653  1.00  0.00     0.074 A 
ATOM     67  C   UNL A   1      39.677  33.607  32.850  1.00  0.00     0.031 C 
ATOM     68  C   UNL A   1      41.831  32.497  33.353  1.00  0.00     0.037 A 
BRANCH  55  69
ATOM     69  C   UNL A   1      45.337  27.640  31.865  1.00  0.00     0.057 A 
ATOM     70  C   UNL A   1      45.411  26.596  32.794  1.00  0.00     0.134 A 
ATOM     71  C   UNL A   1      46.491  27.939  31.130  1.00  0.00     0.134 A 
ATOM     72  F   UNL A   1      44.347  26.278  33.547  1.00  0.00    -0.206 F 
ATOM     73  C   UNL A   1      46.596  25.886  32.999  1.00  0.00     0.040 A 
ATOM     74  C   UNL A   1      47.674  27.223  31.309  1.00  0.00     0.040 A 
ATOM     75  F   UNL A   1      46.485  28.932  30.228  1.00  0.00    -0.206 F 
ATOM     76  C   UNL A   1      47.730  26.195  32.250  1.00  0.00     0.006 A 
ENDBRANCH  55  69
BRANCH  56  77
ATOM     77  C   UNL A   1      36.825  32.496  29.959  1.00  0.00     0.057 A 
ATOM     78  C   UNL A   1      36.767  33.540  29.028  1.00  0.00     0.134 A 
ATOM     79  C   UNL A   1      35.657  32.204  30.674  1.00  0.00     0.134 A 
ATOM     80  F   UNL A   1      37.859  33.885  28.332  1.00  0.00    -0.206 F 
ATOM     81  C   UNL A   1      35.600  34.281  28.832  1.00  0.00     0.040 A 
ATOM     82  C   UNL A   1      34.477  32.920  30.471  1.00  0.00     0.040 A 
ATOM     83  F   UNL A   1      35.648  31.218  31.581  1.00  0.00    -0.206 F 
ATOM     84  C   UNL A   1      34.449  33.969  29.552  1.00  0.00     0.006 A 
ENDBRANCH  56  77
BRANCH  68  85
ATOM     85  C   UNL A   1      42.126  33.585  34.342  1.00  0.00     0.057 A 
ATOM     86  C   UNL A   1      41.770  33.477  35.691  1.00  0.00     0.134 A 
ATOM     87  C   UNL A   1      42.850  34.717  33.947  1.00  0.00     0.134 A 
ATOM     88  F   UNL A   1      41.069  32.420  36.127  1.00  0.00    -0.206 F 
ATOM     89  C   UNL A   1      42.119  34.464  36.614  1.00  0.00     0.040 A 
ATOM     90  C   UNL A   1      43.223  35.700  34.864  1.00  0.00     0.040 A 
ATOM     91  F   UNL A   1      43.229  34.872  32.670  1.00  0.00    -0.206 F 
ATOM     92  C   UNL A   1      42.855  35.575  36.203  1.00  0.00     0.006 A 
ENDBRANCH  68  85
ENDBRANCH  42  43
ENDBRANCH  35  37
ENDBRANCH  34  35
ENDBRANCH  33  34
ENDBRANCH  32  33
ENDBRANCH  31  32
ENDBRANCH  30  31
ENDBRANCH  29  30
ENDBRANCH  28  29
ENDBRANCH  27  28
ENDBRANCH   1  27
TORSDOF 26
ENDMDL
MODEL 3
REMARK VINA RESULT:      -8.9      1.970      3.289
REMARK SMILES CC(C)[C@H](NC(=O)CCNC(=O)c1ccoc1)C(=O)OCCOCCOCCOCCOC(=O)c1ccc(-c2c3nc(c(-c4c(F)cccc4F)c4ccc([nH]4)c(-c4c(F)cccc4F)c4nc(c(-c5c(F)cccc5F)c5ccc2[nH]5)C=C4)C=C3)cc1
REMARK SMILES IDX 24 1 23 2 22 3 21 4 20 5 18 6 19 7 4 8 2 9 1 10 3 11 5 12
REMARK SMILES IDX 6 13 7 15 8 16 9 17 10 18 11 19 12 21 13 22 14 23 17 24
REMARK SMILES IDX 15 25 16 26 25 27 26 28 27 29 28 30 29 31 30 32 31 33 32 34
REMARK SMILES IDX 33 35 34 36 35 37 36 38 88 39 37 40 87 41 38 42 39 43 40 44
REMARK SMILES IDX 81 45 41 46 86 47 80 48 82 49 42 50 85 51 79 52 78 53 43 55
REMARK SMILES IDX 69 56 52 57 68 58 53 59 56 60 67 61 83 62 54 63 55 64 66 66
REMARK SMILES IDX 84 67 57 68 44 69 45 70 50 71 46 72 47 73 49 74 51 75 48 76
REMARK SMILES IDX 70 77 71 78 76 79 72 80 73 81 75 82 77 83 74 84 58 85 59 86
REMARK SMILES IDX 64 87 60 88 61 89 63 90 65 91 62 92
REMARK H PARENT 5 14 10 20 82 54 56 65
REMARK Flexibility Score: inf
ROOT
ATOM      1  C   UNL A   1      34.884  24.987  24.945  1.00  0.00     0.188 C 
ENDROOT
BRANCH   1   2
ATOM      2  O   UNL A   1      34.366  26.225  25.430  1.00  0.00    -0.376 OA
BRANCH   2   3
ATOM      3  C   UNL A   1      33.087  26.358  26.057  1.00  0.00     0.202 C 
BRANCH   3   4
ATOM      4  C   UNL A   1      32.547  27.871  26.077  1.00  0.00     0.261 C 
BRANCH   4   5
ATOM      5  O   UNL A   1      31.986  28.332  24.793  1.00  0.00    -0.462 OA
BRANCH   5   6
ATOM      6  C   UNL A   1      31.054  29.319  24.604  1.00  0.00     0.328 C 
ATOM      7  O   UNL A   1      31.077  30.371  25.235  1.00  0.00    -0.250 OA
BRANCH   6   8
ATOM      8  C   UNL A   1      30.002  29.060  23.362  1.00  0.00     0.194 C 
BRANCH   8   9
ATOM      9  C   UNL A   1      29.240  30.335  22.894  1.00  0.00     0.017 C 
ATOM     10  C   UNL A   1      29.304  30.531  21.355  1.00  0.00     0.010 C 
ATOM     11  C   UNL A   1      27.777  30.309  23.321  1.00  0.00     0.010 C 
ENDBRANCH   8   9
BRANCH   8  12
ATOM     12  N   UNL A   1      29.072  27.919  23.154  1.00  0.00    -0.342 N 
ATOM     13  C   UNL A   1      28.979  26.772  23.871  1.00  0.00     0.222 C 
ATOM     14  H   UNL A   1      28.445  28.008  22.401  1.00  0.00     0.164 HD
ATOM     15  O   UNL A   1      27.910  26.234  24.126  1.00  0.00    -0.275 OA
BRANCH  13  16
ATOM     16  C   UNL A   1      30.285  26.132  24.081  1.00  0.00     0.121 C 
BRANCH  16  17
ATOM     17  C   UNL A   1      30.300  24.856  23.189  1.00  0.00     0.126 C 
BRANCH  17  18
ATOM     18  N   UNL A   1      31.576  24.099  22.746  1.00  0.00    -0.351 N 
ATOM     19  C   UNL A   1      32.378  22.953  22.801  1.00  0.00     0.254 C 
ATOM     20  H   UNL A   1      32.044  24.715  22.137  1.00  0.00     0.163 HD
ATOM     21  O   UNL A   1      33.296  22.987  21.971  1.00  0.00    -0.269 OA
BRANCH  19  22
ATOM     22  C   UNL A   1      32.381  21.798  23.728  1.00  0.00     0.077 A 
ATOM     23  C   UNL A   1      33.270  20.668  23.861  1.00  0.00     0.056 A 
ATOM     24  C   UNL A   1      31.680  21.748  24.928  1.00  0.00     0.208 A 
ATOM     25  C   UNL A   1      32.855  19.915  24.936  1.00  0.00     0.195 A 
ATOM     26  O   UNL A   1      31.894  20.588  25.607  1.00  0.00    -0.472 OA
ENDBRANCH  19  22
ENDBRANCH  17  18
ENDBRANCH  16  17
ENDBRANCH  13  16
ENDBRANCH   8  12
ENDBRANCH   6   8
ENDBRANCH   5   6
ENDBRANCH   4   5
ENDBRANCH   3   4
ENDBRANCH   2   3
ENDBRANCH   1   2
BRANCH   1  27
ATOM     27  C   UNL A   1      34.627  23.794  25.900  1.00  0.00     0.188 C 
BRANCH  27  28
ATOM     28  O   UNL A   1      35.800  23.155  26.392  1.00  0.00    -0.377 OA
BRANCH  28  29
ATOM     29  C   UNL A   1      36.868  23.033  25.471  1.00  0.00     0.188 C 
BRANCH  29  30
ATOM     30  C   UNL A   1      37.691  21.753  25.641  1.00  0.00     0.188 C 
BRANCH  30  31
ATOM     31  O   UNL A   1      39.107  21.795  25.501  1.00  0.00    -0.376 OA
BRANCH  31  32
ATOM     32  C   UNL A   1      39.938  21.182  26.477  1.00  0.00     0.202 C 
BRANCH  32  33
ATOM     33  C   UNL A   1      41.444  21.296  26.218  1.00  0.00     0.261 C 
BRANCH  33  34
ATOM     34  O   UNL A   1      41.841  22.575  25.700  1.00  0.00    -0.460 OA
BRANCH  34  35
ATOM     35  C   UNL A   1      42.723  23.264  26.474  1.00  0.00     0.338 C 
ATOM     36  O   UNL A   1      43.887  23.019  26.664  1.00  0.00    -0.246 OA
BRANCH  35  37
ATOM     37  C   UNL A   1      42.069  24.501  26.967  1.00  0.00     0.060 A 
ATOM     38  C   UNL A   1      42.700  25.730  26.723  1.00  0.00     0.016 A 
ATOM     39  C   UNL A   1      40.909  24.441  27.740  1.00  0.00     0.016 A 
ATOM     40  C   UNL A   1      42.217  26.896  27.315  1.00  0.00     0.010 A 
ATOM     41  C   UNL A   1      40.445  25.601  28.361  1.00  0.00     0.010 A 
ATOM     42  C   UNL A   1      41.134  26.817  28.199  1.00  0.00    -0.014 A 
BRANCH  42  43
ATOM     43  C   UNL A   1      40.922  27.889  29.199  1.00  0.00     0.031 A 
ATOM     44  C   UNL A   1      41.767  27.845  30.445  1.00  0.00     0.074 A 
ATOM     45  C   UNL A   1      40.003  28.855  29.035  1.00  0.00     0.049 A 
ATOM     46  N   UNL A   1      41.672  28.549  31.542  1.00  0.00    -0.248 NA
ATOM     47  C   UNL A   1      42.869  26.866  30.451  1.00  0.00     0.031 C 
ATOM     48  C   UNL A   1      39.177  29.050  27.846  1.00  0.00     0.029 A 
ATOM     49  N   UNL A   1      39.601  29.845  29.896  1.00  0.00    -0.354 N 
ATOM     50  C   UNL A   1      42.689  28.088  32.369  1.00  0.00     0.074 A 
ATOM     51  C   UNL A   1      43.385  27.042  31.657  1.00  0.00     0.031 C 
ATOM     52  C   UNL A   1      38.345  30.085  28.064  1.00  0.00     0.029 A 
ATOM     53  C   UNL A   1      38.552  30.592  29.422  1.00  0.00     0.049 A 
ATOM     54  H   UNL A   1      40.026  30.004  30.770  1.00  0.00     0.167 HD
ATOM     55  C   UNL A   1      43.015  28.498  33.617  1.00  0.00     0.037 A 
ATOM     56  C   UNL A   1      37.822  31.544  30.034  1.00  0.00     0.037 A 
ATOM     57  C   UNL A   1      42.312  29.522  34.335  1.00  0.00     0.049 A 
ATOM     58  C   UNL A   1      38.136  31.913  31.463  1.00  0.00     0.074 A 
ATOM     59  C   UNL A   1      42.534  29.985  35.619  1.00  0.00     0.029 A 
ATOM     60  N   UNL A   1      41.242  30.240  33.824  1.00  0.00    -0.354 N 
ATOM     61  N   UNL A   1      39.084  31.461  32.248  1.00  0.00    -0.248 NA
ATOM     62  C   UNL A   1      37.270  32.921  32.095  1.00  0.00     0.031 C 
ATOM     63  C   UNL A   1      41.577  30.965  35.897  1.00  0.00     0.029 A 
ATOM     64  C   UNL A   1      40.788  31.140  34.772  1.00  0.00     0.049 A 
ATOM     65  H   UNL A   1      40.863  30.127  32.923  1.00  0.00     0.167 HD
ATOM     66  C   UNL A   1      38.953  32.153  33.446  1.00  0.00     0.074 A 
ATOM     67  C   UNL A   1      37.832  33.055  33.289  1.00  0.00     0.031 C 
ATOM     68  C   UNL A   1      39.695  32.055  34.576  1.00  0.00     0.037 A 
BRANCH  55  69
ATOM     69  C   UNL A   1      44.160  27.803  34.286  1.00  0.00     0.057 A 
ATOM     70  C   UNL A   1      43.958  26.750  35.185  1.00  0.00     0.134 A 
ATOM     71  C   UNL A   1      45.481  28.189  34.025  1.00  0.00     0.134 A 
ATOM     72  F   UNL A   1      42.714  26.350  35.496  1.00  0.00    -0.206 F 
ATOM     73  C   UNL A   1      45.028  26.115  35.817  1.00  0.00     0.040 A 
ATOM     74  C   UNL A   1      46.560  27.548  34.632  1.00  0.00     0.040 A 
ATOM     75  F   UNL A   1      45.740  29.196  33.177  1.00  0.00    -0.206 F 
ATOM     76  C   UNL A   1      46.334  26.510  35.535  1.00  0.00     0.006 A 
ENDBRANCH  55  69
BRANCH  56  77
ATOM     77  C   UNL A   1      36.697  32.202  29.325  1.00  0.00     0.057 A 
ATOM     78  C   UNL A   1      36.852  33.462  28.735  1.00  0.00     0.134 A 
ATOM     79  C   UNL A   1      35.428  31.613  29.261  1.00  0.00     0.134 A 
ATOM     80  F   UNL A   1      38.036  34.089  28.787  1.00  0.00    -0.206 F 
ATOM     81  C   UNL A   1      35.783  34.122  28.126  1.00  0.00     0.040 A 
ATOM     82  C   UNL A   1      34.356  32.250  28.634  1.00  0.00     0.040 A 
ATOM     83  F   UNL A   1      35.212  30.409  29.809  1.00  0.00    -0.206 F 
ATOM     84  C   UNL A   1      34.531  33.514  28.071  1.00  0.00     0.006 A 
ENDBRANCH  56  77
BRANCH  68  85
ATOM     85  C   UNL A   1      39.374  32.987  35.705  1.00  0.00     0.057 A 
ATOM     86  C   UNL A   1      38.675  32.564  36.841  1.00  0.00     0.134 A 
ATOM     87  C   UNL A   1      39.849  34.305  35.686  1.00  0.00     0.134 A 
ATOM     88  F   UNL A   1      38.189  31.316  36.915  1.00  0.00    -0.206 F 
ATOM     89  C   UNL A   1      38.451  33.424  37.917  1.00  0.00     0.040 A 
ATOM     90  C   UNL A   1      39.649  35.167  36.764  1.00  0.00     0.040 A 
ATOM     91  F   UNL A   1      40.535  34.766  34.630  1.00  0.00    -0.206 F 
ATOM     92  C   UNL A   1      38.947  34.727  37.884  1.00  0.00     0.006 A 
ENDBRANCH  68  85
ENDBRANCH  42  43
ENDBRANCH  35  37
ENDBRANCH  34  35
ENDBRANCH  33  34
ENDBRANCH  32  33
ENDBRANCH  31  32
ENDBRANCH  30  31
ENDBRANCH  29  30
ENDBRANCH  28  29
ENDBRANCH  27  28
ENDBRANCH   1  27
TORSDOF 26
ENDMDL
