MODEL 1
REMARK VINA RESULT:      -9.8      0.000      0.000
REMARK SMILES Cc1cc(Oc2ccnc(C(=O)OCCOCCOCCOCCOC(=O)c3ccc(-c4c5nc(c(-c6c(F)cccc6F)c6ccc([nH]6)c(-c6c(F)cccc6F)c6nc(c(-c7c(F)cccc7F)c7ccc4[nH]7)C=C6)C=C5)cc3)c2)cc(C)c1Cl
REMARK SMILES IDX 19 1 18 2 17 3 16 4 15 5 14 6 13 7 11 8 12 9 10 10 6 11 7 12
REMARK SMILES IDX 82 13 8 14 9 15 5 16 4 17 1 18 2 19 3 20 86 21 84 22 87 23
REMARK SMILES IDX 83 24 85 25 20 26 21 27 22 28 23 29 24 30 25 31 26 32 27 33
REMARK SMILES IDX 28 34 29 35 81 36 30 37 80 38 31 39 32 40 33 41 74 42 34 43
REMARK SMILES IDX 79 44 73 45 75 46 35 47 78 48 72 49 71 50 36 52 62 53 45 54
REMARK SMILES IDX 61 55 46 56 49 57 60 58 76 59 47 60 48 61 59 63 77 64 50 65
REMARK SMILES IDX 37 66 38 67 43 68 39 69 40 70 42 71 44 72 41 73 63 74 64 75
REMARK SMILES IDX 69 76 65 77 66 78 68 79 70 80 67 81 51 82 52 83 57 84 53 85
REMARK SMILES IDX 54 86 56 87 58 88 55 89
REMARK H PARENT 75 51 49 62
REMARK Flexibility Score: inf
ROOT
ATOM      1  O   UNL A   1      46.055  20.648  25.386  1.00  0.00    -0.377 OA
ENDROOT
BRANCH   1   2
ATOM      2  C   UNL A   1      45.505  19.637  24.554  1.00  0.00     0.188 C 
BRANCH   2   3
ATOM      3  C   UNL A   1      44.353  18.791  25.133  1.00  0.00     0.188 C 
BRANCH   3   4
ATOM      4  O   UNL A   1      43.103  19.460  25.099  1.00  0.00    -0.376 OA
BRANCH   4   5
ATOM      5  C   UNL A   1      42.590  20.029  26.287  1.00  0.00     0.202 C 
BRANCH   5   6
ATOM      6  C   UNL A   1      41.077  19.993  26.566  1.00  0.00     0.261 C 
BRANCH   6   7
ATOM      7  O   UNL A   1      40.261  20.845  25.755  1.00  0.00    -0.459 OA
BRANCH   7   8
ATOM      8  C   UNL A   1      39.657  21.892  26.370  1.00  0.00     0.357 C 
ATOM      9  O   UNL A   1      40.185  22.657  27.158  1.00  0.00    -0.244 OA
BRANCH   8  10
ATOM     10  C   UNL A   1      38.290  22.041  25.777  1.00  0.00     0.152 A 
ATOM     11  C   UNL A   1      36.278  23.274  25.402  1.00  0.00     0.131 A 
ATOM     12  C   UNL A   1      35.767  22.176  24.717  1.00  0.00     0.067 A 
ATOM     13  C   UNL A   1      37.567  23.218  25.929  1.00  0.00     0.083 A 
ATOM     14  C   UNL A   1      36.545  21.032  24.649  1.00  0.00     0.116 A 
ATOM     15  N   UNL A   1      37.791  20.938  25.160  1.00  0.00    -0.249 NA
BRANCH  11  16
ATOM     16  O   UNL A   1      35.651  24.491  25.512  1.00  0.00    -0.457 OA
BRANCH  16  17
ATOM     17  C   UNL A   1      34.407  24.732  24.981  1.00  0.00     0.128 A 
ATOM     18  C   UNL A   1      32.545  25.783  21.838  1.00  0.00     0.046 C 
ATOM     19  C   UNL A   1      32.801  25.306  23.242  1.00  0.00    -0.028 A 
ATOM     20  C   UNL A   1      34.130  25.119  23.671  1.00  0.00     0.052 A 
ATOM     21  C   UNL A   1      31.745  25.024  24.131  1.00  0.00     0.047 A 
ATOM     22  C   UNL A   1      32.011  24.586  25.440  1.00  0.00    -0.028 A 
ATOM     23  Cl  UNL A   1      30.101  25.198  23.600  1.00  0.00    -0.084 Cl
ATOM     24  C   UNL A   1      33.347  24.458  25.851  1.00  0.00     0.052 A 
ATOM     25  C   UNL A   1      30.912  24.223  26.402  1.00  0.00     0.046 C 
ENDBRANCH  16  17
ENDBRANCH  11  16
ENDBRANCH   8  10
ENDBRANCH   7   8
ENDBRANCH   6   7
ENDBRANCH   5   6
ENDBRANCH   4   5
ENDBRANCH   3   4
ENDBRANCH   2   3
ENDBRANCH   1   2
BRANCH   1  26
ATOM     26  C   UNL A   1      45.821  22.024  25.081  1.00  0.00     0.188 C 
BRANCH  26  27
ATOM     27  C   UNL A   1      45.001  22.489  23.850  1.00  0.00     0.188 C 
BRANCH  27  28
ATOM     28  O   UNL A   1      43.599  22.517  24.046  1.00  0.00    -0.376 OA
BRANCH  28  29
ATOM     29  C   UNL A   1      43.081  23.387  25.034  1.00  0.00     0.202 C 
BRANCH  29  30
ATOM     30  C   UNL A   1      43.319  24.888  24.824  1.00  0.00     0.261 C 
BRANCH  30  31
ATOM     31  O   UNL A   1      42.944  25.745  25.913  1.00  0.00    -0.460 OA
BRANCH  31  32
ATOM     32  C   UNL A   1      43.901  26.063  26.809  1.00  0.00     0.338 C 
ATOM     33  O   UNL A   1      45.090  25.792  26.750  1.00  0.00    -0.246 OA
BRANCH  32  34
ATOM     34  C   UNL A   1      43.294  26.961  27.810  1.00  0.00     0.060 A 
ATOM     35  C   UNL A   1      43.719  28.294  27.889  1.00  0.00     0.016 A 
ATOM     36  C   UNL A   1      42.296  26.485  28.663  1.00  0.00     0.016 A 
ATOM     37  C   UNL A   1      43.169  29.146  28.850  1.00  0.00     0.010 A 
ATOM     38  C   UNL A   1      41.762  27.332  29.635  1.00  0.00     0.010 A 
ATOM     39  C   UNL A   1      42.218  28.656  29.755  1.00  0.00    -0.014 A 
BRANCH  39  40
ATOM     40  C   UNL A   1      41.845  29.451  30.951  1.00  0.00     0.031 A 
ATOM     41  C   UNL A   1      40.602  30.297  30.880  1.00  0.00     0.074 A 
ATOM     42  C   UNL A   1      42.584  29.428  32.074  1.00  0.00     0.049 A 
ATOM     43  N   UNL A   1      40.127  31.155  31.745  1.00  0.00    -0.248 NA
ATOM     44  C   UNL A   1      39.786  30.155  29.661  1.00  0.00     0.031 C 
ATOM     45  C   UNL A   1      43.776  28.611  32.289  1.00  0.00     0.029 A 
ATOM     46  N   UNL A   1      42.441  30.129  33.245  1.00  0.00    -0.354 N 
ATOM     47  C   UNL A   1      38.962  31.655  31.176  1.00  0.00     0.074 A 
ATOM     48  C   UNL A   1      38.821  31.034  29.877  1.00  0.00     0.031 C 
ATOM     49  C   UNL A   1      44.266  28.869  33.514  1.00  0.00     0.029 A 
ATOM     50  C   UNL A   1      43.447  29.899  34.152  1.00  0.00     0.049 A 
ATOM     51  H   UNL A   1      41.687  30.740  33.420  1.00  0.00     0.167 HD
ATOM     52  C   UNL A   1      38.082  32.543  31.694  1.00  0.00     0.037 A 
ATOM     53  C   UNL A   1      43.691  30.479  35.344  1.00  0.00     0.037 A 
ATOM     54  C   UNL A   1      38.229  33.166  32.982  1.00  0.00     0.049 A 
ATOM     55  C   UNL A   1      42.753  31.547  35.852  1.00  0.00     0.074 A 
ATOM     56  C   UNL A   1      37.400  34.091  33.592  1.00  0.00     0.029 A 
ATOM     57  N   UNL A   1      39.280  32.931  33.856  1.00  0.00    -0.354 N 
ATOM     58  N   UNL A   1      41.652  32.012  35.311  1.00  0.00    -0.248 NA
ATOM     59  C   UNL A   1      43.094  32.173  37.139  1.00  0.00     0.031 C 
ATOM     60  C   UNL A   1      37.975  34.452  34.814  1.00  0.00     0.029 A 
ATOM     61  C   UNL A   1      39.128  33.705  34.994  1.00  0.00     0.049 A 
ATOM     62  H   UNL A   1      40.023  32.306  33.693  1.00  0.00     0.167 HD
ATOM     63  C   UNL A   1      41.146  32.943  36.212  1.00  0.00     0.074 A 
ATOM     64  C   UNL A   1      42.058  32.976  37.335  1.00  0.00     0.031 C 
ATOM     65  C   UNL A   1      40.026  33.701  36.119  1.00  0.00     0.037 A 
BRANCH  52  66
ATOM     66  C   UNL A   1      36.890  32.909  30.859  1.00  0.00     0.057 A 
ATOM     67  C   UNL A   1      36.961  33.894  29.864  1.00  0.00     0.134 A 
ATOM     68  C   UNL A   1      35.673  32.236  31.016  1.00  0.00     0.134 A 
ATOM     69  F   UNL A   1      38.093  34.587  29.672  1.00  0.00    -0.206 F 
ATOM     70  C   UNL A   1      35.856  34.207  29.070  1.00  0.00     0.040 A 
ATOM     71  C   UNL A   1      34.571  32.521  30.209  1.00  0.00     0.040 A 
ATOM     72  F   UNL A   1      35.538  31.279  31.948  1.00  0.00    -0.206 F 
ATOM     73  C   UNL A   1      34.660  33.512  29.234  1.00  0.00     0.006 A 
ENDBRANCH  52  66
BRANCH  53  74
ATOM     74  C   UNL A   1      44.883  30.091  36.147  1.00  0.00     0.057 A 
ATOM     75  C   UNL A   1      46.085  30.803  36.052  1.00  0.00     0.134 A 
ATOM     76  C   UNL A   1      44.869  28.964  36.977  1.00  0.00     0.134 A 
ATOM     77  F   UNL A   1      46.171  31.878  35.254  1.00  0.00    -0.206 F 
ATOM     78  C   UNL A   1      47.237  30.390  36.723  1.00  0.00     0.040 A 
ATOM     79  C   UNL A   1      46.005  28.558  37.679  1.00  0.00     0.040 A 
ATOM     80  F   UNL A   1      43.752  28.235  37.114  1.00  0.00    -0.206 F 
ATOM     81  C   UNL A   1      47.198  29.264  37.543  1.00  0.00     0.006 A 
ENDBRANCH  53  74
BRANCH  65  82
ATOM     82  C   UNL A   1      39.675  34.575  37.291  1.00  0.00     0.057 A 
ATOM     83  C   UNL A   1      39.051  34.073  38.439  1.00  0.00     0.134 A 
ATOM     84  C   UNL A   1      40.022  35.933  37.286  1.00  0.00     0.134 A 
ATOM     85  F   UNL A   1      38.683  32.784  38.505  1.00  0.00    -0.206 F 
ATOM     86  C   UNL A   1      38.762  34.895  39.530  1.00  0.00     0.040 A 
ATOM     87  C   UNL A   1      39.769  36.757  38.383  1.00  0.00     0.040 A 
ATOM     88  F   UNL A   1      40.635  36.477  36.223  1.00  0.00    -0.206 F 
ATOM     89  C   UNL A   1      39.130  36.239  39.507  1.00  0.00     0.006 A 
ENDBRANCH  65  82
ENDBRANCH  39  40
ENDBRANCH  32  34
ENDBRANCH  31  32
ENDBRANCH  30  31
ENDBRANCH  29  30
ENDBRANCH  28  29
ENDBRANCH  27  28
ENDBRANCH  26  27
ENDBRANCH   1  26
TORSDOF 22
ENDMDL
MODEL 2
REMARK VINA RESULT:      -9.5      6.166     11.720
REMARK SMILES Cc1cc(Oc2ccnc(C(=O)OCCOCCOCCOCCOC(=O)c3ccc(-c4c5nc(c(-c6c(F)cccc6F)c6ccc([nH]6)c(-c6c(F)cccc6F)c6nc(c(-c7c(F)cccc7F)c7ccc4[nH]7)C=C6)C=C5)cc3)c2)cc(C)c1Cl
REMARK SMILES IDX 19 1 18 2 17 3 16 4 15 5 14 6 13 7 11 8 12 9 10 10 6 11 7 12
REMARK SMILES IDX 82 13 8 14 9 15 5 16 4 17 1 18 2 19 3 20 86 21 84 22 87 23
REMARK SMILES IDX 83 24 85 25 20 26 21 27 22 28 23 29 24 30 25 31 26 32 27 33
REMARK SMILES IDX 28 34 29 35 81 36 30 37 80 38 31 39 32 40 33 41 74 42 34 43
REMARK SMILES IDX 79 44 73 45 75 46 35 47 78 48 72 49 71 50 36 52 62 53 45 54
REMARK SMILES IDX 61 55 46 56 49 57 60 58 76 59 47 60 48 61 59 63 77 64 50 65
REMARK SMILES IDX 37 66 38 67 43 68 39 69 40 70 42 71 44 72 41 73 63 74 64 75
REMARK SMILES IDX 69 76 65 77 66 78 68 79 70 80 67 81 51 82 52 83 57 84 53 85
REMARK SMILES IDX 54 86 56 87 58 88 55 89
REMARK H PARENT 75 51 49 62
REMARK Flexibility Score: inf
ROOT
ATOM      1  O   UNL A   1      34.662  36.576  32.829  1.00  0.00    -0.377 OA
ENDROOT
BRANCH   1   2
ATOM      2  C   UNL A   1      33.548  37.293  32.318  1.00  0.00     0.188 C 
BRANCH   2   3
ATOM      3  C   UNL A   1      32.561  36.522  31.417  1.00  0.00     0.188 C 
BRANCH   3   4
ATOM      4  O   UNL A   1      32.895  36.595  30.041  1.00  0.00    -0.376 OA
BRANCH   4   5
ATOM      5  C   UNL A   1      33.005  35.401  29.292  1.00  0.00     0.202 C 
BRANCH   5   6
ATOM      6  C   UNL A   1      34.387  34.912  28.823  1.00  0.00     0.261 C 
BRANCH   6   7
ATOM      7  O   UNL A   1      34.733  33.565  29.163  1.00  0.00    -0.459 OA
BRANCH   7   8
ATOM      8  C   UNL A   1      35.739  32.988  28.460  1.00  0.00     0.357 C 
ATOM      9  O   UNL A   1      36.871  33.424  28.347  1.00  0.00    -0.244 OA
BRANCH   8  10
ATOM     10  C   UNL A   1      35.261  31.645  28.001  1.00  0.00     0.152 A 
ATOM     11  C   UNL A   1      33.529  30.133  27.348  1.00  0.00     0.131 A 
ATOM     12  C   UNL A   1      34.485  29.128  27.244  1.00  0.00     0.067 A 
ATOM     13  C   UNL A   1      33.920  31.420  27.717  1.00  0.00     0.083 A 
ATOM     14  C   UNL A   1      35.792  29.435  27.585  1.00  0.00     0.116 A 
ATOM     15  N   UNL A   1      36.202  30.666  27.960  1.00  0.00    -0.249 NA
BRANCH  11  16
ATOM     16  O   UNL A   1      32.208  29.999  27.000  1.00  0.00    -0.457 OA
BRANCH  16  17
ATOM     17  C   UNL A   1      31.747  28.950  26.240  1.00  0.00     0.128 A 
ATOM     18  C   UNL A   1      30.809  25.267  26.311  1.00  0.00     0.046 C 
ATOM     19  C   UNL A   1      31.001  26.672  25.807  1.00  0.00    -0.028 A 
ATOM     20  C   UNL A   1      31.503  27.652  26.686  1.00  0.00     0.052 A 
ATOM     21  C   UNL A   1      30.674  27.035  24.486  1.00  0.00     0.047 A 
ATOM     22  C   UNL A   1      30.870  28.354  24.038  1.00  0.00    -0.028 A 
ATOM     23  Cl  UNL A   1      30.004  25.852  23.407  1.00  0.00    -0.084 Cl
ATOM     24  C   UNL A   1      31.419  29.294  24.925  1.00  0.00     0.052 A 
ATOM     25  C   UNL A   1      30.484  28.794  22.652  1.00  0.00     0.046 C 
ENDBRANCH  16  17
ENDBRANCH  11  16
ENDBRANCH   8  10
ENDBRANCH   7   8
ENDBRANCH   6   7
ENDBRANCH   5   6
ENDBRANCH   4   5
ENDBRANCH   3   4
ENDBRANCH   2   3
ENDBRANCH   1   2
BRANCH   1  26
ATOM     26  C   UNL A   1      34.469  35.609  33.864  1.00  0.00     0.188 C 
BRANCH  26  27
ATOM     27  C   UNL A   1      35.247  34.269  33.922  1.00  0.00     0.188 C 
BRANCH  27  28
ATOM     28  O   UNL A   1      34.546  33.152  33.407  1.00  0.00    -0.376 OA
BRANCH  28  29
ATOM     29  C   UNL A   1      35.189  32.354  32.431  1.00  0.00     0.202 C 
BRANCH  29  30
ATOM     30  C   UNL A   1      36.340  31.463  32.918  1.00  0.00     0.261 C 
BRANCH  30  31
ATOM     31  O   UNL A   1      36.297  30.091  32.499  1.00  0.00    -0.460 OA
BRANCH  31  32
ATOM     32  C   UNL A   1      37.439  29.379  32.592  1.00  0.00     0.338 C 
ATOM     33  O   UNL A   1      37.568  28.237  33.005  1.00  0.00    -0.246 OA
BRANCH  32  34
ATOM     34  C   UNL A   1      38.506  30.161  31.939  1.00  0.00     0.060 A 
ATOM     35  C   UNL A   1      38.522  30.277  30.543  1.00  0.00     0.016 A 
ATOM     36  C   UNL A   1      39.487  30.788  32.712  1.00  0.00     0.016 A 
ATOM     37  C   UNL A   1      39.541  30.994  29.913  1.00  0.00     0.010 A 
ATOM     38  C   UNL A   1      40.516  31.487  32.080  1.00  0.00     0.010 A 
ATOM     39  C   UNL A   1      40.567  31.566  30.677  1.00  0.00    -0.014 A 
BRANCH  39  40
ATOM     40  C   UNL A   1      41.797  32.071  30.020  1.00  0.00     0.031 A 
ATOM     41  C   UNL A   1      42.900  31.088  29.729  1.00  0.00     0.074 A 
ATOM     42  C   UNL A   1      41.939  33.365  29.685  1.00  0.00     0.049 A 
ATOM     43  N   UNL A   1      44.103  31.299  29.262  1.00  0.00    -0.248 NA
ATOM     44  C   UNL A   1      42.601  29.673  30.007  1.00  0.00     0.031 C 
ATOM     45  C   UNL A   1      40.927  34.404  29.863  1.00  0.00     0.029 A 
ATOM     46  N   UNL A   1      43.008  34.028  29.135  1.00  0.00    -0.354 N 
ATOM     47  C   UNL A   1      44.704  30.048  29.193  1.00  0.00     0.074 A 
ATOM     48  C   UNL A   1      43.748  29.088  29.700  1.00  0.00     0.031 C 
ATOM     49  C   UNL A   1      41.430  35.579  29.443  1.00  0.00     0.029 A 
ATOM     50  C   UNL A   1      42.812  35.382  29.007  1.00  0.00     0.049 A 
ATOM     51  H   UNL A   1      43.839  33.576  28.857  1.00  0.00     0.167 HD
ATOM     52  C   UNL A   1      45.937  29.727  28.738  1.00  0.00     0.037 A 
ATOM     53  C   UNL A   1      43.663  36.349  28.614  1.00  0.00     0.037 A 
ATOM     54  C   UNL A   1      46.889  30.685  28.243  1.00  0.00     0.049 A 
ATOM     55  C   UNL A   1      45.071  35.978  28.214  1.00  0.00     0.074 A 
ATOM     56  C   UNL A   1      48.171  30.462  27.773  1.00  0.00     0.029 A 
ATOM     57  N   UNL A   1      46.663  32.051  28.161  1.00  0.00    -0.354 N 
ATOM     58  N   UNL A   1      45.631  34.793  28.147  1.00  0.00    -0.248 NA
ATOM     59  C   UNL A   1      45.967  37.081  27.834  1.00  0.00     0.031 C 
ATOM     60  C   UNL A   1      48.738  31.698  27.452  1.00  0.00     0.029 A 
ATOM     61  C   UNL A   1      47.788  32.684  27.662  1.00  0.00     0.049 A 
ATOM     62  H   UNL A   1      45.827  32.503  28.419  1.00  0.00     0.167 HD
ATOM     63  C   UNL A   1      46.920  35.005  27.673  1.00  0.00     0.074 A 
ATOM     64  C   UNL A   1      47.061  36.430  27.464  1.00  0.00     0.031 C 
ATOM     65  C   UNL A   1      47.900  34.101  27.428  1.00  0.00     0.037 A 
BRANCH  52  66
ATOM     66  C   UNL A   1      46.335  28.280  28.772  1.00  0.00     0.057 A 
ATOM     67  C   UNL A   1      46.972  27.716  29.885  1.00  0.00     0.134 A 
ATOM     68  C   UNL A   1      46.034  27.431  27.700  1.00  0.00     0.134 A 
ATOM     69  F   UNL A   1      47.301  28.477  30.939  1.00  0.00    -0.206 F 
ATOM     70  C   UNL A   1      47.311  26.362  29.921  1.00  0.00     0.040 A 
ATOM     71  C   UNL A   1      46.343  26.070  27.737  1.00  0.00     0.040 A 
ATOM     72  F   UNL A   1      45.422  27.907  26.604  1.00  0.00    -0.206 F 
ATOM     73  C   UNL A   1      46.987  25.534  28.849  1.00  0.00     0.006 A 
ENDBRANCH  52  66
BRANCH  53  74
ATOM     74  C   UNL A   1      43.235  37.775  28.592  1.00  0.00     0.057 A 
ATOM     75  C   UNL A   1      43.474  38.621  29.682  1.00  0.00     0.134 A 
ATOM     76  C   UNL A   1      42.521  38.306  27.512  1.00  0.00     0.134 A 
ATOM     77  F   UNL A   1      44.130  38.165  30.759  1.00  0.00    -0.206 F 
ATOM     78  C   UNL A   1      42.989  39.930  29.714  1.00  0.00     0.040 A 
ATOM     79  C   UNL A   1      42.058  39.623  27.517  1.00  0.00     0.040 A 
ATOM     80  F   UNL A   1      42.256  37.552  26.436  1.00  0.00    -0.206 F 
ATOM     81  C   UNL A   1      42.281  40.436  28.627  1.00  0.00     0.006 A 
ENDBRANCH  53  74
BRANCH  65  82
ATOM     82  C   UNL A   1      49.186  34.607  26.835  1.00  0.00     0.057 A 
ATOM     83  C   UNL A   1      49.301  34.956  25.484  1.00  0.00     0.134 A 
ATOM     84  C   UNL A   1      50.310  34.800  27.650  1.00  0.00     0.134 A 
ATOM     85  F   UNL A   1      48.266  34.786  24.647  1.00  0.00    -0.206 F 
ATOM     86  C   UNL A   1      50.495  35.455  24.960  1.00  0.00     0.040 A 
ATOM     87  C   UNL A   1      51.498  35.329  27.145  1.00  0.00     0.040 A 
ATOM     88  F   UNL A   1      50.264  34.498  28.957  1.00  0.00    -0.206 F 
ATOM     89  C   UNL A   1      51.595  35.651  25.794  1.00  0.00     0.006 A 
ENDBRANCH  65  82
ENDBRANCH  39  40
ENDBRANCH  32  34
ENDBRANCH  31  32
ENDBRANCH  30  31
ENDBRANCH  29  30
ENDBRANCH  28  29
ENDBRANCH  27  28
ENDBRANCH  26  27
ENDBRANCH   1  26
TORSDOF 22
ENDMDL
MODEL 3
REMARK VINA RESULT:      -9.3      6.302     11.940
REMARK SMILES Cc1cc(Oc2ccnc(C(=O)OCCOCCOCCOCCOC(=O)c3ccc(-c4c5nc(c(-c6c(F)cccc6F)c6ccc([nH]6)c(-c6c(F)cccc6F)c6nc(c(-c7c(F)cccc7F)c7ccc4[nH]7)C=C6)C=C5)cc3)c2)cc(C)c1Cl
REMARK SMILES IDX 19 1 18 2 17 3 16 4 15 5 14 6 13 7 11 8 12 9 10 10 6 11 7 12
REMARK SMILES IDX 82 13 8 14 9 15 5 16 4 17 1 18 2 19 3 20 86 21 84 22 87 23
REMARK SMILES IDX 83 24 85 25 20 26 21 27 22 28 23 29 24 30 25 31 26 32 27 33
REMARK SMILES IDX 28 34 29 35 81 36 30 37 80 38 31 39 32 40 33 41 74 42 34 43
REMARK SMILES IDX 79 44 73 45 75 46 35 47 78 48 72 49 71 50 36 52 62 53 45 54
REMARK SMILES IDX 61 55 46 56 49 57 60 58 76 59 47 60 48 61 59 63 77 64 50 65
REMARK SMILES IDX 37 66 38 67 43 68 39 69 40 70 42 71 44 72 41 73 63 74 64 75
REMARK SMILES IDX 69 76 65 77 66 78 68 79 70 80 67 81 51 82 52 83 57 84 53 85
REMARK SMILES IDX 54 86 56 87 58 88 55 89
REMARK H PARENT 75 51 49 62
REMARK Flexibility Score: inf
ROOT
ATOM      1  O   UNL A   1      37.789  32.499  36.691  1.00  0.00    -0.377 OA
ENDROOT
BRANCH   1   2
ATOM      2  C   UNL A   1      36.918  33.414  36.044  1.00  0.00     0.188 C 
BRANCH   2   3
ATOM      3  C   UNL A   1      36.820  33.334  34.506  1.00  0.00     0.188 C 
BRANCH   3   4
ATOM      4  O   UNL A   1      36.844  34.607  33.883  1.00  0.00    -0.376 OA
BRANCH   4   5
ATOM      5  C   UNL A   1      35.865  34.921  32.912  1.00  0.00     0.202 C 
BRANCH   5   6
ATOM      6  C   UNL A   1      34.471  35.402  33.352  1.00  0.00     0.261 C 
BRANCH   6   7
ATOM      7  O   UNL A   1      33.357  34.872  32.626  1.00  0.00    -0.459 OA
BRANCH   7   8
ATOM      8  C   UNL A   1      32.593  35.752  31.933  1.00  0.00     0.357 C 
ATOM      9  O   UNL A   1      31.703  36.443  32.397  1.00  0.00    -0.244 OA
BRANCH   8  10
ATOM     10  C   UNL A   1      33.154  35.849  30.548  1.00  0.00     0.152 A 
ATOM     11  C   UNL A   1      34.296  34.920  28.666  1.00  0.00     0.131 A 
ATOM     12  C   UNL A   1      34.218  36.161  28.042  1.00  0.00     0.067 A 
ATOM     13  C   UNL A   1      33.742  34.751  29.934  1.00  0.00     0.083 A 
ATOM     14  C   UNL A   1      33.648  37.208  28.746  1.00  0.00     0.116 A 
ATOM     15  N   UNL A   1      33.115  37.083  29.980  1.00  0.00    -0.249 NA
BRANCH  11  16
ATOM     16  O   UNL A   1      34.786  33.777  28.082  1.00  0.00    -0.457 OA
BRANCH  16  17
ATOM     17  C   UNL A   1      35.963  33.190  28.480  1.00  0.00     0.128 A 
ATOM     18  C   UNL A   1      39.319  33.827  30.148  1.00  0.00     0.046 C 
ATOM     19  C   UNL A   1      38.169  33.097  29.509  1.00  0.00    -0.028 A 
ATOM     20  C   UNL A   1      37.024  33.823  29.126  1.00  0.00     0.052 A 
ATOM     21  C   UNL A   1      38.202  31.704  29.301  1.00  0.00     0.047 A 
ATOM     22  C   UNL A   1      37.117  31.046  28.696  1.00  0.00    -0.028 A 
ATOM     23  Cl  UNL A   1      39.583  30.787  29.817  1.00  0.00    -0.084 Cl
ATOM     24  C   UNL A   1      36.012  31.807  28.280  1.00  0.00     0.052 A 
ATOM     25  C   UNL A   1      37.090  29.554  28.505  1.00  0.00     0.046 C 
ENDBRANCH  16  17
ENDBRANCH  11  16
ENDBRANCH   8  10
ENDBRANCH   7   8
ENDBRANCH   6   7
ENDBRANCH   5   6
ENDBRANCH   4   5
ENDBRANCH   3   4
ENDBRANCH   2   3
ENDBRANCH   1   2
BRANCH   1  26
ATOM     26  C   UNL A   1      37.439  31.969  37.971  1.00  0.00     0.188 C 
BRANCH  26  27
ATOM     27  C   UNL A   1      37.414  32.827  39.262  1.00  0.00     0.188 C 
BRANCH  27  28
ATOM     28  O   UNL A   1      38.197  34.006  39.207  1.00  0.00    -0.376 OA
BRANCH  28  29
ATOM     29  C   UNL A   1      39.139  34.230  40.239  1.00  0.00     0.202 C 
BRANCH  29  30
ATOM     30  C   UNL A   1      40.617  34.257  39.828  1.00  0.00     0.261 C 
BRANCH  30  31
ATOM     31  O   UNL A   1      41.149  35.542  39.471  1.00  0.00    -0.460 OA
BRANCH  31  32
ATOM     32  C   UNL A   1      40.576  36.184  38.433  1.00  0.00     0.338 C 
ATOM     33  O   UNL A   1      39.906  37.204  38.471  1.00  0.00    -0.246 OA
BRANCH  32  34
ATOM     34  C   UNL A   1      41.044  35.533  37.193  1.00  0.00     0.060 A 
ATOM     35  C   UNL A   1      40.106  35.035  36.279  1.00  0.00     0.016 A 
ATOM     36  C   UNL A   1      42.412  35.424  36.934  1.00  0.00     0.016 A 
ATOM     37  C   UNL A   1      40.537  34.396  35.115  1.00  0.00     0.010 A 
ATOM     38  C   UNL A   1      42.841  34.766  35.780  1.00  0.00     0.010 A 
ATOM     39  C   UNL A   1      41.908  34.220  34.882  1.00  0.00    -0.014 A 
BRANCH  39  40
ATOM     40  C   UNL A   1      42.373  33.299  33.816  1.00  0.00     0.031 A 
ATOM     41  C   UNL A   1      42.666  33.877  32.458  1.00  0.00     0.074 A 
ATOM     42  C   UNL A   1      42.535  31.983  34.041  1.00  0.00     0.049 A 
ATOM     43  N   UNL A   1      42.980  33.269  31.343  1.00  0.00    -0.248 NA
ATOM     44  C   UNL A   1      42.591  35.344  32.344  1.00  0.00     0.031 C 
ATOM     45  C   UNL A   1      42.338  31.310  35.322  1.00  0.00     0.029 A 
ATOM     46  N   UNL A   1      42.892  30.973  33.182  1.00  0.00    -0.354 N 
ATOM     47  C   UNL A   1      43.137  34.276  30.398  1.00  0.00     0.074 A 
ATOM     48  C   UNL A   1      42.847  35.529  31.059  1.00  0.00     0.031 C 
ATOM     49  C   UNL A   1      42.562  29.994  35.162  1.00  0.00     0.029 A 
ATOM     50  C   UNL A   1      42.876  29.727  33.760  1.00  0.00     0.049 A 
ATOM     51  H   UNL A   1      43.136  31.127  32.240  1.00  0.00     0.167 HD
ATOM     52  C   UNL A   1      43.500  34.166  29.099  1.00  0.00     0.037 A 
ATOM     53  C   UNL A   1      43.064  28.512  33.207  1.00  0.00     0.037 A 
ATOM     54  C   UNL A   1      43.779  32.917  28.442  1.00  0.00     0.049 A 
ATOM     55  C   UNL A   1      43.361  28.408  31.731  1.00  0.00     0.074 A 
ATOM     56  C   UNL A   1      44.141  32.699  27.125  1.00  0.00     0.029 A 
ATOM     57  N   UNL A   1      43.720  31.674  29.054  1.00  0.00    -0.354 N 
ATOM     58  N   UNL A   1      43.511  29.364  30.844  1.00  0.00    -0.248 NA
ATOM     59  C   UNL A   1      43.515  27.054  31.177  1.00  0.00     0.031 C 
ATOM     60  C   UNL A   1      44.253  31.320  26.927  1.00  0.00     0.029 A 
ATOM     61  C   UNL A   1      44.024  30.683  28.136  1.00  0.00     0.049 A 
ATOM     62  H   UNL A   1      43.496  31.519  30.001  1.00  0.00     0.167 HD
ATOM     63  C   UNL A   1      43.825  28.730  29.647  1.00  0.00     0.074 A 
ATOM     64  C   UNL A   1      43.847  27.309  29.919  1.00  0.00     0.031 C 
ATOM     65  C   UNL A   1      44.075  29.275  28.431  1.00  0.00     0.037 A 
BRANCH  52  66
ATOM     66  C   UNL A   1      43.599  35.430  28.297  1.00  0.00     0.057 A 
ATOM     67  C   UNL A   1      42.472  36.025  27.714  1.00  0.00     0.134 A 
ATOM     68  C   UNL A   1      44.827  36.087  28.145  1.00  0.00     0.134 A 
ATOM     69  F   UNL A   1      41.269  35.441  27.810  1.00  0.00    -0.206 F 
ATOM     70  C   UNL A   1      42.567  37.218  26.995  1.00  0.00     0.040 A 
ATOM     71  C   UNL A   1      44.929  37.294  27.452  1.00  0.00     0.040 A 
ATOM     72  F   UNL A   1      45.945  35.573  28.679  1.00  0.00    -0.206 F 
ATOM     73  C   UNL A   1      43.796  37.861  26.872  1.00  0.00     0.006 A 
ENDBRANCH  52  66
BRANCH  53  74
ATOM     74  C   UNL A   1      42.959  27.278  34.033  1.00  0.00     0.057 A 
ATOM     75  C   UNL A   1      41.713  26.756  34.403  1.00  0.00     0.134 A 
ATOM     76  C   UNL A   1      44.097  26.630  34.527  1.00  0.00     0.134 A 
ATOM     77  F   UNL A   1      40.583  27.346  33.985  1.00  0.00    -0.206 F 
ATOM     78  C   UNL A   1      41.603  25.659  35.260  1.00  0.00     0.040 A 
ATOM     79  C   UNL A   1      44.002  25.513  35.358  1.00  0.00     0.040 A 
ATOM     80  F   UNL A   1      45.322  27.077  34.214  1.00  0.00    -0.206 F 
ATOM     81  C   UNL A   1      42.751  25.032  35.738  1.00  0.00     0.006 A 
ENDBRANCH  53  74
BRANCH  65  82
ATOM     82  C   UNL A   1      44.471  28.346  27.318  1.00  0.00     0.057 A 
ATOM     83  C   UNL A   1      43.536  27.796  26.433  1.00  0.00     0.134 A 
ATOM     84  C   UNL A   1      45.823  28.045  27.098  1.00  0.00     0.134 A 
ATOM     85  F   UNL A   1      42.226  28.036  26.592  1.00  0.00    -0.206 F 
ATOM     86  C   UNL A   1      43.928  26.961  25.385  1.00  0.00     0.040 A 
ATOM     87  C   UNL A   1      46.230  27.238  26.035  1.00  0.00     0.040 A 
ATOM     88  F   UNL A   1      46.773  28.549  27.901  1.00  0.00    -0.206 F 
ATOM     89  C   UNL A   1      45.279  26.687  25.179  1.00  0.00     0.006 A 
ENDBRANCH  65  82
ENDBRANCH  39  40
ENDBRANCH  32  34
ENDBRANCH  31  32
ENDBRANCH  30  31
ENDBRANCH  29  30
ENDBRANCH  28  29
ENDBRANCH  27  28
ENDBRANCH  26  27
ENDBRANCH   1  26
TORSDOF 22
ENDMDL
