MODEL 1
REMARK VINA RESULT:     -11.1      0.000      0.000
REMARK SMILES Cc1cccc(-c2ccccc2C(=O)N2CC[C@H](O)C[C@@H]2C(=O)OCCOCCOCCOCCOC(=O)c2ccc(-c3c4nc(c(-c5c(F)cccc5F)c5ccc([nH]5)c(-c5c(F)cccc5F)c5nc(c(-c6c(F)cccc6F)c6ccc3[nH]6)C=C5)C=C4)cc2)c1
REMARK SMILES IDX 29 1 28 2 27 3 26 4 25 5 24 6 22 7 23 8 21 9 15 10 16 11
REMARK SMILES IDX 17 12 20 13 18 14 13 15 14 16 12 17 7 18 8 19 9 20 11 21
REMARK SMILES IDX 10 22 6 23 1 24 2 25 3 26 93 27 4 28 5 29 19 30 30 32 31 33
REMARK SMILES IDX 32 34 33 35 34 36 35 37 36 38 37 39 38 40 39 41 40 42 92 43
REMARK SMILES IDX 41 44 91 45 42 46 43 47 44 48 85 49 45 50 90 51 84 52 86 53
REMARK SMILES IDX 46 54 89 55 83 56 82 57 47 59 73 60 56 61 72 62 57 63 60 64
REMARK SMILES IDX 71 65 87 66 58 67 59 68 70 70 88 71 61 72 48 73 49 74 54 75
REMARK SMILES IDX 50 76 51 77 53 78 55 79 52 80 74 81 75 82 80 83 76 84 77 85
REMARK SMILES IDX 79 86 81 87 78 88 62 89 63 90 68 91 64 92 65 93 67 94 69 95
REMARK SMILES IDX 66 96
REMARK H PARENT 19 31 86 58 60 69
REMARK Flexibility Score: inf
ROOT
ATOM      1  C   UNL A   1      39.834  23.136  26.991  1.00  0.00     0.188 C 
ENDROOT
BRANCH   1   2
ATOM      2  C   UNL A   1      38.533  23.637  26.386  1.00  0.00     0.188 C 
BRANCH   2   3
ATOM      3  O   UNL A   1      37.791  22.642  25.687  1.00  0.00    -0.376 OA
BRANCH   3   4
ATOM      4  C   UNL A   1      36.401  22.792  25.883  1.00  0.00     0.202 C 
BRANCH   4   5
ATOM      5  C   UNL A   1      35.898  24.078  25.236  1.00  0.00     0.261 C 
BRANCH   5   6
ATOM      6  O   UNL A   1      34.476  24.210  25.454  1.00  0.00    -0.462 OA
BRANCH   6   7
ATOM      7  C   UNL A   1      33.742  24.078  24.346  1.00  0.00     0.329 C 
ATOM      8  O   UNL A   1      34.195  23.575  23.313  1.00  0.00    -0.250 OA
BRANCH   7   9
ATOM      9  C   UNL A   1      32.248  24.531  24.455  1.00  0.00     0.198 C 
ATOM     10  N   UNL A   1      31.515  25.114  25.673  1.00  0.00    -0.325 N 
ATOM     11  C   UNL A   1      30.780  24.198  26.561  1.00  0.00     0.123 C 
ATOM     12  C   UNL A   1      30.544  22.740  26.127  1.00  0.00     0.053 C 
ATOM     13  C   UNL A   1      31.504  23.284  23.949  1.00  0.00     0.069 C 
ATOM     14  C   UNL A   1      31.469  22.227  25.044  1.00  0.00     0.118 C 
BRANCH  10  15
ATOM     15  C   UNL A   1      31.522  26.532  25.866  1.00  0.00     0.255 C 
ATOM     16  O   UNL A   1      30.957  27.012  26.855  1.00  0.00    -0.269 OA
BRANCH  15  17
ATOM     17  C   UNL A   1      32.191  27.570  24.937  1.00  0.00     0.047 A 
ATOM     18  C   UNL A   1      31.536  28.013  23.765  1.00  0.00    -0.006 A 
ATOM     19  C   UNL A   1      32.267  28.596  22.688  1.00  0.00     0.009 A 
ATOM     20  C   UNL A   1      33.623  28.837  22.778  1.00  0.00     0.001 A 
ATOM     21  C   UNL A   1      33.523  27.956  25.038  1.00  0.00     0.014 A 
ATOM     22  C   UNL A   1      34.235  28.576  23.984  1.00  0.00     0.001 A 
BRANCH  18  23
ATOM     23  C   UNL A   1      30.088  28.171  23.720  1.00  0.00    -0.017 A 
ATOM     24  C   UNL A   1      27.714  31.073  23.111  1.00  0.00     0.044 C 
ATOM     25  C   UNL A   1      28.218  29.679  23.307  1.00  0.00    -0.051 A 
ATOM     26  C   UNL A   1      27.359  28.577  23.307  1.00  0.00     0.003 A 
ATOM     27  C   UNL A   1      29.578  29.461  23.502  1.00  0.00     0.012 A 
ATOM     28  C   UNL A   1      27.855  27.285  23.501  1.00  0.00     0.001 A 
ATOM     29  C   UNL A   1      29.216  27.081  23.713  1.00  0.00     0.009 A 
ENDBRANCH  18  23
ENDBRANCH  15  17
ENDBRANCH  10  15
BRANCH  14  30
ATOM     30  O   UNL A   1      32.721  21.934  25.645  1.00  0.00    -0.393 OA
ATOM     31  H   UNL A   1      33.386  22.568  25.333  1.00  0.00     0.210 HD
ENDBRANCH  14  30
ENDBRANCH   7   9
ENDBRANCH   6   7
ENDBRANCH   5   6
ENDBRANCH   4   5
ENDBRANCH   3   4
ENDBRANCH   2   3
ENDBRANCH   1   2
BRANCH   1  32
ATOM     32  O   UNL A   1      40.633  22.104  26.445  1.00  0.00    -0.377 OA
BRANCH  32  33
ATOM     33  C   UNL A   1      40.772  20.901  27.160  1.00  0.00     0.188 C 
BRANCH  33  34
ATOM     34  C   UNL A   1      41.159  19.657  26.402  1.00  0.00     0.188 C 
BRANCH  34  35
ATOM     35  O   UNL A   1      42.415  19.202  26.886  1.00  0.00    -0.376 OA
BRANCH  35  36
ATOM     36  C   UNL A   1      43.025  18.223  26.057  1.00  0.00     0.202 C 
BRANCH  36  37
ATOM     37  C   UNL A   1      43.902  18.874  24.981  1.00  0.00     0.261 C 
BRANCH  37  38
ATOM     38  O   UNL A   1      45.041  19.484  25.639  1.00  0.00    -0.460 OA
BRANCH  38  39
ATOM     39  C   UNL A   1      45.549  20.602  25.062  1.00  0.00     0.338 C 
ATOM     40  O   UNL A   1      46.707  20.709  24.632  1.00  0.00    -0.246 OA
BRANCH  39  41
ATOM     41  C   UNL A   1      44.669  21.789  25.304  1.00  0.00     0.060 A 
ATOM     42  C   UNL A   1      44.523  22.773  24.304  1.00  0.00     0.016 A 
ATOM     43  C   UNL A   1      44.270  22.093  26.601  1.00  0.00     0.016 A 
ATOM     44  C   UNL A   1      44.141  24.095  24.626  1.00  0.00     0.010 A 
ATOM     45  C   UNL A   1      43.943  23.410  26.918  1.00  0.00     0.010 A 
ATOM     46  C   UNL A   1      43.932  24.454  25.959  1.00  0.00    -0.014 A 
BRANCH  46  47
ATOM     47  C   UNL A   1      44.012  25.854  26.499  1.00  0.00     0.031 A 
ATOM     48  C   UNL A   1      42.718  26.631  26.749  1.00  0.00     0.074 A 
ATOM     49  C   UNL A   1      45.154  26.220  27.148  1.00  0.00     0.049 A 
ATOM     50  N   UNL A   1      42.554  27.739  27.408  1.00  0.00    -0.248 NA
ATOM     51  C   UNL A   1      41.440  26.143  26.229  1.00  0.00     0.031 C 
ATOM     52  C   UNL A   1      45.197  26.779  28.480  1.00  0.00     0.029 A 
ATOM     53  N   UNL A   1      46.503  25.966  26.956  1.00  0.00    -0.354 N 
ATOM     54  C   UNL A   1      41.182  27.966  27.613  1.00  0.00     0.074 A 
ATOM     55  C   UNL A   1      40.551  26.942  26.823  1.00  0.00     0.031 C 
ATOM     56  C   UNL A   1      46.413  27.097  28.911  1.00  0.00     0.029 A 
ATOM     57  C   UNL A   1      47.259  26.817  27.811  1.00  0.00     0.049 A 
ATOM     58  H   UNL A   1      46.878  25.305  26.330  1.00  0.00     0.167 HD
ATOM     59  C   UNL A   1      40.739  28.914  28.516  1.00  0.00     0.037 A 
ATOM     60  C   UNL A   1      48.155  27.708  27.334  1.00  0.00     0.037 A 
ATOM     61  C   UNL A   1      41.864  29.760  28.986  1.00  0.00     0.049 A 
ATOM     62  C   UNL A   1      47.614  29.132  27.423  1.00  0.00     0.074 A 
ATOM     63  C   UNL A   1      42.352  30.167  30.220  1.00  0.00     0.029 A 
ATOM     64  N   UNL A   1      42.820  30.197  28.063  1.00  0.00    -0.354 N 
ATOM     65  N   UNL A   1      46.361  29.425  27.725  1.00  0.00    -0.248 NA
ATOM     66  C   UNL A   1      48.414  30.342  27.251  1.00  0.00     0.031 C 
ATOM     67  C   UNL A   1      43.668  30.683  30.040  1.00  0.00     0.029 A 
ATOM     68  C   UNL A   1      43.939  30.711  28.683  1.00  0.00     0.049 A 
ATOM     69  H   UNL A   1      42.707  30.144  27.086  1.00  0.00     0.167 HD
ATOM     70  C   UNL A   1      46.172  30.783  27.723  1.00  0.00     0.074 A 
ATOM     71  C   UNL A   1      47.498  31.308  27.447  1.00  0.00     0.031 C 
ATOM     72  C   UNL A   1      44.960  31.398  27.906  1.00  0.00     0.037 A 
BRANCH  59  73
ATOM     73  C   UNL A   1      39.308  29.009  29.159  1.00  0.00     0.057 A 
ATOM     74  C   UNL A   1      38.192  29.491  28.426  1.00  0.00     0.134 A 
ATOM     75  C   UNL A   1      38.955  28.713  30.495  1.00  0.00     0.134 A 
ATOM     76  F   UNL A   1      38.253  29.722  27.110  1.00  0.00    -0.206 F 
ATOM     77  C   UNL A   1      36.915  29.742  28.980  1.00  0.00     0.040 A 
ATOM     78  C   UNL A   1      37.673  28.925  31.055  1.00  0.00     0.040 A 
ATOM     79  F   UNL A   1      39.804  28.172  31.365  1.00  0.00    -0.206 F 
ATOM     80  C   UNL A   1      36.648  29.464  30.305  1.00  0.00     0.006 A 
ENDBRANCH  59  73
BRANCH  60  81
ATOM     81  C   UNL A   1      49.143  26.932  26.507  1.00  0.00     0.057 A 
ATOM     82  C   UNL A   1      49.243  27.440  25.182  1.00  0.00     0.134 A 
ATOM     83  C   UNL A   1      50.365  26.579  27.109  1.00  0.00     0.134 A 
ATOM     84  F   UNL A   1      48.127  27.765  24.508  1.00  0.00    -0.206 F 
ATOM     85  C   UNL A   1      50.462  27.886  24.643  1.00  0.00     0.040 A 
ATOM     86  C   UNL A   1      51.594  27.011  26.567  1.00  0.00     0.040 A 
ATOM     87  F   UNL A   1      50.379  26.096  28.361  1.00  0.00    -0.206 F 
ATOM     88  C   UNL A   1      51.637  27.728  25.368  1.00  0.00     0.006 A 
ENDBRANCH  60  81
BRANCH  72  89
ATOM     89  C   UNL A   1      44.587  32.773  27.373  1.00  0.00     0.057 A 
ATOM     90  C   UNL A   1      44.160  33.002  26.059  1.00  0.00     0.134 A 
ATOM     91  C   UNL A   1      44.415  33.881  28.246  1.00  0.00     0.134 A 
ATOM     92  F   UNL A   1      44.137  32.025  25.144  1.00  0.00    -0.206 F 
ATOM     93  C   UNL A   1      43.658  34.236  25.631  1.00  0.00     0.040 A 
ATOM     94  C   UNL A   1      43.852  35.095  27.845  1.00  0.00     0.040 A 
ATOM     95  F   UNL A   1      44.741  33.833  29.546  1.00  0.00    -0.206 F 
ATOM     96  C   UNL A   1      43.485  35.282  26.527  1.00  0.00     0.006 A 
ENDBRANCH  72  89
ENDBRANCH  46  47
ENDBRANCH  39  41
ENDBRANCH  38  39
ENDBRANCH  37  38
ENDBRANCH  36  37
ENDBRANCH  35  36
ENDBRANCH  34  35
ENDBRANCH  33  34
ENDBRANCH  32  33
ENDBRANCH   1  32
TORSDOF 24
ENDMDL
MODEL 2
REMARK VINA RESULT:     -11.1      4.995     10.870
REMARK SMILES Cc1cccc(-c2ccccc2C(=O)N2CC[C@H](O)C[C@@H]2C(=O)OCCOCCOCCOCCOC(=O)c2ccc(-c3c4nc(c(-c5c(F)cccc5F)c5ccc([nH]5)c(-c5c(F)cccc5F)c5nc(c(-c6c(F)cccc6F)c6ccc3[nH]6)C=C5)C=C4)cc2)c1
REMARK SMILES IDX 29 1 28 2 27 3 26 4 25 5 24 6 22 7 23 8 21 9 15 10 16 11
REMARK SMILES IDX 17 12 20 13 18 14 13 15 14 16 12 17 7 18 8 19 9 20 11 21
REMARK SMILES IDX 10 22 6 23 1 24 2 25 3 26 93 27 4 28 5 29 19 30 30 32 31 33
REMARK SMILES IDX 32 34 33 35 34 36 35 37 36 38 37 39 38 40 39 41 40 42 92 43
REMARK SMILES IDX 41 44 91 45 42 46 43 47 44 48 85 49 45 50 90 51 84 52 86 53
REMARK SMILES IDX 46 54 89 55 83 56 82 57 47 59 73 60 56 61 72 62 57 63 60 64
REMARK SMILES IDX 71 65 87 66 58 67 59 68 70 70 88 71 61 72 48 73 49 74 54 75
REMARK SMILES IDX 50 76 51 77 53 78 55 79 52 80 74 81 75 82 80 83 76 84 77 85
REMARK SMILES IDX 79 86 81 87 78 88 62 89 63 90 68 91 64 92 65 93 67 94 69 95
REMARK SMILES IDX 66 96
REMARK H PARENT 19 31 86 58 60 69
REMARK Flexibility Score: inf
ROOT
ATOM      1  C   UNL A   1      34.092  30.438  27.212  1.00  0.00     0.188 C 
ENDROOT
BRANCH   1   2
ATOM      2  C   UNL A   1      32.671  29.900  27.250  1.00  0.00     0.188 C 
BRANCH   2   3
ATOM      3  O   UNL A   1      32.095  29.678  25.966  1.00  0.00    -0.376 OA
BRANCH   3   4
ATOM      4  C   UNL A   1      33.079  29.622  24.955  1.00  0.00     0.202 C 
BRANCH   4   5
ATOM      5  C   UNL A   1      33.025  28.288  24.218  1.00  0.00     0.261 C 
BRANCH   5   6
ATOM      6  O   UNL A   1      33.859  27.323  24.895  1.00  0.00    -0.462 OA
BRANCH   6   7
ATOM      7  C   UNL A   1      33.418  26.066  24.804  1.00  0.00     0.329 C 
ATOM      8  O   UNL A   1      33.415  25.445  23.736  1.00  0.00    -0.250 OA
BRANCH   7   9
ATOM      9  C   UNL A   1      32.974  25.396  26.147  1.00  0.00     0.198 C 
ATOM     10  N   UNL A   1      32.736  23.906  26.436  1.00  0.00    -0.325 N 
ATOM     11  C   UNL A   1      31.372  23.368  26.298  1.00  0.00     0.123 C 
ATOM     12  C   UNL A   1      30.186  24.333  26.124  1.00  0.00     0.053 C 
ATOM     13  C   UNL A   1      31.713  26.201  26.498  1.00  0.00     0.069 C 
ATOM     14  C   UNL A   1      30.545  25.724  25.646  1.00  0.00     0.118 C 
BRANCH  10  15
ATOM     15  C   UNL A   1      33.835  23.108  26.887  1.00  0.00     0.255 C 
ATOM     16  O   UNL A   1      33.780  22.573  28.000  1.00  0.00    -0.269 OA
BRANCH  15  17
ATOM     17  C   UNL A   1      35.135  22.828  26.100  1.00  0.00     0.047 A 
ATOM     18  C   UNL A   1      35.347  21.574  25.481  1.00  0.00    -0.006 A 
ATOM     19  C   UNL A   1      36.660  21.129  25.147  1.00  0.00     0.009 A 
ATOM     20  C   UNL A   1      37.766  21.935  25.326  1.00  0.00     0.001 A 
ATOM     21  C   UNL A   1      36.255  23.654  26.133  1.00  0.00     0.014 A 
ATOM     22  C   UNL A   1      37.549  23.224  25.758  1.00  0.00     0.001 A 
BRANCH  18  23
ATOM     23  C   UNL A   1      34.243  20.824  24.894  1.00  0.00    -0.017 A 
ATOM     24  C   UNL A   1      31.767  21.439  22.081  1.00  0.00     0.044 C 
ATOM     25  C   UNL A   1      32.541  20.740  23.153  1.00  0.00    -0.051 A 
ATOM     26  C   UNL A   1      32.312  19.400  23.473  1.00  0.00     0.003 A 
ATOM     27  C   UNL A   1      33.516  21.435  23.860  1.00  0.00     0.012 A 
ATOM     28  C   UNL A   1      33.043  18.772  24.486  1.00  0.00     0.001 A 
ATOM     29  C   UNL A   1      34.004  19.483  25.199  1.00  0.00     0.009 A 
ENDBRANCH  18  23
ENDBRANCH  15  17
ENDBRANCH  10  15
BRANCH  14  30
ATOM     30  O   UNL A   1      30.801  25.653  24.251  1.00  0.00    -0.393 OA
ATOM     31  H   UNL A   1      31.360  24.883  24.064  1.00  0.00     0.210 HD
ENDBRANCH  14  30
ENDBRANCH   7   9
ENDBRANCH   6   7
ENDBRANCH   5   6
ENDBRANCH   4   5
ENDBRANCH   3   4
ENDBRANCH   2   3
ENDBRANCH   1   2
BRANCH   1  32
ATOM     32  O   UNL A   1      34.483  31.720  27.665  1.00  0.00    -0.377 OA
BRANCH  32  33
ATOM     33  C   UNL A   1      33.508  32.572  28.216  1.00  0.00     0.188 C 
BRANCH  33  34
ATOM     34  C   UNL A   1      33.675  34.059  28.039  1.00  0.00     0.188 C 
BRANCH  34  35
ATOM     35  O   UNL A   1      32.801  34.726  28.939  1.00  0.00    -0.376 OA
BRANCH  35  36
ATOM     36  C   UNL A   1      32.870  36.142  28.858  1.00  0.00     0.202 C 
BRANCH  36  37
ATOM     37  C   UNL A   1      33.289  36.755  30.199  1.00  0.00     0.261 C 
BRANCH  37  38
ATOM     38  O   UNL A   1      33.034  35.777  31.239  1.00  0.00    -0.460 OA
BRANCH  38  39
ATOM     39  C   UNL A   1      34.065  35.498  32.077  1.00  0.00     0.338 C 
ATOM     40  O   UNL A   1      34.580  36.311  32.856  1.00  0.00    -0.246 OA
BRANCH  39  41
ATOM     41  C   UNL A   1      34.724  34.203  31.715  1.00  0.00     0.060 A 
ATOM     42  C   UNL A   1      34.496  33.053  32.500  1.00  0.00     0.016 A 
ATOM     43  C   UNL A   1      35.799  34.203  30.832  1.00  0.00     0.016 A 
ATOM     44  C   UNL A   1      35.423  31.986  32.526  1.00  0.00     0.010 A 
ATOM     45  C   UNL A   1      36.732  33.170  30.900  1.00  0.00     0.010 A 
ATOM     46  C   UNL A   1      36.604  32.073  31.789  1.00  0.00    -0.014 A 
BRANCH  46  47
ATOM     47  C   UNL A   1      37.862  31.303  32.078  1.00  0.00     0.031 A 
ATOM     48  C   UNL A   1      38.187  30.066  31.238  1.00  0.00     0.074 A 
ATOM     49  C   UNL A   1      38.861  31.947  32.745  1.00  0.00     0.049 A 
ATOM     50  N   UNL A   1      39.303  29.405  31.172  1.00  0.00    -0.248 NA
ATOM     51  C   UNL A   1      37.181  29.476  30.354  1.00  0.00     0.031 C 
ATOM     52  C   UNL A   1      40.227  32.045  32.281  1.00  0.00     0.029 A 
ATOM     53  N   UNL A   1      38.902  32.860  33.788  1.00  0.00    -0.354 N 
ATOM     54  C   UNL A   1      39.253  28.502  30.095  1.00  0.00     0.074 A 
ATOM     55  C   UNL A   1      37.885  28.585  29.653  1.00  0.00     0.031 C 
ATOM     56  C   UNL A   1      41.049  32.689  33.102  1.00  0.00     0.029 A 
ATOM     57  C   UNL A   1      40.249  32.998  34.228  1.00  0.00     0.049 A 
ATOM     58  H   UNL A   1      38.125  33.335  34.163  1.00  0.00     0.167 HD
ATOM     59  C   UNL A   1      40.393  27.879  29.627  1.00  0.00     0.037 A 
ATOM     60  C   UNL A   1      40.627  32.714  35.493  1.00  0.00     0.037 A 
ATOM     61  C   UNL A   1      41.532  28.101  30.551  1.00  0.00     0.049 A 
ATOM     62  C   UNL A   1      41.396  31.398  35.553  1.00  0.00     0.074 A 
ATOM     63  C   UNL A   1      42.844  28.538  30.424  1.00  0.00     0.029 A 
ATOM     64  N   UNL A   1      41.316  28.021  31.931  1.00  0.00    -0.354 N 
ATOM     65  N   UNL A   1      41.487  30.553  34.541  1.00  0.00    -0.248 NA
ATOM     66  C   UNL A   1      42.172  30.935  36.700  1.00  0.00     0.031 C 
ATOM     67  C   UNL A   1      43.337  28.880  31.717  1.00  0.00     0.029 A 
ATOM     68  C   UNL A   1      42.375  28.534  32.650  1.00  0.00     0.049 A 
ATOM     69  H   UNL A   1      40.505  27.642  32.340  1.00  0.00     0.167 HD
ATOM     70  C   UNL A   1      42.236  29.459  34.894  1.00  0.00     0.074 A 
ATOM     71  C   UNL A   1      42.662  29.765  36.248  1.00  0.00     0.031 C 
ATOM     72  C   UNL A   1      42.434  28.363  34.094  1.00  0.00     0.037 A 
BRANCH  59  73
ATOM     73  C   UNL A   1      40.587  27.194  28.226  1.00  0.00     0.057 A 
ATOM     74  C   UNL A   1      40.024  25.924  27.932  1.00  0.00     0.134 A 
ATOM     75  C   UNL A   1      41.357  27.675  27.143  1.00  0.00     0.134 A 
ATOM     76  F   UNL A   1      39.158  25.324  28.756  1.00  0.00    -0.206 F 
ATOM     77  C   UNL A   1      40.278  25.186  26.752  1.00  0.00     0.040 A 
ATOM     78  C   UNL A   1      41.593  26.964  25.942  1.00  0.00     0.040 A 
ATOM     79  F   UNL A   1      41.925  28.878  27.138  1.00  0.00    -0.206 F 
ATOM     80  C   UNL A   1      41.072  25.701  25.749  1.00  0.00     0.006 A 
ENDBRANCH  59  73
BRANCH  60  81
ATOM     81  C   UNL A   1      39.782  33.563  36.402  1.00  0.00     0.057 A 
ATOM     82  C   UNL A   1      39.041  32.777  37.328  1.00  0.00     0.134 A 
ATOM     83  C   UNL A   1      40.362  34.729  36.933  1.00  0.00     0.134 A 
ATOM     84  F   UNL A   1      38.415  31.666  36.905  1.00  0.00    -0.206 F 
ATOM     85  C   UNL A   1      39.164  32.946  38.718  1.00  0.00     0.040 A 
ATOM     86  C   UNL A   1      40.477  34.915  38.328  1.00  0.00     0.040 A 
ATOM     87  F   UNL A   1      41.086  35.537  36.142  1.00  0.00    -0.206 F 
ATOM     88  C   UNL A   1      39.938  33.985  39.221  1.00  0.00     0.006 A 
ENDBRANCH  60  81
BRANCH  72  89
ATOM     89  C   UNL A   1      42.737  26.958  34.593  1.00  0.00     0.057 A 
ATOM     90  C   UNL A   1      41.790  26.143  35.225  1.00  0.00     0.134 A 
ATOM     91  C   UNL A   1      43.938  26.290  34.232  1.00  0.00     0.134 A 
ATOM     92  F   UNL A   1      40.560  26.585  35.517  1.00  0.00    -0.206 F 
ATOM     93  C   UNL A   1      42.030  24.797  35.524  1.00  0.00     0.040 A 
ATOM     94  C   UNL A   1      44.160  24.930  34.464  1.00  0.00     0.040 A 
ATOM     95  F   UNL A   1      44.942  26.906  33.593  1.00  0.00    -0.206 F 
ATOM     96  C   UNL A   1      43.209  24.180  35.129  1.00  0.00     0.006 A 
ENDBRANCH  72  89
ENDBRANCH  46  47
ENDBRANCH  39  41
ENDBRANCH  38  39
ENDBRANCH  37  38
ENDBRANCH  36  37
ENDBRANCH  35  36
ENDBRANCH  34  35
ENDBRANCH  33  34
ENDBRANCH  32  33
ENDBRANCH   1  32
TORSDOF 24
ENDMDL
MODEL 3
REMARK VINA RESULT:     -10.7      1.773      3.138
REMARK SMILES Cc1cccc(-c2ccccc2C(=O)N2CC[C@H](O)C[C@@H]2C(=O)OCCOCCOCCOCCOC(=O)c2ccc(-c3c4nc(c(-c5c(F)cccc5F)c5ccc([nH]5)c(-c5c(F)cccc5F)c5nc(c(-c6c(F)cccc6F)c6ccc3[nH]6)C=C5)C=C4)cc2)c1
REMARK SMILES IDX 29 1 28 2 27 3 26 4 25 5 24 6 22 7 23 8 21 9 15 10 16 11
REMARK SMILES IDX 17 12 20 13 18 14 13 15 14 16 12 17 7 18 8 19 9 20 11 21
REMARK SMILES IDX 10 22 6 23 1 24 2 25 3 26 93 27 4 28 5 29 19 30 30 32 31 33
REMARK SMILES IDX 32 34 33 35 34 36 35 37 36 38 37 39 38 40 39 41 40 42 92 43
REMARK SMILES IDX 41 44 91 45 42 46 43 47 44 48 85 49 45 50 90 51 84 52 86 53
REMARK SMILES IDX 46 54 89 55 83 56 82 57 47 59 73 60 56 61 72 62 57 63 60 64
REMARK SMILES IDX 71 65 87 66 58 67 59 68 70 70 88 71 61 72 48 73 49 74 54 75
REMARK SMILES IDX 50 76 51 77 53 78 55 79 52 80 74 81 75 82 80 83 76 84 77 85
REMARK SMILES IDX 79 86 81 87 78 88 62 89 63 90 68 91 64 92 65 93 67 94 69 95
REMARK SMILES IDX 66 96
REMARK H PARENT 19 31 86 58 60 69
REMARK Flexibility Score: inf
ROOT
ATOM      1  C   UNL A   1      33.666  20.497  24.612  1.00  0.00     0.188 C 
ENDROOT
BRANCH   1   2
ATOM      2  C   UNL A   1      32.725  20.923  25.727  1.00  0.00     0.188 C 
BRANCH   2   3
ATOM      3  O   UNL A   1      33.337  21.000  27.012  1.00  0.00    -0.376 OA
BRANCH   3   4
ATOM      4  C   UNL A   1      33.286  22.308  27.538  1.00  0.00     0.202 C 
BRANCH   4   5
ATOM      5  C   UNL A   1      32.464  23.224  26.637  1.00  0.00     0.261 C 
BRANCH   5   6
ATOM      6  O   UNL A   1      33.332  24.182  25.992  1.00  0.00    -0.462 OA
BRANCH   6   7
ATOM      7  C   UNL A   1      32.711  24.975  25.116  1.00  0.00     0.329 C 
ATOM      8  O   UNL A   1      31.496  25.195  25.175  1.00  0.00    -0.250 OA
BRANCH   7   9
ATOM      9  C   UNL A   1      33.624  25.672  24.054  1.00  0.00     0.198 C 
ATOM     10  N   UNL A   1      33.267  26.821  23.097  1.00  0.00    -0.325 N 
ATOM     11  C   UNL A   1      32.796  26.490  21.741  1.00  0.00     0.123 C 
ATOM     12  C   UNL A   1      32.910  25.045  21.225  1.00  0.00     0.053 C 
ATOM     13  C   UNL A   1      34.146  24.470  23.250  1.00  0.00     0.069 C 
ATOM     14  C   UNL A   1      33.067  23.984  22.293  1.00  0.00     0.118 C 
BRANCH  10  15
ATOM     15  C   UNL A   1      33.463  28.168  23.536  1.00  0.00     0.255 C 
ATOM     16  O   UNL A   1      33.918  29.003  22.747  1.00  0.00    -0.269 OA
BRANCH  15  17
ATOM     17  C   UNL A   1      33.151  28.716  24.947  1.00  0.00     0.047 A 
ATOM     18  C   UNL A   1      32.017  29.532  25.168  1.00  0.00    -0.006 A 
ATOM     19  C   UNL A   1      31.939  30.396  26.299  1.00  0.00     0.009 A 
ATOM     20  C   UNL A   1      32.919  30.407  27.272  1.00  0.00     0.001 A 
ATOM     21  C   UNL A   1      34.040  28.660  26.015  1.00  0.00     0.014 A 
ATOM     22  C   UNL A   1      33.936  29.486  27.158  1.00  0.00     0.001 A 
BRANCH  18  23
ATOM     23  C   UNL A   1      30.774  29.314  24.437  1.00  0.00    -0.017 A 
ATOM     24  C   UNL A   1      28.276  31.549  22.651  1.00  0.00     0.044 C 
ATOM     25  C   UNL A   1      28.985  30.320  23.123  1.00  0.00    -0.051 A 
ATOM     26  C   UNL A   1      28.560  29.039  22.764  1.00  0.00     0.003 A 
ATOM     27  C   UNL A   1      30.098  30.444  23.947  1.00  0.00     0.012 A 
ATOM     28  C   UNL A   1      29.236  27.906  23.226  1.00  0.00     0.001 A 
ATOM     29  C   UNL A   1      30.338  28.042  24.065  1.00  0.00     0.009 A 
ENDBRANCH  18  23
ENDBRANCH  15  17
ENDBRANCH  10  15
BRANCH  14  30
ATOM     30  O   UNL A   1      31.792  23.764  22.877  1.00  0.00    -0.393 OA
ATOM     31  H   UNL A   1      31.759  22.870  23.252  1.00  0.00     0.210 HD
ENDBRANCH  14  30
ENDBRANCH   7   9
ENDBRANCH   6   7
ENDBRANCH   5   6
ENDBRANCH   4   5
ENDBRANCH   3   4
ENDBRANCH   2   3
ENDBRANCH   1   2
BRANCH   1  32
ATOM     32  O   UNL A   1      35.078  20.529  24.691  1.00  0.00    -0.377 OA
BRANCH  32  33
ATOM     33  C   UNL A   1      35.719  21.767  24.881  1.00  0.00     0.188 C 
BRANCH  33  34
ATOM     34  C   UNL A   1      36.997  22.034  24.126  1.00  0.00     0.188 C 
BRANCH  34  35
ATOM     35  O   UNL A   1      37.796  22.928  24.888  1.00  0.00    -0.376 OA
BRANCH  35  36
ATOM     36  C   UNL A   1      38.446  22.313  25.991  1.00  0.00     0.202 C 
BRANCH  36  37
ATOM     37  C   UNL A   1      38.891  20.886  25.649  1.00  0.00     0.261 C 
BRANCH  37  38
ATOM     38  O   UNL A   1      39.866  20.471  26.639  1.00  0.00    -0.460 OA
BRANCH  38  39
ATOM     39  C   UNL A   1      41.085  20.099  26.173  1.00  0.00     0.338 C 
ATOM     40  O   UNL A   1      41.334  19.009  25.639  1.00  0.00    -0.246 OA
BRANCH  39  41
ATOM     41  C   UNL A   1      42.161  21.011  26.675  1.00  0.00     0.060 A 
ATOM     42  C   UNL A   1      42.308  21.231  28.062  1.00  0.00     0.016 A 
ATOM     43  C   UNL A   1      42.786  21.886  25.794  1.00  0.00     0.016 A 
ATOM     44  C   UNL A   1      42.928  22.400  28.558  1.00  0.00     0.010 A 
ATOM     45  C   UNL A   1      43.352  23.059  26.290  1.00  0.00     0.010 A 
ATOM     46  C   UNL A   1      43.381  23.377  27.670  1.00  0.00    -0.014 A 
BRANCH  46  47
ATOM     47  C   UNL A   1      43.594  24.825  28.014  1.00  0.00     0.031 A 
ATOM     48  C   UNL A   1      42.380  25.745  28.149  1.00  0.00     0.074 A 
ATOM     49  C   UNL A   1      44.770  25.168  28.613  1.00  0.00     0.049 A 
ATOM     50  N   UNL A   1      42.324  26.943  28.648  1.00  0.00    -0.248 NA
ATOM     51  C   UNL A   1      41.058  25.311  27.694  1.00  0.00     0.031 C 
ATOM     52  C   UNL A   1      44.875  25.899  29.856  1.00  0.00     0.029 A 
ATOM     53  N   UNL A   1      46.089  24.767  28.465  1.00  0.00    -0.354 N 
ATOM     54  C   UNL A   1      40.981  27.323  28.813  1.00  0.00     0.074 A 
ATOM     55  C   UNL A   1      40.251  26.262  28.167  1.00  0.00     0.031 C 
ATOM     56  C   UNL A   1      46.118  26.159  30.246  1.00  0.00     0.029 A 
ATOM     57  C   UNL A   1      46.927  25.653  29.199  1.00  0.00     0.049 A 
ATOM     58  H   UNL A   1      46.396  23.994  27.937  1.00  0.00     0.167 HD
ATOM     59  C   UNL A   1      40.634  28.422  29.575  1.00  0.00     0.037 A 
ATOM     60  C   UNL A   1      47.898  26.384  28.609  1.00  0.00     0.037 A 
ATOM     61  C   UNL A   1      41.836  29.217  29.930  1.00  0.00     0.049 A 
ATOM     62  C   UNL A   1      47.492  27.850  28.499  1.00  0.00     0.074 A 
ATOM     63  C   UNL A   1      42.369  29.742  31.099  1.00  0.00     0.029 A 
ATOM     64  N   UNL A   1      42.822  29.432  28.961  1.00  0.00    -0.354 N 
ATOM     65  N   UNL A   1      46.274  28.296  28.751  1.00  0.00    -0.248 NA
ATOM     66  C   UNL A   1      48.399  28.945  28.167  1.00  0.00     0.031 C 
ATOM     67  C   UNL A   1      43.726  30.104  30.857  1.00  0.00     0.029 A 
ATOM     68  C   UNL A   1      43.988  29.920  29.511  1.00  0.00     0.049 A 
ATOM     69  H   UNL A   1      42.697  29.257  28.000  1.00  0.00     0.167 HD
ATOM     70  C   UNL A   1      46.211  29.653  28.562  1.00  0.00     0.074 A 
ATOM     71  C   UNL A   1      47.577  30.011  28.224  1.00  0.00     0.031 C 
ATOM     72  C   UNL A   1      45.062  30.397  28.652  1.00  0.00     0.037 A 
BRANCH  59  73
ATOM     73  C   UNL A   1      39.223  28.736  30.191  1.00  0.00     0.057 A 
ATOM     74  C   UNL A   1      38.223  29.422  29.453  1.00  0.00     0.134 A 
ATOM     75  C   UNL A   1      38.790  28.463  31.508  1.00  0.00     0.134 A 
ATOM     76  F   UNL A   1      38.356  29.679  28.147  1.00  0.00    -0.206 F 
ATOM     77  C   UNL A   1      36.991  29.866  29.989  1.00  0.00     0.040 A 
ATOM     78  C   UNL A   1      37.548  28.871  32.049  1.00  0.00     0.040 A 
ATOM     79  F   UNL A   1      39.514  27.761  32.376  1.00  0.00    -0.206 F 
ATOM     80  C   UNL A   1      36.647  29.597  31.297  1.00  0.00     0.006 A 
ENDBRANCH  59  73
BRANCH  60  81
ATOM     81  C   UNL A   1      48.804  25.414  27.902  1.00  0.00     0.057 A 
ATOM     82  C   UNL A   1      48.793  25.606  26.492  1.00  0.00     0.134 A 
ATOM     83  C   UNL A   1      50.069  25.171  28.466  1.00  0.00     0.134 A 
ATOM     84  F   UNL A   1      47.626  25.802  25.856  1.00  0.00    -0.206 F 
ATOM     85  C   UNL A   1      49.965  25.885  25.768  1.00  0.00     0.040 A 
ATOM     86  C   UNL A   1      51.251  25.434  27.741  1.00  0.00     0.040 A 
ATOM     87  F   UNL A   1      50.187  24.981  29.790  1.00  0.00    -0.206 F 
ATOM     88  C   UNL A   1      51.196  25.860  26.411  1.00  0.00     0.006 A 
ENDBRANCH  60  81
BRANCH  72  89
ATOM     89  C   UNL A   1      44.814  31.715  27.934  1.00  0.00     0.057 A 
ATOM     90  C   UNL A   1      45.451  32.913  28.281  1.00  0.00     0.134 A 
ATOM     91  C   UNL A   1      44.100  31.765  26.707  1.00  0.00     0.134 A 
ATOM     92  F   UNL A   1      46.266  33.000  29.340  1.00  0.00    -0.206 F 
ATOM     93  C   UNL A   1      45.346  34.076  27.509  1.00  0.00     0.040 A 
ATOM     94  C   UNL A   1      44.046  32.900  25.895  1.00  0.00     0.040 A 
ATOM     95  F   UNL A   1      43.455  30.702  26.204  1.00  0.00    -0.206 F 
ATOM     96  C   UNL A   1      44.658  34.069  26.303  1.00  0.00     0.006 A 
ENDBRANCH  72  89
ENDBRANCH  46  47
ENDBRANCH  39  41
ENDBRANCH  38  39
ENDBRANCH  37  38
ENDBRANCH  36  37
ENDBRANCH  35  36
ENDBRANCH  34  35
ENDBRANCH  33  34
ENDBRANCH  32  33
ENDBRANCH   1  32
TORSDOF 24
ENDMDL
