MODEL 1
REMARK VINA RESULT:     -11.2      0.000      0.000
REMARK SMILES CC(C)c1ccc([C@]2(C(=O)OCCOCCOCCOCCOC(=O)c3ccc(-c4c5nc(c(-c6c(F)cccc6F)c6ccc([nH]6)c(-c6c(F)cccc6F)c6nc(c(-c7c(F)cccc7F)c7ccc4[nH]7)C=C6)C=C5)cc3)CCC[C@@H]2C)cc1
REMARK SMILES IDX 17 1 16 2 15 3 14 4 13 5 12 6 11 7 9 8 10 9 8 10 80 11 83 12
REMARK SMILES IDX 81 13 82 14 84 15 7 16 4 17 5 18 86 19 6 20 85 21 2 22 1 23
REMARK SMILES IDX 3 24 18 25 19 26 20 27 21 28 22 29 23 30 24 31 25 32 26 33
REMARK SMILES IDX 27 34 79 35 28 36 78 37 29 38 30 39 31 40 72 41 32 42 77 43
REMARK SMILES IDX 71 44 73 45 33 46 76 47 70 48 69 49 34 51 60 52 43 53 59 54
REMARK SMILES IDX 44 55 47 56 58 57 74 58 45 59 46 60 57 62 75 63 48 64 35 65
REMARK SMILES IDX 36 66 41 67 37 68 38 69 40 70 42 71 39 72 61 73 62 74 67 75
REMARK SMILES IDX 63 76 64 77 66 78 68 79 65 80 49 81 50 82 55 83 51 84 52 85
REMARK SMILES IDX 54 86 56 87 53 88
REMARK H PARENT 73 50 47 61
REMARK Flexibility Score: inf
ROOT
ATOM      1  O   UNL A   1      32.755  34.726  28.937  1.00  0.00    -0.377 OA
ENDROOT
BRANCH   1   2
ATOM      2  C   UNL A   1      33.637  33.892  28.212  1.00  0.00     0.188 C 
BRANCH   2   3
ATOM      3  C   UNL A   1      33.902  32.414  28.553  1.00  0.00     0.188 C 
BRANCH   3   4
ATOM      4  O   UNL A   1      34.033  31.590  27.412  1.00  0.00    -0.376 OA
BRANCH   4   5
ATOM      5  C   UNL A   1      33.387  30.340  27.298  1.00  0.00     0.202 C 
BRANCH   5   6
ATOM      6  C   UNL A   1      33.894  29.139  26.475  1.00  0.00     0.261 C 
BRANCH   6   7
ATOM      7  O   UNL A   1      33.534  27.816  26.890  1.00  0.00    -0.463 OA
BRANCH   7   8
ATOM      8  C   UNL A   1      32.261  27.415  26.660  1.00  0.00     0.316 C 
ATOM      9  O   UNL A   1      31.360  27.594  27.473  1.00  0.00    -0.251 OA
BRANCH   8  10
ATOM     10  C   UNL A   1      32.070  26.640  25.301  1.00  0.00     0.095 C 
ATOM     11  C   UNL A   1      33.297  26.308  24.410  1.00  0.00     0.024 C 
ATOM     12  C   UNL A   1      31.725  25.179  25.746  1.00  0.00     0.008 C 
ATOM     13  C   UNL A   1      34.105  25.243  25.136  1.00  0.00     0.002 C 
ATOM     14  C   UNL A   1      33.114  24.583  26.094  1.00  0.00     0.005 C 
ATOM     15  C   UNL A   1      31.067  24.291  24.683  1.00  0.00     0.009 C 
BRANCH  10  16
ATOM     16  C   UNL A   1      31.045  27.462  24.499  1.00  0.00    -0.030 A 
ATOM     17  C   UNL A   1      29.059  29.094  23.248  1.00  0.00    -0.045 A 
ATOM     18  C   UNL A   1      28.859  27.719  23.450  1.00  0.00     0.004 A 
ATOM     19  C   UNL A   1      30.257  29.647  23.695  1.00  0.00     0.004 A 
ATOM     20  C   UNL A   1      29.825  26.922  24.082  1.00  0.00     0.005 A 
ATOM     21  C   UNL A   1      31.232  28.841  24.290  1.00  0.00     0.005 A 
BRANCH  17  22
ATOM     22  C   UNL A   1      27.969  29.922  22.586  1.00  0.00     0.013 C 
ATOM     23  C   UNL A   1      27.528  31.066  23.504  1.00  0.00     0.012 C 
ATOM     24  C   UNL A   1      28.334  30.483  21.205  1.00  0.00     0.012 C 
ENDBRANCH  17  22
ENDBRANCH  10  16
ENDBRANCH   8  10
ENDBRANCH   7   8
ENDBRANCH   6   7
ENDBRANCH   5   6
ENDBRANCH   4   5
ENDBRANCH   3   4
ENDBRANCH   2   3
ENDBRANCH   1   2
BRANCH   1  25
ATOM     25  C   UNL A   1      33.278  35.971  29.349  1.00  0.00     0.188 C 
BRANCH  25  26
ATOM     26  C   UNL A   1      32.745  36.331  30.739  1.00  0.00     0.188 C 
BRANCH  26  27
ATOM     27  O   UNL A   1      32.683  35.202  31.603  1.00  0.00    -0.376 OA
BRANCH  27  28
ATOM     28  C   UNL A   1      33.867  34.754  32.253  1.00  0.00     0.202 C 
BRANCH  28  29
ATOM     29  C   UNL A   1      34.040  33.334  32.841  1.00  0.00     0.261 C 
BRANCH  29  30
ATOM     30  O   UNL A   1      35.114  32.511  32.364  1.00  0.00    -0.460 OA
BRANCH  30  31
ATOM     31  C   UNL A   1      36.191  32.319  33.144  1.00  0.00     0.338 C 
ATOM     32  O   UNL A   1      36.292  32.546  34.338  1.00  0.00    -0.246 OA
BRANCH  31  33
ATOM     33  C   UNL A   1      37.180  31.579  32.328  1.00  0.00     0.060 A 
ATOM     34  C   UNL A   1      38.101  30.744  32.975  1.00  0.00     0.016 A 
ATOM     35  C   UNL A   1      37.159  31.656  30.932  1.00  0.00     0.016 A 
ATOM     36  C   UNL A   1      39.016  29.999  32.231  1.00  0.00     0.010 A 
ATOM     37  C   UNL A   1      38.101  30.939  30.187  1.00  0.00     0.010 A 
ATOM     38  C   UNL A   1      39.052  30.133  30.837  1.00  0.00    -0.014 A 
BRANCH  38  39
ATOM     39  C   UNL A   1      40.234  29.634  30.096  1.00  0.00     0.031 A 
ATOM     40  C   UNL A   1      41.377  30.589  29.884  1.00  0.00     0.074 A 
ATOM     41  C   UNL A   1      40.317  28.367  29.656  1.00  0.00     0.049 A 
ATOM     42  N   UNL A   1      42.506  30.410  29.250  1.00  0.00    -0.248 NA
ATOM     43  C   UNL A   1      41.221  31.931  30.472  1.00  0.00     0.031 C 
ATOM     44  C   UNL A   1      39.299  27.336  29.843  1.00  0.00     0.029 A 
ATOM     45  N   UNL A   1      41.311  27.737  28.951  1.00  0.00    -0.354 N 
ATOM     46  C   UNL A   1      43.191  31.615  29.360  1.00  0.00     0.074 A 
ATOM     47  C   UNL A   1      42.339  32.526  30.091  1.00  0.00     0.031 C 
ATOM     48  C   UNL A   1      39.717  26.201  29.254  1.00  0.00     0.029 A 
ATOM     49  C   UNL A   1      41.016  26.436  28.624  1.00  0.00     0.049 A 
ATOM     50  H   UNL A   1      42.157  28.175  28.703  1.00  0.00     0.167 HD
ATOM     51  C   UNL A   1      44.423  31.932  28.899  1.00  0.00     0.037 A 
ATOM     52  C   UNL A   1      41.709  25.551  27.881  1.00  0.00     0.037 A 
ATOM     53  C   UNL A   1      45.262  31.027  28.163  1.00  0.00     0.049 A 
ATOM     54  C   UNL A   1      43.041  25.955  27.302  1.00  0.00     0.074 A 
ATOM     55  C   UNL A   1      46.531  31.247  27.657  1.00  0.00     0.029 A 
ATOM     56  N   UNL A   1      44.910  29.731  27.816  1.00  0.00    -0.354 N 
ATOM     57  N   UNL A   1      43.692  27.086  27.430  1.00  0.00    -0.248 NA
ATOM     58  C   UNL A   1      43.736  24.957  26.476  1.00  0.00     0.031 C 
ATOM     59  C   UNL A   1      46.924  30.104  26.956  1.00  0.00     0.029 A 
ATOM     60  C   UNL A   1      45.926  29.149  27.078  1.00  0.00     0.049 A 
ATOM     61  H   UNL A   1      44.064  29.291  28.059  1.00  0.00     0.167 HD
ATOM     62  C   UNL A   1      44.884  26.925  26.732  1.00  0.00     0.074 A 
ATOM     63  C   UNL A   1      44.871  25.582  26.191  1.00  0.00     0.031 C 
ATOM     64  C   UNL A   1      45.900  27.805  26.555  1.00  0.00     0.037 A 
BRANCH  51  65
ATOM     65  C   UNL A   1      44.913  33.326  29.151  1.00  0.00     0.057 A 
ATOM     66  C   UNL A   1      45.696  33.649  30.267  1.00  0.00     0.134 A 
ATOM     67  C   UNL A   1      44.610  34.359  28.254  1.00  0.00     0.134 A 
ATOM     68  F   UNL A   1      46.004  32.712  31.176  1.00  0.00    -0.206 F 
ATOM     69  C   UNL A   1      46.140  34.954  30.494  1.00  0.00     0.040 A 
ATOM     70  C   UNL A   1      45.072  35.660  28.455  1.00  0.00     0.040 A 
ATOM     71  F   UNL A   1      43.864  34.118  27.165  1.00  0.00    -0.206 F 
ATOM     72  C   UNL A   1      45.834  35.961  29.581  1.00  0.00     0.006 A 
ENDBRANCH  51  65
BRANCH  52  73
ATOM     73  C   UNL A   1      41.155  24.196  27.620  1.00  0.00     0.057 A 
ATOM     74  C   UNL A   1      41.650  23.067  28.282  1.00  0.00     0.134 A 
ATOM     75  C   UNL A   1      40.143  23.994  26.673  1.00  0.00     0.134 A 
ATOM     76  F   UNL A   1      42.638  23.190  29.182  1.00  0.00    -0.206 F 
ATOM     77  C   UNL A   1      41.173  21.784  28.001  1.00  0.00     0.040 A 
ATOM     78  C   UNL A   1      39.637  22.721  26.401  1.00  0.00     0.040 A 
ATOM     79  F   UNL A   1      39.626  25.033  26.001  1.00  0.00    -0.206 F 
ATOM     80  C   UNL A   1      40.159  21.610  27.059  1.00  0.00     0.006 A 
ENDBRANCH  52  73
BRANCH  64  81
ATOM     81  C   UNL A   1      47.101  27.335  25.786  1.00  0.00     0.057 A 
ATOM     82  C   UNL A   1      48.164  26.664  26.403  1.00  0.00     0.134 A 
ATOM     83  C   UNL A   1      47.170  27.515  24.397  1.00  0.00     0.134 A 
ATOM     84  F   UNL A   1      48.166  26.467  27.730  1.00  0.00    -0.206 F 
ATOM     85  C   UNL A   1      49.263  26.210  25.671  1.00  0.00     0.040 A 
ATOM     86  C   UNL A   1      48.249  27.039  23.651  1.00  0.00     0.040 A 
ATOM     87  F   UNL A   1      46.181  28.139  23.741  1.00  0.00    -0.206 F 
ATOM     88  C   UNL A   1      49.303  26.389  24.289  1.00  0.00     0.006 A 
ENDBRANCH  64  81
ENDBRANCH  38  39
ENDBRANCH  31  33
ENDBRANCH  30  31
ENDBRANCH  29  30
ENDBRANCH  28  29
ENDBRANCH  27  28
ENDBRANCH  26  27
ENDBRANCH  25  26
ENDBRANCH   1  25
TORSDOF 22
ENDMDL
MODEL 2
REMARK VINA RESULT:     -10.9      5.073     10.694
REMARK SMILES CC(C)c1ccc([C@]2(C(=O)OCCOCCOCCOCCOC(=O)c3ccc(-c4c5nc(c(-c6c(F)cccc6F)c6ccc([nH]6)c(-c6c(F)cccc6F)c6nc(c(-c7c(F)cccc7F)c7ccc4[nH]7)C=C6)C=C5)cc3)CCC[C@@H]2C)cc1
REMARK SMILES IDX 17 1 16 2 15 3 14 4 13 5 12 6 11 7 9 8 10 9 8 10 80 11 83 12
REMARK SMILES IDX 81 13 82 14 84 15 7 16 4 17 5 18 86 19 6 20 85 21 2 22 1 23
REMARK SMILES IDX 3 24 18 25 19 26 20 27 21 28 22 29 23 30 24 31 25 32 26 33
REMARK SMILES IDX 27 34 79 35 28 36 78 37 29 38 30 39 31 40 72 41 32 42 77 43
REMARK SMILES IDX 71 44 73 45 33 46 76 47 70 48 69 49 34 51 60 52 43 53 59 54
REMARK SMILES IDX 44 55 47 56 58 57 74 58 45 59 46 60 57 62 75 63 48 64 35 65
REMARK SMILES IDX 36 66 41 67 37 68 38 69 40 70 42 71 39 72 61 73 62 74 67 75
REMARK SMILES IDX 63 76 64 77 66 78 68 79 65 80 49 81 50 82 55 83 51 84 52 85
REMARK SMILES IDX 54 86 56 87 53 88
REMARK H PARENT 73 50 47 61
REMARK Flexibility Score: inf
ROOT
ATOM      1  O   UNL A   1      41.792  21.113  26.680  1.00  0.00    -0.377 OA
ENDROOT
BRANCH   1   2
ATOM      2  C   UNL A   1      40.529  21.737  26.797  1.00  0.00     0.188 C 
BRANCH   2   3
ATOM      3  C   UNL A   1      39.258  21.256  26.072  1.00  0.00     0.188 C 
BRANCH   3   4
ATOM      4  O   UNL A   1      38.707  22.226  25.205  1.00  0.00    -0.376 OA
BRANCH   4   5
ATOM      5  C   UNL A   1      37.315  22.403  25.049  1.00  0.00     0.202 C 
BRANCH   5   6
ATOM      6  C   UNL A   1      36.602  22.815  23.746  1.00  0.00     0.261 C 
BRANCH   6   7
ATOM      7  O   UNL A   1      35.648  23.882  23.788  1.00  0.00    -0.463 OA
BRANCH   7   8
ATOM      8  C   UNL A   1      34.397  23.619  23.341  1.00  0.00     0.316 C 
ATOM      9  O   UNL A   1      34.062  23.815  22.176  1.00  0.00    -0.251 OA
BRANCH   8  10
ATOM     10  C   UNL A   1      33.410  23.116  24.461  1.00  0.00     0.095 C 
ATOM     11  C   UNL A   1      33.655  23.492  25.946  1.00  0.00     0.024 C 
ATOM     12  C   UNL A   1      32.116  23.967  24.233  1.00  0.00     0.008 C 
ATOM     13  C   UNL A   1      33.373  24.981  26.085  1.00  0.00     0.002 C 
ATOM     14  C   UNL A   1      32.467  25.321  24.904  1.00  0.00     0.005 C 
ATOM     15  C   UNL A   1      30.833  23.425  24.874  1.00  0.00     0.009 C 
BRANCH  10  16
ATOM     16  C   UNL A   1      33.360  21.584  24.308  1.00  0.00    -0.030 A 
ATOM     17  C   UNL A   1      33.024  18.750  24.146  1.00  0.00    -0.045 A 
ATOM     18  C   UNL A   1      33.857  19.337  25.112  1.00  0.00     0.004 A 
ATOM     19  C   UNL A   1      32.348  19.599  23.273  1.00  0.00     0.004 A 
ATOM     20  C   UNL A   1      34.006  20.728  25.205  1.00  0.00     0.005 A 
ATOM     21  C   UNL A   1      32.529  20.983  23.344  1.00  0.00     0.005 A 
BRANCH  17  22
ATOM     22  C   UNL A   1      32.871  17.238  24.106  1.00  0.00     0.013 C 
ATOM     23  C   UNL A   1      33.963  16.608  23.236  1.00  0.00     0.012 C 
ATOM     24  C   UNL A   1      32.852  16.555  25.481  1.00  0.00     0.012 C 
ENDBRANCH  17  22
ENDBRANCH  10  16
ENDBRANCH   8  10
ENDBRANCH   7   8
ENDBRANCH   6   7
ENDBRANCH   5   6
ENDBRANCH   4   5
ENDBRANCH   3   4
ENDBRANCH   2   3
ENDBRANCH   1   2
BRANCH   1  25
ATOM     25  C   UNL A   1      41.797  19.832  26.086  1.00  0.00     0.188 C 
BRANCH  25  26
ATOM     26  C   UNL A   1      43.144  19.574  25.403  1.00  0.00     0.188 C 
BRANCH  26  27
ATOM     27  O   UNL A   1      44.112  20.565  25.726  1.00  0.00    -0.376 OA
BRANCH  27  28
ATOM     28  C   UNL A   1      44.796  21.242  24.678  1.00  0.00     0.202 C 
BRANCH  28  29
ATOM     29  C   UNL A   1      44.212  22.452  23.912  1.00  0.00     0.261 C 
BRANCH  29  30
ATOM     30  O   UNL A   1      43.669  23.551  24.658  1.00  0.00    -0.460 OA
BRANCH  30  31
ATOM     31  C   UNL A   1      44.487  24.536  25.064  1.00  0.00     0.338 C 
ATOM     32  O   UNL A   1      45.589  24.816  24.623  1.00  0.00    -0.246 OA
BRANCH  31  33
ATOM     33  C   UNL A   1      43.713  25.364  26.018  1.00  0.00     0.060 A 
ATOM     34  C   UNL A   1      43.942  26.747  26.054  1.00  0.00     0.016 A 
ATOM     35  C   UNL A   1      42.724  24.793  26.825  1.00  0.00     0.016 A 
ATOM     36  C   UNL A   1      43.197  27.559  26.908  1.00  0.00     0.010 A 
ATOM     37  C   UNL A   1      42.004  25.601  27.710  1.00  0.00     0.010 A 
ATOM     38  C   UNL A   1      42.261  26.982  27.777  1.00  0.00    -0.014 A 
BRANCH  38  39
ATOM     39  C   UNL A   1      41.745  27.780  28.913  1.00  0.00     0.031 A 
ATOM     40  C   UNL A   1      42.485  27.690  30.220  1.00  0.00     0.074 A 
ATOM     41  C   UNL A   1      40.680  28.590  28.789  1.00  0.00     0.049 A 
ATOM     42  N   UNL A   1      42.226  28.263  31.366  1.00  0.00    -0.248 NA
ATOM     43  C   UNL A   1      43.684  26.835  30.230  1.00  0.00     0.031 C 
ATOM     44  C   UNL A   1      39.911  28.800  27.565  1.00  0.00     0.029 A 
ATOM     45  N   UNL A   1      40.058  29.385  29.720  1.00  0.00    -0.354 N 
ATOM     46  C   UNL A   1      43.226  27.835  32.231  1.00  0.00     0.074 A 
ATOM     47  C   UNL A   1      44.076  26.930  31.490  1.00  0.00     0.031 C 
ATOM     48  C   UNL A   1      38.910  29.661  27.824  1.00  0.00     0.029 A 
ATOM     49  C   UNL A   1      38.950  30.036  29.237  1.00  0.00     0.049 A 
ATOM     50  H   UNL A   1      40.377  29.480  30.647  1.00  0.00     0.167 HD
ATOM     51  C   UNL A   1      43.422  28.171  33.527  1.00  0.00     0.037 A 
ATOM     52  C   UNL A   1      38.062  30.824  29.874  1.00  0.00     0.037 A 
ATOM     53  C   UNL A   1      42.569  29.062  34.264  1.00  0.00     0.049 A 
ATOM     54  C   UNL A   1      38.251  31.114  31.341  1.00  0.00     0.074 A 
ATOM     55  C   UNL A   1      42.684  29.474  35.580  1.00  0.00     0.029 A 
ATOM     56  N   UNL A   1      41.432  29.669  33.751  1.00  0.00    -0.354 N 
ATOM     57  N   UNL A   1      39.211  30.726  32.146  1.00  0.00    -0.248 NA
ATOM     58  C   UNL A   1      37.233  31.955  31.988  1.00  0.00     0.031 C 
ATOM     59  C   UNL A   1      41.587  30.286  35.879  1.00  0.00     0.029 A 
ATOM     60  C   UNL A   1      40.821  30.430  34.732  1.00  0.00     0.049 A 
ATOM     61  H   UNL A   1      41.108  29.573  32.826  1.00  0.00     0.167 HD
ATOM     62  C   UNL A   1      38.932  31.301  33.382  1.00  0.00     0.074 A 
ATOM     63  C   UNL A   1      37.718  32.074  33.217  1.00  0.00     0.031 C 
ATOM     64  C   UNL A   1      39.617  31.202  34.548  1.00  0.00     0.037 A 
BRANCH  51  65
ATOM     65  C   UNL A   1      44.586  27.541  34.231  1.00  0.00     0.057 A 
ATOM     66  C   UNL A   1      44.500  26.274  34.824  1.00  0.00     0.134 A 
ATOM     67  C   UNL A   1      45.817  28.205  34.305  1.00  0.00     0.134 A 
ATOM     68  F   UNL A   1      43.344  25.594  34.808  1.00  0.00    -0.206 F 
ATOM     69  C   UNL A   1      45.589  25.702  35.485  1.00  0.00     0.040 A 
ATOM     70  C   UNL A   1      46.921  27.631  34.937  1.00  0.00     0.040 A 
ATOM     71  F   UNL A   1      45.968  29.422  33.759  1.00  0.00    -0.206 F 
ATOM     72  C   UNL A   1      46.806  26.378  35.534  1.00  0.00     0.006 A 
ENDBRANCH  51  65
BRANCH  52  73
ATOM     73  C   UNL A   1      36.896  31.384  29.140  1.00  0.00     0.057 A 
ATOM     74  C   UNL A   1      35.778  30.599  28.840  1.00  0.00     0.134 A 
ATOM     75  C   UNL A   1      36.890  32.710  28.690  1.00  0.00     0.134 A 
ATOM     76  F   UNL A   1      35.734  29.313  29.221  1.00  0.00    -0.206 F 
ATOM     77  C   UNL A   1      34.703  31.103  28.103  1.00  0.00     0.040 A 
ATOM     78  C   UNL A   1      35.812  33.236  27.975  1.00  0.00     0.040 A 
ATOM     79  F   UNL A   1      37.931  33.517  28.941  1.00  0.00    -0.206 F 
ATOM     80  C   UNL A   1      34.718  32.429  27.672  1.00  0.00     0.006 A 
ENDBRANCH  52  73
BRANCH  64  81
ATOM     81  C   UNL A   1      39.103  31.980  35.724  1.00  0.00     0.057 A 
ATOM     82  C   UNL A   1      38.255  31.409  36.681  1.00  0.00     0.134 A 
ATOM     83  C   UNL A   1      39.503  33.308  35.927  1.00  0.00     0.134 A 
ATOM     84  F   UNL A   1      37.826  30.145  36.542  1.00  0.00    -0.206 F 
ATOM     85  C   UNL A   1      37.804  32.136  37.785  1.00  0.00     0.040 A 
ATOM     86  C   UNL A   1      39.084  34.036  37.042  1.00  0.00     0.040 A 
ATOM     87  F   UNL A   1      40.324  33.913  35.057  1.00  0.00    -0.206 F 
ATOM     88  C   UNL A   1      38.227  33.451  37.971  1.00  0.00     0.006 A 
ENDBRANCH  64  81
ENDBRANCH  38  39
ENDBRANCH  31  33
ENDBRANCH  30  31
ENDBRANCH  29  30
ENDBRANCH  28  29
ENDBRANCH  27  28
ENDBRANCH  26  27
ENDBRANCH  25  26
ENDBRANCH   1  25
TORSDOF 22
ENDMDL
MODEL 3
REMARK VINA RESULT:     -10.8      0.935      3.192
REMARK SMILES CC(C)c1ccc([C@]2(C(=O)OCCOCCOCCOCCOC(=O)c3ccc(-c4c5nc(c(-c6c(F)cccc6F)c6ccc([nH]6)c(-c6c(F)cccc6F)c6nc(c(-c7c(F)cccc7F)c7ccc4[nH]7)C=C6)C=C5)cc3)CCC[C@@H]2C)cc1
REMARK SMILES IDX 17 1 16 2 15 3 14 4 13 5 12 6 11 7 9 8 10 9 8 10 80 11 83 12
REMARK SMILES IDX 81 13 82 14 84 15 7 16 4 17 5 18 86 19 6 20 85 21 2 22 1 23
REMARK SMILES IDX 3 24 18 25 19 26 20 27 21 28 22 29 23 30 24 31 25 32 26 33
REMARK SMILES IDX 27 34 79 35 28 36 78 37 29 38 30 39 31 40 72 41 32 42 77 43
REMARK SMILES IDX 71 44 73 45 33 46 76 47 70 48 69 49 34 51 60 52 43 53 59 54
REMARK SMILES IDX 44 55 47 56 58 57 74 58 45 59 46 60 57 62 75 63 48 64 35 65
REMARK SMILES IDX 36 66 41 67 37 68 38 69 40 70 42 71 39 72 61 73 62 74 67 75
REMARK SMILES IDX 63 76 64 77 66 78 68 79 65 80 49 81 50 82 55 83 51 84 52 85
REMARK SMILES IDX 54 86 56 87 53 88
REMARK H PARENT 73 50 47 61
REMARK Flexibility Score: inf
ROOT
ATOM      1  O   UNL A   1      32.642  34.588  28.726  1.00  0.00    -0.377 OA
ENDROOT
BRANCH   1   2
ATOM      2  C   UNL A   1      33.165  33.627  27.831  1.00  0.00     0.188 C 
BRANCH   2   3
ATOM      3  C   UNL A   1      34.180  32.538  28.230  1.00  0.00     0.188 C 
BRANCH   3   4
ATOM      4  O   UNL A   1      33.797  31.241  27.822  1.00  0.00    -0.376 OA
BRANCH   4   5
ATOM      5  C   UNL A   1      34.735  30.214  27.577  1.00  0.00     0.202 C 
BRANCH   5   6
ATOM      6  C   UNL A   1      34.516  28.999  26.654  1.00  0.00     0.261 C 
BRANCH   6   7
ATOM      7  O   UNL A   1      33.387  28.994  25.773  1.00  0.00    -0.463 OA
BRANCH   7   8
ATOM      8  C   UNL A   1      33.534  28.384  24.573  1.00  0.00     0.316 C 
ATOM      9  O   UNL A   1      34.482  28.619  23.829  1.00  0.00    -0.251 OA
BRANCH   8  10
ATOM     10  C   UNL A   1      32.350  27.414  24.199  1.00  0.00     0.095 C 
ATOM     11  C   UNL A   1      30.909  27.711  24.694  1.00  0.00     0.024 C 
ATOM     12  C   UNL A   1      32.113  27.679  22.674  1.00  0.00     0.008 C 
ATOM     13  C   UNL A   1      30.416  28.933  23.933  1.00  0.00     0.002 C 
ATOM     14  C   UNL A   1      31.277  28.986  22.673  1.00  0.00     0.005 C 
ATOM     15  C   UNL A   1      31.330  26.599  21.918  1.00  0.00     0.009 C 
BRANCH  10  16
ATOM     16  C   UNL A   1      32.793  26.020  24.678  1.00  0.00    -0.030 A 
ATOM     17  C   UNL A   1      33.747  23.556  25.770  1.00  0.00    -0.045 A 
ATOM     18  C   UNL A   1      34.342  24.138  24.640  1.00  0.00     0.004 A 
ATOM     19  C   UNL A   1      32.679  24.230  26.358  1.00  0.00     0.004 A 
ATOM     20  C   UNL A   1      33.888  25.356  24.116  1.00  0.00     0.005 A 
ATOM     21  C   UNL A   1      32.205  25.425  25.809  1.00  0.00     0.005 A 
BRANCH  17  22
ATOM     22  C   UNL A   1      34.296  22.249  26.319  1.00  0.00     0.013 C 
ATOM     23  C   UNL A   1      35.811  22.169  26.108  1.00  0.00     0.012 C 
ATOM     24  C   UNL A   1      33.968  21.981  27.795  1.00  0.00     0.012 C 
ENDBRANCH  17  22
ENDBRANCH  10  16
ENDBRANCH   8  10
ENDBRANCH   7   8
ENDBRANCH   6   7
ENDBRANCH   5   6
ENDBRANCH   4   5
ENDBRANCH   3   4
ENDBRANCH   2   3
ENDBRANCH   1   2
BRANCH   1  25
ATOM     25  C   UNL A   1      33.569  35.517  29.248  1.00  0.00     0.188 C 
BRANCH  25  26
ATOM     26  C   UNL A   1      32.980  36.210  30.481  1.00  0.00     0.188 C 
BRANCH  26  27
ATOM     27  O   UNL A   1      32.993  35.372  31.631  1.00  0.00    -0.376 OA
BRANCH  27  28
ATOM     28  C   UNL A   1      34.128  34.552  31.885  1.00  0.00     0.202 C 
BRANCH  28  29
ATOM     29  C   UNL A   1      34.068  33.221  32.671  1.00  0.00     0.261 C 
BRANCH  29  30
ATOM     30  O   UNL A   1      35.061  32.218  32.414  1.00  0.00    -0.460 OA
BRANCH  30  31
ATOM     31  C   UNL A   1      36.224  32.259  33.086  1.00  0.00     0.338 C 
ATOM     32  O   UNL A   1      36.412  32.663  34.220  1.00  0.00    -0.246 OA
BRANCH  31  33
ATOM     33  C   UNL A   1      37.213  31.522  32.266  1.00  0.00     0.060 A 
ATOM     34  C   UNL A   1      38.151  30.704  32.911  1.00  0.00     0.016 A 
ATOM     35  C   UNL A   1      37.177  31.586  30.869  1.00  0.00     0.016 A 
ATOM     36  C   UNL A   1      39.066  29.963  32.164  1.00  0.00     0.010 A 
ATOM     37  C   UNL A   1      38.119  30.873  30.121  1.00  0.00     0.010 A 
ATOM     38  C   UNL A   1      39.086  30.084  30.768  1.00  0.00    -0.014 A 
BRANCH  38  39
ATOM     39  C   UNL A   1      40.266  29.592  30.019  1.00  0.00     0.031 A 
ATOM     40  C   UNL A   1      41.404  30.551  29.805  1.00  0.00     0.074 A 
ATOM     41  C   UNL A   1      40.351  28.326  29.575  1.00  0.00     0.049 A 
ATOM     42  N   UNL A   1      42.530  30.379  29.164  1.00  0.00    -0.248 NA
ATOM     43  C   UNL A   1      41.246  31.891  30.396  1.00  0.00     0.031 C 
ATOM     44  C   UNL A   1      39.338  27.291  29.765  1.00  0.00     0.029 A 
ATOM     45  N   UNL A   1      41.344  27.701  28.863  1.00  0.00    -0.354 N 
ATOM     46  C   UNL A   1      43.211  31.586  29.273  1.00  0.00     0.074 A 
ATOM     47  C   UNL A   1      42.360  32.492  30.012  1.00  0.00     0.031 C 
ATOM     48  C   UNL A   1      39.758  26.159  29.170  1.00  0.00     0.029 A 
ATOM     49  C   UNL A   1      41.052  26.401  28.534  1.00  0.00     0.049 A 
ATOM     50  H   UNL A   1      42.187  28.144  28.612  1.00  0.00     0.167 HD
ATOM     51  C   UNL A   1      44.439  31.909  28.807  1.00  0.00     0.037 A 
ATOM     52  C   UNL A   1      41.744  25.520  27.785  1.00  0.00     0.037 A 
ATOM     53  C   UNL A   1      45.278  31.010  28.063  1.00  0.00     0.049 A 
ATOM     54  C   UNL A   1      43.072  25.931  27.199  1.00  0.00     0.074 A 
ATOM     55  C   UNL A   1      46.543  31.236  27.551  1.00  0.00     0.029 A 
ATOM     56  N   UNL A   1      44.929  29.713  27.714  1.00  0.00    -0.354 N 
ATOM     57  N   UNL A   1      43.719  27.065  27.327  1.00  0.00    -0.248 NA
ATOM     58  C   UNL A   1      43.766  24.938  26.367  1.00  0.00     0.031 C 
ATOM     59  C   UNL A   1      46.937  30.096  26.844  1.00  0.00     0.029 A 
ATOM     60  C   UNL A   1      45.943  29.137  26.969  1.00  0.00     0.049 A 
ATOM     61  H   UNL A   1      44.085  29.269  27.961  1.00  0.00     0.167 HD
ATOM     62  C   UNL A   1      44.908  26.910  26.622  1.00  0.00     0.074 A 
ATOM     63  C   UNL A   1      44.897  25.568  26.077  1.00  0.00     0.031 C 
ATOM     64  C   UNL A   1      45.919  27.795  26.442  1.00  0.00     0.037 A 
BRANCH  51  65
ATOM     65  C   UNL A   1      44.926  33.304  29.060  1.00  0.00     0.057 A 
ATOM     66  C   UNL A   1      45.701  33.630  30.180  1.00  0.00     0.134 A 
ATOM     67  C   UNL A   1      44.626  34.335  28.160  1.00  0.00     0.134 A 
ATOM     68  F   UNL A   1      46.005  32.694  31.091  1.00  0.00    -0.206 F 
ATOM     69  C   UNL A   1      46.141  34.936  30.408  1.00  0.00     0.040 A 
ATOM     70  C   UNL A   1      45.085  35.638  28.362  1.00  0.00     0.040 A 
ATOM     71  F   UNL A   1      43.886  34.092  27.066  1.00  0.00    -0.206 F 
ATOM     72  C   UNL A   1      45.839  35.942  29.492  1.00  0.00     0.006 A 
ENDBRANCH  51  65
BRANCH  52  73
ATOM     73  C   UNL A   1      41.194  24.164  27.522  1.00  0.00     0.057 A 
ATOM     74  C   UNL A   1      40.163  23.962  26.598  1.00  0.00     0.134 A 
ATOM     75  C   UNL A   1      41.662  23.043  28.219  1.00  0.00     0.134 A 
ATOM     76  F   UNL A   1      39.653  25.000  25.918  1.00  0.00    -0.206 F 
ATOM     77  C   UNL A   1      39.604  22.699  26.388  1.00  0.00     0.040 A 
ATOM     78  C   UNL A   1      41.131  21.770  27.999  1.00  0.00     0.040 A 
ATOM     79  F   UNL A   1      42.647  23.166  29.120  1.00  0.00    -0.206 F 
ATOM     80  C   UNL A   1      40.092  21.597  27.088  1.00  0.00     0.006 A 
ENDBRANCH  52  73
BRANCH  64  81
ATOM     81  C   UNL A   1      47.118  27.332  25.665  1.00  0.00     0.057 A 
ATOM     82  C   UNL A   1      47.231  27.531  24.283  1.00  0.00     0.134 A 
ATOM     83  C   UNL A   1      48.196  26.721  26.320  1.00  0.00     0.134 A 
ATOM     84  F   UNL A   1      46.231  28.101  23.594  1.00  0.00    -0.206 F 
ATOM     85  C   UNL A   1      48.363  27.118  23.577  1.00  0.00     0.040 A 
ATOM     86  C   UNL A   1      49.345  26.331  25.629  1.00  0.00     0.040 A 
ATOM     87  F   UNL A   1      48.159  26.511  27.643  1.00  0.00    -0.206 F 
ATOM     88  C   UNL A   1      49.427  26.524  24.252  1.00  0.00     0.006 A 
ENDBRANCH  64  81
ENDBRANCH  38  39
ENDBRANCH  31  33
ENDBRANCH  30  31
ENDBRANCH  29  30
ENDBRANCH  28  29
ENDBRANCH  27  28
ENDBRANCH  26  27
ENDBRANCH  25  26
ENDBRANCH   1  25
TORSDOF 22
ENDMDL
