MODEL 1
REMARK VINA RESULT:      -9.0      0.000      0.000
REMARK SMILES CC[C@@](C)(NC(=O)N(C)[C@@H](C)C(C)C)C(=O)OCCOCCOCCOCCOC(=O)c1ccc(-c2c3nc(c(-c4c(F)cccc4F)c4ccc([nH]4)c(-c4c(F)cccc4F)c4nc(c(-c5c(F)cccc5F)c5ccc2[nH]5)C=C4)C=C3)cc1
REMARK SMILES IDX 22 1 21 2 20 3 19 4 18 5 17 6 15 7 16 8 3 9 4 10 2 11 1 12
REMARK SMILES IDX 5 13 6 14 7 16 8 17 9 18 10 19 11 20 12 21 13 22 14 23 23 24
REMARK SMILES IDX 24 25 25 26 26 27 27 28 28 29 29 30 30 31 31 32 32 33 33 34
REMARK SMILES IDX 85 35 34 36 84 37 35 38 36 39 37 40 78 41 38 42 83 43 77 44
REMARK SMILES IDX 79 45 39 46 82 47 76 48 75 49 40 51 66 52 49 53 65 54 50 55
REMARK SMILES IDX 53 56 64 57 80 58 51 59 52 60 63 62 81 63 54 64 41 65 42 66
REMARK SMILES IDX 47 67 43 68 44 69 46 70 48 71 45 72 67 73 68 74 73 75 69 76
REMARK SMILES IDX 70 77 72 78 74 79 71 80 55 81 56 82 61 83 57 84 58 85 60 86
REMARK SMILES IDX 62 87 59 88
REMARK H PARENT 5 15 79 50 53 61
REMARK Flexibility Score: inf
ROOT
ATOM      1  C   UNL A   1      37.282  21.983  25.252  1.00  0.00     0.188 C 
ENDROOT
BRANCH   1   2
ATOM      2  C   UNL A   1      35.919  21.418  25.660  1.00  0.00     0.188 C 
BRANCH   2   3
ATOM      3  O   UNL A   1      35.116  22.117  26.610  1.00  0.00    -0.376 OA
BRANCH   3   4
ATOM      4  C   UNL A   1      34.022  21.468  27.243  1.00  0.00     0.202 C 
BRANCH   4   5
ATOM      5  C   UNL A   1      32.786  22.349  27.051  1.00  0.00     0.261 C 
BRANCH   5   6
ATOM      6  O   UNL A   1      33.193  23.564  26.401  1.00  0.00    -0.462 OA
BRANCH   6   7
ATOM      7  C   UNL A   1      32.455  24.029  25.375  1.00  0.00     0.331 C 
ATOM      8  O   UNL A   1      31.234  23.974  25.346  1.00  0.00    -0.249 OA
BRANCH   7   9
ATOM      9  C   UNL A   1      33.351  24.569  24.210  1.00  0.00     0.136 C 
ATOM     10  C   UNL A   1      34.617  25.054  24.973  1.00  0.00     0.047 C 
BRANCH   9  11
ATOM     11  C   UNL A   1      33.806  23.422  23.239  1.00  0.00     0.037 C 
ATOM     12  C   UNL A   1      32.750  22.381  22.843  1.00  0.00     0.007 C 
ENDBRANCH   9  11
BRANCH   9  13
ATOM     13  N   UNL A   1      32.880  25.800  23.413  1.00  0.00    -0.322 N 
ATOM     14  C   UNL A   1      31.679  26.196  22.860  1.00  0.00     0.318 C 
ATOM     15  H   UNL A   1      33.601  26.453  23.263  1.00  0.00     0.166 HD
ATOM     16  O   UNL A   1      31.599  26.050  21.640  1.00  0.00    -0.249 OA
BRANCH  14  17
ATOM     17  N   UNL A   1      30.822  27.036  23.599  1.00  0.00    -0.325 N 
ATOM     18  C   UNL A   1      29.559  26.506  24.086  1.00  0.00     0.149 C 
BRANCH  17  19
ATOM     19  C   UNL A   1      31.336  28.181  24.511  1.00  0.00     0.086 C 
ATOM     20  C   UNL A   1      30.632  29.414  23.893  1.00  0.00     0.031 C 
BRANCH  19  21
ATOM     21  C   UNL A   1      31.882  27.837  26.085  1.00  0.00     0.005 C 
ATOM     22  C   UNL A   1      33.382  28.216  26.224  1.00  0.00     0.009 C 
ATOM     23  C   UNL A   1      31.423  28.109  27.610  1.00  0.00     0.009 C 
ENDBRANCH  19  21
ENDBRANCH  17  19
ENDBRANCH  14  17
ENDBRANCH   9  13
ENDBRANCH   7   9
ENDBRANCH   6   7
ENDBRANCH   5   6
ENDBRANCH   4   5
ENDBRANCH   3   4
ENDBRANCH   2   3
ENDBRANCH   1   2
BRANCH   1  24
ATOM     24  O   UNL A   1      37.584  23.248  25.809  1.00  0.00    -0.377 OA
BRANCH  24  25
ATOM     25  C   UNL A   1      38.870  23.380  26.398  1.00  0.00     0.188 C 
BRANCH  25  26
ATOM     26  C   UNL A   1      39.750  22.093  26.446  1.00  0.00     0.188 C 
BRANCH  26  27
ATOM     27  O   UNL A   1      41.073  22.136  27.040  1.00  0.00    -0.376 OA
BRANCH  27  28
ATOM     28  C   UNL A   1      42.202  21.821  26.192  1.00  0.00     0.202 C 
BRANCH  28  29
ATOM     29  C   UNL A   1      42.960  23.055  25.431  1.00  0.00     0.261 C 
BRANCH  29  30
ATOM     30  O   UNL A   1      42.296  24.406  25.397  1.00  0.00    -0.460 OA
BRANCH  30  31
ATOM     31  C   UNL A   1      42.939  25.608  25.657  1.00  0.00     0.338 C 
ATOM     32  O   UNL A   1      43.842  26.057  24.972  1.00  0.00    -0.246 OA
BRANCH  31  33
ATOM     33  C   UNL A   1      42.468  26.360  26.943  1.00  0.00     0.060 A 
ATOM     34  C   UNL A   1      42.983  27.591  27.396  1.00  0.00     0.016 A 
ATOM     35  C   UNL A   1      41.446  25.844  27.745  1.00  0.00     0.016 A 
ATOM     36  C   UNL A   1      42.484  28.346  28.473  1.00  0.00     0.010 A 
ATOM     37  C   UNL A   1      40.946  26.573  28.868  1.00  0.00     0.010 A 
ATOM     38  C   UNL A   1      41.447  27.842  29.228  1.00  0.00    -0.014 A 
BRANCH  38  39
ATOM     39  C   UNL A   1      41.060  28.516  30.499  1.00  0.00     0.031 A 
ATOM     40  C   UNL A   1      39.886  29.445  30.436  1.00  0.00     0.074 A 
ATOM     41  C   UNL A   1      41.694  28.320  31.673  1.00  0.00     0.049 A 
ATOM     42  N   UNL A   1      39.541  30.417  31.235  1.00  0.00    -0.248 NA
ATOM     43  C   UNL A   1      38.988  29.256  29.285  1.00  0.00     0.031 C 
ATOM     44  C   UNL A   1      42.723  27.314  31.934  1.00  0.00     0.029 A 
ATOM     45  N   UNL A   1      41.582  28.997  32.868  1.00  0.00    -0.354 N 
ATOM     46  C   UNL A   1      38.443  31.019  30.630  1.00  0.00     0.074 A 
ATOM     47  C   UNL A   1      38.163  30.281  29.419  1.00  0.00     0.031 C 
ATOM     48  C   UNL A   1      43.194  27.483  33.185  1.00  0.00     0.029 A 
ATOM     49  C   UNL A   1      42.545  28.646  33.789  1.00  0.00     0.049 A 
ATOM     50  H   UNL A   1      40.883  29.666  33.046  1.00  0.00     0.167 HD
ATOM     51  C   UNL A   1      37.758  32.112  31.040  1.00  0.00     0.037 A 
ATOM     52  C   UNL A   1      42.899  29.240  34.949  1.00  0.00     0.037 A 
ATOM     53  C   UNL A   1      38.055  32.812  32.261  1.00  0.00     0.049 A 
ATOM     54  C   UNL A   1      42.178  30.500  35.365  1.00  0.00     0.074 A 
ATOM     55  C   UNL A   1      37.459  33.947  32.780  1.00  0.00     0.029 A 
ATOM     56  N   UNL A   1      39.040  32.427  33.162  1.00  0.00    -0.354 N 
ATOM     57  N   UNL A   1      41.206  31.136  34.752  1.00  0.00    -0.248 NA
ATOM     58  C   UNL A   1      42.607  31.134  36.620  1.00  0.00     0.031 C 
ATOM     59  C   UNL A   1      38.111  34.269  33.977  1.00  0.00     0.029 A 
ATOM     60  C   UNL A   1      39.076  33.304  34.230  1.00  0.00     0.049 A 
ATOM     61  H   UNL A   1      39.627  31.644  33.054  1.00  0.00     0.167 HD
ATOM     62  C   UNL A   1      40.889  32.225  35.556  1.00  0.00     0.074 A 
ATOM     63  C   UNL A   1      41.768  32.158  36.707  1.00  0.00     0.031 C 
ATOM     64  C   UNL A   1      39.958  33.194  35.366  1.00  0.00     0.037 A 
BRANCH  51  65
ATOM     65  C   UNL A   1      36.703  32.645  30.111  1.00  0.00     0.057 A 
ATOM     66  C   UNL A   1      35.344  32.332  30.254  1.00  0.00     0.134 A 
ATOM     67  C   UNL A   1      37.064  33.442  29.016  1.00  0.00     0.134 A 
ATOM     68  F   UNL A   1      34.930  31.551  31.264  1.00  0.00    -0.206 F 
ATOM     69  C   UNL A   1      34.393  32.751  29.320  1.00  0.00     0.040 A 
ATOM     70  C   UNL A   1      36.118  33.896  28.095  1.00  0.00     0.040 A 
ATOM     71  F   UNL A   1      38.346  33.783  28.813  1.00  0.00    -0.206 F 
ATOM     72  C   UNL A   1      34.780  33.538  28.237  1.00  0.00     0.006 A 
ENDBRANCH  51  65
BRANCH  52  73
ATOM     73  C   UNL A   1      44.017  28.692  35.772  1.00  0.00     0.057 A 
ATOM     74  C   UNL A   1      45.331  29.148  35.606  1.00  0.00     0.134 A 
ATOM     75  C   UNL A   1      43.806  27.702  36.741  1.00  0.00     0.134 A 
ATOM     76  F   UNL A   1      45.614  30.065  34.669  1.00  0.00    -0.206 F 
ATOM     77  C   UNL A   1      46.389  28.649  36.374  1.00  0.00     0.040 A 
ATOM     78  C   UNL A   1      44.849  27.212  37.533  1.00  0.00     0.040 A 
ATOM     79  F   UNL A   1      42.578  27.206  36.946  1.00  0.00    -0.206 F 
ATOM     80  C   UNL A   1      46.146  27.685  37.350  1.00  0.00     0.006 A 
ENDBRANCH  52  73
BRANCH  64  81
ATOM     81  C   UNL A   1      39.807  34.220  36.451  1.00  0.00     0.057 A 
ATOM     82  C   UNL A   1      38.937  34.038  37.533  1.00  0.00     0.134 A 
ATOM     83  C   UNL A   1      40.590  35.382  36.435  1.00  0.00     0.134 A 
ATOM     84  F   UNL A   1      38.154  32.951  37.600  1.00  0.00    -0.206 F 
ATOM     85  C   UNL A   1      38.834  34.989  38.549  1.00  0.00     0.040 A 
ATOM     86  C   UNL A   1      40.514  36.326  37.458  1.00  0.00     0.040 A 
ATOM     87  F   UNL A   1      41.452  35.609  35.432  1.00  0.00    -0.206 F 
ATOM     88  C   UNL A   1      39.630  36.134  38.517  1.00  0.00     0.006 A 
ENDBRANCH  64  81
ENDBRANCH  38  39
ENDBRANCH  31  33
ENDBRANCH  30  31
ENDBRANCH  29  30
ENDBRANCH  28  29
ENDBRANCH  27  28
ENDBRANCH  26  27
ENDBRANCH  25  26
ENDBRANCH  24  25
ENDBRANCH   1  24
TORSDOF 25
ENDMDL
MODEL 2
REMARK VINA RESULT:      -8.9      3.470      9.013
REMARK SMILES CC[C@@](C)(NC(=O)N(C)[C@@H](C)C(C)C)C(=O)OCCOCCOCCOCCOC(=O)c1ccc(-c2c3nc(c(-c4c(F)cccc4F)c4ccc([nH]4)c(-c4c(F)cccc4F)c4nc(c(-c5c(F)cccc5F)c5ccc2[nH]5)C=C4)C=C3)cc1
REMARK SMILES IDX 22 1 21 2 20 3 19 4 18 5 17 6 15 7 16 8 3 9 4 10 2 11 1 12
REMARK SMILES IDX 5 13 6 14 7 16 8 17 9 18 10 19 11 20 12 21 13 22 14 23 23 24
REMARK SMILES IDX 24 25 25 26 26 27 27 28 28 29 29 30 30 31 31 32 32 33 33 34
REMARK SMILES IDX 85 35 34 36 84 37 35 38 36 39 37 40 78 41 38 42 83 43 77 44
REMARK SMILES IDX 79 45 39 46 82 47 76 48 75 49 40 51 66 52 49 53 65 54 50 55
REMARK SMILES IDX 53 56 64 57 80 58 51 59 52 60 63 62 81 63 54 64 41 65 42 66
REMARK SMILES IDX 47 67 43 68 44 69 46 70 48 71 45 72 67 73 68 74 73 75 69 76
REMARK SMILES IDX 70 77 72 78 74 79 71 80 55 81 56 82 61 83 57 84 58 85 60 86
REMARK SMILES IDX 62 87 59 88
REMARK H PARENT 5 15 79 50 53 61
REMARK Flexibility Score: inf
ROOT
ATOM      1  C   UNL A   1      34.227  30.931  27.032  1.00  0.00     0.188 C 
ENDROOT
BRANCH   1   2
ATOM      2  C   UNL A   1      33.990  29.574  27.700  1.00  0.00     0.188 C 
BRANCH   2   3
ATOM      3  O   UNL A   1      33.078  28.645  27.118  1.00  0.00    -0.376 OA
BRANCH   3   4
ATOM      4  C   UNL A   1      31.683  28.753  27.368  1.00  0.00     0.202 C 
BRANCH   4   5
ATOM      5  C   UNL A   1      31.098  27.340  27.352  1.00  0.00     0.261 C 
BRANCH   5   6
ATOM      6  O   UNL A   1      31.502  26.697  26.131  1.00  0.00    -0.462 OA
BRANCH   6   7
ATOM      7  C   UNL A   1      31.101  25.433  25.901  1.00  0.00     0.331 C 
ATOM      8  O   UNL A   1      30.132  24.924  26.448  1.00  0.00    -0.249 OA
BRANCH   7   9
ATOM      9  C   UNL A   1      32.065  24.685  24.920  1.00  0.00     0.136 C 
ATOM     10  C   UNL A   1      31.390  23.288  24.804  1.00  0.00     0.047 C 
BRANCH   9  11
ATOM     11  C   UNL A   1      32.056  25.325  23.487  1.00  0.00     0.037 C 
ATOM     12  C   UNL A   1      33.336  25.187  22.651  1.00  0.00     0.007 C 
ENDBRANCH   9  11
BRANCH   9  13
ATOM     13  N   UNL A   1      33.506  24.385  25.372  1.00  0.00    -0.322 N 
ATOM     14  C   UNL A   1      34.203  23.238  25.692  1.00  0.00     0.318 C 
ATOM     15  H   UNL A   1      34.056  25.198  25.451  1.00  0.00     0.166 HD
ATOM     16  O   UNL A   1      34.362  23.049  26.899  1.00  0.00    -0.249 OA
BRANCH  14  17
ATOM     17  N   UNL A   1      34.970  22.596  24.700  1.00  0.00    -0.325 N 
ATOM     18  C   UNL A   1      36.159  23.257  24.186  1.00  0.00     0.149 C 
BRANCH  17  19
ATOM     19  C   UNL A   1      35.100  21.053  24.594  1.00  0.00     0.086 C 
ATOM     20  C   UNL A   1      36.442  20.800  25.323  1.00  0.00     0.031 C 
BRANCH  19  21
ATOM     21  C   UNL A   1      33.712  20.095  24.374  1.00  0.00     0.005 C 
ATOM     22  C   UNL A   1      33.101  19.718  25.752  1.00  0.00     0.009 C 
ATOM     23  C   UNL A   1      32.349  20.122  23.507  1.00  0.00     0.009 C 
ENDBRANCH  19  21
ENDBRANCH  17  19
ENDBRANCH  14  17
ENDBRANCH   9  13
ENDBRANCH   7   9
ENDBRANCH   6   7
ENDBRANCH   5   6
ENDBRANCH   4   5
ENDBRANCH   3   4
ENDBRANCH   2   3
ENDBRANCH   1   2
BRANCH   1  24
ATOM     24  O   UNL A   1      33.882  32.047  27.831  1.00  0.00    -0.377 OA
BRANCH  24  25
ATOM     25  C   UNL A   1      34.746  32.324  28.924  1.00  0.00     0.188 C 
BRANCH  25  26
ATOM     26  C   UNL A   1      35.613  33.617  28.816  1.00  0.00     0.188 C 
BRANCH  26  27
ATOM     27  O   UNL A   1      34.992  34.887  28.495  1.00  0.00    -0.376 OA
BRANCH  27  28
ATOM     28  C   UNL A   1      33.607  35.073  28.872  1.00  0.00     0.202 C 
BRANCH  28  29
ATOM     29  C   UNL A   1      33.212  36.425  29.702  1.00  0.00     0.261 C 
BRANCH  29  30
ATOM     30  O   UNL A   1      32.200  36.328  30.813  1.00  0.00    -0.460 OA
BRANCH  30  31
ATOM     31  C   UNL A   1      32.508  36.344  32.166  1.00  0.00     0.338 C 
ATOM     32  O   UNL A   1      31.968  37.075  32.977  1.00  0.00    -0.246 OA
BRANCH  31  33
ATOM     33  C   UNL A   1      33.657  35.380  32.607  1.00  0.00     0.060 A 
ATOM     34  C   UNL A   1      35.018  35.730  32.698  1.00  0.00     0.016 A 
ATOM     35  C   UNL A   1      33.386  34.058  32.977  1.00  0.00     0.016 A 
ATOM     36  C   UNL A   1      36.044  34.919  33.217  1.00  0.00     0.010 A 
ATOM     37  C   UNL A   1      34.417  33.202  33.471  1.00  0.00     0.010 A 
ATOM     38  C   UNL A   1      35.752  33.633  33.617  1.00  0.00    -0.014 A 
BRANCH  38  39
ATOM     39  C   UNL A   1      36.857  32.693  33.952  1.00  0.00     0.031 A 
ATOM     40  C   UNL A   1      37.520  32.883  35.283  1.00  0.00     0.074 A 
ATOM     41  C   UNL A   1      37.266  31.698  33.140  1.00  0.00     0.049 A 
ATOM     42  N   UNL A   1      38.693  32.493  35.701  1.00  0.00    -0.248 NA
ATOM     43  C   UNL A   1      36.745  33.648  36.274  1.00  0.00     0.031 C 
ATOM     44  C   UNL A   1      36.604  31.270  31.908  1.00  0.00     0.029 A 
ATOM     45  N   UNL A   1      38.375  30.883  33.220  1.00  0.00    -0.354 N 
ATOM     46  C   UNL A   1      38.837  33.049  36.967  1.00  0.00     0.074 A 
ATOM     47  C   UNL A   1      37.620  33.773  37.258  1.00  0.00     0.031 C 
ATOM     48  C   UNL A   1      37.353  30.320  31.315  1.00  0.00     0.029 A 
ATOM     49  C   UNL A   1      38.575  30.118  32.091  1.00  0.00     0.049 A 
ATOM     50  H   UNL A   1      38.966  30.851  34.006  1.00  0.00     0.167 HD
ATOM     51  C   UNL A   1      39.909  32.985  37.791  1.00  0.00     0.037 A 
ATOM     52  C   UNL A   1      39.651  29.397  31.707  1.00  0.00     0.037 A 
ATOM     53  C   UNL A   1      41.098  32.240  37.475  1.00  0.00     0.049 A 
ATOM     54  C   UNL A   1      40.869  29.386  32.598  1.00  0.00     0.074 A 
ATOM     55  C   UNL A   1      42.265  32.112  38.206  1.00  0.00     0.029 A 
ATOM     56  N   UNL A   1      41.262  31.483  36.321  1.00  0.00    -0.354 N 
ATOM     57  N   UNL A   1      41.057  29.990  33.749  1.00  0.00    -0.248 NA
ATOM     58  C   UNL A   1      42.031  28.612  32.136  1.00  0.00     0.031 C 
ATOM     59  C   UNL A   1      43.149  31.310  37.474  1.00  0.00     0.029 A 
ATOM     60  C   UNL A   1      42.512  30.893  36.314  1.00  0.00     0.049 A 
ATOM     61  H   UNL A   1      40.586  31.384  35.612  1.00  0.00     0.167 HD
ATOM     62  C   UNL A   1      42.339  29.648  34.162  1.00  0.00     0.074 A 
ATOM     63  C   UNL A   1      42.882  28.775  33.139  1.00  0.00     0.031 C 
ATOM     64  C   UNL A   1      43.011  30.017  35.282  1.00  0.00     0.037 A 
BRANCH  51  65
ATOM     65  C   UNL A   1      39.856  33.811  39.046  1.00  0.00     0.057 A 
ATOM     66  C   UNL A   1      40.373  35.111  39.116  1.00  0.00     0.134 A 
ATOM     67  C   UNL A   1      39.325  33.268  40.225  1.00  0.00     0.134 A 
ATOM     68  F   UNL A   1      40.921  35.683  38.032  1.00  0.00    -0.206 F 
ATOM     69  C   UNL A   1      40.408  35.822  40.318  1.00  0.00     0.040 A 
ATOM     70  C   UNL A   1      39.324  33.982  41.425  1.00  0.00     0.040 A 
ATOM     71  F   UNL A   1      38.812  32.029  40.236  1.00  0.00    -0.206 F 
ATOM     72  C   UNL A   1      39.880  35.258  41.477  1.00  0.00     0.006 A 
ENDBRANCH  51  65
BRANCH  52  73
ATOM     73  C   UNL A   1      39.651  28.672  30.403  1.00  0.00     0.057 A 
ATOM     74  C   UNL A   1      39.124  27.379  30.291  1.00  0.00     0.134 A 
ATOM     75  C   UNL A   1      40.178  29.244  29.237  1.00  0.00     0.134 A 
ATOM     76  F   UNL A   1      38.639  26.753  31.374  1.00  0.00    -0.206 F 
ATOM     77  C   UNL A   1      39.112  26.688  29.075  1.00  0.00     0.040 A 
ATOM     78  C   UNL A   1      40.150  28.576  28.009  1.00  0.00     0.040 A 
ATOM     79  F   UNL A   1      40.715  30.472  29.269  1.00  0.00    -0.206 F 
ATOM     80  C   UNL A   1      39.616  27.292  27.926  1.00  0.00     0.006 A 
ENDBRANCH  52  73
BRANCH  64  81
ATOM     81  C   UNL A   1      44.379  29.433  35.483  1.00  0.00     0.057 A 
ATOM     82  C   UNL A   1      44.580  28.220  36.151  1.00  0.00     0.134 A 
ATOM     83  C   UNL A   1      45.504  30.074  34.947  1.00  0.00     0.134 A 
ATOM     84  F   UNL A   1      43.545  27.563  36.696  1.00  0.00    -0.206 F 
ATOM     85  C   UNL A   1      45.858  27.677  36.301  1.00  0.00     0.040 A 
ATOM     86  C   UNL A   1      46.781  29.528  35.067  1.00  0.00     0.040 A 
ATOM     87  F   UNL A   1      45.375  31.234  34.284  1.00  0.00    -0.206 F 
ATOM     88  C   UNL A   1      46.961  28.328  35.751  1.00  0.00     0.006 A 
ENDBRANCH  64  81
ENDBRANCH  38  39
ENDBRANCH  31  33
ENDBRANCH  30  31
ENDBRANCH  29  30
ENDBRANCH  28  29
ENDBRANCH  27  28
ENDBRANCH  26  27
ENDBRANCH  25  26
ENDBRANCH  24  25
ENDBRANCH   1  24
TORSDOF 25
ENDMDL
MODEL 3
REMARK VINA RESULT:      -8.7      5.298     10.525
REMARK SMILES CC[C@@](C)(NC(=O)N(C)[C@@H](C)C(C)C)C(=O)OCCOCCOCCOCCOC(=O)c1ccc(-c2c3nc(c(-c4c(F)cccc4F)c4ccc([nH]4)c(-c4c(F)cccc4F)c4nc(c(-c5c(F)cccc5F)c5ccc2[nH]5)C=C4)C=C3)cc1
REMARK SMILES IDX 22 1 21 2 20 3 19 4 18 5 17 6 15 7 16 8 3 9 4 10 2 11 1 12
REMARK SMILES IDX 5 13 6 14 7 16 8 17 9 18 10 19 11 20 12 21 13 22 14 23 23 24
REMARK SMILES IDX 24 25 25 26 26 27 27 28 28 29 29 30 30 31 31 32 32 33 33 34
REMARK SMILES IDX 85 35 34 36 84 37 35 38 36 39 37 40 78 41 38 42 83 43 77 44
REMARK SMILES IDX 79 45 39 46 82 47 76 48 75 49 40 51 66 52 49 53 65 54 50 55
REMARK SMILES IDX 53 56 64 57 80 58 51 59 52 60 63 62 81 63 54 64 41 65 42 66
REMARK SMILES IDX 47 67 43 68 44 69 46 70 48 71 45 72 67 73 68 74 73 75 69 76
REMARK SMILES IDX 70 77 72 78 74 79 71 80 55 81 56 82 61 83 57 84 58 85 60 86
REMARK SMILES IDX 62 87 59 88
REMARK H PARENT 5 15 79 50 53 61
REMARK Flexibility Score: inf
ROOT
ATOM      1  C   UNL A   1      33.698  33.256  28.022  1.00  0.00     0.188 C 
ENDROOT
BRANCH   1   2
ATOM      2  C   UNL A   1      35.002  32.463  27.904  1.00  0.00     0.188 C 
BRANCH   2   3
ATOM      3  O   UNL A   1      35.006  31.196  27.250  1.00  0.00    -0.376 OA
BRANCH   3   4
ATOM      4  C   UNL A   1      35.056  29.995  28.009  1.00  0.00     0.202 C 
BRANCH   4   5
ATOM      5  C   UNL A   1      34.653  28.845  27.084  1.00  0.00     0.261 C 
BRANCH   5   6
ATOM      6  O   UNL A   1      33.739  29.355  26.100  1.00  0.00    -0.462 OA
BRANCH   6   7
ATOM      7  C   UNL A   1      32.422  29.125  26.256  1.00  0.00     0.331 C 
ATOM      8  O   UNL A   1      31.715  29.763  27.023  1.00  0.00    -0.249 OA
BRANCH   7   9
ATOM      9  C   UNL A   1      31.938  27.905  25.402  1.00  0.00     0.136 C 
ATOM     10  C   UNL A   1      31.178  27.052  26.458  1.00  0.00     0.047 C 
BRANCH   9  11
ATOM     11  C   UNL A   1      30.894  28.330  24.310  1.00  0.00     0.037 C 
ATOM     12  C   UNL A   1      31.445  28.960  23.023  1.00  0.00     0.007 C 
ENDBRANCH   9  11
BRANCH   9  13
ATOM     13  N   UNL A   1      32.986  26.946  24.808  1.00  0.00    -0.322 N 
ATOM     14  C   UNL A   1      33.355  25.639  25.054  1.00  0.00     0.318 C 
ATOM     15  H   UNL A   1      33.514  27.360  24.088  1.00  0.00     0.166 HD
ATOM     16  O   UNL A   1      34.394  25.509  25.702  1.00  0.00    -0.249 OA
BRANCH  14  17
ATOM     17  N   UNL A   1      32.784  24.604  24.288  1.00  0.00    -0.325 N 
ATOM     18  C   UNL A   1      32.751  24.730  22.840  1.00  0.00     0.149 C 
BRANCH  17  19
ATOM     19  C   UNL A   1      32.817  23.113  24.718  1.00  0.00     0.086 C 
ATOM     20  C   UNL A   1      34.205  22.667  24.197  1.00  0.00     0.031 C 
BRANCH  19  21
ATOM     21  C   UNL A   1      31.845  22.576  26.007  1.00  0.00     0.005 C 
ATOM     22  C   UNL A   1      32.660  22.593  27.330  1.00  0.00     0.009 C 
ATOM     23  C   UNL A   1      30.381  22.872  26.622  1.00  0.00     0.009 C 
ENDBRANCH  19  21
ENDBRANCH  17  19
ENDBRANCH  14  17
ENDBRANCH   9  13
ENDBRANCH   7   9
ENDBRANCH   6   7
ENDBRANCH   5   6
ENDBRANCH   4   5
ENDBRANCH   3   4
ENDBRANCH   2   3
ENDBRANCH   1   2
BRANCH   1  24
ATOM     24  O   UNL A   1      33.866  34.609  28.402  1.00  0.00    -0.377 OA
BRANCH  24  25
ATOM     25  C   UNL A   1      33.231  35.003  29.610  1.00  0.00     0.188 C 
BRANCH  25  26
ATOM     26  C   UNL A   1      34.067  34.849  30.918  1.00  0.00     0.188 C 
BRANCH  26  27
ATOM     27  O   UNL A   1      33.553  34.065  32.025  1.00  0.00    -0.376 OA
BRANCH  27  28
ATOM     28  C   UNL A   1      34.424  33.065  32.604  1.00  0.00     0.202 C 
BRANCH  28  29
ATOM     29  C   UNL A   1      35.308  32.135  31.590  1.00  0.00     0.261 C 
BRANCH  29  30
ATOM     30  O   UNL A   1      36.691  31.712  32.009  1.00  0.00    -0.460 OA
BRANCH  30  31
ATOM     31  C   UNL A   1      37.126  30.396  32.084  1.00  0.00     0.338 C 
ATOM     32  O   UNL A   1      36.592  29.544  32.772  1.00  0.00    -0.246 OA
BRANCH  31  33
ATOM     33  C   UNL A   1      38.407  30.061  31.256  1.00  0.00     0.060 A 
ATOM     34  C   UNL A   1      39.601  29.534  31.788  1.00  0.00     0.016 A 
ATOM     35  C   UNL A   1      38.440  30.251  29.871  1.00  0.00     0.016 A 
ATOM     36  C   UNL A   1      40.715  29.103  31.044  1.00  0.00     0.010 A 
ATOM     37  C   UNL A   1      39.574  29.857  29.096  1.00  0.00     0.010 A 
ATOM     38  C   UNL A   1      40.713  29.258  29.674  1.00  0.00    -0.014 A 
BRANCH  38  39
ATOM     39  C   UNL A   1      41.963  29.020  28.901  1.00  0.00     0.031 A 
ATOM     40  C   UNL A   1      42.151  27.645  28.335  1.00  0.00     0.074 A 
ATOM     41  C   UNL A   1      42.899  29.965  28.681  1.00  0.00     0.049 A 
ATOM     42  N   UNL A   1      43.239  27.037  27.950  1.00  0.00    -0.248 NA
ATOM     43  C   UNL A   1      40.927  26.836  28.213  1.00  0.00     0.031 C 
ATOM     44  C   UNL A   1      42.774  31.387  29.002  1.00  0.00     0.029 A 
ATOM     45  N   UNL A   1      44.171  29.854  28.161  1.00  0.00    -0.354 N 
ATOM     46  C   UNL A   1      42.846  25.741  27.632  1.00  0.00     0.074 A 
ATOM     47  C   UNL A   1      41.416  25.666  27.839  1.00  0.00     0.031 C 
ATOM     48  C   UNL A   1      43.942  32.002  28.734  1.00  0.00     0.029 A 
ATOM     49  C   UNL A   1      44.915  31.007  28.283  1.00  0.00     0.049 A 
ATOM     50  H   UNL A   1      44.514  29.032  27.744  1.00  0.00     0.167 HD
ATOM     51  C   UNL A   1      43.621  24.705  27.238  1.00  0.00     0.037 A 
ATOM     52  C   UNL A   1      46.240  31.211  28.115  1.00  0.00     0.037 A 
ATOM     53  C   UNL A   1      45.039  24.822  27.027  1.00  0.00     0.049 A 
ATOM     54  C   UNL A   1      47.110  30.035  27.743  1.00  0.00     0.074 A 
ATOM     55  C   UNL A   1      45.946  23.847  26.654  1.00  0.00     0.029 A 
ATOM     56  N   UNL A   1      45.754  26.005  27.165  1.00  0.00    -0.354 N 
ATOM     57  N   UNL A   1      46.766  28.784  27.540  1.00  0.00    -0.248 NA
ATOM     58  C   UNL A   1      48.551  30.289  27.594  1.00  0.00     0.031 C 
ATOM     59  C   UNL A   1      47.217  24.434  26.606  1.00  0.00     0.029 A 
ATOM     60  C   UNL A   1      47.092  25.786  26.894  1.00  0.00     0.049 A 
ATOM     61  H   UNL A   1      45.364  26.872  27.420  1.00  0.00     0.167 HD
ATOM     62  C   UNL A   1      47.937  28.109  27.211  1.00  0.00     0.074 A 
ATOM     63  C   UNL A   1      49.001  29.094  27.235  1.00  0.00     0.031 C 
ATOM     64  C   UNL A   1      48.120  26.798  26.915  1.00  0.00     0.037 A 
BRANCH  51  65
ATOM     65  C   UNL A   1      42.954  23.364  27.109  1.00  0.00     0.057 A 
ATOM     66  C   UNL A   1      42.666  22.555  28.216  1.00  0.00     0.134 A 
ATOM     67  C   UNL A   1      42.647  22.849  25.842  1.00  0.00     0.134 A 
ATOM     68  F   UNL A   1      42.957  22.973  29.457  1.00  0.00    -0.206 F 
ATOM     69  C   UNL A   1      42.142  21.268  28.066  1.00  0.00     0.040 A 
ATOM     70  C   UNL A   1      42.092  21.578  25.681  1.00  0.00     0.040 A 
ATOM     71  F   UNL A   1      42.895  23.565  24.735  1.00  0.00    -0.206 F 
ATOM     72  C   UNL A   1      41.851  20.777  26.795  1.00  0.00     0.006 A 
ENDBRANCH  51  65
BRANCH  52  73
ATOM     73  C   UNL A   1      46.835  32.560  28.345  1.00  0.00     0.057 A 
ATOM     74  C   UNL A   1      46.847  33.530  27.335  1.00  0.00     0.134 A 
ATOM     75  C   UNL A   1      47.408  32.917  29.573  1.00  0.00     0.134 A 
ATOM     76  F   UNL A   1      46.352  33.246  26.121  1.00  0.00    -0.206 F 
ATOM     77  C   UNL A   1      47.396  34.801  27.536  1.00  0.00     0.040 A 
ATOM     78  C   UNL A   1      47.938  34.191  29.798  1.00  0.00     0.040 A 
ATOM     79  F   UNL A   1      47.448  32.036  30.583  1.00  0.00    -0.206 F 
ATOM     80  C   UNL A   1      47.934  35.138  28.776  1.00  0.00     0.006 A 
ENDBRANCH  52  73
BRANCH  64  81
ATOM     81  C   UNL A   1      49.509  26.369  26.540  1.00  0.00     0.057 A 
ATOM     82  C   UNL A   1      50.001  26.496  25.236  1.00  0.00     0.134 A 
ATOM     83  C   UNL A   1      50.381  25.873  27.518  1.00  0.00     0.134 A 
ATOM     84  F   UNL A   1      49.212  26.955  24.252  1.00  0.00    -0.206 F 
ATOM     85  C   UNL A   1      51.306  26.122  24.912  1.00  0.00     0.040 A 
ATOM     86  C   UNL A   1      51.695  25.521  27.212  1.00  0.00     0.040 A 
ATOM     87  F   UNL A   1      49.974  25.739  28.789  1.00  0.00    -0.206 F 
ATOM     88  C   UNL A   1      52.159  25.640  25.904  1.00  0.00     0.006 A 
ENDBRANCH  64  81
ENDBRANCH  38  39
ENDBRANCH  31  33
ENDBRANCH  30  31
ENDBRANCH  29  30
ENDBRANCH  28  29
ENDBRANCH  27  28
ENDBRANCH  26  27
ENDBRANCH  25  26
ENDBRANCH  24  25
ENDBRANCH   1  24
TORSDOF 25
ENDMDL
