MODEL 1
REMARK VINA RESULT:      -6.4      0.000      0.000
REMARK SMILES NS(=O)(=O)c1ccc(-n2nc(NC(=O)NCCCCCCCCCCC(=O)OCCOCCOCCOCCOC(=O)c3ccc(-c4c5nc(c(-c6c(F)cccc6F)c6ccc([nH]6)c(-c6c(F)cccc6F)c6nc(c(-c7c(F)cccc7F)c7ccc4[nH]7)C=C6)C=C5)cc3)cc2-c2ccccc2)cc1
REMARK SMILES IDX 28 1 26 2 27 3 25 4 24 5 23 6 22 7 21 8 20 9 19 10 18 11
REMARK SMILES IDX 17 12 16 13 15 14 12 15 13 16 14 18 11 20 9 21 10 22 98 23
REMARK SMILES IDX 97 24 8 25 5 26 6 27 106 28 7 29 105 30 2 31 3 32 4 33 1 34
REMARK SMILES IDX 99 37 100 38 104 39 101 40 103 41 102 42 29 43 30 44 31 45
REMARK SMILES IDX 32 46 33 47 34 48 35 49 36 50 37 51 38 52 39 53 40 54 41 55
REMARK SMILES IDX 42 56 43 57 44 58 96 59 45 60 95 61 46 62 47 63 48 64 89 65
REMARK SMILES IDX 49 66 94 67 88 68 90 69 50 70 93 71 87 72 86 73 51 75 77 76
REMARK SMILES IDX 60 77 76 78 61 79 64 80 75 81 91 82 62 83 63 84 74 86 92 87
REMARK SMILES IDX 65 88 52 89 53 90 58 91 54 92 55 93 57 94 59 95 56 96 78 97
REMARK SMILES IDX 79 98 84 99 80 100 81 101 83 102 85 103 82 104 66 105 67 106
REMARK SMILES IDX 72 107 68 108 69 109 71 110 73 111 70 112
REMARK H PARENT 12 17 15 19 1 35 1 36 90 74 64 85
REMARK Flexibility Score: inf
ROOT
ATOM      1  O   UNL A   1      44.382  39.233  34.422  1.00  0.00    -0.463 OA
ENDROOT
BRANCH   1   2
ATOM      2  C   UNL A   1      43.695  39.582  33.315  1.00  0.00     0.305 C 
ATOM      3  O   UNL A   1      42.715  40.321  33.318  1.00  0.00    -0.252 OA
BRANCH   2   4
ATOM      4  C   UNL A   1      44.278  39.043  32.016  1.00  0.00     0.123 C 
BRANCH   4   5
ATOM      5  C   UNL A   1      44.181  39.790  30.680  1.00  0.00     0.012 C 
BRANCH   5   6
ATOM      6  C   UNL A   1      44.553  39.014  29.418  1.00  0.00     0.001 C 
BRANCH   6   7
ATOM      7  C   UNL A   1      43.384  38.198  28.885  1.00  0.00     0.000 C 
BRANCH   7   8
ATOM      8  C   UNL A   1      42.157  39.064  28.611  1.00  0.00     0.000 C 
BRANCH   8   9
ATOM      9  C   UNL A   1      41.945  39.374  27.127  1.00  0.00     0.000 C 
BRANCH   9  10
ATOM     10  C   UNL A   1      42.570  40.694  26.658  1.00  0.00     0.000 C 
BRANCH  10  11
ATOM     11  C   UNL A   1      43.828  40.538  25.794  1.00  0.00     0.002 C 
BRANCH  11  12
ATOM     12  C   UNL A   1      45.138  40.946  26.468  1.00  0.00     0.021 C 
BRANCH  12  13
ATOM     13  C   UNL A   1      45.549  42.387  26.227  1.00  0.00     0.117 C 
BRANCH  13  14
ATOM     14  N   UNL A   1      45.129  43.304  27.259  1.00  0.00    -0.338 N 
ATOM     15  N   UNL A   1      46.421  45.218  26.701  1.00  0.00    -0.291 N 
ATOM     16  C   UNL A   1      45.559  44.561  27.510  1.00  0.00     0.320 C 
ATOM     17  H   UNL A   1      46.948  45.919  27.149  1.00  0.00     0.173 HD
ATOM     18  O   UNL A   1      45.239  45.075  28.586  1.00  0.00    -0.248 OA
ATOM     19  H   UNL A   1      44.432  42.967  27.867  1.00  0.00     0.165 HD
BRANCH  15  20
ATOM     20  C   UNL A   1      46.687  45.075  25.357  1.00  0.00     0.157 A 
ATOM     21  N   UNL A   1      46.368  44.801  23.280  1.00  0.00    -0.231 N 
ATOM     22  N   UNL A   1      45.875  45.439  24.363  1.00  0.00    -0.149 NA
ATOM     23  C   UNL A   1      47.690  44.417  23.479  1.00  0.00     0.076 A 
ATOM     24  C   UNL A   1      47.893  44.550  24.841  1.00  0.00     0.078 A 
BRANCH  21  25
ATOM     25  C   UNL A   1      45.535  44.548  22.155  1.00  0.00     0.065 A 
ATOM     26  C   UNL A   1      43.770  44.185  20.030  1.00  0.00     0.082 A 
ATOM     27  C   UNL A   1      44.740  45.186  19.956  1.00  0.00     0.024 A 
ATOM     28  C   UNL A   1      43.709  43.330  21.137  1.00  0.00     0.024 A 
ATOM     29  C   UNL A   1      45.624  45.367  21.018  1.00  0.00     0.030 A 
ATOM     30  C   UNL A   1      44.612  43.496  22.194  1.00  0.00     0.030 A 
BRANCH  26  31
ATOM     31  S   UNL A   1      42.589  44.082  18.719  1.00  0.00     0.238 S 
ATOM     32  O   UNL A   1      41.684  45.187  18.825  1.00  0.00    -0.207 OA
ATOM     33  O   UNL A   1      42.140  42.701  18.623  1.00  0.00    -0.207 OA
BRANCH  31  34
ATOM     34  N   UNL A   1      43.486  44.334  17.321  1.00  0.00    -0.225 NA
ATOM     35  H   UNL A   1      43.238  43.630  16.625  1.00  0.00     0.137 HD
ATOM     36  H   UNL A   1      44.480  44.264  17.537  1.00  0.00     0.137 HD
ENDBRANCH  31  34
ENDBRANCH  26  31
ENDBRANCH  21  25
BRANCH  23  37
ATOM     37  C   UNL A   1      48.589  43.992  22.406  1.00  0.00     0.000 A 
ATOM     38  C   UNL A   1      49.831  44.628  22.247  1.00  0.00     0.010 A 
ATOM     39  C   UNL A   1      48.206  43.009  21.490  1.00  0.00     0.010 A 
ATOM     40  C   UNL A   1      50.649  44.330  21.159  1.00  0.00     0.001 A 
ATOM     41  C   UNL A   1      49.035  42.702  20.407  1.00  0.00     0.001 A 
ATOM     42  C   UNL A   1      50.248  43.371  20.236  1.00  0.00     0.000 A 
ENDBRANCH  23  37
ENDBRANCH  15  20
ENDBRANCH  13  14
ENDBRANCH  12  13
ENDBRANCH  11  12
ENDBRANCH  10  11
ENDBRANCH   9  10
ENDBRANCH   8   9
ENDBRANCH   7   8
ENDBRANCH   6   7
ENDBRANCH   5   6
ENDBRANCH   4   5
ENDBRANCH   2   4
ENDBRANCH   1   2
BRANCH   1  43
ATOM     43  C   UNL A   1      44.149  39.982  35.621  1.00  0.00     0.261 C 
BRANCH  43  44
ATOM     44  C   UNL A   1      45.317  40.039  36.622  1.00  0.00     0.202 C 
BRANCH  44  45
ATOM     45  O   UNL A   1      45.210  39.599  37.966  1.00  0.00    -0.376 OA
BRANCH  45  46
ATOM     46  C   UNL A   1      44.348  38.531  38.309  1.00  0.00     0.188 C 
BRANCH  46  47
ATOM     47  C   UNL A   1      44.777  37.084  38.019  1.00  0.00     0.188 C 
BRANCH  47  48
ATOM     48  O   UNL A   1      44.482  36.115  39.003  1.00  0.00    -0.377 OA
BRANCH  48  49
ATOM     49  C   UNL A   1      43.400  35.228  38.765  1.00  0.00     0.188 C 
BRANCH  49  50
ATOM     50  C   UNL A   1      41.936  35.685  38.959  1.00  0.00     0.188 C 
BRANCH  50  51
ATOM     51  O   UNL A   1      40.948  34.947  38.247  1.00  0.00    -0.376 OA
BRANCH  51  52
ATOM     52  C   UNL A   1      39.573  35.280  38.353  1.00  0.00     0.202 C 
BRANCH  52  53
ATOM     53  C   UNL A   1      38.600  34.128  38.612  1.00  0.00     0.261 C 
BRANCH  53  54
ATOM     54  O   UNL A   1      38.518  33.198  37.545  1.00  0.00    -0.460 OA
BRANCH  54  55
ATOM     55  C   UNL A   1      37.394  33.302  36.813  1.00  0.00     0.338 C 
ATOM     56  O   UNL A   1      36.248  33.383  37.220  1.00  0.00    -0.246 OA
BRANCH  55  57
ATOM     57  C   UNL A   1      37.735  33.157  35.402  1.00  0.00     0.060 A 
ATOM     58  C   UNL A   1      37.723  31.849  34.921  1.00  0.00     0.016 A 
ATOM     59  C   UNL A   1      38.429  34.199  34.767  1.00  0.00     0.016 A 
ATOM     60  C   UNL A   1      38.662  31.520  33.980  1.00  0.00     0.010 A 
ATOM     61  C   UNL A   1      39.374  33.865  33.834  1.00  0.00     0.010 A 
ATOM     62  C   UNL A   1      39.546  32.516  33.547  1.00  0.00    -0.014 A 
BRANCH  62  63
ATOM     63  C   UNL A   1      40.665  32.088  32.750  1.00  0.00     0.031 A 
ATOM     64  C   UNL A   1      41.948  32.238  33.456  1.00  0.00     0.074 A 
ATOM     65  C   UNL A   1      40.516  31.581  31.514  1.00  0.00     0.049 A 
ATOM     66  N   UNL A   1      42.879  33.096  33.212  1.00  0.00    -0.248 NA
ATOM     67  C   UNL A   1      42.127  31.475  34.700  1.00  0.00     0.031 C 
ATOM     68  C   UNL A   1      39.290  31.149  30.840  1.00  0.00     0.029 A 
ATOM     69  N   UNL A   1      41.485  31.264  30.620  1.00  0.00    -0.354 N 
ATOM     70  C   UNL A   1      43.864  32.839  34.153  1.00  0.00     0.074 A 
ATOM     71  C   UNL A   1      43.274  31.982  35.149  1.00  0.00     0.031 C 
ATOM     72  C   UNL A   1      39.622  30.413  29.752  1.00  0.00     0.029 A 
ATOM     73  C   UNL A   1      41.065  30.441  29.588  1.00  0.00     0.049 A 
ATOM     74  H   UNL A   1      42.410  31.591  30.698  1.00  0.00     0.167 HD
ATOM     75  C   UNL A   1      45.164  33.134  33.896  1.00  0.00     0.037 A 
ATOM     76  C   UNL A   1      41.884  29.768  28.741  1.00  0.00     0.037 A 
ATOM     77  C   UNL A   1      45.289  34.080  32.817  1.00  0.00     0.049 A 
ATOM     78  C   UNL A   1      43.219  30.423  28.800  1.00  0.00     0.074 A 
ATOM     79  C   UNL A   1      44.851  35.374  32.608  1.00  0.00     0.029 A 
ATOM     80  N   UNL A   1      45.629  33.594  31.579  1.00  0.00    -0.354 N 
ATOM     81  N   UNL A   1      43.466  31.615  28.332  1.00  0.00    -0.248 NA
ATOM     82  C   UNL A   1      44.168  29.940  29.795  1.00  0.00     0.031 C 
ATOM     83  C   UNL A   1      44.511  35.433  31.226  1.00  0.00     0.029 A 
ATOM     84  C   UNL A   1      44.805  34.193  30.659  1.00  0.00     0.049 A 
ATOM     85  H   UNL A   1      46.336  32.937  31.386  1.00  0.00     0.167 HD
ATOM     86  C   UNL A   1      44.320  32.193  29.261  1.00  0.00     0.074 A 
ATOM     87  C   UNL A   1      44.784  31.086  30.093  1.00  0.00     0.031 C 
ATOM     88  C   UNL A   1      44.342  33.545  29.454  1.00  0.00     0.037 A 
BRANCH  75  89
ATOM     89  C   UNL A   1      46.305  32.269  34.354  1.00  0.00     0.057 A 
ATOM     90  C   UNL A   1      47.382  32.861  35.030  1.00  0.00     0.134 A 
ATOM     91  C   UNL A   1      46.523  30.947  33.908  1.00  0.00     0.134 A 
ATOM     92  F   UNL A   1      47.301  34.122  35.479  1.00  0.00    -0.206 F 
ATOM     93  C   UNL A   1      48.608  32.208  35.193  1.00  0.00     0.040 A 
ATOM     94  C   UNL A   1      47.723  30.268  34.115  1.00  0.00     0.040 A 
ATOM     95  F   UNL A   1      45.636  30.282  33.159  1.00  0.00    -0.206 F 
ATOM     96  C   UNL A   1      48.783  30.909  34.730  1.00  0.00     0.006 A 
ENDBRANCH  75  89
BRANCH  76  97
ATOM     97  C   UNL A   1      41.698  28.411  28.179  1.00  0.00     0.057 A 
ATOM     98  C   UNL A   1      41.630  27.288  29.015  1.00  0.00     0.134 A 
ATOM     99  C   UNL A   1      41.301  28.210  26.844  1.00  0.00     0.134 A 
ATOM    100  F   UNL A   1      41.950  27.387  30.314  1.00  0.00    -0.206 F 
ATOM    101  C   UNL A   1      41.166  26.047  28.561  1.00  0.00     0.040 A 
ATOM    102  C   UNL A   1      40.843  26.974  26.375  1.00  0.00     0.040 A 
ATOM    103  F   UNL A   1      41.255  29.225  25.971  1.00  0.00    -0.206 F 
ATOM    104  C   UNL A   1      40.759  25.890  27.240  1.00  0.00     0.006 A 
ENDBRANCH  76  97
BRANCH  88 105
ATOM    105  C   UNL A   1      43.614  34.407  28.460  1.00  0.00     0.057 A 
ATOM    106  C   UNL A   1      44.125  34.757  27.200  1.00  0.00     0.134 A 
ATOM    107  C   UNL A   1      42.291  34.773  28.729  1.00  0.00     0.134 A 
ATOM    108  F   UNL A   1      45.343  34.363  26.810  1.00  0.00    -0.206 F 
ATOM    109  C   UNL A   1      43.366  35.479  26.271  1.00  0.00     0.040 A 
ATOM    110  C   UNL A   1      41.511  35.461  27.798  1.00  0.00     0.040 A 
ATOM    111  F   UNL A   1      41.717  34.421  29.891  1.00  0.00    -0.206 F 
ATOM    112  C   UNL A   1      42.052  35.827  26.568  1.00  0.00     0.006 A 
ENDBRANCH  88 105
ENDBRANCH  62  63
ENDBRANCH  55  57
ENDBRANCH  54  55
ENDBRANCH  53  54
ENDBRANCH  52  53
ENDBRANCH  51  52
ENDBRANCH  50  51
ENDBRANCH  49  50
ENDBRANCH  48  49
ENDBRANCH  47  48
ENDBRANCH  46  47
ENDBRANCH  45  46
ENDBRANCH  44  45
ENDBRANCH  43  44
ENDBRANCH   1  43
TORSDOF 35
ENDMDL
MODEL 2
REMARK VINA RESULT:      -6.2      7.783     15.390
REMARK SMILES NS(=O)(=O)c1ccc(-n2nc(NC(=O)NCCCCCCCCCCC(=O)OCCOCCOCCOCCOC(=O)c3ccc(-c4c5nc(c(-c6c(F)cccc6F)c6ccc([nH]6)c(-c6c(F)cccc6F)c6nc(c(-c7c(F)cccc7F)c7ccc4[nH]7)C=C6)C=C5)cc3)cc2-c2ccccc2)cc1
REMARK SMILES IDX 28 1 26 2 27 3 25 4 24 5 23 6 22 7 21 8 20 9 19 10 18 11
REMARK SMILES IDX 17 12 16 13 15 14 12 15 13 16 14 18 11 20 9 21 10 22 98 23
REMARK SMILES IDX 97 24 8 25 5 26 6 27 106 28 7 29 105 30 2 31 3 32 4 33 1 34
REMARK SMILES IDX 99 37 100 38 104 39 101 40 103 41 102 42 29 43 30 44 31 45
REMARK SMILES IDX 32 46 33 47 34 48 35 49 36 50 37 51 38 52 39 53 40 54 41 55
REMARK SMILES IDX 42 56 43 57 44 58 96 59 45 60 95 61 46 62 47 63 48 64 89 65
REMARK SMILES IDX 49 66 94 67 88 68 90 69 50 70 93 71 87 72 86 73 51 75 77 76
REMARK SMILES IDX 60 77 76 78 61 79 64 80 75 81 91 82 62 83 63 84 74 86 92 87
REMARK SMILES IDX 65 88 52 89 53 90 58 91 54 92 55 93 57 94 59 95 56 96 78 97
REMARK SMILES IDX 79 98 84 99 80 100 81 101 83 102 85 103 82 104 66 105 67 106
REMARK SMILES IDX 72 107 68 108 69 109 71 110 73 111 70 112
REMARK H PARENT 12 17 15 19 1 35 1 36 90 74 64 85
REMARK Flexibility Score: inf
ROOT
ATOM      1  O   UNL A   1      37.389  22.327  26.213  1.00  0.00    -0.463 OA
ENDROOT
BRANCH   1   2
ATOM      2  C   UNL A   1      36.906  21.738  25.100  1.00  0.00     0.305 C 
ATOM      3  O   UNL A   1      37.589  21.452  24.121  1.00  0.00    -0.252 OA
BRANCH   2   4
ATOM      4  C   UNL A   1      35.430  21.373  25.170  1.00  0.00     0.123 C 
BRANCH   4   5
ATOM      5  C   UNL A   1      34.644  21.308  26.485  1.00  0.00     0.012 C 
BRANCH   5   6
ATOM      6  C   UNL A   1      33.248  20.691  26.435  1.00  0.00     0.001 C 
BRANCH   6   7
ATOM      7  C   UNL A   1      32.326  21.443  25.485  1.00  0.00     0.000 C 
BRANCH   7   8
ATOM      8  C   UNL A   1      31.010  21.835  26.151  1.00  0.00     0.000 C 
BRANCH   8   9
ATOM      9  C   UNL A   1      31.082  23.157  26.921  1.00  0.00     0.000 C 
BRANCH   9  10
ATOM     10  C   UNL A   1      32.205  24.096  26.464  1.00  0.00     0.000 C 
BRANCH  10  11
ATOM     11  C   UNL A   1      31.853  24.983  25.263  1.00  0.00     0.002 C 
BRANCH  11  12
ATOM     12  C   UNL A   1      30.483  24.719  24.637  1.00  0.00     0.021 C 
BRANCH  12  13
ATOM     13  C   UNL A   1      30.527  24.279  23.185  1.00  0.00     0.117 C 
BRANCH  13  14
ATOM     14  N   UNL A   1      31.697  23.509  22.834  1.00  0.00    -0.338 N 
ATOM     15  N   UNL A   1      32.921  25.114  21.580  1.00  0.00    -0.291 N 
ATOM     16  C   UNL A   1      32.751  23.862  22.065  1.00  0.00     0.320 C 
ATOM     17  H   UNL A   1      33.463  25.163  20.760  1.00  0.00     0.173 HD
ATOM     18  O   UNL A   1      33.521  22.969  21.698  1.00  0.00    -0.248 OA
ATOM     19  H   UNL A   1      31.731  22.598  23.204  1.00  0.00     0.165 HD
BRANCH  15  20
ATOM     20  C   UNL A   1      32.466  26.330  22.039  1.00  0.00     0.157 A 
ATOM     21  N   UNL A   1      32.266  28.053  23.256  1.00  0.00    -0.231 N 
ATOM     22  N   UNL A   1      33.184  27.217  22.729  1.00  0.00    -0.149 NA
ATOM     23  C   UNL A   1      31.060  27.977  22.566  1.00  0.00     0.076 A 
ATOM     24  C   UNL A   1      31.164  26.828  21.802  1.00  0.00     0.078 A 
BRANCH  21  25
ATOM     25  C   UNL A   1      32.573  28.824  24.410  1.00  0.00     0.065 A 
ATOM     26  C   UNL A   1      33.275  30.465  26.551  1.00  0.00     0.082 A 
ATOM     27  C   UNL A   1      32.079  30.695  25.870  1.00  0.00     0.024 A 
ATOM     28  C   UNL A   1      34.099  29.388  26.202  1.00  0.00     0.024 A 
ATOM     29  C   UNL A   1      31.726  29.874  24.800  1.00  0.00     0.030 A 
ATOM     30  C   UNL A   1      33.734  28.548  25.143  1.00  0.00     0.030 A 
BRANCH  26  31
ATOM     31  S   UNL A   1      33.741  31.612  27.811  1.00  0.00     0.238 S 
ATOM     32  O   UNL A   1      34.214  30.881  28.949  1.00  0.00    -0.207 OA
ATOM     33  O   UNL A   1      32.704  32.629  27.902  1.00  0.00    -0.207 OA
BRANCH  31  34
ATOM     34  N   UNL A   1      35.072  32.420  27.178  1.00  0.00    -0.225 NA
ATOM     35  H   UNL A   1      35.516  31.838  26.468  1.00  0.00     0.137 HD
ATOM     36  H   UNL A   1      35.738  32.615  27.924  1.00  0.00     0.137 HD
ENDBRANCH  31  34
ENDBRANCH  26  31
ENDBRANCH  21  25
BRANCH  23  37
ATOM     37  C   UNL A   1      29.984  28.960  22.687  1.00  0.00     0.000 A 
ATOM     38  C   UNL A   1      30.134  30.230  22.106  1.00  0.00     0.010 A 
ATOM     39  C   UNL A   1      28.833  28.684  23.430  1.00  0.00     0.010 A 
ATOM     40  C   UNL A   1      29.181  31.225  22.314  1.00  0.00     0.001 A 
ATOM     41  C   UNL A   1      27.872  29.680  23.626  1.00  0.00     0.001 A 
ATOM     42  C   UNL A   1      28.053  30.951  23.079  1.00  0.00     0.000 A 
ENDBRANCH  23  37
ENDBRANCH  15  20
ENDBRANCH  13  14
ENDBRANCH  12  13
ENDBRANCH  11  12
ENDBRANCH  10  11
ENDBRANCH   9  10
ENDBRANCH   8   9
ENDBRANCH   7   8
ENDBRANCH   6   7
ENDBRANCH   5   6
ENDBRANCH   4   5
ENDBRANCH   2   4
ENDBRANCH   1   2
BRANCH   1  43
ATOM     43  C   UNL A   1      38.312  23.410  26.053  1.00  0.00     0.261 C 
BRANCH  43  44
ATOM     44  C   UNL A   1      39.731  23.179  26.605  1.00  0.00     0.202 C 
BRANCH  44  45
ATOM     45  O   UNL A   1      40.502  22.027  26.305  1.00  0.00    -0.376 OA
BRANCH  45  46
ATOM     46  C   UNL A   1      41.887  22.138  26.031  1.00  0.00     0.188 C 
BRANCH  46  47
ATOM     47  C   UNL A   1      42.862  22.478  27.169  1.00  0.00     0.188 C 
BRANCH  47  48
ATOM     48  O   UNL A   1      42.349  23.211  28.260  1.00  0.00    -0.377 OA
BRANCH  48  49
ATOM     49  C   UNL A   1      43.036  23.137  29.499  1.00  0.00     0.188 C 
BRANCH  49  50
ATOM     50  C   UNL A   1      44.582  23.141  29.556  1.00  0.00     0.188 C 
BRANCH  50  51
ATOM     51  O   UNL A   1      45.240  24.045  28.675  1.00  0.00    -0.376 OA
BRANCH  51  52
ATOM     52  C   UNL A   1      46.353  24.808  29.113  1.00  0.00     0.202 C 
BRANCH  52  53
ATOM     53  C   UNL A   1      47.211  25.464  28.029  1.00  0.00     0.261 C 
BRANCH  53  54
ATOM     54  O   UNL A   1      47.273  26.877  28.127  1.00  0.00    -0.460 OA
BRANCH  54  55
ATOM     55  C   UNL A   1      48.374  27.335  28.750  1.00  0.00     0.338 C 
ATOM     56  O   UNL A   1      49.527  26.979  28.578  1.00  0.00    -0.246 OA
BRANCH  55  57
ATOM     57  C   UNL A   1      47.969  28.255  29.808  1.00  0.00     0.060 A 
ATOM     58  C   UNL A   1      46.945  27.795  30.634  1.00  0.00     0.016 A 
ATOM     59  C   UNL A   1      48.294  29.614  29.676  1.00  0.00     0.016 A 
ATOM     60  C   UNL A   1      46.043  28.721  31.086  1.00  0.00     0.010 A 
ATOM     61  C   UNL A   1      47.384  30.536  30.121  1.00  0.00     0.010 A 
ATOM     62  C   UNL A   1      46.222  30.059  30.715  1.00  0.00    -0.014 A 
BRANCH  62  63
ATOM     63  C   UNL A   1      45.137  30.961  30.999  1.00  0.00     0.031 A 
ATOM     64  C   UNL A   1      44.760  30.957  32.421  1.00  0.00     0.074 A 
ATOM     65  C   UNL A   1      44.575  31.730  30.051  1.00  0.00     0.049 A 
ATOM     66  N   UNL A   1      43.690  30.467  32.946  1.00  0.00    -0.248 NA
ATOM     67  C   UNL A   1      45.786  31.370  33.392  1.00  0.00     0.031 C 
ATOM     68  C   UNL A   1      45.043  32.001  28.690  1.00  0.00     0.029 A 
ATOM     69  N   UNL A   1      43.476  32.517  30.159  1.00  0.00    -0.354 N 
ATOM     70  C   UNL A   1      43.813  30.699  34.307  1.00  0.00     0.074 A 
ATOM     71  C   UNL A   1      45.184  31.070  34.542  1.00  0.00     0.031 C 
ATOM     72  C   UNL A   1      44.367  33.066  28.196  1.00  0.00     0.029 A 
ATOM     73  C   UNL A   1      43.342  33.455  29.149  1.00  0.00     0.049 A 
ATOM     74  H   UNL A   1      42.828  32.430  30.895  1.00  0.00     0.167 HD
ATOM     75  C   UNL A   1      42.714  30.829  35.092  1.00  0.00     0.037 A 
ATOM     76  C   UNL A   1      42.502  34.520  29.177  1.00  0.00     0.037 A 
ATOM     77  C   UNL A   1      41.542  30.279  34.458  1.00  0.00     0.049 A 
ATOM     78  C   UNL A   1      41.461  34.240  30.203  1.00  0.00     0.074 A 
ATOM     79  C   UNL A   1      41.188  29.025  34.000  1.00  0.00     0.029 A 
ATOM     80  N   UNL A   1      40.664  31.156  33.870  1.00  0.00    -0.354 N 
ATOM     81  N   UNL A   1      40.539  33.326  30.073  1.00  0.00    -0.248 NA
ATOM     82  C   UNL A   1      41.729  34.658  31.573  1.00  0.00     0.031 C 
ATOM     83  C   UNL A   1      40.433  29.261  32.815  1.00  0.00     0.029 A 
ATOM     84  C   UNL A   1      40.327  30.642  32.644  1.00  0.00     0.049 A 
ATOM     85  H   UNL A   1      40.337  32.000  34.257  1.00  0.00     0.167 HD
ATOM     86  C   UNL A   1      40.424  32.754  31.332  1.00  0.00     0.074 A 
ATOM     87  C   UNL A   1      41.117  33.671  32.233  1.00  0.00     0.031 C 
ATOM     88  C   UNL A   1      40.035  31.453  31.485  1.00  0.00     0.037 A 
BRANCH  75  89
ATOM     89  C   UNL A   1      42.637  31.799  36.239  1.00  0.00     0.057 A 
ATOM     90  C   UNL A   1      42.935  31.349  37.534  1.00  0.00     0.134 A 
ATOM     91  C   UNL A   1      42.010  33.061  36.166  1.00  0.00     0.134 A 
ATOM     92  F   UNL A   1      43.509  30.153  37.730  1.00  0.00    -0.206 F 
ATOM     93  C   UNL A   1      42.575  32.073  38.675  1.00  0.00     0.040 A 
ATOM     94  C   UNL A   1      41.699  33.817  37.296  1.00  0.00     0.040 A 
ATOM     95  F   UNL A   1      41.569  33.583  35.015  1.00  0.00    -0.206 F 
ATOM     96  C   UNL A   1      41.951  33.310  38.557  1.00  0.00     0.006 A 
ENDBRANCH  75  89
BRANCH  76  97
ATOM     97  C   UNL A   1      42.742  35.885  28.654  1.00  0.00     0.057 A 
ATOM     98  C   UNL A   1      41.931  36.423  27.645  1.00  0.00     0.134 A 
ATOM     99  C   UNL A   1      43.584  36.796  29.319  1.00  0.00     0.134 A 
ATOM    100  F   UNL A   1      41.067  35.642  26.980  1.00  0.00    -0.206 F 
ATOM    101  C   UNL A   1      41.933  37.789  27.336  1.00  0.00     0.040 A 
ATOM    102  C   UNL A   1      43.601  38.161  29.015  1.00  0.00     0.040 A 
ATOM    103  F   UNL A   1      44.350  36.412  30.349  1.00  0.00    -0.206 F 
ATOM    104  C   UNL A   1      42.761  38.665  28.030  1.00  0.00     0.006 A 
ENDBRANCH  76  97
BRANCH  88 105
ATOM    105  C   UNL A   1      39.488  30.740  30.279  1.00  0.00     0.057 A 
ATOM    106  C   UNL A   1      38.150  30.819  29.859  1.00  0.00     0.134 A 
ATOM    107  C   UNL A   1      40.377  30.069  29.434  1.00  0.00     0.134 A 
ATOM    108  F   UNL A   1      37.246  31.526  30.548  1.00  0.00    -0.206 F 
ATOM    109  C   UNL A   1      37.713  30.216  28.674  1.00  0.00     0.040 A 
ATOM    110  C   UNL A   1      39.962  29.495  28.231  1.00  0.00     0.040 A 
ATOM    111  F   UNL A   1      41.682  30.004  29.743  1.00  0.00    -0.206 F 
ATOM    112  C   UNL A   1      38.623  29.557  27.853  1.00  0.00     0.006 A 
ENDBRANCH  88 105
ENDBRANCH  62  63
ENDBRANCH  55  57
ENDBRANCH  54  55
ENDBRANCH  53  54
ENDBRANCH  52  53
ENDBRANCH  51  52
ENDBRANCH  50  51
ENDBRANCH  49  50
ENDBRANCH  48  49
ENDBRANCH  47  48
ENDBRANCH  46  47
ENDBRANCH  45  46
ENDBRANCH  44  45
ENDBRANCH  43  44
ENDBRANCH   1  43
TORSDOF 35
ENDMDL
MODEL 3
REMARK VINA RESULT:      -6.0      7.632     13.720
REMARK SMILES NS(=O)(=O)c1ccc(-n2nc(NC(=O)NCCCCCCCCCCC(=O)OCCOCCOCCOCCOC(=O)c3ccc(-c4c5nc(c(-c6c(F)cccc6F)c6ccc([nH]6)c(-c6c(F)cccc6F)c6nc(c(-c7c(F)cccc7F)c7ccc4[nH]7)C=C6)C=C5)cc3)cc2-c2ccccc2)cc1
REMARK SMILES IDX 28 1 26 2 27 3 25 4 24 5 23 6 22 7 21 8 20 9 19 10 18 11
REMARK SMILES IDX 17 12 16 13 15 14 12 15 13 16 14 18 11 20 9 21 10 22 98 23
REMARK SMILES IDX 97 24 8 25 5 26 6 27 106 28 7 29 105 30 2 31 3 32 4 33 1 34
REMARK SMILES IDX 99 37 100 38 104 39 101 40 103 41 102 42 29 43 30 44 31 45
REMARK SMILES IDX 32 46 33 47 34 48 35 49 36 50 37 51 38 52 39 53 40 54 41 55
REMARK SMILES IDX 42 56 43 57 44 58 96 59 45 60 95 61 46 62 47 63 48 64 89 65
REMARK SMILES IDX 49 66 94 67 88 68 90 69 50 70 93 71 87 72 86 73 51 75 77 76
REMARK SMILES IDX 60 77 76 78 61 79 64 80 75 81 91 82 62 83 63 84 74 86 92 87
REMARK SMILES IDX 65 88 52 89 53 90 58 91 54 92 55 93 57 94 59 95 56 96 78 97
REMARK SMILES IDX 79 98 84 99 80 100 81 101 83 102 85 103 82 104 66 105 67 106
REMARK SMILES IDX 72 107 68 108 69 109 71 110 73 111 70 112
REMARK H PARENT 12 17 15 19 1 35 1 36 90 74 64 85
REMARK Flexibility Score: inf
ROOT
ATOM      1  O   UNL A   1      39.676  24.213  26.337  1.00  0.00    -0.463 OA
ENDROOT
BRANCH   1   2
ATOM      2  C   UNL A   1      40.461  23.183  26.715  1.00  0.00     0.305 C 
ATOM      3  O   UNL A   1      40.058  22.037  26.887  1.00  0.00    -0.252 OA
BRANCH   2   4
ATOM      4  C   UNL A   1      41.937  23.532  26.845  1.00  0.00     0.123 C 
BRANCH   4   5
ATOM      5  C   UNL A   1      42.710  24.321  25.781  1.00  0.00     0.012 C 
BRANCH   5   6
ATOM      6  C   UNL A   1      43.785  23.570  24.998  1.00  0.00     0.001 C 
BRANCH   6   7
ATOM      7  C   UNL A   1      45.145  23.652  25.677  1.00  0.00     0.000 C 
BRANCH   7   8
ATOM      8  C   UNL A   1      46.266  23.953  24.684  1.00  0.00     0.000 C 
BRANCH   8   9
ATOM      9  C   UNL A   1      47.288  24.968  25.202  1.00  0.00     0.000 C 
BRANCH   9  10
ATOM     10  C   UNL A   1      47.819  24.673  26.610  1.00  0.00     0.000 C 
BRANCH  10  11
ATOM     11  C   UNL A   1      49.158  25.344  26.945  1.00  0.00     0.002 C 
BRANCH  11  12
ATOM     12  C   UNL A   1      49.299  26.790  26.471  1.00  0.00     0.021 C 
BRANCH  12  13
ATOM     13  C   UNL A   1      50.489  27.531  27.053  1.00  0.00     0.117 C 
BRANCH  13  14
ATOM     14  N   UNL A   1      51.736  26.810  26.968  1.00  0.00    -0.338 N 
ATOM     15  N   UNL A   1      52.433  26.865  29.239  1.00  0.00    -0.291 N 
ATOM     16  C   UNL A   1      52.642  26.555  27.938  1.00  0.00     0.320 C 
ATOM     17  H   UNL A   1      53.254  26.999  29.763  1.00  0.00     0.173 HD
ATOM     18  O   UNL A   1      53.750  26.132  27.596  1.00  0.00    -0.248 OA
ATOM     19  H   UNL A   1      51.960  26.455  26.077  1.00  0.00     0.165 HD
BRANCH  15  20
ATOM     20  C   UNL A   1      51.266  27.023  29.953  1.00  0.00     0.157 A 
ATOM     21  N   UNL A   1      49.840  27.852  31.284  1.00  0.00    -0.231 N 
ATOM     22  N   UNL A   1      50.746  28.188  30.342  1.00  0.00    -0.149 NA
ATOM     23  C   UNL A   1      49.474  26.514  31.176  1.00  0.00     0.076 A 
ATOM     24  C   UNL A   1      50.428  25.955  30.345  1.00  0.00     0.078 A 
BRANCH  21  25
ATOM     25  C   UNL A   1      49.427  28.803  32.256  1.00  0.00     0.065 A 
ATOM     26  C   UNL A   1      48.754  30.799  34.081  1.00  0.00     0.082 A 
ATOM     27  C   UNL A   1      48.075  30.721  32.863  1.00  0.00     0.024 A 
ATOM     28  C   UNL A   1      49.732  29.855  34.415  1.00  0.00     0.024 A 
ATOM     29  C   UNL A   1      48.410  29.723  31.951  1.00  0.00     0.030 A 
ATOM     30  C   UNL A   1      50.053  28.837  33.508  1.00  0.00     0.030 A 
BRANCH  26  31
ATOM     31  S   UNL A   1      48.385  32.161  35.145  1.00  0.00     0.238 S 
ATOM     32  O   UNL A   1      46.979  32.164  35.421  1.00  0.00    -0.207 OA
ATOM     33  O   UNL A   1      49.094  33.330  34.646  1.00  0.00    -0.207 OA
BRANCH  31  34
ATOM     34  N   UNL A   1      49.153  31.786  36.593  1.00  0.00    -0.225 NA
ATOM     35  H   UNL A   1      49.959  32.398  36.719  1.00  0.00     0.137 HD
ATOM     36  H   UNL A   1      49.462  30.815  36.573  1.00  0.00     0.137 HD
ENDBRANCH  31  34
ENDBRANCH  26  31
ENDBRANCH  21  25
BRANCH  23  37
ATOM     37  C   UNL A   1      48.306  25.929  31.834  1.00  0.00     0.000 A 
ATOM     38  C   UNL A   1      47.034  26.079  31.256  1.00  0.00     0.010 A 
ATOM     39  C   UNL A   1      48.420  25.281  33.067  1.00  0.00     0.010 A 
ATOM     40  C   UNL A   1      45.892  25.644  31.925  1.00  0.00     0.001 A 
ATOM     41  C   UNL A   1      47.273  24.832  33.730  1.00  0.00     0.001 A 
ATOM     42  C   UNL A   1      46.012  25.025  33.165  1.00  0.00     0.000 A 
ENDBRANCH  23  37
ENDBRANCH  15  20
ENDBRANCH  13  14
ENDBRANCH  12  13
ENDBRANCH  11  12
ENDBRANCH  10  11
ENDBRANCH   9  10
ENDBRANCH   8   9
ENDBRANCH   7   8
ENDBRANCH   6   7
ENDBRANCH   5   6
ENDBRANCH   4   5
ENDBRANCH   2   4
ENDBRANCH   1   2
BRANCH   1  43
ATOM     43  C   UNL A   1      38.286  24.157  26.679  1.00  0.00     0.261 C 
BRANCH  43  44
ATOM     44  C   UNL A   1      37.325  23.758  25.545  1.00  0.00     0.202 C 
BRANCH  44  45
ATOM     45  O   UNL A   1      35.935  24.040  25.570  1.00  0.00    -0.376 OA
BRANCH  45  46
ATOM     46  C   UNL A   1      35.322  24.744  24.506  1.00  0.00     0.188 C 
BRANCH  46  47
ATOM     47  C   UNL A   1      34.058  25.576  24.772  1.00  0.00     0.188 C 
BRANCH  47  48
ATOM     48  O   UNL A   1      33.572  26.368  23.710  1.00  0.00    -0.377 OA
BRANCH  48  49
ATOM     49  C   UNL A   1      33.753  27.774  23.786  1.00  0.00     0.188 C 
BRANCH  49  50
ATOM     50  C   UNL A   1      32.543  28.737  23.763  1.00  0.00     0.188 C 
BRANCH  50  51
ATOM     51  O   UNL A   1      32.395  29.585  24.896  1.00  0.00    -0.376 OA
BRANCH  51  52
ATOM     52  C   UNL A   1      33.174  29.383  26.065  1.00  0.00     0.202 C 
BRANCH  52  53
ATOM     53  C   UNL A   1      33.150  30.498  27.113  1.00  0.00     0.261 C 
BRANCH  53  54
ATOM     54  O   UNL A   1      34.431  31.020  27.422  1.00  0.00    -0.460 OA
BRANCH  54  55
ATOM     55  C   UNL A   1      35.173  30.220  28.208  1.00  0.00     0.338 C 
ATOM     56  O   UNL A   1      35.029  29.024  28.399  1.00  0.00    -0.246 OA
BRANCH  55  57
ATOM     57  C   UNL A   1      36.130  31.038  28.945  1.00  0.00     0.060 A 
ATOM     58  C   UNL A   1      37.261  31.421  28.225  1.00  0.00     0.016 A 
ATOM     59  C   UNL A   1      36.084  31.028  30.347  1.00  0.00     0.016 A 
ATOM     60  C   UNL A   1      38.444  31.492  28.910  1.00  0.00     0.010 A 
ATOM     61  C   UNL A   1      37.271  31.089  31.028  1.00  0.00     0.010 A 
ATOM     62  C   UNL A   1      38.437  31.205  30.280  1.00  0.00    -0.014 A 
BRANCH  62  63
ATOM     63  C   UNL A   1      39.718  31.050  30.917  1.00  0.00     0.031 A 
ATOM     64  C   UNL A   1      40.437  32.327  31.049  1.00  0.00     0.074 A 
ATOM     65  C   UNL A   1      40.162  29.862  31.359  1.00  0.00     0.049 A 
ATOM     66  N   UNL A   1      41.484  32.706  30.399  1.00  0.00    -0.248 NA
ATOM     67  C   UNL A   1      39.800  33.381  31.855  1.00  0.00     0.031 C 
ATOM     68  C   UNL A   1      39.426  28.606  31.516  1.00  0.00     0.029 A 
ATOM     69  N   UNL A   1      41.389  29.562  31.855  1.00  0.00    -0.354 N 
ATOM     70  C   UNL A   1      41.763  33.980  30.871  1.00  0.00     0.074 A 
ATOM     71  C   UNL A   1      40.603  34.414  31.605  1.00  0.00     0.031 C 
ATOM     72  C   UNL A   1      40.155  27.761  32.285  1.00  0.00     0.029 A 
ATOM     73  C   UNL A   1      41.447  28.368  32.555  1.00  0.00     0.049 A 
ATOM     74  H   UNL A   1      42.171  30.144  31.729  1.00  0.00     0.167 HD
ATOM     75  C   UNL A   1      43.030  34.467  30.848  1.00  0.00     0.037 A 
ATOM     76  C   UNL A   1      42.464  27.987  33.368  1.00  0.00     0.037 A 
ATOM     77  C   UNL A   1      43.863  33.733  29.930  1.00  0.00     0.049 A 
ATOM     78  C   UNL A   1      43.654  28.805  33.006  1.00  0.00     0.074 A 
ATOM     79  C   UNL A   1      43.825  33.492  28.570  1.00  0.00     0.029 A 
ATOM     80  N   UNL A   1      44.720  32.797  30.454  1.00  0.00    -0.354 N 
ATOM     81  N   UNL A   1      44.306  28.683  31.883  1.00  0.00    -0.248 NA
ATOM     82  C   UNL A   1      43.836  30.077  33.693  1.00  0.00     0.031 C 
ATOM     83  C   UNL A   1      44.283  32.152  28.417  1.00  0.00     0.029 A 
ATOM     84  C   UNL A   1      44.620  31.668  29.681  1.00  0.00     0.049 A 
ATOM     85  H   UNL A   1      45.300  32.914  31.240  1.00  0.00     0.167 HD
ATOM     86  C   UNL A   1      44.621  29.982  31.511  1.00  0.00     0.074 A 
ATOM     87  C   UNL A   1      44.383  30.790  32.705  1.00  0.00     0.031 C 
ATOM     88  C   UNL A   1      44.764  30.326  30.197  1.00  0.00     0.037 A 
BRANCH  75  89
ATOM     89  C   UNL A   1      43.593  35.334  31.940  1.00  0.00     0.057 A 
ATOM     90  C   UNL A   1      44.207  36.548  31.599  1.00  0.00     0.134 A 
ATOM     91  C   UNL A   1      43.812  34.896  33.264  1.00  0.00     0.134 A 
ATOM     92  F   UNL A   1      44.091  37.053  30.361  1.00  0.00    -0.206 F 
ATOM     93  C   UNL A   1      45.034  37.241  32.489  1.00  0.00     0.040 A 
ATOM     94  C   UNL A   1      44.588  35.609  34.178  1.00  0.00     0.040 A 
ATOM     95  F   UNL A   1      43.382  33.711  33.713  1.00  0.00    -0.206 F 
ATOM     96  C   UNL A   1      45.229  36.769  33.782  1.00  0.00     0.006 A 
ENDBRANCH  75  89
BRANCH  76  97
ATOM     97  C   UNL A   1      42.380  27.245  34.647  1.00  0.00     0.057 A 
ATOM     98  C   UNL A   1      41.820  27.837  35.788  1.00  0.00     0.134 A 
ATOM     99  C   UNL A   1      42.583  25.854  34.711  1.00  0.00     0.134 A 
ATOM    100  F   UNL A   1      41.552  29.151  35.809  1.00  0.00    -0.206 F 
ATOM    101  C   UNL A   1      41.454  27.088  36.914  1.00  0.00     0.040 A 
ATOM    102  C   UNL A   1      42.230  25.095  35.832  1.00  0.00     0.040 A 
ATOM    103  F   UNL A   1      43.044  25.168  33.657  1.00  0.00    -0.206 F 
ATOM    104  C   UNL A   1      41.648  25.710  36.934  1.00  0.00     0.006 A 
ENDBRANCH  76  97
BRANCH  88 105
ATOM    105  C   UNL A   1      44.828  29.215  29.185  1.00  0.00     0.057 A 
ATOM    106  C   UNL A   1      46.016  28.584  28.784  1.00  0.00     0.134 A 
ATOM    107  C   UNL A   1      43.631  28.668  28.711  1.00  0.00     0.134 A 
ATOM    108  F   UNL A   1      47.204  28.969  29.267  1.00  0.00    -0.206 F 
ATOM    109  C   UNL A   1      46.012  27.488  27.914  1.00  0.00     0.040 A 
ATOM    110  C   UNL A   1      43.610  27.554  27.871  1.00  0.00     0.040 A 
ATOM    111  F   UNL A   1      42.453  29.184  29.098  1.00  0.00    -0.206 F 
ATOM    112  C   UNL A   1      44.804  26.966  27.460  1.00  0.00     0.006 A 
ENDBRANCH  88 105
ENDBRANCH  62  63
ENDBRANCH  55  57
ENDBRANCH  54  55
ENDBRANCH  53  54
ENDBRANCH  52  53
ENDBRANCH  51  52
ENDBRANCH  50  51
ENDBRANCH  49  50
ENDBRANCH  48  49
ENDBRANCH  47  48
ENDBRANCH  46  47
ENDBRANCH  45  46
ENDBRANCH  44  45
ENDBRANCH  43  44
ENDBRANCH   1  43
TORSDOF 35
ENDMDL
