MODEL 1
REMARK VINA RESULT:      -9.7      0.000      0.000
REMARK SMILES CNC(=O)CCCn1cc(C(=O)OCCOCCOCCOCCOC(=O)c2ccc(-c3c4nc(c(-c5c(F)cccc5F)c5ccc([nH]5)c(-c5c(F)cccc5F)c5nc(c(-c6c(F)cccc6F)c6ccc3[nH]6)C=C5)C=C4)cc2)cc1Br
REMARK SMILES IDX 18 1 17 2 16 3 15 4 14 5 13 6 11 7 12 8 10 9 8 10 9 11 83 12
REMARK SMILES IDX 82 13 84 14 7 15 6 16 5 17 3 18 1 19 2 20 4 22 19 23 20 24
REMARK SMILES IDX 21 25 22 26 23 27 24 28 25 29 26 30 27 31 28 32 29 33 81 34
REMARK SMILES IDX 30 35 80 36 31 37 32 38 33 39 74 40 34 41 79 42 73 43 75 44
REMARK SMILES IDX 35 45 78 46 72 47 71 48 36 50 62 51 45 52 61 53 46 54 49 55
REMARK SMILES IDX 60 56 76 57 47 58 48 59 59 61 77 62 50 63 37 64 38 65 43 66
REMARK SMILES IDX 39 67 40 68 42 69 44 70 41 71 63 72 64 73 69 74 65 75 66 76
REMARK SMILES IDX 68 77 70 78 67 79 51 80 52 81 57 82 53 83 54 84 56 85 58 86
REMARK SMILES IDX 55 87
REMARK H PARENT 2 21 75 49 49 60
REMARK Flexibility Score: inf
ROOT
ATOM      1  C   UNL A   1      37.792  21.361  24.973  1.00  0.00     0.188 C 
ENDROOT
BRANCH   1   2
ATOM      2  C   UNL A   1      36.731  22.348  24.432  1.00  0.00     0.188 C 
BRANCH   2   3
ATOM      3  O   UNL A   1      35.396  21.991  24.729  1.00  0.00    -0.376 OA
BRANCH   3   4
ATOM      4  C   UNL A   1      35.095  20.723  25.261  1.00  0.00     0.202 C 
BRANCH   4   5
ATOM      5  C   UNL A   1      33.855  20.022  24.691  1.00  0.00     0.261 C 
BRANCH   5   6
ATOM      6  O   UNL A   1      33.013  20.836  23.860  1.00  0.00    -0.460 OA
BRANCH   6   7
ATOM      7  C   UNL A   1      32.032  21.512  24.508  1.00  0.00     0.339 C 
ATOM      8  O   UNL A   1      31.460  21.095  25.521  1.00  0.00    -0.246 OA
BRANCH   7   9
ATOM      9  C   UNL A   1      31.837  22.862  24.002  1.00  0.00     0.078 A 
ATOM     10  N   UNL A   1      31.187  25.014  23.742  1.00  0.00    -0.341 N 
ATOM     11  C   UNL A   1      31.013  23.861  24.501  1.00  0.00     0.102 A 
ATOM     12  C   UNL A   1      32.082  24.728  22.743  1.00  0.00     0.085 A 
ATOM     13  C   UNL A   1      32.456  23.411  22.850  1.00  0.00     0.051 A 
ATOM     14  Br  UNL A   1      32.821  25.835  21.427  1.00  0.00    -0.031 Br
BRANCH  10  15
ATOM     15  C   UNL A   1      30.570  26.273  24.137  1.00  0.00     0.123 C 
BRANCH  15  16
ATOM     16  C   UNL A   1      31.336  27.309  24.965  1.00  0.00     0.032 C 
BRANCH  16  17
ATOM     17  C   UNL A   1      31.208  28.765  24.519  1.00  0.00     0.102 C 
BRANCH  17  18
ATOM     18  C   UNL A   1      31.974  29.058  23.249  1.00  0.00     0.219 C 
ATOM     19  C   UNL A   1      29.905  29.718  21.931  1.00  0.00     0.142 C 
ATOM     20  N   UNL A   1      31.315  29.481  22.138  1.00  0.00    -0.359 N 
ATOM     21  H   UNL A   1      31.885  29.651  21.354  1.00  0.00     0.163 HD
ATOM     22  O   UNL A   1      33.198  28.940  23.203  1.00  0.00    -0.275 OA
ENDBRANCH  17  18
ENDBRANCH  16  17
ENDBRANCH  15  16
ENDBRANCH  10  15
ENDBRANCH   7   9
ENDBRANCH   6   7
ENDBRANCH   5   6
ENDBRANCH   4   5
ENDBRANCH   3   4
ENDBRANCH   2   3
ENDBRANCH   1   2
BRANCH   1  23
ATOM     23  O   UNL A   1      38.928  21.756  25.740  1.00  0.00    -0.377 OA
BRANCH  23  24
ATOM     24  C   UNL A   1      39.889  20.798  26.154  1.00  0.00     0.188 C 
BRANCH  24  25
ATOM     25  C   UNL A   1      40.795  21.138  27.362  1.00  0.00     0.188 C 
BRANCH  25  26
ATOM     26  O   UNL A   1      42.062  20.508  27.391  1.00  0.00    -0.376 OA
BRANCH  26  27
ATOM     27  C   UNL A   1      42.333  19.201  26.931  1.00  0.00     0.202 C 
BRANCH  27  28
ATOM     28  C   UNL A   1      43.214  18.889  25.729  1.00  0.00     0.261 C 
BRANCH  28  29
ATOM     29  O   UNL A   1      43.302  19.920  24.779  1.00  0.00    -0.460 OA
BRANCH  29  30
ATOM     30  C   UNL A   1      44.486  20.016  24.170  1.00  0.00     0.338 C 
ATOM     31  O   UNL A   1      45.136  19.113  23.637  1.00  0.00    -0.246 OA
BRANCH  30  32
ATOM     32  C   UNL A   1      44.964  21.375  24.357  1.00  0.00     0.060 A 
ATOM     33  C   UNL A   1      46.002  21.543  25.274  1.00  0.00     0.016 A 
ATOM     34  C   UNL A   1      44.078  22.403  24.000  1.00  0.00     0.016 A 
ATOM     35  C   UNL A   1      45.962  22.659  26.066  1.00  0.00     0.010 A 
ATOM     36  C   UNL A   1      44.004  23.484  24.827  1.00  0.00     0.010 A 
ATOM     37  C   UNL A   1      44.891  23.542  25.899  1.00  0.00    -0.014 A 
BRANCH  37  38
ATOM     38  C   UNL A   1      44.769  24.644  26.818  1.00  0.00     0.031 A 
ATOM     39  C   UNL A   1      45.956  25.520  26.754  1.00  0.00     0.074 A 
ATOM     40  C   UNL A   1      43.620  24.854  27.488  1.00  0.00     0.049 A 
ATOM     41  N   UNL A   1      46.814  25.757  27.687  1.00  0.00    -0.248 NA
ATOM     42  C   UNL A   1      46.367  26.016  25.423  1.00  0.00     0.031 C 
ATOM     43  C   UNL A   1      42.347  24.143  27.327  1.00  0.00     0.029 A 
ATOM     44  N   UNL A   1      43.305  25.841  28.366  1.00  0.00    -0.354 N 
ATOM     45  C   UNL A   1      47.722  26.643  27.118  1.00  0.00     0.074 A 
ATOM     46  C   UNL A   1      47.551  26.557  25.697  1.00  0.00     0.031 C 
ATOM     47  C   UNL A   1      41.357  24.869  27.895  1.00  0.00     0.029 A 
ATOM     48  C   UNL A   1      41.938  26.027  28.548  1.00  0.00     0.049 A 
ATOM     49  H   UNL A   1      43.986  26.377  28.834  1.00  0.00     0.167 HD
ATOM     50  C   UNL A   1      48.266  27.633  27.873  1.00  0.00     0.037 A 
ATOM     51  C   UNL A   1      41.358  27.124  29.098  1.00  0.00     0.037 A 
ATOM     52  C   UNL A   1      48.219  27.289  29.273  1.00  0.00     0.049 A 
ATOM     53  C   UNL A   1      42.423  27.870  29.822  1.00  0.00     0.074 A 
ATOM     54  C   UNL A   1      48.694  26.231  30.025  1.00  0.00     0.029 A 
ATOM     55  N   UNL A   1      47.264  27.901  30.045  1.00  0.00    -0.354 N 
ATOM     56  N   UNL A   1      43.005  27.443  30.907  1.00  0.00    -0.248 NA
ATOM     57  C   UNL A   1      43.167  28.871  29.069  1.00  0.00     0.031 C 
ATOM     58  C   UNL A   1      47.691  25.992  31.009  1.00  0.00     0.029 A 
ATOM     59  C   UNL A   1      46.694  26.956  30.855  1.00  0.00     0.049 A 
ATOM     60  H   UNL A   1      47.027  28.857  30.020  1.00  0.00     0.167 HD
ATOM     61  C   UNL A   1      44.344  27.771  30.741  1.00  0.00     0.074 A 
ATOM     62  C   UNL A   1      44.369  28.722  29.631  1.00  0.00     0.031 C 
ATOM     63  C   UNL A   1      45.327  27.018  31.318  1.00  0.00     0.037 A 
BRANCH  50  64
ATOM     64  C   UNL A   1      48.386  29.060  27.382  1.00  0.00     0.057 A 
ATOM     65  C   UNL A   1      49.612  29.721  27.555  1.00  0.00     0.134 A 
ATOM     66  C   UNL A   1      47.301  29.900  27.039  1.00  0.00     0.134 A 
ATOM     67  F   UNL A   1      50.718  29.040  27.888  1.00  0.00    -0.206 F 
ATOM     68  C   UNL A   1      49.729  31.113  27.488  1.00  0.00     0.040 A 
ATOM     69  C   UNL A   1      47.420  31.285  26.917  1.00  0.00     0.040 A 
ATOM     70  F   UNL A   1      46.047  29.460  26.891  1.00  0.00    -0.206 F 
ATOM     71  C   UNL A   1      48.629  31.902  27.180  1.00  0.00     0.006 A 
ENDBRANCH  50  64
BRANCH  51  72
ATOM     72  C   UNL A   1      40.064  27.759  28.750  1.00  0.00     0.057 A 
ATOM     73  C   UNL A   1      39.051  27.898  29.712  1.00  0.00     0.134 A 
ATOM     74  C   UNL A   1      39.887  28.490  27.563  1.00  0.00     0.134 A 
ATOM     75  F   UNL A   1      39.147  27.276  30.896  1.00  0.00    -0.206 F 
ATOM     76  C   UNL A   1      37.943  28.734  29.514  1.00  0.00     0.040 A 
ATOM     77  C   UNL A   1      38.782  29.319  27.348  1.00  0.00     0.040 A 
ATOM     78  F   UNL A   1      40.825  28.499  26.604  1.00  0.00    -0.206 F 
ATOM     79  C   UNL A   1      37.811  29.457  28.333  1.00  0.00     0.006 A 
ENDBRANCH  51  72
BRANCH  63  80
ATOM     80  C   UNL A   1      44.920  26.021  32.368  1.00  0.00     0.057 A 
ATOM     81  C   UNL A   1      44.535  24.697  32.106  1.00  0.00     0.134 A 
ATOM     82  C   UNL A   1      45.059  26.384  33.713  1.00  0.00     0.134 A 
ATOM     83  F   UNL A   1      44.473  24.226  30.853  1.00  0.00    -0.206 F 
ATOM     84  C   UNL A   1      44.252  23.796  33.139  1.00  0.00     0.040 A 
ATOM     85  C   UNL A   1      44.817  25.484  34.750  1.00  0.00     0.040 A 
ATOM     86  F   UNL A   1      45.478  27.617  34.039  1.00  0.00    -0.206 F 
ATOM     87  C   UNL A   1      44.399  24.188  34.466  1.00  0.00     0.006 A 
ENDBRANCH  63  80
ENDBRANCH  37  38
ENDBRANCH  30  32
ENDBRANCH  29  30
ENDBRANCH  28  29
ENDBRANCH  27  28
ENDBRANCH  26  27
ENDBRANCH  25  26
ENDBRANCH  24  25
ENDBRANCH  23  24
ENDBRANCH   1  23
TORSDOF 24
ENDMDL
MODEL 2
REMARK VINA RESULT:      -9.4      5.631     10.997
REMARK SMILES CNC(=O)CCCn1cc(C(=O)OCCOCCOCCOCCOC(=O)c2ccc(-c3c4nc(c(-c5c(F)cccc5F)c5ccc([nH]5)c(-c5c(F)cccc5F)c5nc(c(-c6c(F)cccc6F)c6ccc3[nH]6)C=C5)C=C4)cc2)cc1Br
REMARK SMILES IDX 18 1 17 2 16 3 15 4 14 5 13 6 11 7 12 8 10 9 8 10 9 11 83 12
REMARK SMILES IDX 82 13 84 14 7 15 6 16 5 17 3 18 1 19 2 20 4 22 19 23 20 24
REMARK SMILES IDX 21 25 22 26 23 27 24 28 25 29 26 30 27 31 28 32 29 33 81 34
REMARK SMILES IDX 30 35 80 36 31 37 32 38 33 39 74 40 34 41 79 42 73 43 75 44
REMARK SMILES IDX 35 45 78 46 72 47 71 48 36 50 62 51 45 52 61 53 46 54 49 55
REMARK SMILES IDX 60 56 76 57 47 58 48 59 59 61 77 62 50 63 37 64 38 65 43 66
REMARK SMILES IDX 39 67 40 68 42 69 44 70 41 71 63 72 64 73 69 74 65 75 66 76
REMARK SMILES IDX 68 77 70 78 67 79 51 80 52 81 57 82 53 83 54 84 56 85 58 86
REMARK SMILES IDX 55 87
REMARK H PARENT 2 21 75 49 49 60
REMARK Flexibility Score: inf
ROOT
ATOM      1  C   UNL A   1      32.481  30.026  27.249  1.00  0.00     0.188 C 
ENDROOT
BRANCH   1   2
ATOM      2  C   UNL A   1      31.800  30.326  25.893  1.00  0.00     0.188 C 
BRANCH   2   3
ATOM      3  O   UNL A   1      31.642  29.197  25.057  1.00  0.00    -0.376 OA
BRANCH   3   4
ATOM      4  C   UNL A   1      32.536  28.113  25.140  1.00  0.00     0.202 C 
BRANCH   4   5
ATOM      5  C   UNL A   1      32.447  27.069  24.019  1.00  0.00     0.261 C 
BRANCH   5   6
ATOM      6  O   UNL A   1      33.705  26.570  23.538  1.00  0.00    -0.460 OA
BRANCH   6   7
ATOM      7  C   UNL A   1      33.626  25.602  22.592  1.00  0.00     0.339 C 
ATOM      8  O   UNL A   1      33.650  25.822  21.376  1.00  0.00    -0.246 OA
BRANCH   7   9
ATOM      9  C   UNL A   1      33.688  24.257  23.142  1.00  0.00     0.078 A 
ATOM     10  N   UNL A   1      33.279  22.085  23.628  1.00  0.00    -0.341 N 
ATOM     11  C   UNL A   1      32.793  23.211  22.972  1.00  0.00     0.102 A 
ATOM     12  C   UNL A   1      34.454  22.433  24.246  1.00  0.00     0.085 A 
ATOM     13  C   UNL A   1      34.699  23.763  24.006  1.00  0.00     0.051 A 
ATOM     14  Br  UNL A   1      35.662  21.391  25.223  1.00  0.00    -0.031 Br
BRANCH  10  15
ATOM     15  C   UNL A   1      32.627  20.791  23.483  1.00  0.00     0.123 C 
BRANCH  15  16
ATOM     16  C   UNL A   1      32.740  19.716  24.568  1.00  0.00     0.032 C 
BRANCH  16  17
ATOM     17  C   UNL A   1      33.737  18.587  24.306  1.00  0.00     0.102 C 
BRANCH  17  18
ATOM     18  C   UNL A   1      33.115  17.413  23.586  1.00  0.00     0.219 C 
ATOM     19  C   UNL A   1      32.895  16.000  25.685  1.00  0.00     0.142 C 
ATOM     20  N   UNL A   1      32.767  16.296  24.277  1.00  0.00    -0.359 N 
ATOM     21  H   UNL A   1      32.367  15.578  23.735  1.00  0.00     0.163 HD
ATOM     22  O   UNL A   1      32.894  17.454  22.375  1.00  0.00    -0.275 OA
ENDBRANCH  17  18
ENDBRANCH  16  17
ENDBRANCH  15  16
ENDBRANCH  10  15
ENDBRANCH   7   9
ENDBRANCH   6   7
ENDBRANCH   5   6
ENDBRANCH   4   5
ENDBRANCH   3   4
ENDBRANCH   2   3
ENDBRANCH   1   2
BRANCH   1  23
ATOM     23  O   UNL A   1      33.535  30.812  27.801  1.00  0.00    -0.377 OA
BRANCH  23  24
ATOM     24  C   UNL A   1      33.661  32.187  27.470  1.00  0.00     0.188 C 
BRANCH  24  25
ATOM     25  C   UNL A   1      34.896  32.960  27.993  1.00  0.00     0.188 C 
BRANCH  25  26
ATOM     26  O   UNL A   1      34.770  34.368  28.059  1.00  0.00    -0.376 OA
BRANCH  26  27
ATOM     27  C   UNL A   1      33.598  35.065  28.426  1.00  0.00     0.202 C 
BRANCH  27  28
ATOM     28  C   UNL A   1      33.295  35.530  29.843  1.00  0.00     0.261 C 
BRANCH  28  29
ATOM     29  O   UNL A   1      33.187  34.499  30.792  1.00  0.00    -0.460 OA
BRANCH  29  30
ATOM     30  C   UNL A   1      33.031  34.915  32.051  1.00  0.00     0.338 C 
ATOM     31  O   UNL A   1      32.143  35.643  32.501  1.00  0.00    -0.246 OA
BRANCH  30  32
ATOM     32  C   UNL A   1      34.189  34.465  32.805  1.00  0.00     0.060 A 
ATOM     33  C   UNL A   1      35.206  35.402  32.989  1.00  0.00     0.016 A 
ATOM     34  C   UNL A   1      34.400  33.079  32.857  1.00  0.00     0.016 A 
ATOM     35  C   UNL A   1      36.495  34.947  32.921  1.00  0.00     0.010 A 
ATOM     36  C   UNL A   1      35.682  32.634  32.729  1.00  0.00     0.010 A 
ATOM     37  C   UNL A   1      36.696  33.586  32.671  1.00  0.00    -0.014 A 
BRANCH  37  38
ATOM     38  C   UNL A   1      38.045  33.125  32.463  1.00  0.00     0.031 A 
ATOM     39  C   UNL A   1      38.853  33.283  33.689  1.00  0.00     0.074 A 
ATOM     40  C   UNL A   1      38.388  32.502  31.320  1.00  0.00     0.049 A 
ATOM     41  N   UNL A   1      39.887  34.032  33.863  1.00  0.00    -0.248 NA
ATOM     42  C   UNL A   1      38.312  32.710  34.940  1.00  0.00     0.031 C 
ATOM     43  C   UNL A   1      37.503  32.094  30.222  1.00  0.00     0.029 A 
ATOM     44  N   UNL A   1      39.585  31.978  30.952  1.00  0.00    -0.354 N 
ATOM     45  C   UNL A   1      40.270  33.810  35.181  1.00  0.00     0.074 A 
ATOM     46  C   UNL A   1      39.146  33.216  35.845  1.00  0.00     0.031 C 
ATOM     47  C   UNL A   1      38.144  31.191  29.446  1.00  0.00     0.029 A 
ATOM     48  C   UNL A   1      39.507  31.044  29.924  1.00  0.00     0.049 A 
ATOM     49  H   UNL A   1      40.435  32.237  31.376  1.00  0.00     0.167 HD
ATOM     50  C   UNL A   1      41.588  33.789  35.510  1.00  0.00     0.037 A 
ATOM     51  C   UNL A   1      40.475  30.152  29.593  1.00  0.00     0.037 A 
ATOM     52  C   UNL A   1      42.365  34.521  34.539  1.00  0.00     0.049 A 
ATOM     53  C   UNL A   1      41.738  30.616  30.227  1.00  0.00     0.074 A 
ATOM     54  C   UNL A   1      42.338  35.815  34.056  1.00  0.00     0.029 A 
ATOM     55  N   UNL A   1      43.089  33.793  33.628  1.00  0.00    -0.354 N 
ATOM     56  N   UNL A   1      42.386  31.687  29.865  1.00  0.00    -0.248 NA
ATOM     57  C   UNL A   1      42.022  30.143  31.575  1.00  0.00     0.031 C 
ATOM     58  C   UNL A   1      42.652  35.704  32.670  1.00  0.00     0.029 A 
ATOM     59  C   UNL A   1      42.924  34.363  32.394  1.00  0.00     0.049 A 
ATOM     60  H   UNL A   1      43.633  32.997  33.827  1.00  0.00     0.167 HD
ATOM     61  C   UNL A   1      42.802  32.268  31.056  1.00  0.00     0.074 A 
ATOM     62  C   UNL A   1      42.622  31.229  32.069  1.00  0.00     0.031 C 
ATOM     63  C   UNL A   1      42.968  33.619  31.157  1.00  0.00     0.037 A 
BRANCH  50  64
ATOM     64  C   UNL A   1      42.186  32.732  36.411  1.00  0.00     0.057 A 
ATOM     65  C   UNL A   1      43.040  33.146  37.447  1.00  0.00     0.134 A 
ATOM     66  C   UNL A   1      42.216  31.344  36.137  1.00  0.00     0.134 A 
ATOM     67  F   UNL A   1      43.111  34.437  37.802  1.00  0.00    -0.206 F 
ATOM     68  C   UNL A   1      43.921  32.269  38.088  1.00  0.00     0.040 A 
ATOM     69  C   UNL A   1      43.054  30.453  36.809  1.00  0.00     0.040 A 
ATOM     70  F   UNL A   1      41.517  30.774  35.150  1.00  0.00    -0.206 F 
ATOM     71  C   UNL A   1      43.939  30.920  37.762  1.00  0.00     0.006 A 
ENDBRANCH  50  64
BRANCH  51  72
ATOM     72  C   UNL A   1      40.322  28.765  29.090  1.00  0.00     0.057 A 
ATOM     73  C   UNL A   1      39.697  27.782  29.872  1.00  0.00     0.134 A 
ATOM     74  C   UNL A   1      40.525  28.436  27.738  1.00  0.00     0.134 A 
ATOM     75  F   UNL A   1      39.420  28.016  31.163  1.00  0.00    -0.206 F 
ATOM     76  C   UNL A   1      39.278  26.557  29.337  1.00  0.00     0.040 A 
ATOM     77  C   UNL A   1      40.120  27.213  27.194  1.00  0.00     0.040 A 
ATOM     78  F   UNL A   1      41.039  29.324  26.875  1.00  0.00    -0.206 F 
ATOM     79  C   UNL A   1      39.478  26.273  27.990  1.00  0.00     0.006 A 
ENDBRANCH  51  72
BRANCH  63  80
ATOM     80  C   UNL A   1      42.984  34.420  29.884  1.00  0.00     0.057 A 
ATOM     81  C   UNL A   1      41.844  34.955  29.263  1.00  0.00     0.134 A 
ATOM     82  C   UNL A   1      44.224  34.776  29.342  1.00  0.00     0.134 A 
ATOM     83  F   UNL A   1      40.619  34.755  29.768  1.00  0.00    -0.206 F 
ATOM     84  C   UNL A   1      41.938  35.765  28.126  1.00  0.00     0.040 A 
ATOM     85  C   UNL A   1      44.333  35.614  28.232  1.00  0.00     0.040 A 
ATOM     86  F   UNL A   1      45.360  34.348  29.916  1.00  0.00    -0.206 F 
ATOM     87  C   UNL A   1      43.186  36.101  27.611  1.00  0.00     0.006 A 
ENDBRANCH  63  80
ENDBRANCH  37  38
ENDBRANCH  30  32
ENDBRANCH  29  30
ENDBRANCH  28  29
ENDBRANCH  27  28
ENDBRANCH  26  27
ENDBRANCH  25  26
ENDBRANCH  24  25
ENDBRANCH  23  24
ENDBRANCH   1  23
TORSDOF 24
ENDMDL
MODEL 3
REMARK VINA RESULT:      -9.1      3.386      8.103
REMARK SMILES CNC(=O)CCCn1cc(C(=O)OCCOCCOCCOCCOC(=O)c2ccc(-c3c4nc(c(-c5c(F)cccc5F)c5ccc([nH]5)c(-c5c(F)cccc5F)c5nc(c(-c6c(F)cccc6F)c6ccc3[nH]6)C=C5)C=C4)cc2)cc1Br
REMARK SMILES IDX 18 1 17 2 16 3 15 4 14 5 13 6 11 7 12 8 10 9 8 10 9 11 83 12
REMARK SMILES IDX 82 13 84 14 7 15 6 16 5 17 3 18 1 19 2 20 4 22 19 23 20 24
REMARK SMILES IDX 21 25 22 26 23 27 24 28 25 29 26 30 27 31 28 32 29 33 81 34
REMARK SMILES IDX 30 35 80 36 31 37 32 38 33 39 74 40 34 41 79 42 73 43 75 44
REMARK SMILES IDX 35 45 78 46 72 47 71 48 36 50 62 51 45 52 61 53 46 54 49 55
REMARK SMILES IDX 60 56 76 57 47 58 48 59 59 61 77 62 50 63 37 64 38 65 43 66
REMARK SMILES IDX 39 67 40 68 42 69 44 70 41 71 63 72 64 73 69 74 65 75 66 76
REMARK SMILES IDX 68 77 70 78 67 79 51 80 52 81 57 82 53 83 54 84 56 85 58 86
REMARK SMILES IDX 55 87
REMARK H PARENT 2 21 75 49 49 60
REMARK Flexibility Score: inf
ROOT
ATOM      1  C   UNL A   1      31.399  29.369  24.745  1.00  0.00     0.188 C 
ENDROOT
BRANCH   1   2
ATOM      2  C   UNL A   1      31.742  28.612  23.440  1.00  0.00     0.188 C 
BRANCH   2   3
ATOM      3  O   UNL A   1      30.667  27.876  22.893  1.00  0.00    -0.376 OA
BRANCH   3   4
ATOM      4  C   UNL A   1      29.987  26.917  23.667  1.00  0.00     0.202 C 
BRANCH   4   5
ATOM      5  C   UNL A   1      30.826  25.743  24.189  1.00  0.00     0.261 C 
BRANCH   5   6
ATOM      6  O   UNL A   1      31.129  25.776  25.592  1.00  0.00    -0.460 OA
BRANCH   6   7
ATOM      7  C   UNL A   1      31.179  24.569  26.207  1.00  0.00     0.339 C 
ATOM      8  O   UNL A   1      30.257  24.101  26.883  1.00  0.00    -0.246 OA
BRANCH   7   9
ATOM      9  C   UNL A   1      32.357  23.792  25.851  1.00  0.00     0.078 A 
ATOM     10  N   UNL A   1      33.750  22.161  25.130  1.00  0.00    -0.341 N 
ATOM     11  C   UNL A   1      32.425  22.477  25.417  1.00  0.00     0.102 A 
ATOM     12  C   UNL A   1      34.516  23.260  25.424  1.00  0.00     0.085 A 
ATOM     13  C   UNL A   1      33.698  24.250  25.912  1.00  0.00     0.051 A 
ATOM     14  Br  UNL A   1      36.351  23.549  25.201  1.00  0.00    -0.031 Br
BRANCH  10  15
ATOM     15  C   UNL A   1      34.100  20.896  24.499  1.00  0.00     0.123 C 
BRANCH  15  16
ATOM     16  C   UNL A   1      33.314  19.615  24.795  1.00  0.00     0.032 C 
BRANCH  16  17
ATOM     17  C   UNL A   1      34.032  18.296  24.512  1.00  0.00     0.102 C 
BRANCH  17  18
ATOM     18  C   UNL A   1      33.223  17.364  23.639  1.00  0.00     0.219 C 
ATOM     19  C   UNL A   1      32.976  15.588  25.438  1.00  0.00     0.142 C 
ATOM     20  N   UNL A   1      32.789  16.174  24.131  1.00  0.00    -0.359 N 
ATOM     21  H   UNL A   1      32.268  15.627  23.501  1.00  0.00     0.163 HD
ATOM     22  O   UNL A   1      32.926  17.672  22.484  1.00  0.00    -0.275 OA
ENDBRANCH  17  18
ENDBRANCH  16  17
ENDBRANCH  15  16
ENDBRANCH  10  15
ENDBRANCH   7   9
ENDBRANCH   6   7
ENDBRANCH   5   6
ENDBRANCH   4   5
ENDBRANCH   3   4
ENDBRANCH   2   3
ENDBRANCH   1   2
BRANCH   1  23
ATOM     23  O   UNL A   1      32.069  29.158  25.986  1.00  0.00    -0.377 OA
BRANCH  23  24
ATOM     24  C   UNL A   1      32.345  30.247  26.853  1.00  0.00     0.188 C 
BRANCH  24  25
ATOM     25  C   UNL A   1      33.821  30.550  27.208  1.00  0.00     0.188 C 
BRANCH  25  26
ATOM     26  O   UNL A   1      34.069  31.786  27.851  1.00  0.00    -0.376 OA
BRANCH  26  27
ATOM     27  C   UNL A   1      35.311  32.458  27.876  1.00  0.00     0.202 C 
BRANCH  27  28
ATOM     28  C   UNL A   1      36.284  32.400  29.045  1.00  0.00     0.261 C 
BRANCH  28  29
ATOM     29  O   UNL A   1      37.249  31.382  28.961  1.00  0.00    -0.460 OA
BRANCH  29  30
ATOM     30  C   UNL A   1      36.915  30.246  29.577  1.00  0.00     0.338 C 
ATOM     31  O   UNL A   1      36.117  30.096  30.505  1.00  0.00    -0.246 OA
BRANCH  30  32
ATOM     32  C   UNL A   1      37.772  29.197  29.050  1.00  0.00     0.060 A 
ATOM     33  C   UNL A   1      38.174  28.216  29.956  1.00  0.00     0.016 A 
ATOM     34  C   UNL A   1      38.482  29.501  27.879  1.00  0.00     0.016 A 
ATOM     35  C   UNL A   1      39.456  27.750  29.845  1.00  0.00     0.010 A 
ATOM     36  C   UNL A   1      39.776  29.082  27.802  1.00  0.00     0.010 A 
ATOM     37  C   UNL A   1      40.263  28.289  28.837  1.00  0.00    -0.014 A 
BRANCH  37  38
ATOM     38  C   UNL A   1      41.650  27.904  28.798  1.00  0.00     0.031 A 
ATOM     39  C   UNL A   1      41.820  26.605  28.116  1.00  0.00     0.074 A 
ATOM     40  C   UNL A   1      42.610  28.753  29.213  1.00  0.00     0.049 A 
ATOM     41  N   UNL A   1      42.258  25.501  28.616  1.00  0.00    -0.248 NA
ATOM     42  C   UNL A   1      41.218  26.457  26.774  1.00  0.00     0.031 C 
ATOM     43  C   UNL A   1      42.449  30.153  29.623  1.00  0.00     0.029 A 
ATOM     44  N   UNL A   1      43.957  28.586  29.229  1.00  0.00    -0.354 N 
ATOM     45  C   UNL A   1      42.225  24.595  27.562  1.00  0.00     0.074 A 
ATOM     46  C   UNL A   1      41.357  25.150  26.565  1.00  0.00     0.031 C 
ATOM     47  C   UNL A   1      43.658  30.761  29.611  1.00  0.00     0.029 A 
ATOM     48  C   UNL A   1      44.677  29.774  29.304  1.00  0.00     0.049 A 
ATOM     49  H   UNL A   1      44.387  27.701  29.192  1.00  0.00     0.167 HD
ATOM     50  C   UNL A   1      43.200  23.656  27.444  1.00  0.00     0.037 A 
ATOM     51  C   UNL A   1      45.996  29.917  29.015  1.00  0.00     0.037 A 
ATOM     52  C   UNL A   1      43.826  23.411  28.721  1.00  0.00     0.049 A 
ATOM     53  C   UNL A   1      46.597  28.556  29.012  1.00  0.00     0.074 A 
ATOM     54  C   UNL A   1      43.366  23.013  29.963  1.00  0.00     0.029 A 
ATOM     55  N   UNL A   1      45.066  23.959  28.935  1.00  0.00    -0.354 N 
ATOM     56  N   UNL A   1      46.751  27.823  30.079  1.00  0.00    -0.248 NA
ATOM     57  C   UNL A   1      46.590  27.825  27.752  1.00  0.00     0.031 C 
ATOM     58  C   UNL A   1      44.146  23.748  30.902  1.00  0.00     0.029 A 
ATOM     59  C   UNL A   1      45.086  24.498  30.193  1.00  0.00     0.049 A 
ATOM     60  H   UNL A   1      45.813  23.964  28.294  1.00  0.00     0.167 HD
ATOM     61  C   UNL A   1      46.416  26.537  29.676  1.00  0.00     0.074 A 
ATOM     62  C   UNL A   1      46.407  26.586  28.215  1.00  0.00     0.031 C 
ATOM     63  C   UNL A   1      45.889  25.641  30.561  1.00  0.00     0.037 A 
BRANCH  50  64
ATOM     64  C   UNL A   1      43.875  23.342  26.127  1.00  0.00     0.057 A 
ATOM     65  C   UNL A   1      43.966  21.998  25.731  1.00  0.00     0.134 A 
ATOM     66  C   UNL A   1      44.689  24.234  25.391  1.00  0.00     0.134 A 
ATOM     67  F   UNL A   1      43.250  21.049  26.352  1.00  0.00    -0.206 F 
ATOM     68  C   UNL A   1      44.867  21.564  24.753  1.00  0.00     0.040 A 
ATOM     69  C   UNL A   1      45.552  23.817  24.377  1.00  0.00     0.040 A 
ATOM     70  F   UNL A   1      44.779  25.540  25.661  1.00  0.00    -0.206 F 
ATOM     71  C   UNL A   1      45.672  22.472  24.079  1.00  0.00     0.006 A 
ENDBRANCH  50  64
BRANCH  51  72
ATOM     72  C   UNL A   1      46.687  31.073  28.393  1.00  0.00     0.057 A 
ATOM     73  C   UNL A   1      46.505  31.372  27.035  1.00  0.00     0.134 A 
ATOM     74  C   UNL A   1      47.312  32.069  29.163  1.00  0.00     0.134 A 
ATOM     75  F   UNL A   1      45.880  30.505  26.225  1.00  0.00    -0.206 F 
ATOM     76  C   UNL A   1      46.899  32.598  26.481  1.00  0.00     0.040 A 
ATOM     77  C   UNL A   1      47.719  33.293  28.621  1.00  0.00     0.040 A 
ATOM     78  F   UNL A   1      47.468  31.931  30.488  1.00  0.00    -0.206 F 
ATOM     79  C   UNL A   1      47.498  33.569  27.278  1.00  0.00     0.006 A 
ENDBRANCH  51  72
BRANCH  63  80
ATOM     80  C   UNL A   1      45.963  25.976  32.026  1.00  0.00     0.057 A 
ATOM     81  C   UNL A   1      47.100  25.797  32.830  1.00  0.00     0.134 A 
ATOM     82  C   UNL A   1      44.874  26.635  32.609  1.00  0.00     0.134 A 
ATOM     83  F   UNL A   1      48.226  25.269  32.332  1.00  0.00    -0.206 F 
ATOM     84  C   UNL A   1      47.127  26.211  34.166  1.00  0.00     0.040 A 
ATOM     85  C   UNL A   1      44.904  27.087  33.928  1.00  0.00     0.040 A 
ATOM     86  F   UNL A   1      43.774  26.891  31.884  1.00  0.00    -0.206 F 
ATOM     87  C   UNL A   1      46.029  26.863  34.717  1.00  0.00     0.006 A 
ENDBRANCH  63  80
ENDBRANCH  37  38
ENDBRANCH  30  32
ENDBRANCH  29  30
ENDBRANCH  28  29
ENDBRANCH  27  28
ENDBRANCH  26  27
ENDBRANCH  25  26
ENDBRANCH  24  25
ENDBRANCH  23  24
ENDBRANCH   1  23
TORSDOF 24
ENDMDL
