MODEL 1
REMARK VINA RESULT:     -10.2      0.000      0.000
REMARK SMILES COc1cc(C)cc2c1O[C@H](C(F)(F)F)C(C(=O)OCCOCCOCCOCCOC(=O)c1ccc(-c3c4nc(c(-c5c(F)cccc5F)c5ccc([nH]5)c(-c5c(F)cccc5F)c5nc(c(-c6c(F)cccc6F)c6ccc3[nH]6)C=C5)C=C4)cc1)=C2
REMARK SMILES IDX 26 1 25 2 24 3 23 4 22 5 21 6 20 7 19 8 17 9 18 10 16 11
REMARK SMILES IDX 3 12 4 13 9 14 5 15 8 16 10 17 6 18 7 19 88 20 11 21 2 22
REMARK SMILES IDX 1 23 12 24 13 25 14 26 15 27 27 28 28 29 29 30 30 31 31 32
REMARK SMILES IDX 32 33 33 34 34 35 35 36 87 37 36 38 86 39 37 40 38 41 39 42
REMARK SMILES IDX 80 43 40 44 85 45 79 46 81 47 41 48 84 49 78 50 77 51 42 53
REMARK SMILES IDX 68 54 51 55 67 56 52 57 55 58 66 59 82 60 53 61 54 62 65 64
REMARK SMILES IDX 83 65 56 66 43 67 44 68 49 69 45 70 46 71 48 72 50 73 47 74
REMARK SMILES IDX 69 75 70 76 75 77 71 78 72 79 74 80 76 81 73 82 57 83 58 84
REMARK SMILES IDX 63 85 59 86 60 87 62 88 64 89 61 90
REMARK H PARENT 81 52 55 63
REMARK Flexibility Score: inf
ROOT
ATOM      1  C   UNL A   1      41.797  20.588  26.280  1.00  0.00     0.188 C 
ENDROOT
BRANCH   1   2
ATOM      2  O   UNL A   1      40.401  20.430  26.530  1.00  0.00    -0.377 OA
BRANCH   2   3
ATOM      3  C   UNL A   1      39.580  21.583  26.417  1.00  0.00     0.188 C 
BRANCH   3   4
ATOM      4  C   UNL A   1      38.428  21.394  25.413  1.00  0.00     0.188 C 
BRANCH   4   5
ATOM      5  O   UNL A   1      37.297  22.210  25.711  1.00  0.00    -0.376 OA
BRANCH   5   6
ATOM      6  C   UNL A   1      36.804  23.052  24.676  1.00  0.00     0.202 C 
BRANCH   6   7
ATOM      7  C   UNL A   1      35.639  23.998  25.014  1.00  0.00     0.261 C 
BRANCH   7   8
ATOM      8  O   UNL A   1      34.329  23.421  24.920  1.00  0.00    -0.460 OA
BRANCH   8   9
ATOM      9  C   UNL A   1      33.397  23.829  25.803  1.00  0.00     0.338 C 
ATOM     10  O   UNL A   1      33.188  23.362  26.908  1.00  0.00    -0.246 OA
BRANCH   9  11
ATOM     11  C   UNL A   1      32.770  25.058  25.267  1.00  0.00     0.087 C 
ATOM     12  C   UNL A   1      30.958  28.542  23.818  1.00  0.00     0.161 A 
ATOM     13  C   UNL A   1      31.018  29.711  24.584  1.00  0.00     0.054 A 
ATOM     14  C   UNL A   1      31.605  27.380  24.273  1.00  0.00     0.169 A 
ATOM     15  C   UNL A   1      31.738  29.740  25.786  1.00  0.00    -0.047 A 
ATOM     16  C   UNL A   1      32.309  27.396  25.480  1.00  0.00     0.021 A 
ATOM     17  O   UNL A   1      31.509  26.266  23.484  1.00  0.00    -0.471 OA
ATOM     18  C   UNL A   1      31.799  30.986  26.621  1.00  0.00     0.044 C 
ATOM     19  C   UNL A   1      32.398  28.583  26.216  1.00  0.00     0.015 A 
ATOM     20  C   UNL A   1      32.901  26.174  25.997  1.00  0.00     0.027 C 
ATOM     21  C   UNL A   1      32.098  25.016  23.919  1.00  0.00     0.316 C 
BRANCH  12  22
ATOM     22  O   UNL A   1      30.240  28.419  22.654  1.00  0.00    -0.493 OA
ATOM     23  C   UNL A   1      29.358  29.485  22.332  1.00  0.00     0.278 C 
ENDBRANCH  12  22
BRANCH  21  24
ATOM     24  C   UNL A   1      31.017  23.928  23.842  1.00  0.00     0.430 C 
ATOM     25  F   UNL A   1      30.591  23.561  25.075  1.00  0.00    -0.167 F 
ATOM     26  F   UNL A   1      29.920  24.346  23.168  1.00  0.00    -0.167 F 
ATOM     27  F   UNL A   1      31.466  22.813  23.218  1.00  0.00    -0.167 F 
ENDBRANCH  21  24
ENDBRANCH   9  11
ENDBRANCH   8   9
ENDBRANCH   7   8
ENDBRANCH   6   7
ENDBRANCH   5   6
ENDBRANCH   4   5
ENDBRANCH   3   4
ENDBRANCH   2   3
ENDBRANCH   1   2
BRANCH   1  28
ATOM     28  C   UNL A   1      42.385  21.914  25.744  1.00  0.00     0.188 C 
BRANCH  28  29
ATOM     29  O   UNL A   1      43.451  21.740  24.813  1.00  0.00    -0.376 OA
BRANCH  29  30
ATOM     30  C   UNL A   1      44.696  21.297  25.337  1.00  0.00     0.202 C 
BRANCH  30  31
ATOM     31  C   UNL A   1      45.740  22.412  25.471  1.00  0.00     0.261 C 
BRANCH  31  32
ATOM     32  O   UNL A   1      45.372  23.485  26.351  1.00  0.00    -0.460 OA
BRANCH  32  33
ATOM     33  C   UNL A   1      45.110  24.692  25.801  1.00  0.00     0.338 C 
ATOM     34  O   UNL A   1      45.299  25.036  24.648  1.00  0.00    -0.246 OA
BRANCH  33  35
ATOM     35  C   UNL A   1      44.360  25.476  26.803  1.00  0.00     0.060 A 
ATOM     36  C   UNL A   1      43.379  24.862  27.586  1.00  0.00     0.016 A 
ATOM     37  C   UNL A   1      44.615  26.847  26.928  1.00  0.00     0.016 A 
ATOM     38  C   UNL A   1      42.676  25.615  28.523  1.00  0.00     0.010 A 
ATOM     39  C   UNL A   1      43.905  27.603  27.865  1.00  0.00     0.010 A 
ATOM     40  C   UNL A   1      42.949  26.984  28.686  1.00  0.00    -0.014 A 
BRANCH  40  41
ATOM     41  C   UNL A   1      42.376  27.702  29.847  1.00  0.00     0.031 A 
ATOM     42  C   UNL A   1      42.995  27.651  31.207  1.00  0.00     0.074 A 
ATOM     43  C   UNL A   1      41.258  28.422  29.639  1.00  0.00     0.049 A 
ATOM     44  N   UNL A   1      42.665  28.322  32.282  1.00  0.00    -0.248 NA
ATOM     45  C   UNL A   1      44.117  26.723  31.390  1.00  0.00     0.031 C 
ATOM     46  C   UNL A   1      40.545  28.510  28.362  1.00  0.00     0.029 A 
ATOM     47  N   UNL A   1      40.532  29.217  30.485  1.00  0.00    -0.354 N 
ATOM     48  C   UNL A   1      43.554  27.919  33.269  1.00  0.00     0.074 A 
ATOM     49  C   UNL A   1      44.404  26.906  32.674  1.00  0.00     0.031 C 
ATOM     50  C   UNL A   1      39.496  29.333  28.504  1.00  0.00     0.029 A 
ATOM     51  C   UNL A   1      39.454  29.813  29.881  1.00  0.00     0.049 A 
ATOM     52  H   UNL A   1      40.763  29.349  31.433  1.00  0.00     0.167 HD
ATOM     53  C   UNL A   1      43.655  28.367  34.546  1.00  0.00     0.037 A 
ATOM     54  C   UNL A   1      38.536  30.660  30.378  1.00  0.00     0.037 A 
ATOM     55  C   UNL A   1      42.782  29.351  35.137  1.00  0.00     0.049 A 
ATOM     56  C   UNL A   1      38.648  31.109  31.805  1.00  0.00     0.074 A 
ATOM     57  C   UNL A   1      42.837  29.909  36.404  1.00  0.00     0.029 A 
ATOM     58  N   UNL A   1      41.676  29.910  34.511  1.00  0.00    -0.354 N 
ATOM     59  N   UNL A   1      39.555  30.801  32.699  1.00  0.00    -0.248 NA
ATOM     60  C   UNL A   1      37.614  32.033  32.287  1.00  0.00     0.031 C 
ATOM     61  C   UNL A   1      41.736  30.759  36.563  1.00  0.00     0.029 A 
ATOM     62  C   UNL A   1      41.020  30.774  35.376  1.00  0.00     0.049 A 
ATOM     63  H   UNL A   1      41.397  29.719  33.585  1.00  0.00     0.167 HD
ATOM     64  C   UNL A   1      39.213  31.506  33.845  1.00  0.00     0.074 A 
ATOM     65  C   UNL A   1      38.027  32.274  33.522  1.00  0.00     0.031 C 
ATOM     66  C   UNL A   1      39.828  31.518  35.053  1.00  0.00     0.037 A 
BRANCH  53  67
ATOM     67  C   UNL A   1      44.750  27.782  35.394  1.00  0.00     0.057 A 
ATOM     68  C   UNL A   1      44.526  26.641  36.174  1.00  0.00     0.134 A 
ATOM     69  C   UNL A   1      46.021  28.369  35.463  1.00  0.00     0.134 A 
ATOM     70  F   UNL A   1      43.329  26.035  36.166  1.00  0.00    -0.206 F 
ATOM     71  C   UNL A   1      45.527  26.099  36.982  1.00  0.00     0.040 A 
ATOM     72  C   UNL A   1      47.038  27.823  36.248  1.00  0.00     0.040 A 
ATOM     73  F   UNL A   1      46.304  29.464  34.741  1.00  0.00    -0.206 F 
ATOM     74  C   UNL A   1      46.791  26.685  37.014  1.00  0.00     0.006 A 
ENDBRANCH  53  67
BRANCH  54  75
ATOM     75  C   UNL A   1      37.452  31.161  29.501  1.00  0.00     0.057 A 
ATOM     76  C   UNL A   1      37.504  32.440  28.937  1.00  0.00     0.134 A 
ATOM     77  C   UNL A   1      36.329  30.373  29.222  1.00  0.00     0.134 A 
ATOM     78  F   UNL A   1      38.548  33.245  29.179  1.00  0.00    -0.206 F 
ATOM     79  C   UNL A   1      36.473  32.924  28.131  1.00  0.00     0.040 A 
ATOM     80  C   UNL A   1      35.303  30.835  28.398  1.00  0.00     0.040 A 
ATOM     81  F   UNL A   1      36.231  29.135  29.725  1.00  0.00    -0.206 F 
ATOM     82  C   UNL A   1      35.371  32.117  27.855  1.00  0.00     0.006 A 
ENDBRANCH  54  75
BRANCH  66  83
ATOM     83  C   UNL A   1      39.223  32.397  36.110  1.00  0.00     0.057 A 
ATOM     84  C   UNL A   1      38.234  31.906  36.971  1.00  0.00     0.134 A 
ATOM     85  C   UNL A   1      39.622  33.730  36.279  1.00  0.00     0.134 A 
ATOM     86  F   UNL A   1      37.802  30.641  36.862  1.00  0.00    -0.206 F 
ATOM     87  C   UNL A   1      37.666  32.707  37.964  1.00  0.00     0.040 A 
ATOM     88  C   UNL A   1      39.082  34.532  37.287  1.00  0.00     0.040 A 
ATOM     89  F   UNL A   1      40.579  34.257  35.500  1.00  0.00    -0.206 F 
ATOM     90  C   UNL A   1      38.097  34.021  38.130  1.00  0.00     0.006 A 
ENDBRANCH  66  83
ENDBRANCH  40  41
ENDBRANCH  33  35
ENDBRANCH  32  33
ENDBRANCH  31  32
ENDBRANCH  30  31
ENDBRANCH  29  30
ENDBRANCH  28  29
ENDBRANCH   1  28
TORSDOF 22
ENDMDL
MODEL 2
REMARK VINA RESULT:      -9.7      1.091      6.155
REMARK SMILES COc1cc(C)cc2c1O[C@H](C(F)(F)F)C(C(=O)OCCOCCOCCOCCOC(=O)c1ccc(-c3c4nc(c(-c5c(F)cccc5F)c5ccc([nH]5)c(-c5c(F)cccc5F)c5nc(c(-c6c(F)cccc6F)c6ccc3[nH]6)C=C5)C=C4)cc1)=C2
REMARK SMILES IDX 26 1 25 2 24 3 23 4 22 5 21 6 20 7 19 8 17 9 18 10 16 11
REMARK SMILES IDX 3 12 4 13 9 14 5 15 8 16 10 17 6 18 7 19 88 20 11 21 2 22
REMARK SMILES IDX 1 23 12 24 13 25 14 26 15 27 27 28 28 29 29 30 30 31 31 32
REMARK SMILES IDX 32 33 33 34 34 35 35 36 87 37 36 38 86 39 37 40 38 41 39 42
REMARK SMILES IDX 80 43 40 44 85 45 79 46 81 47 41 48 84 49 78 50 77 51 42 53
REMARK SMILES IDX 68 54 51 55 67 56 52 57 55 58 66 59 82 60 53 61 54 62 65 64
REMARK SMILES IDX 83 65 56 66 43 67 44 68 49 69 45 70 46 71 48 72 50 73 47 74
REMARK SMILES IDX 69 75 70 76 75 77 71 78 72 79 74 80 76 81 73 82 57 83 58 84
REMARK SMILES IDX 63 85 59 86 60 87 62 88 64 89 61 90
REMARK H PARENT 81 52 55 63
REMARK Flexibility Score: inf
ROOT
ATOM      1  C   UNL A   1      39.372  21.432  26.125  1.00  0.00     0.188 C 
ENDROOT
BRANCH   1   2
ATOM      2  O   UNL A   1      38.392  20.877  25.249  1.00  0.00    -0.377 OA
BRANCH   2   3
ATOM      3  C   UNL A   1      37.375  21.744  24.770  1.00  0.00     0.188 C 
BRANCH   3   4
ATOM      4  C   UNL A   1      36.443  22.241  25.890  1.00  0.00     0.188 C 
BRANCH   4   5
ATOM      5  O   UNL A   1      35.063  22.150  25.543  1.00  0.00    -0.376 OA
BRANCH   5   6
ATOM      6  C   UNL A   1      34.316  21.075  26.100  1.00  0.00     0.202 C 
BRANCH   6   7
ATOM      7  C   UNL A   1      33.300  21.406  27.206  1.00  0.00     0.261 C 
BRANCH   7   8
ATOM      8  O   UNL A   1      33.040  22.803  27.407  1.00  0.00    -0.460 OA
BRANCH   8   9
ATOM      9  C   UNL A   1      31.850  23.287  27.001  1.00  0.00     0.338 C 
ATOM     10  O   UNL A   1      30.750  22.896  27.349  1.00  0.00    -0.246 OA
BRANCH   9  11
ATOM     11  C   UNL A   1      32.104  24.491  26.181  1.00  0.00     0.087 C 
ATOM     12  C   UNL A   1      32.752  27.923  23.874  1.00  0.00     0.161 A 
ATOM     13  C   UNL A   1      32.473  29.179  24.425  1.00  0.00     0.054 A 
ATOM     14  C   UNL A   1      32.584  26.769  24.657  1.00  0.00     0.169 A 
ATOM     15  C   UNL A   1      32.054  29.295  25.758  1.00  0.00    -0.047 A 
ATOM     16  C   UNL A   1      32.148  26.875  25.981  1.00  0.00     0.021 A 
ATOM     17  O   UNL A   1      32.868  25.568  24.063  1.00  0.00    -0.471 OA
ATOM     18  C   UNL A   1      31.741  30.636  26.355  1.00  0.00     0.044 C 
ATOM     19  C   UNL A   1      31.914  28.139  26.534  1.00  0.00     0.015 A 
ATOM     20  C   UNL A   1      31.887  25.678  26.762  1.00  0.00     0.027 C 
ATOM     21  C   UNL A   1      32.660  24.332  24.789  1.00  0.00     0.316 C 
BRANCH  12  22
ATOM     22  O   UNL A   1      33.124  27.721  22.568  1.00  0.00    -0.493 OA
ATOM     23  C   UNL A   1      34.078  28.625  22.028  1.00  0.00     0.278 C 
ENDBRANCH  12  22
BRANCH  21  24
ATOM     24  C   UNL A   1      31.793  23.410  23.919  1.00  0.00     0.430 C 
ATOM     25  F   UNL A   1      31.996  23.635  22.599  1.00  0.00    -0.167 F 
ATOM     26  F   UNL A   1      32.072  22.102  24.131  1.00  0.00    -0.167 F 
ATOM     27  F   UNL A   1      30.472  23.580  24.164  1.00  0.00    -0.167 F 
ENDBRANCH  21  24
ENDBRANCH   9  11
ENDBRANCH   8   9
ENDBRANCH   7   8
ENDBRANCH   6   7
ENDBRANCH   5   6
ENDBRANCH   4   5
ENDBRANCH   3   4
ENDBRANCH   2   3
ENDBRANCH   1   2
BRANCH   1  28
ATOM     28  C   UNL A   1      40.529  20.580  26.699  1.00  0.00     0.188 C 
BRANCH  28  29
ATOM     29  O   UNL A   1      41.817  20.953  26.212  1.00  0.00    -0.376 OA
BRANCH  29  30
ATOM     30  C   UNL A   1      41.945  22.257  25.662  1.00  0.00     0.202 C 
BRANCH  30  31
ATOM     31  C   UNL A   1      43.377  22.615  25.249  1.00  0.00     0.261 C 
BRANCH  31  32
ATOM     32  O   UNL A   1      43.646  24.022  25.148  1.00  0.00    -0.460 OA
BRANCH  32  33
ATOM     33  C   UNL A   1      44.581  24.547  25.971  1.00  0.00     0.338 C 
ATOM     34  O   UNL A   1      45.790  24.430  25.888  1.00  0.00    -0.246 OA
BRANCH  33  35
ATOM     35  C   UNL A   1      43.883  25.465  26.895  1.00  0.00     0.060 A 
ATOM     36  C   UNL A   1      42.924  24.973  27.784  1.00  0.00     0.016 A 
ATOM     37  C   UNL A   1      44.165  26.835  26.838  1.00  0.00     0.016 A 
ATOM     38  C   UNL A   1      42.269  25.851  28.645  1.00  0.00     0.010 A 
ATOM     39  C   UNL A   1      43.504  27.716  27.698  1.00  0.00     0.010 A 
ATOM     40  C   UNL A   1      42.571  27.224  28.625  1.00  0.00    -0.014 A 
BRANCH  40  41
ATOM     41  C   UNL A   1      42.055  28.092  29.707  1.00  0.00     0.031 A 
ATOM     42  C   UNL A   1      40.812  28.910  29.557  1.00  0.00     0.074 A 
ATOM     43  C   UNL A   1      42.752  28.124  30.859  1.00  0.00     0.049 A 
ATOM     44  N   UNL A   1      40.187  29.622  30.462  1.00  0.00    -0.248 NA
ATOM     45  C   UNL A   1      40.198  28.944  28.225  1.00  0.00     0.031 C 
ATOM     46  C   UNL A   1      44.001  27.399  31.101  1.00  0.00     0.029 A 
ATOM     47  N   UNL A   1      42.509  28.781  32.036  1.00  0.00    -0.354 N 
ATOM     48  C   UNL A   1      39.088  30.173  29.817  1.00  0.00     0.074 A 
ATOM     49  C   UNL A   1      39.164  29.751  28.432  1.00  0.00     0.031 C 
ATOM     50  C   UNL A   1      44.404  27.634  32.358  1.00  0.00     0.029 A 
ATOM     51  C   UNL A   1      43.454  28.535  33.000  1.00  0.00     0.049 A 
ATOM     52  H   UNL A   1      41.733  29.370  32.176  1.00  0.00     0.167 HD
ATOM     53  C   UNL A   1      38.104  30.945  30.342  1.00  0.00     0.037 A 
ATOM     54  C   UNL A   1      43.541  28.980  34.266  1.00  0.00     0.037 A 
ATOM     55  C   UNL A   1      38.056  31.386  31.714  1.00  0.00     0.049 A 
ATOM     56  C   UNL A   1      42.460  29.865  34.809  1.00  0.00     0.074 A 
ATOM     57  C   UNL A   1      37.074  32.125  32.354  1.00  0.00     0.029 A 
ATOM     58  N   UNL A   1      39.047  31.151  32.659  1.00  0.00    -0.354 N 
ATOM     59  N   UNL A   1      41.370  30.295  34.222  1.00  0.00    -0.248 NA
ATOM     60  C   UNL A   1      42.616  30.318  36.198  1.00  0.00     0.031 C 
ATOM     61  C   UNL A   1      37.496  32.383  33.664  1.00  0.00     0.029 A 
ATOM     62  C   UNL A   1      38.719  31.761  33.860  1.00  0.00     0.049 A 
ATOM     63  H   UNL A   1      39.865  30.626  32.497  1.00  0.00     0.167 HD
ATOM     64  C   UNL A   1      40.701  31.053  35.172  1.00  0.00     0.074 A 
ATOM     65  C   UNL A   1      41.498  31.005  36.380  1.00  0.00     0.031 C 
ATOM     66  C   UNL A   1      39.530  31.726  35.053  1.00  0.00     0.037 A 
BRANCH  53  67
ATOM     67  C   UNL A   1      36.998  31.371  29.417  1.00  0.00     0.057 A 
ATOM     68  C   UNL A   1      35.958  30.495  29.084  1.00  0.00     0.134 A 
ATOM     69  C   UNL A   1      36.979  32.644  28.830  1.00  0.00     0.134 A 
ATOM     70  F   UNL A   1      35.920  29.257  29.599  1.00  0.00    -0.206 F 
ATOM     71  C   UNL A   1      34.936  30.870  28.211  1.00  0.00     0.040 A 
ATOM     72  C   UNL A   1      35.949  33.041  27.974  1.00  0.00     0.040 A 
ATOM     73  F   UNL A   1      37.944  33.535  29.106  1.00  0.00    -0.206 F 
ATOM     74  C   UNL A   1      34.925  32.151  27.660  1.00  0.00     0.006 A 
ENDBRANCH  53  67
BRANCH  54  75
ATOM     75  C   UNL A   1      44.685  28.562  35.110  1.00  0.00     0.057 A 
ATOM     76  C   UNL A   1      44.615  27.422  35.919  1.00  0.00     0.134 A 
ATOM     77  C   UNL A   1      45.870  29.306  35.139  1.00  0.00     0.134 A 
ATOM     78  F   UNL A   1      43.501  26.676  35.943  1.00  0.00    -0.206 F 
ATOM     79  C   UNL A   1      45.680  27.040  36.735  1.00  0.00     0.040 A 
ATOM     80  C   UNL A   1      46.952  28.921  35.931  1.00  0.00     0.040 A 
ATOM     81  F   UNL A   1      45.999  30.400  34.376  1.00  0.00    -0.206 F 
ATOM     82  C   UNL A   1      46.856  27.788  36.736  1.00  0.00     0.006 A 
ENDBRANCH  54  75
BRANCH  66  83
ATOM     83  C   UNL A   1      39.045  32.458  36.271  1.00  0.00     0.057 A 
ATOM     84  C   UNL A   1      39.433  33.782  36.513  1.00  0.00     0.134 A 
ATOM     85  C   UNL A   1      38.190  31.856  37.204  1.00  0.00     0.134 A 
ATOM     86  F   UNL A   1      40.253  34.418  35.663  1.00  0.00    -0.206 F 
ATOM     87  C   UNL A   1      38.987  34.481  37.636  1.00  0.00     0.040 A 
ATOM     88  C   UNL A   1      37.714  32.553  38.316  1.00  0.00     0.040 A 
ATOM     89  F   UNL A   1      37.765  30.597  37.022  1.00  0.00    -0.206 F 
ATOM     90  C   UNL A   1      38.117  33.869  38.537  1.00  0.00     0.006 A 
ENDBRANCH  66  83
ENDBRANCH  40  41
ENDBRANCH  33  35
ENDBRANCH  32  33
ENDBRANCH  31  32
ENDBRANCH  30  31
ENDBRANCH  29  30
ENDBRANCH  28  29
ENDBRANCH   1  28
TORSDOF 22
ENDMDL
MODEL 3
REMARK VINA RESULT:      -9.5      5.293     11.044
REMARK SMILES COc1cc(C)cc2c1O[C@H](C(F)(F)F)C(C(=O)OCCOCCOCCOCCOC(=O)c1ccc(-c3c4nc(c(-c5c(F)cccc5F)c5ccc([nH]5)c(-c5c(F)cccc5F)c5nc(c(-c6c(F)cccc6F)c6ccc3[nH]6)C=C5)C=C4)cc1)=C2
REMARK SMILES IDX 26 1 25 2 24 3 23 4 22 5 21 6 20 7 19 8 17 9 18 10 16 11
REMARK SMILES IDX 3 12 4 13 9 14 5 15 8 16 10 17 6 18 7 19 88 20 11 21 2 22
REMARK SMILES IDX 1 23 12 24 13 25 14 26 15 27 27 28 28 29 29 30 30 31 31 32
REMARK SMILES IDX 32 33 33 34 34 35 35 36 87 37 36 38 86 39 37 40 38 41 39 42
REMARK SMILES IDX 80 43 40 44 85 45 79 46 81 47 41 48 84 49 78 50 77 51 42 53
REMARK SMILES IDX 68 54 51 55 67 56 52 57 55 58 66 59 82 60 53 61 54 62 65 64
REMARK SMILES IDX 83 65 56 66 43 67 44 68 49 69 45 70 46 71 48 72 50 73 47 74
REMARK SMILES IDX 69 75 70 76 75 77 71 78 72 79 74 80 76 81 73 82 57 83 58 84
REMARK SMILES IDX 63 85 59 86 60 87 62 88 64 89 61 90
REMARK H PARENT 81 52 55 63
REMARK Flexibility Score: inf
ROOT
ATOM      1  C   UNL A   1      46.043  22.731  24.991  1.00  0.00     0.188 C 
ENDROOT
BRANCH   1   2
ATOM      2  O   UNL A   1      45.865  23.943  24.259  1.00  0.00    -0.377 OA
BRANCH   2   3
ATOM      3  C   UNL A   1      45.434  25.087  24.981  1.00  0.00     0.188 C 
BRANCH   3   4
ATOM      4  C   UNL A   1      46.581  26.074  25.266  1.00  0.00     0.188 C 
BRANCH   4   5
ATOM      5  O   UNL A   1      46.578  27.195  24.386  1.00  0.00    -0.376 OA
BRANCH   5   6
ATOM      6  C   UNL A   1      46.366  28.480  24.959  1.00  0.00     0.202 C 
BRANCH   6   7
ATOM      7  C   UNL A   1      45.584  28.555  26.281  1.00  0.00     0.261 C 
BRANCH   7   8
ATOM      8  O   UNL A   1      45.990  29.596  27.181  1.00  0.00    -0.460 OA
BRANCH   8   9
ATOM      9  C   UNL A   1      45.131  30.610  27.398  1.00  0.00     0.338 C 
ATOM     10  O   UNL A   1      43.937  30.517  27.621  1.00  0.00    -0.246 OA
BRANCH   9  11
ATOM     11  C   UNL A   1      45.916  31.861  27.484  1.00  0.00     0.087 C 
ATOM     12  C   UNL A   1      48.110  35.412  27.797  1.00  0.00     0.161 A 
ATOM     13  C   UNL A   1      48.950  35.600  28.901  1.00  0.00     0.054 A 
ATOM     14  C   UNL A   1      47.407  34.203  27.658  1.00  0.00     0.169 A 
ATOM     15  C   UNL A   1      49.115  34.584  29.852  1.00  0.00    -0.047 A 
ATOM     16  C   UNL A   1      47.551  33.193  28.613  1.00  0.00     0.021 A 
ATOM     17  O   UNL A   1      46.597  34.078  26.562  1.00  0.00    -0.471 OA
ATOM     18  C   UNL A   1      50.005  34.780  31.045  1.00  0.00     0.044 C 
ATOM     19  C   UNL A   1      48.428  33.375  29.689  1.00  0.00     0.015 A 
ATOM     20  C   UNL A   1      46.757  31.980  28.519  1.00  0.00     0.027 C 
ATOM     21  C   UNL A   1      45.794  32.886  26.385  1.00  0.00     0.316 C 
BRANCH  12  22
ATOM     22  O   UNL A   1      47.860  36.371  26.847  1.00  0.00    -0.493 OA
ATOM     23  C   UNL A   1      48.650  37.551  26.907  1.00  0.00     0.278 C 
ENDBRANCH  12  22
BRANCH  21  24
ATOM     24  C   UNL A   1      44.340  33.320  26.153  1.00  0.00     0.430 C 
ATOM     25  F   UNL A   1      43.680  32.445  25.358  1.00  0.00    -0.167 F 
ATOM     26  F   UNL A   1      43.639  33.389  27.309  1.00  0.00    -0.167 F 
ATOM     27  F   UNL A   1      44.264  34.539  25.568  1.00  0.00    -0.167 F 
ENDBRANCH  21  24
ENDBRANCH   9  11
ENDBRANCH   8   9
ENDBRANCH   7   8
ENDBRANCH   6   7
ENDBRANCH   5   6
ENDBRANCH   4   5
ENDBRANCH   3   4
ENDBRANCH   2   3
ENDBRANCH   1   2
BRANCH   1  28
ATOM     28  C   UNL A   1      45.531  21.372  24.457  1.00  0.00     0.188 C 
BRANCH  28  29
ATOM     29  O   UNL A   1      45.717  20.288  25.364  1.00  0.00    -0.376 OA
BRANCH  29  30
ATOM     30  C   UNL A   1      45.434  18.984  24.875  1.00  0.00     0.202 C 
BRANCH  30  31
ATOM     31  C   UNL A   1      43.953  18.599  24.965  1.00  0.00     0.261 C 
BRANCH  31  32
ATOM     32  O   UNL A   1      43.279  19.050  26.150  1.00  0.00    -0.460 OA
BRANCH  32  33
ATOM     33  C   UNL A   1      42.051  19.597  26.010  1.00  0.00     0.338 C 
ATOM     34  O   UNL A   1      41.028  19.037  25.658  1.00  0.00    -0.246 OA
BRANCH  33  35
ATOM     35  C   UNL A   1      42.119  20.969  26.554  1.00  0.00     0.060 A 
ATOM     36  C   UNL A   1      41.943  21.192  27.921  1.00  0.00     0.016 A 
ATOM     37  C   UNL A   1      42.319  22.042  25.677  1.00  0.00     0.016 A 
ATOM     38  C   UNL A   1      42.004  22.492  28.419  1.00  0.00     0.010 A 
ATOM     39  C   UNL A   1      42.374  23.346  26.176  1.00  0.00     0.010 A 
ATOM     40  C   UNL A   1      42.242  23.574  27.555  1.00  0.00    -0.014 A 
BRANCH  40  41
ATOM     41  C   UNL A   1      42.551  24.903  28.130  1.00  0.00     0.031 A 
ATOM     42  C   UNL A   1      41.508  25.957  28.323  1.00  0.00     0.074 A 
ATOM     43  C   UNL A   1      43.828  25.142  28.485  1.00  0.00     0.049 A 
ATOM     44  N   UNL A   1      41.617  27.118  28.920  1.00  0.00    -0.248 NA
ATOM     45  C   UNL A   1      40.177  25.681  27.769  1.00  0.00     0.031 C 
ATOM     46  C   UNL A   1      44.936  24.201  28.305  1.00  0.00     0.029 A 
ATOM     47  N   UNL A   1      44.406  26.234  29.076  1.00  0.00    -0.354 N 
ATOM     48  C   UNL A   1      40.363  27.707  28.836  1.00  0.00     0.074 A 
ATOM     49  C   UNL A   1      39.524  26.793  28.086  1.00  0.00     0.031 C 
ATOM     50  C   UNL A   1      46.057  24.750  28.794  1.00  0.00     0.029 A 
ATOM     51  C   UNL A   1      45.750  26.081  29.306  1.00  0.00     0.049 A 
ATOM     52  H   UNL A   1      43.905  27.049  29.312  1.00  0.00     0.167 HD
ATOM     53  C   UNL A   1      39.953  28.892  29.353  1.00  0.00     0.037 A 
ATOM     54  C   UNL A   1      46.636  26.917  29.874  1.00  0.00     0.037 A 
ATOM     55  C   UNL A   1      40.806  29.809  30.070  1.00  0.00     0.049 A 
ATOM     56  C   UNL A   1      46.164  28.239  30.401  1.00  0.00     0.074 A 
ATOM     57  C   UNL A   1      40.472  31.008  30.678  1.00  0.00     0.029 A 
ATOM     58  N   UNL A   1      42.172  29.642  30.255  1.00  0.00    -0.354 N 
ATOM     59  N   UNL A   1      44.953  28.741  30.411  1.00  0.00    -0.248 NA
ATOM     60  C   UNL A   1      47.182  29.106  31.008  1.00  0.00     0.031 C 
ATOM     61  C   UNL A   1      41.642  31.591  31.180  1.00  0.00     0.029 A 
ATOM     62  C   UNL A   1      42.700  30.731  30.932  1.00  0.00     0.049 A 
ATOM     63  H   UNL A   1      42.691  28.862  29.950  1.00  0.00     0.167 HD
ATOM     64  C   UNL A   1      45.059  29.974  31.039  1.00  0.00     0.074 A 
ATOM     65  C   UNL A   1      46.449  30.132  31.415  1.00  0.00     0.031 C 
ATOM     66  C   UNL A   1      44.090  30.890  31.284  1.00  0.00     0.037 A 
BRANCH  53  67
ATOM     67  C   UNL A   1      38.512  29.269  29.150  1.00  0.00     0.057 A 
ATOM     68  C   UNL A   1      38.054  29.722  27.907  1.00  0.00     0.134 A 
ATOM     69  C   UNL A   1      37.582  29.211  30.197  1.00  0.00     0.134 A 
ATOM     70  F   UNL A   1      38.893  29.815  26.864  1.00  0.00    -0.206 F 
ATOM     71  C   UNL A   1      36.723  30.096  27.710  1.00  0.00     0.040 A 
ATOM     72  C   UNL A   1      36.242  29.557  30.006  1.00  0.00     0.040 A 
ATOM     73  F   UNL A   1      37.952  28.784  31.413  1.00  0.00    -0.206 F 
ATOM     74  C   UNL A   1      35.811  30.004  28.759  1.00  0.00     0.006 A 
ENDBRANCH  53  67
BRANCH  54  75
ATOM     75  C   UNL A   1      48.054  26.505  29.998  1.00  0.00     0.057 A 
ATOM     76  C   UNL A   1      48.517  25.822  31.128  1.00  0.00     0.134 A 
ATOM     77  C   UNL A   1      48.981  26.801  28.993  1.00  0.00     0.134 A 
ATOM     78  F   UNL A   1      47.677  25.521  32.129  1.00  0.00    -0.206 F 
ATOM     79  C   UNL A   1      49.856  25.455  31.260  1.00  0.00     0.040 A 
ATOM     80  C   UNL A   1      50.318  26.418  29.101  1.00  0.00     0.040 A 
ATOM     81  F   UNL A   1      48.592  27.442  27.882  1.00  0.00    -0.206 F 
ATOM     82  C   UNL A   1      50.760  25.748  30.240  1.00  0.00     0.006 A 
ENDBRANCH  54  75
BRANCH  66  83
ATOM     83  C   UNL A   1      44.511  32.142  31.999  1.00  0.00     0.057 A 
ATOM     84  C   UNL A   1      44.708  33.337  31.296  1.00  0.00     0.134 A 
ATOM     85  C   UNL A   1      44.715  32.168  33.386  1.00  0.00     0.134 A 
ATOM     86  F   UNL A   1      44.534  33.383  29.967  1.00  0.00    -0.206 F 
ATOM     87  C   UNL A   1      45.092  34.512  31.946  1.00  0.00     0.040 A 
ATOM     88  C   UNL A   1      45.070  33.343  34.050  1.00  0.00     0.040 A 
ATOM     89  F   UNL A   1      44.523  31.063  34.121  1.00  0.00    -0.206 F 
ATOM     90  C   UNL A   1      45.265  34.519  33.328  1.00  0.00     0.006 A 
ENDBRANCH  66  83
ENDBRANCH  40  41
ENDBRANCH  33  35
ENDBRANCH  32  33
ENDBRANCH  31  32
ENDBRANCH  30  31
ENDBRANCH  29  30
ENDBRANCH  28  29
ENDBRANCH   1  28
TORSDOF 22
ENDMDL
