MODEL 1
REMARK VINA RESULT:      -9.4      0.000      0.000
REMARK SMILES COc1ccc(Br)cc1CNc1ccc(N2CCOCC2)c(C(=O)OCCOCCOCCOCCOC(=O)c2ccc(-c3c4nc(c(-c5c(F)cccc5F)c5ccc([nH]5)c(-c5c(F)cccc5F)c5nc(c(-c6c(F)cccc6F)c6ccc3[nH]6)C=C5)C=C4)cc2)c1
REMARK SMILES IDX 30 1 29 2 28 3 27 4 26 5 25 6 23 7 24 8 22 9 12 10 13 11
REMARK SMILES IDX 94 12 14 13 15 14 11 15 10 17 9 18 3 19 4 20 5 21 8 22 6 23
REMARK SMILES IDX 7 24 2 25 1 26 16 27 17 28 21 29 18 30 20 31 19 32 31 33
REMARK SMILES IDX 32 34 33 35 34 36 35 37 36 38 37 39 38 40 39 41 40 42 41 43
REMARK SMILES IDX 93 44 42 45 92 46 43 47 44 48 45 49 86 50 46 51 91 52 85 53
REMARK SMILES IDX 87 54 47 55 90 56 84 57 83 58 48 60 74 61 57 62 73 63 58 64
REMARK SMILES IDX 61 65 72 66 88 67 59 68 60 69 71 71 89 72 62 73 49 74 50 75
REMARK SMILES IDX 55 76 51 77 52 78 54 79 56 80 53 81 75 82 76 83 81 84 77 85
REMARK SMILES IDX 78 86 80 87 82 88 79 89 63 90 64 91 69 92 65 93 66 94 68 95
REMARK SMILES IDX 70 96 67 97
REMARK H PARENT 11 16 87 59 61 70
REMARK Flexibility Score: inf
ROOT
ATOM      1  C   UNL A   1      33.377  31.412  27.629  1.00  0.00     0.188 C 
ENDROOT
BRANCH   1   2
ATOM      2  C   UNL A   1      33.069  30.050  26.976  1.00  0.00     0.188 C 
BRANCH   2   3
ATOM      3  O   UNL A   1      34.217  29.265  26.662  1.00  0.00    -0.376 OA
BRANCH   3   4
ATOM      4  C   UNL A   1      33.959  27.876  26.477  1.00  0.00     0.202 C 
BRANCH   4   5
ATOM      5  C   UNL A   1      32.467  27.565  26.582  1.00  0.00     0.261 C 
BRANCH   5   6
ATOM      6  O   UNL A   1      32.134  26.267  26.069  1.00  0.00    -0.460 OA
BRANCH   6   7
ATOM      7  C   UNL A   1      30.993  26.150  25.340  1.00  0.00     0.340 C 
ATOM      8  O   UNL A   1      29.863  26.348  25.749  1.00  0.00    -0.246 OA
BRANCH   7   9
ATOM      9  C   UNL A   1      31.406  25.838  23.943  1.00  0.00     0.085 A 
ATOM     10  C   UNL A   1      32.497  24.222  22.466  1.00  0.00     0.035 A 
ATOM     11  C   UNL A   1      32.389  25.169  21.441  1.00  0.00     0.028 A 
ATOM     12  C   UNL A   1      31.991  24.578  23.712  1.00  0.00     0.043 A 
ATOM     13  C   UNL A   1      31.811  26.429  21.658  1.00  0.00     0.029 A 
ATOM     14  C   UNL A   1      31.313  26.792  22.914  1.00  0.00     0.052 A 
BRANCH  10  15
ATOM     15  N   UNL A   1      33.061  22.996  22.197  1.00  0.00    -0.381 N 
ATOM     16  H   UNL A   1      33.732  22.964  21.477  1.00  0.00     0.160 HD
BRANCH  15  17
ATOM     17  C   UNL A   1      32.762  21.743  22.874  1.00  0.00     0.152 C 
BRANCH  17  18
ATOM     18  C   UNL A   1      33.507  21.689  24.188  1.00  0.00     0.014 A 
ATOM     19  C   UNL A   1      32.840  21.485  25.404  1.00  0.00     0.123 A 
ATOM     20  C   UNL A   1      33.559  21.394  26.601  1.00  0.00     0.048 A 
ATOM     21  C   UNL A   1      34.949  21.527  26.598  1.00  0.00     0.019 A 
ATOM     22  C   UNL A   1      34.911  21.793  24.197  1.00  0.00     0.025 A 
ATOM     23  C   UNL A   1      35.619  21.725  25.394  1.00  0.00     0.018 A 
ATOM     24  Br  UNL A   1      37.502  21.887  25.379  1.00  0.00    -0.051 Br
BRANCH  19  25
ATOM     25  O   UNL A   1      31.484  21.289  25.376  1.00  0.00    -0.496 OA
ATOM     26  C   UNL A   1      30.772  22.277  26.118  1.00  0.00     0.278 C 
ENDBRANCH  19  25
ENDBRANCH  17  18
ENDBRANCH  15  17
ENDBRANCH  10  15
BRANCH  14  27
ATOM     27  N   UNL A   1      30.777  28.043  23.119  1.00  0.00    -0.366 N 
ATOM     28  C   UNL A   1      31.580  29.175  23.584  1.00  0.00     0.145 C 
ATOM     29  C   UNL A   1      29.571  28.429  22.376  1.00  0.00     0.145 C 
ATOM     30  C   UNL A   1      30.667  30.069  24.446  1.00  0.00     0.181 C 
ATOM     31  C   UNL A   1      28.745  29.400  23.238  1.00  0.00     0.181 C 
ATOM     32  O   UNL A   1      29.531  30.524  23.686  1.00  0.00    -0.378 OA
ENDBRANCH  14  27
ENDBRANCH   7   9
ENDBRANCH   6   7
ENDBRANCH   5   6
ENDBRANCH   4   5
ENDBRANCH   3   4
ENDBRANCH   2   3
ENDBRANCH   1   2
BRANCH   1  33
ATOM     33  O   UNL A   1      34.653  31.709  28.183  1.00  0.00    -0.377 OA
BRANCH  33  34
ATOM     34  C   UNL A   1      35.172  33.015  28.021  1.00  0.00     0.188 C 
BRANCH  34  35
ATOM     35  C   UNL A   1      34.114  34.125  27.901  1.00  0.00     0.188 C 
BRANCH  35  36
ATOM     36  O   UNL A   1      34.404  35.279  28.692  1.00  0.00    -0.376 OA
BRANCH  36  37
ATOM     37  C   UNL A   1      33.283  36.059  29.093  1.00  0.00     0.202 C 
BRANCH  37  38
ATOM     38  C   UNL A   1      32.719  35.718  30.478  1.00  0.00     0.261 C 
BRANCH  38  39
ATOM     39  O   UNL A   1      33.315  34.580  31.120  1.00  0.00    -0.460 OA
BRANCH  39  40
ATOM     40  C   UNL A   1      34.203  34.810  32.110  1.00  0.00     0.338 C 
ATOM     41  O   UNL A   1      34.055  35.505  33.097  1.00  0.00    -0.246 OA
BRANCH  40  42
ATOM     42  C   UNL A   1      35.345  33.901  31.891  1.00  0.00     0.060 A 
ATOM     43  C   UNL A   1      35.258  32.586  32.368  1.00  0.00     0.016 A 
ATOM     44  C   UNL A   1      36.469  34.330  31.181  1.00  0.00     0.016 A 
ATOM     45  C   UNL A   1      36.317  31.704  32.162  1.00  0.00     0.010 A 
ATOM     46  C   UNL A   1      37.541  33.454  30.999  1.00  0.00     0.010 A 
ATOM     47  C   UNL A   1      37.480  32.151  31.520  1.00  0.00    -0.014 A 
BRANCH  47  48
ATOM     48  C   UNL A   1      38.717  31.345  31.623  1.00  0.00     0.031 A 
ATOM     49  C   UNL A   1      39.714  31.734  32.679  1.00  0.00     0.074 A 
ATOM     50  C   UNL A   1      38.948  30.292  30.820  1.00  0.00     0.049 A 
ATOM     51  N   UNL A   1      40.868  31.195  32.974  1.00  0.00    -0.248 NA
ATOM     52  C   UNL A   1      39.356  32.891  33.518  1.00  0.00     0.031 C 
ATOM     53  C   UNL A   1      38.049  29.806  29.777  1.00  0.00     0.029 A 
ATOM     54  N   UNL A   1      40.026  29.446  30.761  1.00  0.00    -0.354 N 
ATOM     55  C   UNL A   1      41.368  31.942  34.033  1.00  0.00     0.074 A 
ATOM     56  C   UNL A   1      40.413  32.991  34.307  1.00  0.00     0.031 C 
ATOM     57  C   UNL A   1      38.619  28.747  29.172  1.00  0.00     0.029 A 
ATOM     58  C   UNL A   1      39.928  28.497  29.774  1.00  0.00     0.049 A 
ATOM     59  H   UNL A   1      40.797  29.511  31.371  1.00  0.00     0.167 HD
ATOM     60  C   UNL A   1      42.518  31.764  34.722  1.00  0.00     0.037 A 
ATOM     61  C   UNL A   1      40.806  27.547  29.397  1.00  0.00     0.037 A 
ATOM     62  C   UNL A   1      43.477  30.734  34.438  1.00  0.00     0.049 A 
ATOM     63  C   UNL A   1      42.111  27.410  30.139  1.00  0.00     0.074 A 
ATOM     64  C   UNL A   1      44.671  30.466  35.082  1.00  0.00     0.029 A 
ATOM     65  N   UNL A   1      43.354  29.807  33.415  1.00  0.00    -0.354 N 
ATOM     66  N   UNL A   1      42.559  28.096  31.163  1.00  0.00    -0.248 NA
ATOM     67  C   UNL A   1      43.031  26.361  29.674  1.00  0.00     0.031 C 
ATOM     68  C   UNL A   1      45.293  29.401  34.420  1.00  0.00     0.029 A 
ATOM     69  C   UNL A   1      44.461  28.978  33.394  1.00  0.00     0.049 A 
ATOM     70  H   UNL A   1      42.592  29.748  32.795  1.00  0.00     0.167 HD
ATOM     71  C   UNL A   1      43.794  27.544  31.483  1.00  0.00     0.074 A 
ATOM     72  C   UNL A   1      44.021  26.460  30.551  1.00  0.00     0.031 C 
ATOM     73  C   UNL A   1      44.662  27.898  32.463  1.00  0.00     0.037 A 
BRANCH  60  74
ATOM     74  C   UNL A   1      42.800  32.728  35.835  1.00  0.00     0.057 A 
ATOM     75  C   UNL A   1      43.487  33.928  35.613  1.00  0.00     0.134 A 
ATOM     76  C   UNL A   1      42.376  32.453  37.141  1.00  0.00     0.134 A 
ATOM     77  F   UNL A   1      43.939  34.238  34.389  1.00  0.00    -0.206 F 
ATOM     78  C   UNL A   1      43.763  34.813  36.657  1.00  0.00     0.040 A 
ATOM     79  C   UNL A   1      42.626  33.340  38.188  1.00  0.00     0.040 A 
ATOM     80  F   UNL A   1      41.718  31.319  37.420  1.00  0.00    -0.206 F 
ATOM     81  C   UNL A   1      43.326  34.522  37.949  1.00  0.00     0.006 A 
ENDBRANCH  60  74
BRANCH  61  82
ATOM     82  C   UNL A   1      40.490  26.646  28.261  1.00  0.00     0.057 A 
ATOM     83  C   UNL A   1      41.109  26.804  27.015  1.00  0.00     0.134 A 
ATOM     84  C   UNL A   1      39.535  25.630  28.382  1.00  0.00     0.134 A 
ATOM     85  F   UNL A   1      42.013  27.777  26.829  1.00  0.00    -0.206 F 
ATOM     86  C   UNL A   1      40.778  25.995  25.926  1.00  0.00     0.040 A 
ATOM     87  C   UNL A   1      39.211  24.799  27.308  1.00  0.00     0.040 A 
ATOM     88  F   UNL A   1      38.903  25.430  29.548  1.00  0.00    -0.206 F 
ATOM     89  C   UNL A   1      39.828  24.985  26.073  1.00  0.00     0.006 A 
ENDBRANCH  61  82
BRANCH  73  90
ATOM     90  C   UNL A   1      45.916  27.086  32.601  1.00  0.00     0.057 A 
ATOM     91  C   UNL A   1      47.105  27.445  31.955  1.00  0.00     0.134 A 
ATOM     92  C   UNL A   1      45.943  25.955  33.428  1.00  0.00     0.134 A 
ATOM     93  F   UNL A   1      47.143  28.511  31.141  1.00  0.00    -0.206 F 
ATOM     94  C   UNL A   1      48.272  26.695  32.109  1.00  0.00     0.040 A 
ATOM     95  C   UNL A   1      47.110  25.212  33.610  1.00  0.00     0.040 A 
ATOM     96  F   UNL A   1      44.841  25.564  34.084  1.00  0.00    -0.206 F 
ATOM     97  C   UNL A   1      48.278  25.578  32.944  1.00  0.00     0.006 A 
ENDBRANCH  73  90
ENDBRANCH  47  48
ENDBRANCH  40  42
ENDBRANCH  39  40
ENDBRANCH  38  39
ENDBRANCH  37  38
ENDBRANCH  36  37
ENDBRANCH  35  36
ENDBRANCH  34  35
ENDBRANCH  33  34
ENDBRANCH   1  33
TORSDOF 25
ENDMDL
MODEL 2
REMARK VINA RESULT:      -9.2      1.928      6.244
REMARK SMILES COc1ccc(Br)cc1CNc1ccc(N2CCOCC2)c(C(=O)OCCOCCOCCOCCOC(=O)c2ccc(-c3c4nc(c(-c5c(F)cccc5F)c5ccc([nH]5)c(-c5c(F)cccc5F)c5nc(c(-c6c(F)cccc6F)c6ccc3[nH]6)C=C5)C=C4)cc2)c1
REMARK SMILES IDX 30 1 29 2 28 3 27 4 26 5 25 6 23 7 24 8 22 9 12 10 13 11
REMARK SMILES IDX 94 12 14 13 15 14 11 15 10 17 9 18 3 19 4 20 5 21 8 22 6 23
REMARK SMILES IDX 7 24 2 25 1 26 16 27 17 28 21 29 18 30 20 31 19 32 31 33
REMARK SMILES IDX 32 34 33 35 34 36 35 37 36 38 37 39 38 40 39 41 40 42 41 43
REMARK SMILES IDX 93 44 42 45 92 46 43 47 44 48 45 49 86 50 46 51 91 52 85 53
REMARK SMILES IDX 87 54 47 55 90 56 84 57 83 58 48 60 74 61 57 62 73 63 58 64
REMARK SMILES IDX 61 65 72 66 88 67 59 68 60 69 71 71 89 72 62 73 49 74 50 75
REMARK SMILES IDX 55 76 51 77 52 78 54 79 56 80 53 81 75 82 76 83 81 84 77 85
REMARK SMILES IDX 78 86 80 87 82 88 79 89 63 90 64 91 69 92 65 93 66 94 68 95
REMARK SMILES IDX 70 96 67 97
REMARK H PARENT 11 16 87 59 61 70
REMARK Flexibility Score: inf
ROOT
ATOM      1  C   UNL A   1      33.495  30.856  27.361  1.00  0.00     0.188 C 
ENDROOT
BRANCH   1   2
ATOM      2  C   UNL A   1      33.399  29.568  26.519  1.00  0.00     0.188 C 
BRANCH   2   3
ATOM      3  O   UNL A   1      33.188  28.377  27.272  1.00  0.00    -0.376 OA
BRANCH   3   4
ATOM      4  C   UNL A   1      31.827  27.967  27.376  1.00  0.00     0.202 C 
BRANCH   4   5
ATOM      5  C   UNL A   1      31.227  27.668  26.003  1.00  0.00     0.261 C 
BRANCH   5   6
ATOM      6  O   UNL A   1      31.556  26.354  25.529  1.00  0.00    -0.460 OA
BRANCH   6   7
ATOM      7  C   UNL A   1      30.624  25.698  24.790  1.00  0.00     0.340 C 
ATOM      8  O   UNL A   1      29.417  25.855  24.861  1.00  0.00    -0.246 OA
BRANCH   7   9
ATOM      9  C   UNL A   1      31.367  24.844  23.821  1.00  0.00     0.085 A 
ATOM     10  C   UNL A   1      32.087  22.575  23.259  1.00  0.00     0.035 A 
ATOM     11  C   UNL A   1      32.842  23.132  22.220  1.00  0.00     0.028 A 
ATOM     12  C   UNL A   1      31.349  23.454  24.046  1.00  0.00     0.043 A 
ATOM     13  C   UNL A   1      32.871  24.514  21.988  1.00  0.00     0.029 A 
ATOM     14  C   UNL A   1      32.140  25.400  22.786  1.00  0.00     0.052 A 
BRANCH  10  15
ATOM     15  N   UNL A   1      32.083  21.210  23.435  1.00  0.00    -0.381 N 
ATOM     16  H   UNL A   1      31.931  20.659  22.635  1.00  0.00     0.160 HD
BRANCH  15  17
ATOM     17  C   UNL A   1      32.282  20.504  24.693  1.00  0.00     0.152 C 
BRANCH  17  18
ATOM     18  C   UNL A   1      33.504  21.055  25.392  1.00  0.00     0.014 A 
ATOM     19  C   UNL A   1      33.402  21.791  26.581  1.00  0.00     0.123 A 
ATOM     20  C   UNL A   1      34.552  22.251  27.232  1.00  0.00     0.048 A 
ATOM     21  C   UNL A   1      35.814  21.998  26.690  1.00  0.00     0.019 A 
ATOM     22  C   UNL A   1      34.785  20.785  24.873  1.00  0.00     0.025 A 
ATOM     23  C   UNL A   1      35.925  21.265  25.513  1.00  0.00     0.018 A 
ATOM     24  Br  UNL A   1      37.631  20.903  24.784  1.00  0.00    -0.051 Br
BRANCH  19  25
ATOM     25  O   UNL A   1      32.159  21.967  27.131  1.00  0.00    -0.496 OA
ATOM     26  C   UNL A   1      31.821  23.344  27.288  1.00  0.00     0.278 C 
ENDBRANCH  19  25
ENDBRANCH  17  18
ENDBRANCH  15  17
ENDBRANCH  10  15
BRANCH  14  27
ATOM     27  N   UNL A   1      32.203  26.757  22.565  1.00  0.00    -0.366 N 
ATOM     28  C   UNL A   1      33.471  27.464  22.371  1.00  0.00     0.145 C 
ATOM     29  C   UNL A   1      31.043  27.434  21.973  1.00  0.00     0.145 C 
ATOM     30  C   UNL A   1      33.306  28.881  22.953  1.00  0.00     0.181 C 
ATOM     31  C   UNL A   1      30.982  28.876  22.507  1.00  0.00     0.181 C 
ATOM     32  O   UNL A   1      32.226  29.578  22.304  1.00  0.00    -0.378 OA
ENDBRANCH  14  27
ENDBRANCH   7   9
ENDBRANCH   6   7
ENDBRANCH   5   6
ENDBRANCH   4   5
ENDBRANCH   3   4
ENDBRANCH   2   3
ENDBRANCH   1   2
BRANCH   1  33
ATOM     33  O   UNL A   1      34.668  31.190  28.092  1.00  0.00    -0.377 OA
BRANCH  33  34
ATOM     34  C   UNL A   1      35.002  32.557  28.246  1.00  0.00     0.188 C 
BRANCH  34  35
ATOM     35  C   UNL A   1      33.840  33.464  28.685  1.00  0.00     0.188 C 
BRANCH  35  36
ATOM     36  O   UNL A   1      34.248  34.791  29.023  1.00  0.00    -0.376 OA
BRANCH  36  37
ATOM     37  C   UNL A   1      33.271  35.810  28.839  1.00  0.00     0.202 C 
BRANCH  37  38
ATOM     38  C   UNL A   1      32.642  36.346  30.132  1.00  0.00     0.261 C 
BRANCH  38  39
ATOM     39  O   UNL A   1      32.498  35.383  31.188  1.00  0.00    -0.460 OA
BRANCH  39  40
ATOM     40  C   UNL A   1      33.020  35.691  32.394  1.00  0.00     0.338 C 
ATOM     41  O   UNL A   1      32.515  36.360  33.276  1.00  0.00    -0.246 OA
BRANCH  40  42
ATOM     42  C   UNL A   1      34.257  34.901  32.549  1.00  0.00     0.060 A 
ATOM     43  C   UNL A   1      34.166  33.610  33.086  1.00  0.00     0.016 A 
ATOM     44  C   UNL A   1      35.486  35.412  32.123  1.00  0.00     0.016 A 
ATOM     45  C   UNL A   1      35.318  32.837  33.230  1.00  0.00     0.010 A 
ATOM     46  C   UNL A   1      36.642  34.649  32.292  1.00  0.00     0.010 A 
ATOM     47  C   UNL A   1      36.563  33.374  32.879  1.00  0.00    -0.014 A 
BRANCH  47  48
ATOM     48  C   UNL A   1      37.797  32.712  33.360  1.00  0.00     0.031 A 
ATOM     49  C   UNL A   1      38.389  31.634  32.496  1.00  0.00     0.074 A 
ATOM     50  C   UNL A   1      38.385  33.062  34.517  1.00  0.00     0.049 A 
ATOM     51  N   UNL A   1      39.457  30.905  32.689  1.00  0.00    -0.248 NA
ATOM     52  C   UNL A   1      37.676  31.341  31.241  1.00  0.00     0.031 C 
ATOM     53  C   UNL A   1      37.919  34.104  35.426  1.00  0.00     0.029 A 
ATOM     54  N   UNL A   1      39.510  32.561  35.122  1.00  0.00    -0.354 N 
ATOM     55  C   UNL A   1      39.546  30.074  31.579  1.00  0.00     0.074 A 
ATOM     56  C   UNL A   1      38.409  30.362  30.735  1.00  0.00     0.031 C 
ATOM     57  C   UNL A   1      38.750  34.160  36.485  1.00  0.00     0.029 A 
ATOM     58  C   UNL A   1      39.791  33.145  36.332  1.00  0.00     0.049 A 
ATOM     59  H   UNL A   1      40.065  31.850  34.725  1.00  0.00     0.167 HD
ATOM     60  C   UNL A   1      40.497  29.158  31.285  1.00  0.00     0.037 A 
ATOM     61  C   UNL A   1      40.771  32.876  37.215  1.00  0.00     0.037 A 
ATOM     62  C   UNL A   1      41.616  28.857  32.132  1.00  0.00     0.049 A 
ATOM     63  C   UNL A   1      41.782  31.804  36.895  1.00  0.00     0.074 A 
ATOM     64  C   UNL A   1      42.638  27.949  31.921  1.00  0.00     0.029 A 
ATOM     65  N   UNL A   1      41.853  29.453  33.361  1.00  0.00    -0.354 N 
ATOM     66  N   UNL A   1      41.881  31.050  35.826  1.00  0.00    -0.248 NA
ATOM     67  C   UNL A   1      42.822  31.551  37.904  1.00  0.00     0.031 C 
ATOM     68  C   UNL A   1      43.472  27.965  33.045  1.00  0.00     0.029 A 
ATOM     69  C   UNL A   1      42.993  28.917  33.932  1.00  0.00     0.049 A 
ATOM     70  H   UNL A   1      41.293  30.153  33.767  1.00  0.00     0.167 HD
ATOM     71  C   UNL A   1      43.006  30.257  36.020  1.00  0.00     0.074 A 
ATOM     72  C   UNL A   1      43.562  30.629  37.304  1.00  0.00     0.031 C 
ATOM     73  C   UNL A   1      43.536  29.310  35.208  1.00  0.00     0.037 A 
BRANCH  60  74
ATOM     74  C   UNL A   1      40.340  28.405  29.998  1.00  0.00     0.057 A 
ATOM     75  C   UNL A   1      39.531  27.265  29.906  1.00  0.00     0.134 A 
ATOM     76  C   UNL A   1      41.003  28.826  28.840  1.00  0.00     0.134 A 
ATOM     77  F   UNL A   1      38.887  26.798  30.987  1.00  0.00    -0.206 F 
ATOM     78  C   UNL A   1      39.404  26.557  28.710  1.00  0.00     0.040 A 
ATOM     79  C   UNL A   1      40.866  28.140  27.633  1.00  0.00     0.040 A 
ATOM     80  F   UNL A   1      41.796  29.908  28.863  1.00  0.00    -0.206 F 
ATOM     81  C   UNL A   1      40.068  26.999  27.567  1.00  0.00     0.006 A 
ENDBRANCH  60  74
BRANCH  61  82
ATOM     82  C   UNL A   1      40.853  33.628  38.493  1.00  0.00     0.057 A 
ATOM     83  C   UNL A   1      41.751  34.689  38.655  1.00  0.00     0.134 A 
ATOM     84  C   UNL A   1      40.063  33.277  39.594  1.00  0.00     0.134 A 
ATOM     85  F   UNL A   1      42.555  35.054  37.645  1.00  0.00    -0.206 F 
ATOM     86  C   UNL A   1      41.873  35.365  39.870  1.00  0.00     0.040 A 
ATOM     87  C   UNL A   1      40.158  33.960  40.808  1.00  0.00     0.040 A 
ATOM     88  F   UNL A   1      39.187  32.266  39.505  1.00  0.00    -0.206 F 
ATOM     89  C   UNL A   1      41.070  35.003  40.951  1.00  0.00     0.006 A 
ENDBRANCH  61  82
BRANCH  73  90
ATOM     90  C   UNL A   1      44.796  28.635  35.663  1.00  0.00     0.057 A 
ATOM     91  C   UNL A   1      44.774  27.461  36.425  1.00  0.00     0.134 A 
ATOM     92  C   UNL A   1      46.048  29.146  35.295  1.00  0.00     0.134 A 
ATOM     93  F   UNL A   1      43.608  26.926  36.817  1.00  0.00    -0.206 F 
ATOM     94  C   UNL A   1      45.954  26.829  36.823  1.00  0.00     0.040 A 
ATOM     95  C   UNL A   1      47.233  28.510  35.666  1.00  0.00     0.040 A 
ATOM     96  F   UNL A   1      46.139  30.262  34.557  1.00  0.00    -0.206 F 
ATOM     97  C   UNL A   1      47.188  27.351  36.438  1.00  0.00     0.006 A 
ENDBRANCH  73  90
ENDBRANCH  47  48
ENDBRANCH  40  42
ENDBRANCH  39  40
ENDBRANCH  38  39
ENDBRANCH  37  38
ENDBRANCH  36  37
ENDBRANCH  35  36
ENDBRANCH  34  35
ENDBRANCH  33  34
ENDBRANCH   1  33
TORSDOF 25
ENDMDL
MODEL 3
REMARK VINA RESULT:      -8.8      3.522      6.680
REMARK SMILES COc1ccc(Br)cc1CNc1ccc(N2CCOCC2)c(C(=O)OCCOCCOCCOCCOC(=O)c2ccc(-c3c4nc(c(-c5c(F)cccc5F)c5ccc([nH]5)c(-c5c(F)cccc5F)c5nc(c(-c6c(F)cccc6F)c6ccc3[nH]6)C=C5)C=C4)cc2)c1
REMARK SMILES IDX 30 1 29 2 28 3 27 4 26 5 25 6 23 7 24 8 22 9 12 10 13 11
REMARK SMILES IDX 94 12 14 13 15 14 11 15 10 17 9 18 3 19 4 20 5 21 8 22 6 23
REMARK SMILES IDX 7 24 2 25 1 26 16 27 17 28 21 29 18 30 20 31 19 32 31 33
REMARK SMILES IDX 32 34 33 35 34 36 35 37 36 38 37 39 38 40 39 41 40 42 41 43
REMARK SMILES IDX 93 44 42 45 92 46 43 47 44 48 45 49 86 50 46 51 91 52 85 53
REMARK SMILES IDX 87 54 47 55 90 56 84 57 83 58 48 60 74 61 57 62 73 63 58 64
REMARK SMILES IDX 61 65 72 66 88 67 59 68 60 69 71 71 89 72 62 73 49 74 50 75
REMARK SMILES IDX 55 76 51 77 52 78 54 79 56 80 53 81 75 82 76 83 81 84 77 85
REMARK SMILES IDX 78 86 80 87 82 88 79 89 63 90 64 91 69 92 65 93 66 94 68 95
REMARK SMILES IDX 70 96 67 97
REMARK H PARENT 11 16 87 59 61 70
REMARK Flexibility Score: inf
ROOT
ATOM      1  C   UNL A   1      33.238  28.465  26.648  1.00  0.00     0.188 C 
ENDROOT
BRANCH   1   2
ATOM      2  C   UNL A   1      31.811  27.967  26.948  1.00  0.00     0.188 C 
BRANCH   2   3
ATOM      3  O   UNL A   1      31.711  26.574  27.230  1.00  0.00    -0.376 OA
BRANCH   3   4
ATOM      4  C   UNL A   1      31.376  25.759  26.110  1.00  0.00     0.202 C 
BRANCH   4   5
ATOM      5  C   UNL A   1      32.205  24.476  26.085  1.00  0.00     0.261 C 
BRANCH   5   6
ATOM      6  O   UNL A   1      33.582  24.699  26.423  1.00  0.00    -0.460 OA
BRANCH   6   7
ATOM      7  C   UNL A   1      34.448  24.949  25.407  1.00  0.00     0.340 C 
ATOM      8  O   UNL A   1      34.397  25.898  24.644  1.00  0.00    -0.246 OA
BRANCH   7   9
ATOM      9  C   UNL A   1      35.511  23.907  25.482  1.00  0.00     0.085 A 
ATOM     10  C   UNL A   1      37.768  23.369  26.256  1.00  0.00     0.035 A 
ATOM     11  C   UNL A   1      37.653  22.154  25.569  1.00  0.00     0.028 A 
ATOM     12  C   UNL A   1      36.677  24.230  26.203  1.00  0.00     0.043 A 
ATOM     13  C   UNL A   1      36.499  21.822  24.845  1.00  0.00     0.029 A 
ATOM     14  C   UNL A   1      35.406  22.692  24.781  1.00  0.00     0.052 A 
BRANCH  10  15
ATOM     15  N   UNL A   1      38.917  23.640  26.962  1.00  0.00    -0.381 N 
ATOM     16  H   UNL A   1      38.988  23.251  27.863  1.00  0.00     0.160 HD
BRANCH  15  17
ATOM     17  C   UNL A   1      40.039  24.447  26.504  1.00  0.00     0.152 C 
BRANCH  17  18
ATOM     18  C   UNL A   1      40.269  25.586  27.471  1.00  0.00     0.014 A 
ATOM     19  C   UNL A   1      41.466  25.707  28.191  1.00  0.00     0.123 A 
ATOM     20  C   UNL A   1      41.672  26.796  29.047  1.00  0.00     0.048 A 
ATOM     21  C   UNL A   1      40.676  27.761  29.208  1.00  0.00     0.019 A 
ATOM     22  C   UNL A   1      39.286  26.581  27.623  1.00  0.00     0.025 A 
ATOM     23  C   UNL A   1      39.487  27.650  28.493  1.00  0.00     0.018 A 
ATOM     24  Br  UNL A   1      38.141  28.962  28.691  1.00  0.00    -0.051 Br
BRANCH  19  25
ATOM     25  O   UNL A   1      42.456  24.787  27.966  1.00  0.00    -0.496 OA
ATOM     26  C   UNL A   1      43.218  24.505  29.139  1.00  0.00     0.278 C 
ENDBRANCH  19  25
ENDBRANCH  17  18
ENDBRANCH  15  17
ENDBRANCH  10  15
BRANCH  14  27
ATOM     27  N   UNL A   1      34.293  22.365  24.041  1.00  0.00    -0.366 N 
ATOM     28  C   UNL A   1      34.027  22.947  22.723  1.00  0.00     0.145 C 
ATOM     29  C   UNL A   1      33.651  21.065  24.263  1.00  0.00     0.145 C 
ATOM     30  C   UNL A   1      32.498  23.055  22.564  1.00  0.00     0.181 C 
ATOM     31  C   UNL A   1      32.141  21.202  23.993  1.00  0.00     0.181 C 
ATOM     32  O   UNL A   1      31.877  21.762  22.689  1.00  0.00    -0.378 OA
ENDBRANCH  14  27
ENDBRANCH   7   9
ENDBRANCH   6   7
ENDBRANCH   5   6
ENDBRANCH   4   5
ENDBRANCH   3   4
ENDBRANCH   2   3
ENDBRANCH   1   2
BRANCH   1  33
ATOM     33  O   UNL A   1      33.511  29.826  26.337  1.00  0.00    -0.377 OA
BRANCH  33  34
ATOM     34  C   UNL A   1      33.089  30.824  27.247  1.00  0.00     0.188 C 
BRANCH  34  35
ATOM     35  C   UNL A   1      34.206  31.747  27.762  1.00  0.00     0.188 C 
BRANCH  35  36
ATOM     36  O   UNL A   1      34.963  31.185  28.836  1.00  0.00    -0.376 OA
BRANCH  36  37
ATOM     37  C   UNL A   1      35.817  32.083  29.535  1.00  0.00     0.202 C 
BRANCH  37  38
ATOM     38  C   UNL A   1      35.370  32.426  30.962  1.00  0.00     0.261 C 
BRANCH  38  39
ATOM     39  O   UNL A   1      36.379  33.016  31.796  1.00  0.00    -0.460 OA
BRANCH  39  40
ATOM     40  C   UNL A   1      36.641  32.424  32.980  1.00  0.00     0.338 C 
ATOM     41  O   UNL A   1      35.912  32.346  33.951  1.00  0.00    -0.246 OA
BRANCH  40  42
ATOM     42  C   UNL A   1      37.917  31.699  32.833  1.00  0.00     0.060 A 
ATOM     43  C   UNL A   1      39.072  32.247  33.407  1.00  0.00     0.016 A 
ATOM     44  C   UNL A   1      37.963  30.466  32.177  1.00  0.00     0.016 A 
ATOM     45  C   UNL A   1      40.287  31.574  33.295  1.00  0.00     0.010 A 
ATOM     46  C   UNL A   1      39.185  29.806  32.041  1.00  0.00     0.010 A 
ATOM     47  C   UNL A   1      40.355  30.378  32.570  1.00  0.00    -0.014 A 
BRANCH  47  48
ATOM     48  C   UNL A   1      41.677  29.863  32.146  1.00  0.00     0.031 A 
ATOM     49  C   UNL A   1      42.395  30.606  31.054  1.00  0.00     0.074 A 
ATOM     50  C   UNL A   1      42.235  28.782  32.719  1.00  0.00     0.049 A 
ATOM     51  N   UNL A   1      43.556  30.362  30.505  1.00  0.00    -0.248 NA
ATOM     52  C   UNL A   1      41.703  31.786  30.507  1.00  0.00     0.031 C 
ATOM     53  C   UNL A   1      41.649  27.995  33.800  1.00  0.00     0.029 A 
ATOM     54  N   UNL A   1      43.430  28.162  32.456  1.00  0.00    -0.354 N 
ATOM     55  C   UNL A   1      43.735  31.360  29.556  1.00  0.00     0.074 A 
ATOM     56  C   UNL A   1      42.553  32.191  29.577  1.00  0.00     0.031 C 
ATOM     57  C   UNL A   1      42.484  26.984  34.103  1.00  0.00     0.029 A 
ATOM     58  C   UNL A   1      43.652  27.046  33.225  1.00  0.00     0.049 A 
ATOM     59  H   UNL A   1      44.069  28.486  31.780  1.00  0.00     0.167 HD
ATOM     60  C   UNL A   1      44.797  31.572  28.745  1.00  0.00     0.037 A 
ATOM     61  C   UNL A   1      44.677  26.174  33.207  1.00  0.00     0.037 A 
ATOM     62  C   UNL A   1      45.964  30.736  28.709  1.00  0.00     0.049 A 
ATOM     63  C   UNL A   1      45.819  26.394  32.246  1.00  0.00     0.074 A 
ATOM     64  C   UNL A   1      47.096  30.869  27.925  1.00  0.00     0.029 A 
ATOM     65  N   UNL A   1      46.141  29.603  29.486  1.00  0.00    -0.354 N 
ATOM     66  N   UNL A   1      45.999  27.361  31.379  1.00  0.00    -0.248 NA
ATOM     67  C   UNL A   1      46.903  25.400  32.267  1.00  0.00     0.031 C 
ATOM     68  C   UNL A   1      47.942  29.788  28.199  1.00  0.00     0.029 A 
ATOM     69  C   UNL A   1      47.355  29.011  29.186  1.00  0.00     0.049 A 
ATOM     70  H   UNL A   1      45.498  29.267  30.151  1.00  0.00     0.167 HD
ATOM     71  C   UNL A   1      47.226  27.111  30.776  1.00  0.00     0.074 A 
ATOM     72  C   UNL A   1      47.751  25.906  31.382  1.00  0.00     0.031 C 
ATOM     73  C   UNL A   1      47.864  27.816  29.810  1.00  0.00     0.037 A 
BRANCH  60  74
ATOM     74  C   UNL A   1      44.719  32.747  27.816  1.00  0.00     0.057 A 
ATOM     75  C   UNL A   1      44.173  32.634  26.531  1.00  0.00     0.134 A 
ATOM     76  C   UNL A   1      45.193  34.003  28.214  1.00  0.00     0.134 A 
ATOM     77  F   UNL A   1      43.723  31.453  26.083  1.00  0.00    -0.206 F 
ATOM     78  C   UNL A   1      44.121  33.727  25.664  1.00  0.00     0.040 A 
ATOM     79  C   UNL A   1      45.126  35.107  27.364  1.00  0.00     0.040 A 
ATOM     80  F   UNL A   1      45.732  34.175  29.430  1.00  0.00    -0.206 F 
ATOM     81  C   UNL A   1      44.593  34.970  26.083  1.00  0.00     0.006 A 
ENDBRANCH  60  74
BRANCH  61  82
ATOM     82  C   UNL A   1      44.681  25.005  34.122  1.00  0.00     0.057 A 
ATOM     83  C   UNL A   1      45.162  25.110  35.432  1.00  0.00     0.134 A 
ATOM     84  C   UNL A   1      44.239  23.747  33.696  1.00  0.00     0.134 A 
ATOM     85  F   UNL A   1      45.625  26.283  35.889  1.00  0.00    -0.206 F 
ATOM     86  C   UNL A   1      45.219  24.004  36.281  1.00  0.00     0.040 A 
ATOM     87  C   UNL A   1      44.269  22.637  34.542  1.00  0.00     0.040 A 
ATOM     88  F   UNL A   1      43.771  23.579  32.450  1.00  0.00    -0.206 F 
ATOM     89  C   UNL A   1      44.767  22.762  35.837  1.00  0.00     0.006 A 
ENDBRANCH  61  82
BRANCH  73  90
ATOM     90  C   UNL A   1      49.214  27.327  29.375  1.00  0.00     0.057 A 
ATOM     91  C   UNL A   1      50.389  27.724  30.023  1.00  0.00     0.134 A 
ATOM     92  C   UNL A   1      49.332  26.410  28.321  1.00  0.00     0.134 A 
ATOM     93  F   UNL A   1      50.345  28.606  31.033  1.00  0.00    -0.206 F 
ATOM     94  C   UNL A   1      51.638  27.243  29.624  1.00  0.00     0.040 A 
ATOM     95  C   UNL A   1      50.572  25.905  27.930  1.00  0.00     0.040 A 
ATOM     96  F   UNL A   1      48.243  25.982  27.665  1.00  0.00    -0.206 F 
ATOM     97  C   UNL A   1      51.731  26.326  28.579  1.00  0.00     0.006 A 
ENDBRANCH  73  90
ENDBRANCH  47  48
ENDBRANCH  40  42
ENDBRANCH  39  40
ENDBRANCH  38  39
ENDBRANCH  37  38
ENDBRANCH  36  37
ENDBRANCH  35  36
ENDBRANCH  34  35
ENDBRANCH  33  34
ENDBRANCH   1  33
TORSDOF 25
ENDMDL
