MODEL 1
REMARK VINA RESULT:     -10.2      0.000      0.000
REMARK SMILES CC1(C)[C@H](C(=O)Nc2ccc(C(F)(F)F)nc2)[C@@H]1C(=O)OCCOCCOCCOCCOC(=O)c1ccc(-c2c3nc(c(-c4c(F)cccc4F)c4ccc([nH]4)c(-c4c(F)cccc4F)c4nc(c(-c5c(F)cccc5F)c5ccc2[nH]5)C=C4)C=C3)cc1
REMARK SMILES IDX 26 1 25 2 24 3 23 4 22 5 21 6 19 7 20 8 18 9 1 10 2 11 3 12
REMARK SMILES IDX 4 13 5 14 6 15 7 16 8 18 9 19 17 20 10 21 16 22 11 23 12 24
REMARK SMILES IDX 13 25 14 26 15 27 27 28 28 29 29 30 30 31 31 32 32 33 33 34
REMARK SMILES IDX 34 35 35 36 36 37 37 38 89 39 38 40 88 41 39 42 40 43 41 44
REMARK SMILES IDX 82 45 42 46 87 47 81 48 83 49 43 50 86 51 80 52 79 53 44 55
REMARK SMILES IDX 70 56 53 57 69 58 54 59 57 60 68 61 84 62 55 63 56 64 67 66
REMARK SMILES IDX 85 67 58 68 45 69 46 70 51 71 47 72 48 73 50 74 52 75 49 76
REMARK SMILES IDX 71 77 72 78 77 79 73 80 74 81 76 82 78 83 75 84 59 85 60 86
REMARK SMILES IDX 65 87 61 88 62 89 64 90 66 91 63 92
REMARK H PARENT 7 17 83 54 57 65
REMARK Flexibility Score: inf
ROOT
ATOM      1  C   UNL A   1      31.582  31.991  26.494  1.00  0.00     0.188 C 
ENDROOT
BRANCH   1   2
ATOM      2  C   UNL A   1      32.619  30.948  26.949  1.00  0.00     0.188 C 
BRANCH   2   3
ATOM      3  O   UNL A   1      32.758  29.729  26.242  1.00  0.00    -0.376 OA
BRANCH   3   4
ATOM      4  C   UNL A   1      33.035  28.481  26.850  1.00  0.00     0.202 C 
BRANCH   4   5
ATOM      5  C   UNL A   1      33.956  27.383  26.307  1.00  0.00     0.261 C 
BRANCH   5   6
ATOM      6  O   UNL A   1      33.460  26.065  26.108  1.00  0.00    -0.463 OA
BRANCH   6   7
ATOM      7  C   UNL A   1      33.503  25.584  24.851  1.00  0.00     0.310 C 
ATOM      8  O   UNL A   1      34.031  26.131  23.885  1.00  0.00    -0.252 OA
BRANCH   7   9
ATOM      9  C   UNL A   1      33.033  24.194  24.841  1.00  0.00     0.118 C 
ATOM     10  C   UNL A   1      32.335  22.145  23.462  1.00  0.00     0.013 C 
ATOM     11  C   UNL A   1      32.006  23.555  23.927  1.00  0.00    -0.009 C 
ATOM     12  C   UNL A   1      31.381  24.357  22.825  1.00  0.00     0.013 C 
ATOM     13  C   UNL A   1      31.739  23.729  25.429  1.00  0.00     0.100 C 
BRANCH  13  14
ATOM     14  C   UNL A   1      30.667  24.478  26.166  1.00  0.00     0.228 C 
ATOM     15  O   UNL A   1      30.236  23.937  27.186  1.00  0.00    -0.274 OA
ATOM     16  N   UNL A   1      30.423  25.825  26.015  1.00  0.00    -0.324 N 
ATOM     17  H   UNL A   1      30.556  26.370  26.824  1.00  0.00     0.169 HD
BRANCH  16  18
ATOM     18  C   UNL A   1      30.012  26.533  24.880  1.00  0.00     0.059 A 
ATOM     19  C   UNL A   1      30.801  27.497  24.286  1.00  0.00     0.030 A 
ATOM     20  C   UNL A   1      28.752  26.328  24.338  1.00  0.00     0.137 A 
ATOM     21  C   UNL A   1      30.217  28.441  23.445  1.00  0.00     0.035 A 
ATOM     22  N   UNL A   1      28.156  27.208  23.496  1.00  0.00    -0.250 NA
ATOM     23  C   UNL A   1      28.855  28.341  23.177  1.00  0.00     0.144 A 
BRANCH  23  24
ATOM     24  C   UNL A   1      28.101  29.583  22.703  1.00  0.00     0.433 C 
ATOM     25  F   UNL A   1      28.272  29.846  21.377  1.00  0.00    -0.165 F 
ATOM     26  F   UNL A   1      26.750  29.488  22.894  1.00  0.00    -0.165 F 
ATOM     27  F   UNL A   1      28.475  30.727  23.352  1.00  0.00    -0.165 F 
ENDBRANCH  23  24
ENDBRANCH  16  18
ENDBRANCH  13  14
ENDBRANCH   7   9
ENDBRANCH   6   7
ENDBRANCH   5   6
ENDBRANCH   4   5
ENDBRANCH   3   4
ENDBRANCH   2   3
ENDBRANCH   1   2
BRANCH   1  28
ATOM     28  O   UNL A   1      31.792  33.273  27.054  1.00  0.00    -0.377 OA
BRANCH  28  29
ATOM     29  C   UNL A   1      32.797  33.355  28.055  1.00  0.00     0.188 C 
BRANCH  29  30
ATOM     30  C   UNL A   1      33.913  34.414  27.899  1.00  0.00     0.188 C 
BRANCH  30  31
ATOM     31  O   UNL A   1      35.185  33.980  28.356  1.00  0.00    -0.376 OA
BRANCH  31  32
ATOM     32  C   UNL A   1      35.733  34.569  29.521  1.00  0.00     0.202 C 
BRANCH  32  33
ATOM     33  C   UNL A   1      35.096  34.184  30.864  1.00  0.00     0.261 C 
BRANCH  33  34
ATOM     34  O   UNL A   1      35.005  32.779  31.148  1.00  0.00    -0.460 OA
BRANCH  34  35
ATOM     35  C   UNL A   1      35.760  32.289  32.155  1.00  0.00     0.338 C 
ATOM     36  O   UNL A   1      35.508  32.324  33.344  1.00  0.00    -0.246 OA
BRANCH  35  37
ATOM     37  C   UNL A   1      36.858  31.503  31.546  1.00  0.00     0.060 A 
ATOM     38  C   UNL A   1      37.843  30.949  32.375  1.00  0.00     0.016 A 
ATOM     39  C   UNL A   1      36.895  31.285  30.167  1.00  0.00     0.016 A 
ATOM     40  C   UNL A   1      38.881  30.193  31.826  1.00  0.00     0.010 A 
ATOM     41  C   UNL A   1      37.952  30.557  29.614  1.00  0.00     0.010 A 
ATOM     42  C   UNL A   1      38.965  30.033  30.437  1.00  0.00    -0.014 A 
BRANCH  42  43
ATOM     43  C   UNL A   1      40.206  29.504  29.823  1.00  0.00     0.031 A 
ATOM     44  C   UNL A   1      41.362  30.448  29.642  1.00  0.00     0.074 A 
ATOM     45  C   UNL A   1      40.311  28.223  29.430  1.00  0.00     0.049 A 
ATOM     46  N   UNL A   1      42.508  30.256  29.042  1.00  0.00    -0.248 NA
ATOM     47  C   UNL A   1      41.197  31.793  30.215  1.00  0.00     0.031 C 
ATOM     48  C   UNL A   1      39.286  27.196  29.600  1.00  0.00     0.029 A 
ATOM     49  N   UNL A   1      41.337  27.574  28.787  1.00  0.00    -0.354 N 
ATOM     50  C   UNL A   1      43.194  31.459  29.155  1.00  0.00     0.074 A 
ATOM     51  C   UNL A   1      42.328  32.380  29.856  1.00  0.00     0.031 C 
ATOM     52  C   UNL A   1      39.726  26.049  29.053  1.00  0.00     0.029 A 
ATOM     53  C   UNL A   1      41.045  26.272  28.461  1.00  0.00     0.049 A 
ATOM     54  H   UNL A   1      42.200  28.001  28.580  1.00  0.00     0.167 HD
ATOM     55  C   UNL A   1      44.438  31.767  28.716  1.00  0.00     0.037 A 
ATOM     56  C   UNL A   1      41.749  25.379  27.737  1.00  0.00     0.037 A 
ATOM     57  C   UNL A   1      45.293  30.852  28.010  1.00  0.00     0.049 A 
ATOM     58  C   UNL A   1      43.087  25.777  27.168  1.00  0.00     0.074 A 
ATOM     59  C   UNL A   1      46.577  31.061  27.538  1.00  0.00     0.029 A 
ATOM     60  N   UNL A   1      44.944  29.555  27.660  1.00  0.00    -0.354 N 
ATOM     61  N   UNL A   1      43.742  26.907  27.298  1.00  0.00    -0.248 NA
ATOM     62  C   UNL A   1      43.784  24.775  26.347  1.00  0.00     0.031 C 
ATOM     63  C   UNL A   1      46.980  29.914  26.848  1.00  0.00     0.029 A 
ATOM     64  C   UNL A   1      45.973  28.967  26.944  1.00  0.00     0.049 A 
ATOM     65  H   UNL A   1      44.092  29.119  27.887  1.00  0.00     0.167 HD
ATOM     66  C   UNL A   1      44.932  26.743  26.598  1.00  0.00     0.074 A 
ATOM     67  C   UNL A   1      44.918  25.399  26.061  1.00  0.00     0.031 C 
ATOM     68  C   UNL A   1      45.945  27.627  26.414  1.00  0.00     0.037 A 
BRANCH  55  69
ATOM     69  C   UNL A   1      44.926  33.166  28.957  1.00  0.00     0.057 A 
ATOM     70  C   UNL A   1      45.669  33.511  30.093  1.00  0.00     0.134 A 
ATOM     71  C   UNL A   1      44.662  34.179  28.026  1.00  0.00     0.134 A 
ATOM     72  F   UNL A   1      45.942  32.592  31.031  1.00  0.00    -0.206 F 
ATOM     73  C   UNL A   1      46.109  34.818  30.308  1.00  0.00     0.040 A 
ATOM     74  C   UNL A   1      45.122  35.483  28.216  1.00  0.00     0.040 A 
ATOM     75  F   UNL A   1      43.957  33.917  26.915  1.00  0.00    -0.206 F 
ATOM     76  C   UNL A   1      45.842  35.807  29.363  1.00  0.00     0.006 A 
ENDBRANCH  55  69
BRANCH  56  77
ATOM     77  C   UNL A   1      41.192  24.027  27.474  1.00  0.00     0.057 A 
ATOM     78  C   UNL A   1      40.149  23.836  26.559  1.00  0.00     0.134 A 
ATOM     79  C   UNL A   1      41.667  22.897  28.152  1.00  0.00     0.134 A 
ATOM     80  F   UNL A   1      39.632  24.882  25.899  1.00  0.00    -0.206 F 
ATOM     81  C   UNL A   1      39.587  22.577  26.341  1.00  0.00     0.040 A 
ATOM     82  C   UNL A   1      41.133  21.627  27.922  1.00  0.00     0.040 A 
ATOM     83  F   UNL A   1      42.661  23.010  29.044  1.00  0.00    -0.206 F 
ATOM     84  C   UNL A   1      40.084  21.466  27.020  1.00  0.00     0.006 A 
ENDBRANCH  56  77
BRANCH  68  85
ATOM     85  C   UNL A   1      47.133  27.163  25.620  1.00  0.00     0.057 A 
ATOM     86  C   UNL A   1      47.280  27.464  24.260  1.00  0.00     0.134 A 
ATOM     87  C   UNL A   1      48.169  26.446  26.237  1.00  0.00     0.134 A 
ATOM     88  F   UNL A   1      46.321  28.137  23.606  1.00  0.00    -0.206 F 
ATOM     89  C   UNL A   1      48.401  27.052  23.537  1.00  0.00     0.040 A 
ATOM     90  C   UNL A   1      49.308  26.056  25.532  1.00  0.00     0.040 A 
ATOM     91  F   UNL A   1      48.100  26.133  27.539  1.00  0.00    -0.206 F 
ATOM     92  C   UNL A   1      49.424  26.352  24.176  1.00  0.00     0.006 A 
ENDBRANCH  68  85
ENDBRANCH  42  43
ENDBRANCH  35  37
ENDBRANCH  34  35
ENDBRANCH  33  34
ENDBRANCH  32  33
ENDBRANCH  31  32
ENDBRANCH  30  31
ENDBRANCH  29  30
ENDBRANCH  28  29
ENDBRANCH   1  28
TORSDOF 23
ENDMDL
MODEL 2
REMARK VINA RESULT:     -10.1      2.483      3.539
REMARK SMILES CC1(C)[C@H](C(=O)Nc2ccc(C(F)(F)F)nc2)[C@@H]1C(=O)OCCOCCOCCOCCOC(=O)c1ccc(-c2c3nc(c(-c4c(F)cccc4F)c4ccc([nH]4)c(-c4c(F)cccc4F)c4nc(c(-c5c(F)cccc5F)c5ccc2[nH]5)C=C4)C=C3)cc1
REMARK SMILES IDX 26 1 25 2 24 3 23 4 22 5 21 6 19 7 20 8 18 9 1 10 2 11 3 12
REMARK SMILES IDX 4 13 5 14 6 15 7 16 8 18 9 19 17 20 10 21 16 22 11 23 12 24
REMARK SMILES IDX 13 25 14 26 15 27 27 28 28 29 29 30 30 31 31 32 32 33 33 34
REMARK SMILES IDX 34 35 35 36 36 37 37 38 89 39 38 40 88 41 39 42 40 43 41 44
REMARK SMILES IDX 82 45 42 46 87 47 81 48 83 49 43 50 86 51 80 52 79 53 44 55
REMARK SMILES IDX 70 56 53 57 69 58 54 59 57 60 68 61 84 62 55 63 56 64 67 66
REMARK SMILES IDX 85 67 58 68 45 69 46 70 51 71 47 72 48 73 50 74 52 75 49 76
REMARK SMILES IDX 71 77 72 78 77 79 73 80 74 81 76 82 78 83 75 84 59 85 60 86
REMARK SMILES IDX 65 87 61 88 62 89 64 90 66 91 63 92
REMARK H PARENT 7 17 83 54 57 65
REMARK Flexibility Score: inf
ROOT
ATOM      1  C   UNL A   1      32.992  34.439  27.786  1.00  0.00     0.188 C 
ENDROOT
BRANCH   1   2
ATOM      2  C   UNL A   1      33.806  33.278  28.387  1.00  0.00     0.188 C 
BRANCH   2   3
ATOM      3  O   UNL A   1      33.583  31.951  27.945  1.00  0.00    -0.376 OA
BRANCH   3   4
ATOM      4  C   UNL A   1      34.603  30.987  27.768  1.00  0.00     0.202 C 
BRANCH   4   5
ATOM      5  C   UNL A   1      34.411  29.485  27.536  1.00  0.00     0.261 C 
BRANCH   5   6
ATOM      6  O   UNL A   1      34.404  28.958  26.214  1.00  0.00    -0.463 OA
BRANCH   6   7
ATOM      7  C   UNL A   1      33.250  29.053  25.529  1.00  0.00     0.310 C 
ATOM      8  O   UNL A   1      32.532  30.048  25.456  1.00  0.00    -0.252 OA
BRANCH   7   9
ATOM      9  C   UNL A   1      33.084  27.867  24.680  1.00  0.00     0.118 C 
ATOM     10  C   UNL A   1      32.077  26.840  22.555  1.00  0.00     0.013 C 
ATOM     11  C   UNL A   1      31.841  27.402  23.948  1.00  0.00    -0.009 C 
ATOM     12  C   UNL A   1      30.590  28.228  23.993  1.00  0.00     0.013 C 
ATOM     13  C   UNL A   1      32.429  26.595  25.114  1.00  0.00     0.100 C 
BRANCH  13  14
ATOM     14  C   UNL A   1      31.843  26.190  26.435  1.00  0.00     0.228 C 
ATOM     15  O   UNL A   1      31.672  27.098  27.250  1.00  0.00    -0.274 OA
ATOM     16  N   UNL A   1      31.156  25.015  26.647  1.00  0.00    -0.324 N 
ATOM     17  H   UNL A   1      30.214  25.121  26.912  1.00  0.00     0.169 HD
BRANCH  16  18
ATOM     18  C   UNL A   1      31.601  23.693  26.541  1.00  0.00     0.059 A 
ATOM     19  C   UNL A   1      32.797  23.271  27.087  1.00  0.00     0.030 A 
ATOM     20  C   UNL A   1      30.872  22.758  25.822  1.00  0.00     0.137 A 
ATOM     21  C   UNL A   1      33.388  22.098  26.623  1.00  0.00     0.035 A 
ATOM     22  N   UNL A   1      31.401  21.592  25.373  1.00  0.00    -0.250 NA
ATOM     23  C   UNL A   1      32.716  21.349  25.662  1.00  0.00     0.144 A 
BRANCH  23  24
ATOM     24  C   UNL A   1      33.513  20.381  24.788  1.00  0.00     0.433 C 
ATOM     25  F   UNL A   1      33.750  19.181  25.387  1.00  0.00    -0.165 F 
ATOM     26  F   UNL A   1      32.884  20.092  23.608  1.00  0.00    -0.165 F 
ATOM     27  F   UNL A   1      34.744  20.859  24.430  1.00  0.00    -0.165 F 
ENDBRANCH  23  24
ENDBRANCH  16  18
ENDBRANCH  13  14
ENDBRANCH   7   9
ENDBRANCH   6   7
ENDBRANCH   5   6
ENDBRANCH   4   5
ENDBRANCH   3   4
ENDBRANCH   2   3
ENDBRANCH   1   2
BRANCH   1  28
ATOM     28  O   UNL A   1      32.545  35.370  28.754  1.00  0.00    -0.377 OA
BRANCH  28  29
ATOM     29  C   UNL A   1      33.352  35.492  29.917  1.00  0.00     0.188 C 
BRANCH  29  30
ATOM     30  C   UNL A   1      32.710  36.050  31.209  1.00  0.00     0.188 C 
BRANCH  30  31
ATOM     31  O   UNL A   1      32.519  35.074  32.223  1.00  0.00    -0.376 OA
BRANCH  31  32
ATOM     32  C   UNL A   1      33.654  34.526  32.869  1.00  0.00     0.202 C 
BRANCH  32  33
ATOM     33  C   UNL A   1      34.060  33.098  32.475  1.00  0.00     0.261 C 
BRANCH  33  34
ATOM     34  O   UNL A   1      35.401  32.929  31.989  1.00  0.00    -0.460 OA
BRANCH  34  35
ATOM     35  C   UNL A   1      36.348  32.548  32.874  1.00  0.00     0.338 C 
ATOM     36  O   UNL A   1      36.309  32.662  34.084  1.00  0.00    -0.246 OA
BRANCH  35  37
ATOM     37  C   UNL A   1      37.362  31.765  32.131  1.00  0.00     0.060 A 
ATOM     38  C   UNL A   1      38.192  30.881  32.833  1.00  0.00     0.016 A 
ATOM     39  C   UNL A   1      37.468  31.876  30.742  1.00  0.00     0.016 A 
ATOM     40  C   UNL A   1      39.147  30.122  32.153  1.00  0.00     0.010 A 
ATOM     41  C   UNL A   1      38.446  31.142  30.066  1.00  0.00     0.010 A 
ATOM     42  C   UNL A   1      39.308  30.284  30.771  1.00  0.00    -0.014 A 
BRANCH  42  43
ATOM     43  C   UNL A   1      40.501  29.725  30.091  1.00  0.00     0.031 A 
ATOM     44  C   UNL A   1      41.675  30.636  29.864  1.00  0.00     0.074 A 
ATOM     45  C   UNL A   1      40.548  28.447  29.679  1.00  0.00     0.049 A 
ATOM     46  N   UNL A   1      42.784  30.418  29.206  1.00  0.00    -0.248 NA
ATOM     47  C   UNL A   1      41.580  31.979  30.458  1.00  0.00     0.031 C 
ATOM     48  C   UNL A   1      39.501  27.450  29.888  1.00  0.00     0.029 A 
ATOM     49  N   UNL A   1      41.520  27.776  28.980  1.00  0.00    -0.354 N 
ATOM     50  C   UNL A   1      43.512  31.598  29.298  1.00  0.00     0.074 A 
ATOM     51  C   UNL A   1      42.709  32.536  30.051  1.00  0.00     0.031 C 
ATOM     52  C   UNL A   1      39.879  26.296  29.308  1.00  0.00     0.029 A 
ATOM     53  C   UNL A   1      41.174  26.487  28.654  1.00  0.00     0.049 A 
ATOM     54  H   UNL A   1      42.385  28.179  28.735  1.00  0.00     0.167 HD
ATOM     55  C   UNL A   1      44.742  31.874  28.802  1.00  0.00     0.037 A 
ATOM     56  C   UNL A   1      41.813  25.583  27.886  1.00  0.00     0.037 A 
ATOM     57  C   UNL A   1      45.533  30.942  28.045  1.00  0.00     0.049 A 
ATOM     58  C   UNL A   1      43.134  25.947  27.257  1.00  0.00     0.074 A 
ATOM     59  C   UNL A   1      46.798  31.119  27.512  1.00  0.00     0.029 A 
ATOM     60  N   UNL A   1      45.128  29.661  27.698  1.00  0.00    -0.354 N 
ATOM     61  N   UNL A   1      43.828  27.055  27.367  1.00  0.00    -0.248 NA
ATOM     62  C   UNL A   1      43.758  24.935  26.392  1.00  0.00     0.031 C 
ATOM     63  C   UNL A   1      47.131  29.968  26.791  1.00  0.00     0.029 A 
ATOM     64  C   UNL A   1      46.101  29.051  26.926  1.00  0.00     0.049 A 
ATOM     65  H   UNL A   1      44.274  29.248  27.962  1.00  0.00     0.167 HD
ATOM     66  C   UNL A   1      44.977  26.864  26.607  1.00  0.00     0.074 A 
ATOM     67  C   UNL A   1      44.896  25.528  26.057  1.00  0.00     0.031 C 
ATOM     68  C   UNL A   1      46.006  27.720  26.383  1.00  0.00     0.037 A 
BRANCH  55  69
ATOM     69  C   UNL A   1      45.283  33.254  29.033  1.00  0.00     0.057 A 
ATOM     70  C   UNL A   1      46.075  33.568  30.146  1.00  0.00     0.134 A 
ATOM     71  C   UNL A   1      45.022  34.282  28.118  1.00  0.00     0.134 A 
ATOM     72  F   UNL A   1      46.348  32.634  31.070  1.00  0.00    -0.206 F 
ATOM     73  C   UNL A   1      46.565  34.858  30.353  1.00  0.00     0.040 A 
ATOM     74  C   UNL A   1      45.531  35.569  28.299  1.00  0.00     0.040 A 
ATOM     75  F   UNL A   1      44.272  34.051  27.029  1.00  0.00    -0.206 F 
ATOM     76  C   UNL A   1      46.299  35.861  29.423  1.00  0.00     0.006 A 
ENDBRANCH  55  69
BRANCH  56  77
ATOM     77  C   UNL A   1      41.203  24.251  27.636  1.00  0.00     0.057 A 
ATOM     78  C   UNL A   1      41.689  23.100  28.267  1.00  0.00     0.134 A 
ATOM     79  C   UNL A   1      40.140  24.091  26.738  1.00  0.00     0.134 A 
ATOM     80  F   UNL A   1      42.724  23.182  29.116  1.00  0.00    -0.206 F 
ATOM     81  C   UNL A   1      41.154  21.837  28.002  1.00  0.00     0.040 A 
ATOM     82  C   UNL A   1      39.576  22.839  26.485  1.00  0.00     0.040 A 
ATOM     83  F   UNL A   1      39.629  25.153  26.097  1.00  0.00    -0.206 F 
ATOM     84  C   UNL A   1      40.090  21.706  27.112  1.00  0.00     0.006 A 
ENDBRANCH  56  77
BRANCH  68  85
ATOM     85  C   UNL A   1      47.140  27.229  25.527  1.00  0.00     0.057 A 
ATOM     86  C   UNL A   1      47.214  27.519  24.158  1.00  0.00     0.134 A 
ATOM     87  C   UNL A   1      48.197  26.500  26.089  1.00  0.00     0.134 A 
ATOM     88  F   UNL A   1      46.230  28.203  23.555  1.00  0.00    -0.206 F 
ATOM     89  C   UNL A   1      48.285  27.082  23.376  1.00  0.00     0.040 A 
ATOM     90  C   UNL A   1      49.288  26.085  25.324  1.00  0.00     0.040 A 
ATOM     91  F   UNL A   1      48.197  26.197  27.396  1.00  0.00    -0.206 F 
ATOM     92  C   UNL A   1      49.331  26.370  23.961  1.00  0.00     0.006 A 
ENDBRANCH  68  85
ENDBRANCH  42  43
ENDBRANCH  35  37
ENDBRANCH  34  35
ENDBRANCH  33  34
ENDBRANCH  32  33
ENDBRANCH  31  32
ENDBRANCH  30  31
ENDBRANCH  29  30
ENDBRANCH  28  29
ENDBRANCH   1  28
TORSDOF 23
ENDMDL
MODEL 3
REMARK VINA RESULT:      -9.9      1.405      6.191
REMARK SMILES CC1(C)[C@H](C(=O)Nc2ccc(C(F)(F)F)nc2)[C@@H]1C(=O)OCCOCCOCCOCCOC(=O)c1ccc(-c2c3nc(c(-c4c(F)cccc4F)c4ccc([nH]4)c(-c4c(F)cccc4F)c4nc(c(-c5c(F)cccc5F)c5ccc2[nH]5)C=C4)C=C3)cc1
REMARK SMILES IDX 26 1 25 2 24 3 23 4 22 5 21 6 19 7 20 8 18 9 1 10 2 11 3 12
REMARK SMILES IDX 4 13 5 14 6 15 7 16 8 18 9 19 17 20 10 21 16 22 11 23 12 24
REMARK SMILES IDX 13 25 14 26 15 27 27 28 28 29 29 30 30 31 31 32 32 33 33 34
REMARK SMILES IDX 34 35 35 36 36 37 37 38 89 39 38 40 88 41 39 42 40 43 41 44
REMARK SMILES IDX 82 45 42 46 87 47 81 48 83 49 43 50 86 51 80 52 79 53 44 55
REMARK SMILES IDX 70 56 53 57 69 58 54 59 57 60 68 61 84 62 55 63 56 64 67 66
REMARK SMILES IDX 85 67 58 68 45 69 46 70 51 71 47 72 48 73 50 74 52 75 49 76
REMARK SMILES IDX 71 77 72 78 77 79 73 80 74 81 76 82 78 83 75 84 59 85 60 86
REMARK SMILES IDX 65 87 61 88 62 89 64 90 66 91 63 92
REMARK H PARENT 7 17 83 54 57 65
REMARK Flexibility Score: inf
ROOT
ATOM      1  C   UNL A   1      31.443  32.143  26.585  1.00  0.00     0.188 C 
ENDROOT
BRANCH   1   2
ATOM      2  C   UNL A   1      32.269  30.999  27.200  1.00  0.00     0.188 C 
BRANCH   2   3
ATOM      3  O   UNL A   1      32.785  29.971  26.375  1.00  0.00    -0.376 OA
BRANCH   3   4
ATOM      4  C   UNL A   1      33.032  28.647  26.809  1.00  0.00     0.202 C 
BRANCH   4   5
ATOM      5  C   UNL A   1      34.084  27.683  26.252  1.00  0.00     0.261 C 
BRANCH   5   6
ATOM      6  O   UNL A   1      33.786  26.299  26.110  1.00  0.00    -0.463 OA
BRANCH   6   7
ATOM      7  C   UNL A   1      33.692  25.825  24.853  1.00  0.00     0.310 C 
ATOM      8  O   UNL A   1      34.039  26.413  23.831  1.00  0.00    -0.252 OA
BRANCH   7   9
ATOM      9  C   UNL A   1      33.333  24.402  24.891  1.00  0.00     0.118 C 
ATOM     10  C   UNL A   1      32.785  22.264  23.583  1.00  0.00     0.013 C 
ATOM     11  C   UNL A   1      32.351  23.658  24.010  1.00  0.00    -0.009 C 
ATOM     12  C   UNL A   1      31.654  24.373  22.891  1.00  0.00     0.013 C 
ATOM     13  C   UNL A   1      32.086  23.856  25.509  1.00  0.00     0.100 C 
BRANCH  13  14
ATOM     14  C   UNL A   1      30.965  24.541  26.235  1.00  0.00     0.228 C 
ATOM     15  O   UNL A   1      30.561  23.979  27.255  1.00  0.00    -0.274 OA
ATOM     16  N   UNL A   1      30.641  25.871  26.078  1.00  0.00    -0.324 N 
ATOM     17  H   UNL A   1      30.736  26.425  26.886  1.00  0.00     0.169 HD
BRANCH  16  18
ATOM     18  C   UNL A   1      30.196  26.549  24.938  1.00  0.00     0.059 A 
ATOM     19  C   UNL A   1      30.925  27.563  24.351  1.00  0.00     0.030 A 
ATOM     20  C   UNL A   1      28.958  26.260  24.384  1.00  0.00     0.137 A 
ATOM     21  C   UNL A   1      30.288  28.464  23.502  1.00  0.00     0.035 A 
ATOM     22  N   UNL A   1      28.313  27.097  23.534  1.00  0.00    -0.250 NA
ATOM     23  C   UNL A   1      28.938  28.274  23.220  1.00  0.00     0.144 A 
BRANCH  23  24
ATOM     24  C   UNL A   1      28.108  29.462  22.736  1.00  0.00     0.433 C 
ATOM     25  F   UNL A   1      26.832  29.127  22.396  1.00  0.00    -0.165 F 
ATOM     26  F   UNL A   1      27.998  30.449  23.678  1.00  0.00    -0.165 F 
ATOM     27  F   UNL A   1      28.630  30.077  21.632  1.00  0.00    -0.165 F 
ENDBRANCH  23  24
ENDBRANCH  16  18
ENDBRANCH  13  14
ENDBRANCH   7   9
ENDBRANCH   6   7
ENDBRANCH   5   6
ENDBRANCH   4   5
ENDBRANCH   3   4
ENDBRANCH   2   3
ENDBRANCH   1   2
BRANCH   1  28
ATOM     28  O   UNL A   1      31.843  33.426  27.027  1.00  0.00    -0.377 OA
BRANCH  28  29
ATOM     29  C   UNL A   1      32.889  33.452  27.988  1.00  0.00     0.188 C 
BRANCH  29  30
ATOM     30  C   UNL A   1      34.144  34.307  27.696  1.00  0.00     0.188 C 
BRANCH  30  31
ATOM     31  O   UNL A   1      35.366  33.601  27.839  1.00  0.00    -0.376 OA
BRANCH  31  32
ATOM     32  C   UNL A   1      36.095  33.727  29.047  1.00  0.00     0.202 C 
BRANCH  32  33
ATOM     33  C   UNL A   1      35.763  32.734  30.170  1.00  0.00     0.261 C 
BRANCH  33  34
ATOM     34  O   UNL A   1      35.928  31.341  29.858  1.00  0.00    -0.460 OA
BRANCH  34  35
ATOM     35  C   UNL A   1      36.467  30.544  30.806  1.00  0.00     0.338 C 
ATOM     36  O   UNL A   1      35.951  30.193  31.850  1.00  0.00    -0.246 OA
BRANCH  35  37
ATOM     37  C   UNL A   1      37.725  29.987  30.256  1.00  0.00     0.060 A 
ATOM     38  C   UNL A   1      38.660  29.416  31.131  1.00  0.00     0.016 A 
ATOM     39  C   UNL A   1      37.964  29.997  28.880  1.00  0.00     0.016 A 
ATOM     40  C   UNL A   1      39.846  28.873  30.635  1.00  0.00     0.010 A 
ATOM     41  C   UNL A   1      39.167  29.484  28.387  1.00  0.00     0.010 A 
ATOM     42  C   UNL A   1      40.126  28.946  29.265  1.00  0.00    -0.014 A 
BRANCH  42  43
ATOM     43  C   UNL A   1      41.492  28.658  28.767  1.00  0.00     0.031 A 
ATOM     44  C   UNL A   1      41.804  27.251  28.338  1.00  0.00     0.074 A 
ATOM     45  C   UNL A   1      42.437  29.611  28.699  1.00  0.00     0.049 A 
ATOM     46  N   UNL A   1      42.944  26.727  27.968  1.00  0.00    -0.248 NA
ATOM     47  C   UNL A   1      40.675  26.308  28.331  1.00  0.00     0.031 C 
ATOM     48  C   UNL A   1      42.245  31.021  29.031  1.00  0.00     0.029 A 
ATOM     49  N   UNL A   1      43.759  29.525  28.338  1.00  0.00    -0.354 N 
ATOM     50  C   UNL A   1      42.670  25.392  27.695  1.00  0.00     0.074 A 
ATOM     51  C   UNL A   1      41.266  25.181  27.968  1.00  0.00     0.031 C 
ATOM     52  C   UNL A   1      43.416  31.665  28.880  1.00  0.00     0.029 A 
ATOM     53  C   UNL A   1      44.446  30.705  28.480  1.00  0.00     0.049 A 
ATOM     54  H   UNL A   1      44.176  28.695  28.009  1.00  0.00     0.167 HD
ATOM     55  C   UNL A   1      43.513  24.429  27.253  1.00  0.00     0.037 A 
ATOM     56  C   UNL A   1      45.760  30.969  28.338  1.00  0.00     0.037 A 
ATOM     57  C   UNL A   1      44.912  24.640  26.993  1.00  0.00     0.049 A 
ATOM     58  C   UNL A   1      46.700  29.857  27.946  1.00  0.00     0.074 A 
ATOM     59  C   UNL A   1      45.848  23.734  26.527  1.00  0.00     0.029 A 
ATOM     60  N   UNL A   1      45.580  25.840  27.191  1.00  0.00    -0.354 N 
ATOM     61  N   UNL A   1      46.433  28.604  27.667  1.00  0.00    -0.248 NA
ATOM     62  C   UNL A   1      48.128  30.197  27.854  1.00  0.00     0.031 C 
ATOM     63  C   UNL A   1      47.094  24.368  26.504  1.00  0.00     0.029 A 
ATOM     64  C   UNL A   1      46.923  25.686  26.895  1.00  0.00     0.049 A 
ATOM     65  H   UNL A   1      45.161  26.676  27.497  1.00  0.00     0.167 HD
ATOM     66  C   UNL A   1      47.650  28.014  27.345  1.00  0.00     0.074 A 
ATOM     67  C   UNL A   1      48.655  29.051  27.445  1.00  0.00     0.031 C 
ATOM     68  C   UNL A   1      47.913  26.728  27.000  1.00  0.00     0.037 A 
BRANCH  55  69
ATOM     69  C   UNL A   1      42.947  23.052  27.064  1.00  0.00     0.057 A 
ATOM     70  C   UNL A   1      42.681  22.201  28.145  1.00  0.00     0.134 A 
ATOM     71  C   UNL A   1      42.646  22.578  25.780  1.00  0.00     0.134 A 
ATOM     72  F   UNL A   1      42.962  22.586  29.399  1.00  0.00    -0.206 F 
ATOM     73  C   UNL A   1      42.163  20.919  27.954  1.00  0.00     0.040 A 
ATOM     74  C   UNL A   1      42.100  21.310  25.579  1.00  0.00     0.040 A 
ATOM     75  F   UNL A   1      42.875  23.342  24.701  1.00  0.00    -0.206 F 
ATOM     76  C   UNL A   1      41.864  20.474  26.668  1.00  0.00     0.006 A 
ENDBRANCH  55  69
BRANCH  56  77
ATOM     77  C   UNL A   1      46.280  32.336  28.600  1.00  0.00     0.057 A 
ATOM     78  C   UNL A   1      46.693  32.724  29.880  1.00  0.00     0.134 A 
ATOM     79  C   UNL A   1      46.349  33.298  27.584  1.00  0.00     0.134 A 
ATOM     80  F   UNL A   1      46.625  31.858  30.901  1.00  0.00    -0.206 F 
ATOM     81  C   UNL A   1      47.138  34.021  30.145  1.00  0.00     0.040 A 
ATOM     82  C   UNL A   1      46.818  34.590  27.829  1.00  0.00     0.040 A 
ATOM     83  F   UNL A   1      45.965  32.994  26.335  1.00  0.00    -0.206 F 
ATOM     84  C   UNL A   1      47.207  34.957  29.116  1.00  0.00     0.006 A 
ENDBRANCH  56  77
BRANCH  68  85
ATOM     85  C   UNL A   1      49.339  26.375  26.680  1.00  0.00     0.057 A 
ATOM     86  C   UNL A   1      50.197  25.818  27.636  1.00  0.00     0.134 A 
ATOM     87  C   UNL A   1      49.845  26.550  25.384  1.00  0.00     0.134 A 
ATOM     88  F   UNL A   1      49.780  25.635  28.898  1.00  0.00    -0.206 F 
ATOM     89  C   UNL A   1      51.512  25.468  27.323  1.00  0.00     0.040 A 
ATOM     90  C   UNL A   1      51.147  26.175  25.051  1.00  0.00     0.040 A 
ATOM     91  F   UNL A   1      49.074  27.067  24.415  1.00  0.00    -0.206 F 
ATOM     92  C   UNL A   1      51.987  25.639  26.024  1.00  0.00     0.006 A 
ENDBRANCH  68  85
ENDBRANCH  42  43
ENDBRANCH  35  37
ENDBRANCH  34  35
ENDBRANCH  33  34
ENDBRANCH  32  33
ENDBRANCH  31  32
ENDBRANCH  30  31
ENDBRANCH  29  30
ENDBRANCH  28  29
ENDBRANCH   1  28
TORSDOF 23
ENDMDL
