MODEL 1
REMARK VINA RESULT:      -9.9      0.000      0.000
REMARK SMILES CC(C)=CC[C@@]1(C(=O)OCCOCCOCCOCCOC(=O)c2ccc(-c3c4nc(c(-c5c(F)cccc5F)c5ccc([nH]5)c(-c5c(F)cccc5F)c5nc(c(-c6c(F)cccc6F)c6ccc3[nH]6)C=C5)C=C4)cc2)CCC[C@H](C)C1
REMARK SMILES IDX 15 1 14 2 13 3 12 4 11 5 10 6 9 7 7 8 8 9 6 10 78 11 83 12
REMARK SMILES IDX 79 13 81 14 80 15 82 16 5 17 4 18 1 19 2 20 3 21 16 22 17 23
REMARK SMILES IDX 18 24 19 25 20 26 21 27 22 28 23 29 24 30 25 31 77 32 26 33
REMARK SMILES IDX 76 34 27 35 28 36 29 37 70 38 30 39 75 40 69 41 71 42 31 43
REMARK SMILES IDX 74 44 68 45 67 46 32 48 58 49 41 50 57 51 42 52 45 53 56 54
REMARK SMILES IDX 72 55 43 56 44 57 55 59 73 60 46 61 33 62 34 63 39 64 35 65
REMARK SMILES IDX 36 66 38 67 40 68 37 69 59 70 60 71 65 72 61 73 62 74 64 75
REMARK SMILES IDX 66 76 63 77 47 78 48 79 53 80 49 81 50 82 52 83 54 84 51 85
REMARK H PARENT 71 47 45 58
REMARK Flexibility Score: inf
ROOT
ATOM      1  O   UNL A   1      38.423  22.553  25.442  1.00  0.00    -0.377 OA
ENDROOT
BRANCH   1   2
ATOM      2  C   UNL A   1      37.099  22.568  24.919  1.00  0.00     0.188 C 
BRANCH   2   3
ATOM      3  C   UNL A   1      35.930  21.844  25.635  1.00  0.00     0.188 C 
BRANCH   3   4
ATOM      4  O   UNL A   1      35.255  22.575  26.652  1.00  0.00    -0.376 OA
BRANCH   4   5
ATOM      5  C   UNL A   1      34.031  22.071  27.175  1.00  0.00     0.202 C 
BRANCH   5   6
ATOM      6  C   UNL A   1      32.940  21.706  26.166  1.00  0.00     0.261 C 
BRANCH   6   7
ATOM      7  O   UNL A   1      32.302  22.870  25.603  1.00  0.00    -0.463 OA
BRANCH   7   8
ATOM      8  C   UNL A   1      31.909  23.834  26.471  1.00  0.00     0.312 C 
ATOM      9  O   UNL A   1      31.351  23.574  27.530  1.00  0.00    -0.252 OA
BRANCH   8  10
ATOM     10  C   UNL A   1      32.155  25.260  25.914  1.00  0.00     0.072 C 
ATOM     11  C   UNL A   1      33.713  25.329  25.853  1.00  0.00     0.019 C 
ATOM     12  C   UNL A   1      31.689  26.499  26.735  1.00  0.00     0.022 C 
ATOM     13  C   UNL A   1      34.317  26.671  25.447  1.00  0.00     0.001 C 
ATOM     14  C   UNL A   1      32.229  27.846  26.201  1.00  0.00    -0.013 C 
ATOM     15  C   UNL A   1      33.757  27.835  26.253  1.00  0.00     0.003 C 
ATOM     16  C   UNL A   1      31.666  29.052  26.964  1.00  0.00     0.007 C 
BRANCH  10  17
ATOM     17  C   UNL A   1      31.462  25.289  24.520  1.00  0.00     0.046 C 
BRANCH  17  18
ATOM     18  C   UNL A   1      30.027  25.786  24.295  1.00  0.00    -0.027 C 
ATOM     19  C   UNL A   1      29.993  28.162  23.297  1.00  0.00     0.039 C 
ATOM     20  C   UNL A   1      29.402  26.890  23.815  1.00  0.00    -0.080 C 
ATOM     21  C   UNL A   1      27.890  26.943  23.833  1.00  0.00     0.039 C 
ENDBRANCH  17  18
ENDBRANCH  10  17
ENDBRANCH   8  10
ENDBRANCH   7   8
ENDBRANCH   6   7
ENDBRANCH   5   6
ENDBRANCH   4   5
ENDBRANCH   3   4
ENDBRANCH   2   3
ENDBRANCH   1   2
BRANCH   1  22
ATOM     22  C   UNL A   1      38.977  21.286  25.734  1.00  0.00     0.188 C 
BRANCH  22  23
ATOM     23  C   UNL A   1      40.144  21.355  26.737  1.00  0.00     0.188 C 
BRANCH  23  24
ATOM     24  O   UNL A   1      40.991  20.223  26.662  1.00  0.00    -0.376 OA
BRANCH  24  25
ATOM     25  C   UNL A   1      42.242  20.282  26.003  1.00  0.00     0.202 C 
BRANCH  25  26
ATOM     26  C   UNL A   1      43.120  21.547  25.970  1.00  0.00     0.261 C 
BRANCH  26  27
ATOM     27  O   UNL A   1      42.748  22.594  25.081  1.00  0.00    -0.460 OA
BRANCH  27  28
ATOM     28  C   UNL A   1      43.553  23.670  25.001  1.00  0.00     0.338 C 
ATOM     29  O   UNL A   1      44.495  23.838  24.247  1.00  0.00    -0.246 OA
BRANCH  28  30
ATOM     30  C   UNL A   1      42.946  24.713  25.853  1.00  0.00     0.060 A 
ATOM     31  C   UNL A   1      43.429  26.027  25.755  1.00  0.00     0.016 A 
ATOM     32  C   UNL A   1      41.858  24.412  26.676  1.00  0.00     0.016 A 
ATOM     33  C   UNL A   1      42.805  27.052  26.464  1.00  0.00     0.010 A 
ATOM     34  C   UNL A   1      41.280  25.422  27.441  1.00  0.00     0.010 A 
ATOM     35  C   UNL A   1      41.771  26.737  27.354  1.00  0.00    -0.014 A 
BRANCH  35  36
ATOM     36  C   UNL A   1      41.442  27.683  28.441  1.00  0.00     0.031 A 
ATOM     37  C   UNL A   1      42.260  27.564  29.695  1.00  0.00     0.074 A 
ATOM     38  C   UNL A   1      40.438  28.569  28.346  1.00  0.00     0.049 A 
ATOM     39  N   UNL A   1      42.102  28.146  30.852  1.00  0.00    -0.248 NA
ATOM     40  C   UNL A   1      43.413  26.646  29.633  1.00  0.00     0.031 C 
ATOM     41  C   UNL A   1      39.616  28.799  27.160  1.00  0.00     0.029 A 
ATOM     42  N   UNL A   1      39.926  29.423  29.288  1.00  0.00    -0.354 N 
ATOM     43  C   UNL A   1      43.129  27.662  31.650  1.00  0.00     0.074 A 
ATOM     44  C   UNL A   1      43.891  26.724  30.862  1.00  0.00     0.031 C 
ATOM     45  C   UNL A   1      38.672  29.711  27.460  1.00  0.00     0.029 A 
ATOM     46  C   UNL A   1      38.804  30.093  28.866  1.00  0.00     0.049 A 
ATOM     47  H   UNL A   1      40.323  29.543  30.181  1.00  0.00     0.167 HD
ATOM     48  C   UNL A   1      43.411  27.968  32.936  1.00  0.00     0.037 A 
ATOM     49  C   UNL A   1      37.964  30.887  29.559  1.00  0.00     0.037 A 
ATOM     50  C   UNL A   1      42.619  28.865  33.726  1.00  0.00     0.049 A 
ATOM     51  C   UNL A   1      38.238  31.145  31.021  1.00  0.00     0.074 A 
ATOM     52  C   UNL A   1      42.790  29.230  35.047  1.00  0.00     0.029 A 
ATOM     53  N   UNL A   1      41.489  29.522  33.264  1.00  0.00    -0.354 N 
ATOM     54  N   UNL A   1      39.215  30.694  31.772  1.00  0.00    -0.248 NA
ATOM     55  C   UNL A   1      37.291  32.015  31.734  1.00  0.00     0.031 C 
ATOM     56  C   UNL A   1      41.734  30.076  35.399  1.00  0.00     0.029 A 
ATOM     57  C   UNL A   1      40.941  30.283  34.280  1.00  0.00     0.049 A 
ATOM     58  H   UNL A   1      41.130  29.457  32.349  1.00  0.00     0.167 HD
ATOM     59  C   UNL A   1      39.025  31.256  33.029  1.00  0.00     0.074 A 
ATOM     60  C   UNL A   1      37.835  32.076  32.942  1.00  0.00     0.031 C 
ATOM     61  C   UNL A   1      39.770  31.113  34.153  1.00  0.00     0.037 A 
BRANCH  48  62
ATOM     62  C   UNL A   1      44.591  27.283  33.555  1.00  0.00     0.057 A 
ATOM     63  C   UNL A   1      44.467  26.053  34.218  1.00  0.00     0.134 A 
ATOM     64  C   UNL A   1      45.860  27.872  33.514  1.00  0.00     0.134 A 
ATOM     65  F   UNL A   1      43.272  25.452  34.319  1.00  0.00    -0.206 F 
ATOM     66  C   UNL A   1      45.559  25.450  34.841  1.00  0.00     0.040 A 
ATOM     67  C   UNL A   1      46.965  27.262  34.108  1.00  0.00     0.040 A 
ATOM     68  F   UNL A   1      46.044  29.052  32.904  1.00  0.00    -0.206 F 
ATOM     69  C   UNL A   1      46.814  26.052  34.783  1.00  0.00     0.006 A 
ENDBRANCH  48  62
BRANCH  49  70
ATOM     70  C   UNL A   1      36.770  31.470  28.894  1.00  0.00     0.057 A 
ATOM     71  C   UNL A   1      36.742  32.811  28.497  1.00  0.00     0.134 A 
ATOM     72  C   UNL A   1      35.623  30.705  28.653  1.00  0.00     0.134 A 
ATOM     73  F   UNL A   1      37.800  33.604  28.722  1.00  0.00    -0.206 F 
ATOM     74  C   UNL A   1      35.613  33.375  27.898  1.00  0.00     0.040 A 
ATOM     75  C   UNL A   1      34.496  31.248  28.033  1.00  0.00     0.040 A 
ATOM     76  F   UNL A   1      35.583  29.412  29.010  1.00  0.00    -0.206 F 
ATOM     77  C   UNL A   1      34.487  32.589  27.660  1.00  0.00     0.006 A 
ENDBRANCH  49  70
BRANCH  61  78
ATOM     78  C   UNL A   1      39.373  31.905  35.363  1.00  0.00     0.057 A 
ATOM     79  C   UNL A   1      38.508  31.394  36.336  1.00  0.00     0.134 A 
ATOM     80  C   UNL A   1      39.960  33.155  35.606  1.00  0.00     0.134 A 
ATOM     81  F   UNL A   1      37.910  30.206  36.158  1.00  0.00    -0.206 F 
ATOM     82  C   UNL A   1      38.235  32.101  37.508  1.00  0.00     0.040 A 
ATOM     83  C   UNL A   1      39.715  33.858  36.785  1.00  0.00     0.040 A 
ATOM     84  F   UNL A   1      40.810  33.693  34.717  1.00  0.00    -0.206 F 
ATOM     85  C   UNL A   1      38.849  33.331  37.740  1.00  0.00     0.006 A 
ENDBRANCH  61  78
ENDBRANCH  35  36
ENDBRANCH  28  30
ENDBRANCH  27  28
ENDBRANCH  26  27
ENDBRANCH  25  26
ENDBRANCH  24  25
ENDBRANCH  23  24
ENDBRANCH  22  23
ENDBRANCH   1  22
TORSDOF 22
ENDMDL
MODEL 2
REMARK VINA RESULT:      -9.7      3.862      7.831
REMARK SMILES CC(C)=CC[C@@]1(C(=O)OCCOCCOCCOCCOC(=O)c2ccc(-c3c4nc(c(-c5c(F)cccc5F)c5ccc([nH]5)c(-c5c(F)cccc5F)c5nc(c(-c6c(F)cccc6F)c6ccc3[nH]6)C=C5)C=C4)cc2)CCC[C@H](C)C1
REMARK SMILES IDX 15 1 14 2 13 3 12 4 11 5 10 6 9 7 7 8 8 9 6 10 78 11 83 12
REMARK SMILES IDX 79 13 81 14 80 15 82 16 5 17 4 18 1 19 2 20 3 21 16 22 17 23
REMARK SMILES IDX 18 24 19 25 20 26 21 27 22 28 23 29 24 30 25 31 77 32 26 33
REMARK SMILES IDX 76 34 27 35 28 36 29 37 70 38 30 39 75 40 69 41 71 42 31 43
REMARK SMILES IDX 74 44 68 45 67 46 32 48 58 49 41 50 57 51 42 52 45 53 56 54
REMARK SMILES IDX 72 55 43 56 44 57 55 59 73 60 46 61 33 62 34 63 39 64 35 65
REMARK SMILES IDX 36 66 38 67 40 68 37 69 59 70 60 71 65 72 61 73 62 74 64 75
REMARK SMILES IDX 66 76 63 77 47 78 48 79 53 80 49 81 50 82 52 83 54 84 51 85
REMARK H PARENT 71 47 45 58
REMARK Flexibility Score: inf
ROOT
ATOM      1  O   UNL A   1      35.841  23.734  25.840  1.00  0.00    -0.377 OA
ENDROOT
BRANCH   1   2
ATOM      2  C   UNL A   1      34.612  23.080  25.547  1.00  0.00     0.188 C 
BRANCH   2   3
ATOM      3  C   UNL A   1      33.304  23.874  25.294  1.00  0.00     0.188 C 
BRANCH   3   4
ATOM      4  O   UNL A   1      32.084  23.177  25.510  1.00  0.00    -0.376 OA
BRANCH   4   5
ATOM      5  C   UNL A   1      30.864  23.748  25.049  1.00  0.00     0.202 C 
BRANCH   5   6
ATOM      6  C   UNL A   1      30.803  24.168  23.579  1.00  0.00     0.261 C 
BRANCH   6   7
ATOM      7  O   UNL A   1      30.325  25.518  23.415  1.00  0.00    -0.463 OA
BRANCH   7   8
ATOM      8  C   UNL A   1      31.163  26.397  22.815  1.00  0.00     0.312 C 
ATOM      9  O   UNL A   1      31.541  26.258  21.658  1.00  0.00    -0.252 OA
BRANCH   8  10
ATOM     10  C   UNL A   1      31.646  27.504  23.789  1.00  0.00     0.072 C 
ATOM     11  C   UNL A   1      33.193  27.295  23.790  1.00  0.00     0.019 C 
ATOM     12  C   UNL A   1      31.194  27.468  25.279  1.00  0.00     0.022 C 
ATOM     13  C   UNL A   1      33.994  28.163  24.756  1.00  0.00     0.001 C 
ATOM     14  C   UNL A   1      31.953  28.462  26.190  1.00  0.00    -0.013 C 
ATOM     15  C   UNL A   1      33.443  28.124  26.175  1.00  0.00     0.003 C 
ATOM     16  C   UNL A   1      31.411  28.480  27.625  1.00  0.00     0.007 C 
BRANCH  10  17
ATOM     17  C   UNL A   1      31.186  28.848  23.154  1.00  0.00     0.046 C 
BRANCH  17  18
ATOM     18  C   UNL A   1      29.818  29.491  23.424  1.00  0.00    -0.027 C 
ATOM     19  C   UNL A   1      28.992  30.849  21.395  1.00  0.00     0.039 C 
ATOM     20  C   UNL A   1      28.919  30.269  22.771  1.00  0.00    -0.080 C 
ATOM     21  C   UNL A   1      27.666  30.709  23.497  1.00  0.00     0.039 C 
ENDBRANCH  17  18
ENDBRANCH  10  17
ENDBRANCH   8  10
ENDBRANCH   7   8
ENDBRANCH   6   7
ENDBRANCH   5   6
ENDBRANCH   4   5
ENDBRANCH   3   4
ENDBRANCH   2   3
ENDBRANCH   1   2
BRANCH   1  22
ATOM     22  C   UNL A   1      36.930  23.458  24.981  1.00  0.00     0.188 C 
BRANCH  22  23
ATOM     23  C   UNL A   1      37.788  22.271  25.458  1.00  0.00     0.188 C 
BRANCH  23  24
ATOM     24  O   UNL A   1      37.373  21.041  24.893  1.00  0.00    -0.376 OA
BRANCH  24  25
ATOM     25  C   UNL A   1      38.166  19.874  25.007  1.00  0.00     0.202 C 
BRANCH  25  26
ATOM     26  C   UNL A   1      39.414  19.785  25.904  1.00  0.00     0.261 C 
BRANCH  26  27
ATOM     27  O   UNL A   1      40.591  19.203  25.356  1.00  0.00    -0.460 OA
BRANCH  27  28
ATOM     28  C   UNL A   1      41.694  19.163  26.126  1.00  0.00     0.338 C 
ATOM     29  O   UNL A   1      42.443  18.217  26.301  1.00  0.00    -0.246 OA
BRANCH  28  30
ATOM     30  C   UNL A   1      41.959  20.551  26.555  1.00  0.00     0.060 A 
ATOM     31  C   UNL A   1      42.143  21.535  25.572  1.00  0.00     0.016 A 
ATOM     32  C   UNL A   1      41.942  20.890  27.910  1.00  0.00     0.016 A 
ATOM     33  C   UNL A   1      42.286  22.871  25.943  1.00  0.00     0.010 A 
ATOM     34  C   UNL A   1      42.157  22.214  28.285  1.00  0.00     0.010 A 
ATOM     35  C   UNL A   1      42.355  23.200  27.303  1.00  0.00    -0.014 A 
BRANCH  35  36
ATOM     36  C   UNL A   1      42.979  24.477  27.704  1.00  0.00     0.031 A 
ATOM     37  C   UNL A   1      42.042  25.563  28.148  1.00  0.00     0.074 A 
ATOM     38  C   UNL A   1      44.303  24.686  27.631  1.00  0.00     0.049 A 
ATOM     39  N   UNL A   1      42.284  26.819  28.408  1.00  0.00    -0.248 NA
ATOM     40  C   UNL A   1      40.628  25.176  28.308  1.00  0.00     0.031 C 
ATOM     41  C   UNL A   1      45.303  23.688  27.260  1.00  0.00     0.029 A 
ATOM     42  N   UNL A   1      45.026  25.832  27.843  1.00  0.00    -0.354 N 
ATOM     43  C   UNL A   1      41.057  27.366  28.756  1.00  0.00     0.074 A 
ATOM     44  C   UNL A   1      40.068  26.320  28.655  1.00  0.00     0.031 C 
ATOM     45  C   UNL A   1      46.513  24.278  27.234  1.00  0.00     0.029 A 
ATOM     46  C   UNL A   1      46.360  25.699  27.546  1.00  0.00     0.049 A 
ATOM     47  H   UNL A   1      44.627  26.668  28.175  1.00  0.00     0.167 HD
ATOM     48  C   UNL A   1      40.776  28.636  29.125  1.00  0.00     0.037 A 
ATOM     49  C   UNL A   1      47.328  26.636  27.494  1.00  0.00     0.037 A 
ATOM     50  C   UNL A   1      41.758  29.679  29.176  1.00  0.00     0.049 A 
ATOM     51  C   UNL A   1      46.979  28.068  27.816  1.00  0.00     0.074 A 
ATOM     52  C   UNL A   1      41.586  31.009  29.507  1.00  0.00     0.029 A 
ATOM     53  N   UNL A   1      43.098  29.505  28.866  1.00  0.00    -0.354 N 
ATOM     54  N   UNL A   1      45.820  28.582  28.155  1.00  0.00    -0.248 NA
ATOM     55  C   UNL A   1      48.069  29.053  27.742  1.00  0.00     0.031 C 
ATOM     56  C   UNL A   1      42.817  31.652  29.353  1.00  0.00     0.029 A 
ATOM     57  C   UNL A   1      43.766  30.710  28.984  1.00  0.00     0.049 A 
ATOM     58  H   UNL A   1      43.512  28.652  28.601  1.00  0.00     0.167 HD
ATOM     59  C   UNL A   1      46.048  29.935  28.374  1.00  0.00     0.074 A 
ATOM     60  C   UNL A   1      47.456  30.166  28.124  1.00  0.00     0.031 C 
ATOM     61  C   UNL A   1      45.176  30.901  28.755  1.00  0.00     0.037 A 
BRANCH  48  62
ATOM     62  C   UNL A   1      39.346  28.950  29.444  1.00  0.00     0.057 A 
ATOM     63  C   UNL A   1      38.817  28.760  30.729  1.00  0.00     0.134 A 
ATOM     64  C   UNL A   1      38.480  29.419  28.451  1.00  0.00     0.134 A 
ATOM     65  F   UNL A   1      39.588  28.282  31.718  1.00  0.00    -0.206 F 
ATOM     66  C   UNL A   1      37.471  29.000  31.005  1.00  0.00     0.040 A 
ATOM     67  C   UNL A   1      37.138  29.691  28.722  1.00  0.00     0.040 A 
ATOM     68  F   UNL A   1      38.920  29.613  27.198  1.00  0.00    -0.206 F 
ATOM     69  C   UNL A   1      36.629  29.472  30.001  1.00  0.00     0.006 A 
ENDBRANCH  48  62
BRANCH  49  70
ATOM     70  C   UNL A   1      48.709  26.260  27.094  1.00  0.00     0.057 A 
ATOM     71  C   UNL A   1      49.636  25.794  28.032  1.00  0.00     0.134 A 
ATOM     72  C   UNL A   1      49.139  26.371  25.766  1.00  0.00     0.134 A 
ATOM     73  F   UNL A   1      49.294  25.688  29.324  1.00  0.00    -0.206 F 
ATOM     74  C   UNL A   1      50.945  25.467  27.669  1.00  0.00     0.040 A 
ATOM     75  C   UNL A   1      50.436  26.024  25.384  1.00  0.00     0.040 A 
ATOM     76  F   UNL A   1      48.300  26.811  24.817  1.00  0.00    -0.206 F 
ATOM     77  C   UNL A   1      51.345  25.577  26.339  1.00  0.00     0.006 A 
ENDBRANCH  49  70
BRANCH  61  78
ATOM     78  C   UNL A   1      45.716  32.279  28.994  1.00  0.00     0.057 A 
ATOM     79  C   UNL A   1      45.734  33.256  27.993  1.00  0.00     0.134 A 
ATOM     80  C   UNL A   1      46.117  32.661  30.282  1.00  0.00     0.134 A 
ATOM     81  F   UNL A   1      45.367  32.950  26.738  1.00  0.00    -0.206 F 
ATOM     82  C   UNL A   1      46.138  34.564  28.261  1.00  0.00     0.040 A 
ATOM     83  C   UNL A   1      46.498  33.972  30.568  1.00  0.00     0.040 A 
ATOM     84  F   UNL A   1      46.109  31.774  31.289  1.00  0.00    -0.206 F 
ATOM     85  C   UNL A   1      46.510  34.928  29.555  1.00  0.00     0.006 A 
ENDBRANCH  61  78
ENDBRANCH  35  36
ENDBRANCH  28  30
ENDBRANCH  27  28
ENDBRANCH  26  27
ENDBRANCH  25  26
ENDBRANCH  24  25
ENDBRANCH  23  24
ENDBRANCH  22  23
ENDBRANCH   1  22
TORSDOF 22
ENDMDL
MODEL 3
REMARK VINA RESULT:      -9.7      4.739      9.839
REMARK SMILES CC(C)=CC[C@@]1(C(=O)OCCOCCOCCOCCOC(=O)c2ccc(-c3c4nc(c(-c5c(F)cccc5F)c5ccc([nH]5)c(-c5c(F)cccc5F)c5nc(c(-c6c(F)cccc6F)c6ccc3[nH]6)C=C5)C=C4)cc2)CCC[C@H](C)C1
REMARK SMILES IDX 15 1 14 2 13 3 12 4 11 5 10 6 9 7 7 8 8 9 6 10 78 11 83 12
REMARK SMILES IDX 79 13 81 14 80 15 82 16 5 17 4 18 1 19 2 20 3 21 16 22 17 23
REMARK SMILES IDX 18 24 19 25 20 26 21 27 22 28 23 29 24 30 25 31 77 32 26 33
REMARK SMILES IDX 76 34 27 35 28 36 29 37 70 38 30 39 75 40 69 41 71 42 31 43
REMARK SMILES IDX 74 44 68 45 67 46 32 48 58 49 41 50 57 51 42 52 45 53 56 54
REMARK SMILES IDX 72 55 43 56 44 57 55 59 73 60 46 61 33 62 34 63 39 64 35 65
REMARK SMILES IDX 36 66 38 67 40 68 37 69 59 70 60 71 65 72 61 73 62 74 64 75
REMARK SMILES IDX 66 76 63 77 47 78 48 79 53 80 49 81 50 82 52 83 54 84 51 85
REMARK H PARENT 71 47 45 58
REMARK Flexibility Score: inf
ROOT
ATOM      1  O   UNL A   1      33.729  34.773  28.058  1.00  0.00    -0.377 OA
ENDROOT
BRANCH   1   2
ATOM      2  C   UNL A   1      34.744  33.778  28.050  1.00  0.00     0.188 C 
BRANCH   2   3
ATOM      3  C   UNL A   1      34.458  32.315  28.478  1.00  0.00     0.188 C 
BRANCH   3   4
ATOM      4  O   UNL A   1      34.953  31.293  27.622  1.00  0.00    -0.376 OA
BRANCH   4   5
ATOM      5  C   UNL A   1      34.059  30.299  27.135  1.00  0.00     0.202 C 
BRANCH   5   6
ATOM      6  C   UNL A   1      32.561  30.566  27.302  1.00  0.00     0.261 C 
BRANCH   6   7
ATOM      7  O   UNL A   1      31.771  29.903  26.295  1.00  0.00    -0.463 OA
BRANCH   7   8
ATOM      8  C   UNL A   1      31.613  28.563  26.425  1.00  0.00     0.312 C 
ATOM      9  O   UNL A   1      31.400  28.029  27.506  1.00  0.00    -0.252 OA
BRANCH   8  10
ATOM     10  C   UNL A   1      31.836  27.815  25.084  1.00  0.00     0.072 C 
ATOM     11  C   UNL A   1      32.390  26.436  25.560  1.00  0.00     0.019 C 
ATOM     12  C   UNL A   1      32.863  28.372  24.054  1.00  0.00     0.022 C 
ATOM     13  C   UNL A   1      32.836  25.469  24.467  1.00  0.00     0.001 C 
ATOM     14  C   UNL A   1      33.181  27.398  22.895  1.00  0.00    -0.013 C 
ATOM     15  C   UNL A   1      33.783  26.114  23.464  1.00  0.00     0.003 C 
ATOM     16  C   UNL A   1      34.110  28.016  21.842  1.00  0.00     0.007 C 
BRANCH  10  17
ATOM     17  C   UNL A   1      30.435  27.740  24.410  1.00  0.00     0.046 C 
BRANCH  17  18
ATOM     18  C   UNL A   1      29.926  28.770  23.391  1.00  0.00    -0.027 C 
ATOM     19  C   UNL A   1      27.363  28.670  23.143  1.00  0.00     0.039 C 
ATOM     20  C   UNL A   1      28.742  29.178  22.870  1.00  0.00    -0.080 C 
ATOM     21  C   UNL A   1      28.742  30.253  21.805  1.00  0.00     0.039 C 
ENDBRANCH  17  18
ENDBRANCH  10  17
ENDBRANCH   8  10
ENDBRANCH   7   8
ENDBRANCH   6   7
ENDBRANCH   5   6
ENDBRANCH   4   5
ENDBRANCH   3   4
ENDBRANCH   2   3
ENDBRANCH   1   2
BRANCH   1  22
ATOM     22  C   UNL A   1      32.980  34.910  29.250  1.00  0.00     0.188 C 
BRANCH  22  23
ATOM     23  C   UNL A   1      33.350  36.171  30.054  1.00  0.00     0.188 C 
BRANCH  23  24
ATOM     24  O   UNL A   1      33.135  36.010  31.443  1.00  0.00    -0.376 OA
BRANCH  24  25
ATOM     25  C   UNL A   1      33.808  35.006  32.181  1.00  0.00     0.202 C 
BRANCH  25  26
ATOM     26  C   UNL A   1      35.332  34.792  32.119  1.00  0.00     0.261 C 
BRANCH  26  27
ATOM     27  O   UNL A   1      35.812  33.551  31.616  1.00  0.00    -0.460 OA
BRANCH  27  28
ATOM     28  C   UNL A   1      36.194  32.614  32.503  1.00  0.00     0.338 C 
ATOM     29  O   UNL A   1      35.702  32.379  33.592  1.00  0.00    -0.246 OA
BRANCH  28  30
ATOM     30  C   UNL A   1      37.193  31.769  31.819  1.00  0.00     0.060 A 
ATOM     31  C   UNL A   1      37.928  30.845  32.578  1.00  0.00     0.016 A 
ATOM     32  C   UNL A   1      37.341  31.829  30.430  1.00  0.00     0.016 A 
ATOM     33  C   UNL A   1      38.797  29.960  31.945  1.00  0.00     0.010 A 
ATOM     34  C   UNL A   1      38.263  30.994  29.805  1.00  0.00     0.010 A 
ATOM     35  C   UNL A   1      39.010  30.077  30.565  1.00  0.00    -0.014 A 
BRANCH  35  36
ATOM     36  C   UNL A   1      40.241  29.513  29.975  1.00  0.00     0.031 A 
ATOM     37  C   UNL A   1      41.382  30.469  29.778  1.00  0.00     0.074 A 
ATOM     38  C   UNL A   1      40.331  28.231  29.585  1.00  0.00     0.049 A 
ATOM     39  N   UNL A   1      42.514  30.298  29.151  1.00  0.00    -0.248 NA
ATOM     40  C   UNL A   1      41.210  31.813  30.359  1.00  0.00     0.031 C 
ATOM     41  C   UNL A   1      39.303  27.210  29.775  1.00  0.00     0.029 A 
ATOM     42  N   UNL A   1      41.338  27.583  28.919  1.00  0.00    -0.354 N 
ATOM     43  C   UNL A   1      43.182  31.509  29.263  1.00  0.00     0.074 A 
ATOM     44  C   UNL A   1      42.328  32.415  29.993  1.00  0.00     0.031 C 
ATOM     45  C   UNL A   1      39.720  26.066  29.199  1.00  0.00     0.029 A 
ATOM     46  C   UNL A   1      41.021  26.292  28.571  1.00  0.00     0.049 A 
ATOM     47  H   UNL A   1      42.204  28.001  28.709  1.00  0.00     0.167 HD
ATOM     48  C   UNL A   1      44.404  31.843  28.792  1.00  0.00     0.037 A 
ATOM     49  C   UNL A   1      41.695  25.419  27.796  1.00  0.00     0.037 A 
ATOM     50  C   UNL A   1      45.226  30.951  28.026  1.00  0.00     0.049 A 
ATOM     51  C   UNL A   1      43.015  25.839  27.197  1.00  0.00     0.074 A 
ATOM     52  C   UNL A   1      46.469  31.186  27.472  1.00  0.00     0.029 A 
ATOM     53  N   UNL A   1      44.869  29.653  27.693  1.00  0.00    -0.354 N 
ATOM     54  N   UNL A   1      43.650  26.981  27.312  1.00  0.00    -0.248 NA
ATOM     55  C   UNL A   1      43.711  24.853  26.356  1.00  0.00     0.031 C 
ATOM     56  C   UNL A   1      46.846  30.042  26.763  1.00  0.00     0.029 A 
ATOM     57  C   UNL A   1      45.864  29.076  26.926  1.00  0.00     0.049 A 
ATOM     58  H   UNL A   1      44.033  29.209  27.962  1.00  0.00     0.167 HD
ATOM     59  C   UNL A   1      44.833  26.838  26.596  1.00  0.00     0.074 A 
ATOM     60  C   UNL A   1      44.826  25.499  26.044  1.00  0.00     0.031 C 
ATOM     61  C   UNL A   1      45.840  27.729  26.415  1.00  0.00     0.037 A 
BRANCH  48  62
ATOM     62  C   UNL A   1      44.878  33.239  29.058  1.00  0.00     0.057 A 
ATOM     63  C   UNL A   1      45.624  33.560  30.201  1.00  0.00     0.134 A 
ATOM     64  C   UNL A   1      44.560  34.280  28.179  1.00  0.00     0.134 A 
ATOM     65  F   UNL A   1      45.935  32.613  31.099  1.00  0.00    -0.206 F 
ATOM     66  C   UNL A   1      46.012  34.873  30.472  1.00  0.00     0.040 A 
ATOM     67  C   UNL A   1      44.968  35.591  28.424  1.00  0.00     0.040 A 
ATOM     68  F   UNL A   1      43.840  34.042  27.072  1.00  0.00    -0.206 F 
ATOM     69  C   UNL A   1      45.689  35.892  29.579  1.00  0.00     0.006 A 
ENDBRANCH  48  62
BRANCH  49  70
ATOM     70  C   UNL A   1      41.124  24.077  27.514  1.00  0.00     0.057 A 
ATOM     71  C   UNL A   1      40.056  23.914  26.625  1.00  0.00     0.134 A 
ATOM     72  C   UNL A   1      41.622  22.927  28.138  1.00  0.00     0.134 A 
ATOM     73  F   UNL A   1      39.518  24.979  26.013  1.00  0.00    -0.206 F 
ATOM     74  C   UNL A   1      39.495  22.659  26.377  1.00  0.00     0.040 A 
ATOM     75  C   UNL A   1      41.087  21.663  27.881  1.00  0.00     0.040 A 
ATOM     76  F   UNL A   1      42.644  23.013  29.002  1.00  0.00    -0.206 F 
ATOM     77  C   UNL A   1      40.015  21.528  27.003  1.00  0.00     0.006 A 
ENDBRANCH  49  70
BRANCH  61  78
ATOM     78  C   UNL A   1      47.048  27.277  25.651  1.00  0.00     0.057 A 
ATOM     79  C   UNL A   1      47.266  27.644  24.319  1.00  0.00     0.134 A 
ATOM     80  C   UNL A   1      48.060  26.557  26.302  1.00  0.00     0.134 A 
ATOM     81  F   UNL A   1      46.333  28.329  23.640  1.00  0.00    -0.206 F 
ATOM     82  C   UNL A   1      48.448  27.306  23.657  1.00  0.00     0.040 A 
ATOM     83  C   UNL A   1      49.254  26.236  25.659  1.00  0.00     0.040 A 
ATOM     84  F   UNL A   1      47.916  26.188  27.584  1.00  0.00    -0.206 F 
ATOM     85  C   UNL A   1      49.451  26.610  24.332  1.00  0.00     0.006 A 
ENDBRANCH  61  78
ENDBRANCH  35  36
ENDBRANCH  28  30
ENDBRANCH  27  28
ENDBRANCH  26  27
ENDBRANCH  25  26
ENDBRANCH  24  25
ENDBRANCH  23  24
ENDBRANCH  22  23
ENDBRANCH   1  22
TORSDOF 22
ENDMDL
