MODEL 1
REMARK VINA RESULT:     -10.7      0.000      0.000
REMARK SMILES Cc1cccc(Nc2ccccc2C(=O)OCCOCCOCCOCCOC(=O)c2ccc(-c3c4nc(c(-c5c(F)cccc5F)c5ccc([nH]5)c(-c5c(F)cccc5F)c5nc(c(-c6c(F)cccc6F)c6ccc3[nH]6)C=C5)C=C4)cc2)c1C
REMARK SMILES IDX 22 1 21 2 20 3 19 4 18 5 17 6 16 7 14 8 15 9 13 10 8 11 9 12
REMARK SMILES IDX 10 13 12 14 11 15 7 16 6 18 1 19 2 20 3 21 85 22 4 23 86 24
REMARK SMILES IDX 5 25 23 26 24 27 25 28 26 29 27 30 28 31 29 32 30 33 31 34
REMARK SMILES IDX 32 35 84 36 33 37 83 38 34 39 35 40 36 41 77 42 37 43 82 44
REMARK SMILES IDX 76 45 78 46 38 47 81 48 75 49 74 50 39 52 65 53 48 54 64 55
REMARK SMILES IDX 49 56 52 57 63 58 79 59 50 60 51 61 62 63 80 64 53 65 40 66
REMARK SMILES IDX 41 67 46 68 42 69 43 70 45 71 47 72 44 73 66 74 67 75 72 76
REMARK SMILES IDX 68 77 69 78 71 79 73 80 70 81 54 82 55 83 60 84 56 85 57 86
REMARK SMILES IDX 59 87 61 88 58 89
REMARK H PARENT 7 17 78 51 52 62
REMARK Flexibility Score: inf
ROOT
ATOM      1  O   UNL A   1      42.496  20.038  25.847  1.00  0.00    -0.377 OA
ENDROOT
BRANCH   1   2
ATOM      2  C   UNL A   1      41.233  19.904  26.486  1.00  0.00     0.188 C 
BRANCH   2   3
ATOM      3  C   UNL A   1      40.365  21.145  26.809  1.00  0.00     0.188 C 
BRANCH   3   4
ATOM      4  O   UNL A   1      39.520  21.574  25.761  1.00  0.00    -0.376 OA
BRANCH   4   5
ATOM      5  C   UNL A   1      38.266  22.162  26.037  1.00  0.00     0.202 C 
BRANCH   5   6
ATOM      6  C   UNL A   1      37.862  23.513  25.441  1.00  0.00     0.261 C 
BRANCH   6   7
ATOM      7  O   UNL A   1      36.485  23.670  25.108  1.00  0.00    -0.460 OA
BRANCH   7   8
ATOM      8  C   UNL A   1      36.081  23.116  23.946  1.00  0.00     0.340 C 
ATOM      9  O   UNL A   1      36.720  23.101  22.903  1.00  0.00    -0.246 OA
BRANCH   8  10
ATOM     10  C   UNL A   1      34.829  22.339  24.153  1.00  0.00     0.083 A 
ATOM     11  C   UNL A   1      33.519  22.842  24.001  1.00  0.00     0.053 A 
ATOM     12  C   UNL A   1      32.452  21.970  24.306  1.00  0.00     0.027 A 
ATOM     13  C   UNL A   1      32.667  20.658  24.739  1.00  0.00     0.002 A 
ATOM     14  C   UNL A   1      35.037  21.014  24.592  1.00  0.00     0.018 A 
ATOM     15  C   UNL A   1      33.963  20.180  24.884  1.00  0.00     0.001 A 
BRANCH  11  16
ATOM     16  N   UNL A   1      33.151  24.103  23.479  1.00  0.00    -0.355 N 
ATOM     17  H   UNL A   1      32.854  24.077  22.540  1.00  0.00     0.167 HD
BRANCH  16  18
ATOM     18  C   UNL A   1      33.131  25.392  24.052  1.00  0.00     0.042 A 
ATOM     19  C   UNL A   1      33.285  29.040  22.974  1.00  0.00     0.044 C 
ATOM     20  C   UNL A   1      33.226  27.817  23.849  1.00  0.00    -0.046 A 
ATOM     21  C   UNL A   1      33.683  27.903  25.172  1.00  0.00     0.004 A 
ATOM     22  C   UNL A   1      32.838  26.563  23.320  1.00  0.00    -0.025 A 
ATOM     23  C   UNL A   1      33.811  26.759  25.953  1.00  0.00     0.002 A 
ATOM     24  C   UNL A   1      32.124  26.498  21.991  1.00  0.00     0.047 C 
ATOM     25  C   UNL A   1      33.575  25.512  25.382  1.00  0.00     0.026 A 
ENDBRANCH  16  18
ENDBRANCH  11  16
ENDBRANCH   8  10
ENDBRANCH   7   8
ENDBRANCH   6   7
ENDBRANCH   5   6
ENDBRANCH   4   5
ENDBRANCH   3   4
ENDBRANCH   2   3
ENDBRANCH   1   2
BRANCH   1  26
ATOM     26  C   UNL A   1      43.312  18.897  25.620  1.00  0.00     0.188 C 
BRANCH  26  27
ATOM     27  C   UNL A   1      44.658  19.012  24.866  1.00  0.00     0.188 C 
BRANCH  27  28
ATOM     28  O   UNL A   1      44.979  20.318  24.423  1.00  0.00    -0.376 OA
BRANCH  28  29
ATOM     29  C   UNL A   1      45.994  21.031  25.102  1.00  0.00     0.202 C 
BRANCH  29  30
ATOM     30  C   UNL A   1      45.853  22.556  25.219  1.00  0.00     0.261 C 
BRANCH  30  31
ATOM     31  O   UNL A   1      44.786  23.038  26.047  1.00  0.00    -0.460 OA
BRANCH  31  32
ATOM     32  C   UNL A   1      43.666  23.467  25.431  1.00  0.00     0.338 C 
ATOM     33  O   UNL A   1      43.132  22.990  24.442  1.00  0.00    -0.246 OA
BRANCH  32  34
ATOM     34  C   UNL A   1      43.078  24.522  26.277  1.00  0.00     0.060 A 
ATOM     35  C   UNL A   1      43.703  25.775  26.347  1.00  0.00     0.016 A 
ATOM     36  C   UNL A   1      41.900  24.274  26.986  1.00  0.00     0.016 A 
ATOM     37  C   UNL A   1      43.164  26.777  27.153  1.00  0.00     0.010 A 
ATOM     38  C   UNL A   1      41.378  25.268  27.813  1.00  0.00     0.010 A 
ATOM     39  C   UNL A   1      42.028  26.510  27.926  1.00  0.00    -0.014 A 
BRANCH  39  40
ATOM     40  C   UNL A   1      41.644  27.444  29.008  1.00  0.00     0.031 A 
ATOM     41  C   UNL A   1      42.415  27.390  30.296  1.00  0.00     0.074 A 
ATOM     42  C   UNL A   1      40.640  28.322  28.853  1.00  0.00     0.049 A 
ATOM     43  N   UNL A   1      42.231  28.055  31.407  1.00  0.00    -0.248 NA
ATOM     44  C   UNL A   1      43.547  26.450  30.334  1.00  0.00     0.031 C 
ATOM     45  C   UNL A   1      39.845  28.494  27.639  1.00  0.00     0.029 A 
ATOM     46  N   UNL A   1      40.110  29.226  29.738  1.00  0.00    -0.354 N 
ATOM     47  C   UNL A   1      43.211  27.601  32.280  1.00  0.00     0.074 A 
ATOM     48  C   UNL A   1      43.968  26.585  31.581  1.00  0.00     0.031 C 
ATOM     49  C   UNL A   1      38.910  29.433  27.863  1.00  0.00     0.029 A 
ATOM     50  C   UNL A   1      39.020  29.900  29.246  1.00  0.00     0.049 A 
ATOM     51  H   UNL A   1      40.476  29.377  30.640  1.00  0.00     0.167 HD
ATOM     52  C   UNL A   1      43.459  27.998  33.550  1.00  0.00     0.037 A 
ATOM     53  C   UNL A   1      38.190  30.770  29.853  1.00  0.00     0.037 A 
ATOM     54  C   UNL A   1      42.696  29.004  34.240  1.00  0.00     0.049 A 
ATOM     55  C   UNL A   1      38.440  31.150  31.289  1.00  0.00     0.074 A 
ATOM     56  C   UNL A   1      42.885  29.506  35.515  1.00  0.00     0.029 A 
ATOM     57  N   UNL A   1      41.584  29.649  33.718  1.00  0.00    -0.354 N 
ATOM     58  N   UNL A   1      39.391  30.748  32.100  1.00  0.00    -0.248 NA
ATOM     59  C   UNL A   1      37.506  32.109  31.895  1.00  0.00     0.031 C 
ATOM     60  C   UNL A   1      41.847  30.402  35.789  1.00  0.00     0.029 A 
ATOM     61  C   UNL A   1      41.052  30.513  34.659  1.00  0.00     0.049 A 
ATOM     62  H   UNL A   1      41.226  29.511  32.811  1.00  0.00     0.167 HD
ATOM     63  C   UNL A   1      39.184  31.420  33.299  1.00  0.00     0.074 A 
ATOM     64  C   UNL A   1      38.025  32.266  33.104  1.00  0.00     0.031 C 
ATOM     65  C   UNL A   1      39.891  31.346  34.454  1.00  0.00     0.037 A 
BRANCH  52  66
ATOM     66  C   UNL A   1      44.568  27.300  34.284  1.00  0.00     0.057 A 
ATOM     67  C   UNL A   1      45.888  27.775  34.278  1.00  0.00     0.134 A 
ATOM     68  C   UNL A   1      44.310  26.126  35.004  1.00  0.00     0.134 A 
ATOM     69  F   UNL A   1      46.208  28.884  33.595  1.00  0.00    -0.206 F 
ATOM     70  C   UNL A   1      46.914  27.088  34.928  1.00  0.00     0.040 A 
ATOM     71  C   UNL A   1      45.323  25.449  35.686  1.00  0.00     0.040 A 
ATOM     72  F   UNL A   1      43.071  25.616  35.055  1.00  0.00    -0.206 F 
ATOM     73  C   UNL A   1      46.631  25.923  35.639  1.00  0.00     0.006 A 
ENDBRANCH  52  66
BRANCH  53  74
ATOM     74  C   UNL A   1      37.033  31.322  29.106  1.00  0.00     0.057 A 
ATOM     75  C   UNL A   1      35.887  30.556  28.867  1.00  0.00     0.134 A 
ATOM     76  C   UNL A   1      37.040  32.638  28.625  1.00  0.00     0.134 A 
ATOM     77  F   UNL A   1      35.828  29.282  29.280  1.00  0.00    -0.206 F 
ATOM     78  C   UNL A   1      34.793  31.075  28.171  1.00  0.00     0.040 A 
ATOM     79  C   UNL A   1      35.944  33.179  27.952  1.00  0.00     0.040 A 
ATOM     80  F   UNL A   1      38.108  33.426  28.824  1.00  0.00    -0.206 F 
ATOM     81  C   UNL A   1      34.817  32.394  27.720  1.00  0.00     0.006 A 
ENDBRANCH  53  74
BRANCH  65  82
ATOM     82  C   UNL A   1      39.452  32.224  35.593  1.00  0.00     0.057 A 
ATOM     83  C   UNL A   1      38.546  31.783  36.566  1.00  0.00     0.134 A 
ATOM     84  C   UNL A   1      39.983  33.513  35.743  1.00  0.00     0.134 A 
ATOM     85  F   UNL A   1      37.992  30.565  36.478  1.00  0.00    -0.206 F 
ATOM     86  C   UNL A   1      38.164  32.602  37.632  1.00  0.00     0.040 A 
ATOM     87  C   UNL A   1      39.633  34.327  36.821  1.00  0.00     0.040 A 
ATOM     88  F   UNL A   1      40.865  33.995  34.855  1.00  0.00    -0.206 F 
ATOM     89  C   UNL A   1      38.716  33.874  37.766  1.00  0.00     0.006 A 
ENDBRANCH  65  82
ENDBRANCH  39  40
ENDBRANCH  32  34
ENDBRANCH  31  32
ENDBRANCH  30  31
ENDBRANCH  29  30
ENDBRANCH  28  29
ENDBRANCH  27  28
ENDBRANCH  26  27
ENDBRANCH   1  26
TORSDOF 22
ENDMDL
MODEL 2
REMARK VINA RESULT:     -10.6      1.648      2.888
REMARK SMILES Cc1cccc(Nc2ccccc2C(=O)OCCOCCOCCOCCOC(=O)c2ccc(-c3c4nc(c(-c5c(F)cccc5F)c5ccc([nH]5)c(-c5c(F)cccc5F)c5nc(c(-c6c(F)cccc6F)c6ccc3[nH]6)C=C5)C=C4)cc2)c1C
REMARK SMILES IDX 22 1 21 2 20 3 19 4 18 5 17 6 16 7 14 8 15 9 13 10 8 11 9 12
REMARK SMILES IDX 10 13 12 14 11 15 7 16 6 18 1 19 2 20 3 21 85 22 4 23 86 24
REMARK SMILES IDX 5 25 23 26 24 27 25 28 26 29 27 30 28 31 29 32 30 33 31 34
REMARK SMILES IDX 32 35 84 36 33 37 83 38 34 39 35 40 36 41 77 42 37 43 82 44
REMARK SMILES IDX 76 45 78 46 38 47 81 48 75 49 74 50 39 52 65 53 48 54 64 55
REMARK SMILES IDX 49 56 52 57 63 58 79 59 50 60 51 61 62 63 80 64 53 65 40 66
REMARK SMILES IDX 41 67 46 68 42 69 43 70 45 71 47 72 44 73 66 74 67 75 72 76
REMARK SMILES IDX 68 77 69 78 71 79 73 80 70 81 54 82 55 83 60 84 56 85 57 86
REMARK SMILES IDX 59 87 61 88 58 89
REMARK H PARENT 7 17 78 51 52 62
REMARK Flexibility Score: inf
ROOT
ATOM      1  O   UNL A   1      39.898  21.294  26.540  1.00  0.00    -0.377 OA
ENDROOT
BRANCH   1   2
ATOM      2  C   UNL A   1      38.815  21.975  25.918  1.00  0.00     0.188 C 
BRANCH   2   3
ATOM      3  C   UNL A   1      37.814  21.221  25.009  1.00  0.00     0.188 C 
BRANCH   3   4
ATOM      4  O   UNL A   1      36.952  22.047  24.253  1.00  0.00    -0.376 OA
BRANCH   4   5
ATOM      5  C   UNL A   1      36.012  22.887  24.890  1.00  0.00     0.202 C 
BRANCH   5   6
ATOM      6  C   UNL A   1      35.235  23.957  24.117  1.00  0.00     0.261 C 
BRANCH   6   7
ATOM      7  O   UNL A   1      34.542  24.924  24.902  1.00  0.00    -0.460 OA
BRANCH   7   8
ATOM      8  C   UNL A   1      33.365  25.365  24.412  1.00  0.00     0.340 C 
ATOM      9  O   UNL A   1      32.687  24.797  23.568  1.00  0.00    -0.246 OA
BRANCH   8  10
ATOM     10  C   UNL A   1      32.891  26.541  25.190  1.00  0.00     0.083 A 
ATOM     11  C   UNL A   1      31.649  27.189  25.020  1.00  0.00     0.053 A 
ATOM     12  C   UNL A   1      31.402  28.333  25.808  1.00  0.00     0.027 A 
ATOM     13  C   UNL A   1      32.338  28.817  26.726  1.00  0.00     0.002 A 
ATOM     14  C   UNL A   1      33.831  27.038  26.118  1.00  0.00     0.018 A 
ATOM     15  C   UNL A   1      33.557  28.169  26.880  1.00  0.00     0.001 A 
BRANCH  11  16
ATOM     16  N   UNL A   1      30.573  26.757  24.211  1.00  0.00    -0.355 N 
ATOM     17  H   UNL A   1      30.551  25.784  24.058  1.00  0.00     0.167 HD
BRANCH  16  18
ATOM     18  C   UNL A   1      29.525  27.461  23.581  1.00  0.00     0.042 A 
ATOM     19  C   UNL A   1      28.841  30.887  22.068  1.00  0.00     0.044 C 
ATOM     20  C   UNL A   1      28.628  29.478  22.552  1.00  0.00    -0.046 A 
ATOM     21  C   UNL A   1      27.330  29.057  22.877  1.00  0.00     0.004 A 
ATOM     22  C   UNL A   1      29.726  28.622  22.803  1.00  0.00    -0.025 A 
ATOM     23  C   UNL A   1      27.117  27.830  23.493  1.00  0.00     0.002 A 
ATOM     24  C   UNL A   1      31.086  28.963  22.242  1.00  0.00     0.047 C 
ATOM     25  C   UNL A   1      28.209  27.058  23.877  1.00  0.00     0.026 A 
ENDBRANCH  16  18
ENDBRANCH  11  16
ENDBRANCH   8  10
ENDBRANCH   7   8
ENDBRANCH   6   7
ENDBRANCH   5   6
ENDBRANCH   4   5
ENDBRANCH   3   4
ENDBRANCH   2   3
ENDBRANCH   1   2
BRANCH   1  26
ATOM     26  C   UNL A   1      40.256  19.982  26.124  1.00  0.00     0.188 C 
BRANCH  26  27
ATOM     27  C   UNL A   1      41.672  19.418  26.389  1.00  0.00     0.188 C 
BRANCH  27  28
ATOM     28  O   UNL A   1      42.541  19.450  25.271  1.00  0.00    -0.376 OA
BRANCH  28  29
ATOM     29  C   UNL A   1      43.685  20.280  25.328  1.00  0.00     0.202 C 
BRANCH  29  30
ATOM     30  C   UNL A   1      43.571  21.618  26.074  1.00  0.00     0.261 C 
BRANCH  30  31
ATOM     31  O   UNL A   1      42.892  22.678  25.386  1.00  0.00    -0.460 OA
BRANCH  31  32
ATOM     32  C   UNL A   1      43.566  23.830  25.199  1.00  0.00     0.338 C 
ATOM     33  O   UNL A   1      44.414  24.067  24.352  1.00  0.00    -0.246 OA
BRANCH  32  34
ATOM     34  C   UNL A   1      42.963  24.839  26.089  1.00  0.00     0.060 A 
ATOM     35  C   UNL A   1      43.567  26.098  26.210  1.00  0.00     0.016 A 
ATOM     36  C   UNL A   1      41.792  24.542  26.789  1.00  0.00     0.016 A 
ATOM     37  C   UNL A   1      43.014  27.057  27.058  1.00  0.00     0.010 A 
ATOM     38  C   UNL A   1      41.255  25.493  27.658  1.00  0.00     0.010 A 
ATOM     39  C   UNL A   1      41.884  26.739  27.821  1.00  0.00    -0.014 A 
BRANCH  39  40
ATOM     40  C   UNL A   1      41.488  27.620  28.942  1.00  0.00     0.031 A 
ATOM     41  C   UNL A   1      42.232  27.492  30.241  1.00  0.00     0.074 A 
ATOM     42  C   UNL A   1      40.497  28.517  28.812  1.00  0.00     0.049 A 
ATOM     43  N   UNL A   1      42.031  28.101  31.380  1.00  0.00    -0.248 NA
ATOM     44  C   UNL A   1      43.353  26.538  30.253  1.00  0.00     0.031 C 
ATOM     45  C   UNL A   1      39.729  28.760  27.593  1.00  0.00     0.029 A 
ATOM     46  N   UNL A   1      39.958  29.381  29.732  1.00  0.00    -0.354 N 
ATOM     47  C   UNL A   1      42.988  27.592  32.249  1.00  0.00     0.074 A 
ATOM     48  C   UNL A   1      43.749  26.605  31.514  1.00  0.00     0.031 C 
ATOM     49  C   UNL A   1      38.799  29.697  27.846  1.00  0.00     0.029 A 
ATOM     50  C   UNL A   1      38.886  30.091  29.252  1.00  0.00     0.049 A 
ATOM     51  H   UNL A   1      40.307  29.481  30.647  1.00  0.00     0.167 HD
ATOM     52  C   UNL A   1      43.214  27.921  33.542  1.00  0.00     0.037 A 
ATOM     53  C   UNL A   1      38.052  30.938  29.887  1.00  0.00     0.037 A 
ATOM     54  C   UNL A   1      42.447  28.899  34.268  1.00  0.00     0.049 A 
ATOM     55  C   UNL A   1      38.276  31.242  31.346  1.00  0.00     0.074 A 
ATOM     56  C   UNL A   1      42.615  29.332  35.570  1.00  0.00     0.029 A 
ATOM     57  N   UNL A   1      41.353  29.582  33.756  1.00  0.00    -0.354 N 
ATOM     58  N   UNL A   1      39.206  30.788  32.153  1.00  0.00    -0.248 NA
ATOM     59  C   UNL A   1      37.340  32.179  31.980  1.00  0.00     0.031 C 
ATOM     60  C   UNL A   1      41.581  30.225  35.869  1.00  0.00     0.029 A 
ATOM     61  C   UNL A   1      40.811  30.403  34.730  1.00  0.00     0.049 A 
ATOM     62  H   UNL A   1      41.013  29.495  32.836  1.00  0.00     0.167 HD
ATOM     63  C   UNL A   1      38.981  31.400  33.381  1.00  0.00     0.074 A 
ATOM     64  C   UNL A   1      37.835  32.268  33.207  1.00  0.00     0.031 C 
ATOM     65  C   UNL A   1      39.663  31.259  34.545  1.00  0.00     0.037 A 
BRANCH  52  66
ATOM     66  C   UNL A   1      44.300  27.173  34.262  1.00  0.00     0.057 A 
ATOM     67  C   UNL A   1      45.624  27.633  34.307  1.00  0.00     0.134 A 
ATOM     68  C   UNL A   1      44.016  25.966  34.914  1.00  0.00     0.134 A 
ATOM     69  F   UNL A   1      45.970  28.773  33.690  1.00  0.00    -0.206 F 
ATOM     70  C   UNL A   1      46.630  26.902  34.942  1.00  0.00     0.040 A 
ATOM     71  C   UNL A   1      45.006  25.244  35.581  1.00  0.00     0.040 A 
ATOM     72  F   UNL A   1      42.770  25.468  34.912  1.00  0.00    -0.206 F 
ATOM     73  C   UNL A   1      46.320  25.705  35.585  1.00  0.00     0.006 A 
ENDBRANCH  52  66
BRANCH  53  74
ATOM     74  C   UNL A   1      36.916  31.541  29.146  1.00  0.00     0.057 A 
ATOM     75  C   UNL A   1      36.955  32.868  28.705  1.00  0.00     0.134 A 
ATOM     76  C   UNL A   1      35.767  30.796  28.850  1.00  0.00     0.134 A 
ATOM     77  F   UNL A   1      38.018  33.639  28.978  1.00  0.00    -0.206 F 
ATOM     78  C   UNL A   1      35.891  33.436  28.001  1.00  0.00     0.040 A 
ATOM     79  C   UNL A   1      34.707  31.343  28.124  1.00  0.00     0.040 A 
ATOM     80  F   UNL A   1      35.667  29.518  29.243  1.00  0.00    -0.206 F 
ATOM     81  C   UNL A   1      34.767  32.669  27.701  1.00  0.00     0.006 A 
ENDBRANCH  53  74
BRANCH  65  82
ATOM     82  C   UNL A   1      39.209  32.082  35.718  1.00  0.00     0.057 A 
ATOM     83  C   UNL A   1      38.312  31.587  36.673  1.00  0.00     0.134 A 
ATOM     84  C   UNL A   1      39.719  33.373  35.920  1.00  0.00     0.134 A 
ATOM     85  F   UNL A   1      37.778  30.364  36.535  1.00  0.00    -0.206 F 
ATOM     86  C   UNL A   1      37.917  32.355  37.771  1.00  0.00     0.040 A 
ATOM     87  C   UNL A   1      39.356  34.136  37.031  1.00  0.00     0.040 A 
ATOM     88  F   UNL A   1      40.592  33.905  35.053  1.00  0.00    -0.206 F 
ATOM     89  C   UNL A   1      38.447  33.630  37.956  1.00  0.00     0.006 A 
ENDBRANCH  65  82
ENDBRANCH  39  40
ENDBRANCH  32  34
ENDBRANCH  31  32
ENDBRANCH  30  31
ENDBRANCH  29  30
ENDBRANCH  28  29
ENDBRANCH  27  28
ENDBRANCH  26  27
ENDBRANCH   1  26
TORSDOF 22
ENDMDL
MODEL 3
REMARK VINA RESULT:     -10.5      1.359      3.444
REMARK SMILES Cc1cccc(Nc2ccccc2C(=O)OCCOCCOCCOCCOC(=O)c2ccc(-c3c4nc(c(-c5c(F)cccc5F)c5ccc([nH]5)c(-c5c(F)cccc5F)c5nc(c(-c6c(F)cccc6F)c6ccc3[nH]6)C=C5)C=C4)cc2)c1C
REMARK SMILES IDX 22 1 21 2 20 3 19 4 18 5 17 6 16 7 14 8 15 9 13 10 8 11 9 12
REMARK SMILES IDX 10 13 12 14 11 15 7 16 6 18 1 19 2 20 3 21 85 22 4 23 86 24
REMARK SMILES IDX 5 25 23 26 24 27 25 28 26 29 27 30 28 31 29 32 30 33 31 34
REMARK SMILES IDX 32 35 84 36 33 37 83 38 34 39 35 40 36 41 77 42 37 43 82 44
REMARK SMILES IDX 76 45 78 46 38 47 81 48 75 49 74 50 39 52 65 53 48 54 64 55
REMARK SMILES IDX 49 56 52 57 63 58 79 59 50 60 51 61 62 63 80 64 53 65 40 66
REMARK SMILES IDX 41 67 46 68 42 69 43 70 45 71 47 72 44 73 66 74 67 75 72 76
REMARK SMILES IDX 68 77 69 78 71 79 73 80 70 81 54 82 55 83 60 84 56 85 57 86
REMARK SMILES IDX 59 87 61 88 58 89
REMARK H PARENT 7 17 78 51 52 62
REMARK Flexibility Score: inf
ROOT
ATOM      1  O   UNL A   1      40.025  21.441  26.437  1.00  0.00    -0.377 OA
ENDROOT
BRANCH   1   2
ATOM      2  C   UNL A   1      38.888  22.089  25.880  1.00  0.00     0.188 C 
BRANCH   2   3
ATOM      3  C   UNL A   1      37.631  21.283  25.472  1.00  0.00     0.188 C 
BRANCH   3   4
ATOM      4  O   UNL A   1      36.780  21.930  24.546  1.00  0.00    -0.376 OA
BRANCH   4   5
ATOM      5  C   UNL A   1      36.000  23.042  24.935  1.00  0.00     0.202 C 
BRANCH   5   6
ATOM      6  C   UNL A   1      35.280  23.918  23.906  1.00  0.00     0.261 C 
BRANCH   6   7
ATOM      7  O   UNL A   1      34.118  23.355  23.302  1.00  0.00    -0.460 OA
BRANCH   7   8
ATOM      8  C   UNL A   1      33.012  24.127  23.289  1.00  0.00     0.340 C 
ATOM      9  O   UNL A   1      32.666  24.862  22.375  1.00  0.00    -0.246 OA
BRANCH   8  10
ATOM     10  C   UNL A   1      32.150  23.811  24.460  1.00  0.00     0.083 A 
ATOM     11  C   UNL A   1      32.005  22.537  25.050  1.00  0.00     0.053 A 
ATOM     12  C   UNL A   1      31.089  22.418  26.117  1.00  0.00     0.027 A 
ATOM     13  C   UNL A   1      30.350  23.508  26.585  1.00  0.00     0.002 A 
ATOM     14  C   UNL A   1      31.399  24.906  24.938  1.00  0.00     0.018 A 
ATOM     15  C   UNL A   1      30.504  24.755  25.993  1.00  0.00     0.001 A 
BRANCH  11  16
ATOM     16  N   UNL A   1      32.754  21.375  24.752  1.00  0.00    -0.355 N 
ATOM     17  H   UNL A   1      33.633  21.339  25.197  1.00  0.00     0.167 HD
BRANCH  16  18
ATOM     18  C   UNL A   1      32.479  20.259  23.935  1.00  0.00     0.042 A 
ATOM     19  C   UNL A   1      33.385  16.570  23.675  1.00  0.00     0.044 C 
ATOM     20  C   UNL A   1      32.787  17.914  23.355  1.00  0.00    -0.046 A 
ATOM     21  C   UNL A   1      32.428  18.202  22.030  1.00  0.00     0.004 A 
ATOM     22  C   UNL A   1      32.702  18.925  24.341  1.00  0.00    -0.025 A 
ATOM     23  C   UNL A   1      32.041  19.486  21.665  1.00  0.00     0.002 A 
ATOM     24  C   UNL A   1      32.854  18.565  25.799  1.00  0.00     0.047 C 
ATOM     25  C   UNL A   1      32.106  20.513  22.602  1.00  0.00     0.026 A 
ENDBRANCH  16  18
ENDBRANCH  11  16
ENDBRANCH   8  10
ENDBRANCH   7   8
ENDBRANCH   6   7
ENDBRANCH   5   6
ENDBRANCH   4   5
ENDBRANCH   3   4
ENDBRANCH   2   3
ENDBRANCH   1   2
BRANCH   1  26
ATOM     26  C   UNL A   1      40.311  20.086  26.115  1.00  0.00     0.188 C 
BRANCH  26  27
ATOM     27  C   UNL A   1      41.715  19.485  26.357  1.00  0.00     0.188 C 
BRANCH  27  28
ATOM     28  O   UNL A   1      42.555  19.461  25.218  1.00  0.00    -0.376 OA
BRANCH  28  29
ATOM     29  C   UNL A   1      43.757  20.205  25.249  1.00  0.00     0.202 C 
BRANCH  29  30
ATOM     30  C   UNL A   1      43.750  21.563  25.966  1.00  0.00     0.261 C 
BRANCH  30  31
ATOM     31  O   UNL A   1      43.047  22.628  25.311  1.00  0.00    -0.460 OA
BRANCH  31  32
ATOM     32  C   UNL A   1      43.708  23.790  25.130  1.00  0.00     0.338 C 
ATOM     33  O   UNL A   1      44.555  24.039  24.287  1.00  0.00    -0.246 OA
BRANCH  32  34
ATOM     34  C   UNL A   1      43.090  24.788  26.022  1.00  0.00     0.060 A 
ATOM     35  C   UNL A   1      43.621  26.084  26.076  1.00  0.00     0.016 A 
ATOM     36  C   UNL A   1      41.975  24.444  26.789  1.00  0.00     0.016 A 
ATOM     37  C   UNL A   1      43.054  27.034  26.924  1.00  0.00     0.010 A 
ATOM     38  C   UNL A   1      41.425  25.388  27.658  1.00  0.00     0.010 A 
ATOM     39  C   UNL A   1      41.985  26.674  27.753  1.00  0.00    -0.014 A 
BRANCH  39  40
ATOM     40  C   UNL A   1      41.593  27.564  28.867  1.00  0.00     0.031 A 
ATOM     41  C   UNL A   1      42.359  27.467  30.156  1.00  0.00     0.074 A 
ATOM     42  C   UNL A   1      40.585  28.443  28.741  1.00  0.00     0.049 A 
ATOM     43  N   UNL A   1      42.167  28.089  31.290  1.00  0.00    -0.248 NA
ATOM     44  C   UNL A   1      43.496  26.532  30.164  1.00  0.00     0.031 C 
ATOM     45  C   UNL A   1      39.794  28.656  27.532  1.00  0.00     0.029 A 
ATOM     46  N   UNL A   1      40.047  29.311  29.657  1.00  0.00    -0.354 N 
ATOM     47  C   UNL A   1      43.146  27.607  32.149  1.00  0.00     0.074 A 
ATOM     48  C   UNL A   1      43.911  26.622  31.416  1.00  0.00     0.031 C 
ATOM     49  C   UNL A   1      38.853  29.582  27.787  1.00  0.00     0.029 A 
ATOM     50  C   UNL A   1      38.956  29.997  29.186  1.00  0.00     0.049 A 
ATOM     51  H   UNL A   1      40.409  29.430  30.565  1.00  0.00     0.167 HD
ATOM     52  C   UNL A   1      43.387  27.958  33.435  1.00  0.00     0.037 A 
ATOM     53  C   UNL A   1      38.119  30.840  29.822  1.00  0.00     0.037 A 
ATOM     54  C   UNL A   1      42.616  28.934  34.159  1.00  0.00     0.049 A 
ATOM     55  C   UNL A   1      38.361  31.168  31.272  1.00  0.00     0.074 A 
ATOM     56  C   UNL A   1      42.798  29.389  35.452  1.00  0.00     0.029 A 
ATOM     57  N   UNL A   1      41.503  29.593  33.656  1.00  0.00    -0.354 N 
ATOM     58  N   UNL A   1      39.311  30.740  32.071  1.00  0.00    -0.248 NA
ATOM     59  C   UNL A   1      37.420  32.099  31.909  1.00  0.00     0.031 C 
ATOM     60  C   UNL A   1      41.754  30.269  35.755  1.00  0.00     0.029 A 
ATOM     61  C   UNL A   1      40.963  30.418  34.626  1.00  0.00     0.049 A 
ATOM     62  H   UNL A   1      41.150  29.487  32.743  1.00  0.00     0.167 HD
ATOM     63  C   UNL A   1      39.096  31.366  33.294  1.00  0.00     0.074 A 
ATOM     64  C   UNL A   1      37.933  32.214  33.125  1.00  0.00     0.031 C 
ATOM     65  C   UNL A   1      39.799  31.253  34.448  1.00  0.00     0.037 A 
BRANCH  52  66
ATOM     66  C   UNL A   1      44.497  27.239  34.147  1.00  0.00     0.057 A 
ATOM     67  C   UNL A   1      44.293  26.031  34.829  1.00  0.00     0.134 A 
ATOM     68  C   UNL A   1      45.793  27.772  34.155  1.00  0.00     0.134 A 
ATOM     69  F   UNL A   1      43.073  25.474  34.877  1.00  0.00    -0.206 F 
ATOM     70  C   UNL A   1      45.327  25.401  35.524  1.00  0.00     0.040 A 
ATOM     71  C   UNL A   1      46.842  27.132  34.817  1.00  0.00     0.040 A 
ATOM     72  F   UNL A   1      46.061  28.922  33.521  1.00  0.00    -0.206 F 
ATOM     73  C   UNL A   1      46.607  25.950  35.514  1.00  0.00     0.006 A 
ENDBRANCH  52  66
BRANCH  53  74
ATOM     74  C   UNL A   1      36.962  31.414  29.091  1.00  0.00     0.057 A 
ATOM     75  C   UNL A   1      35.825  30.649  28.811  1.00  0.00     0.134 A 
ATOM     76  C   UNL A   1      36.961  32.750  28.668  1.00  0.00     0.134 A 
ATOM     77  F   UNL A   1      35.774  29.358  29.168  1.00  0.00    -0.206 F 
ATOM     78  C   UNL A   1      34.731  31.188  28.130  1.00  0.00     0.040 A 
ATOM     79  C   UNL A   1      35.864  33.309  28.011  1.00  0.00     0.040 A 
ATOM     80  F   UNL A   1      38.020  33.537  28.907  1.00  0.00    -0.206 F 
ATOM     81  C   UNL A   1      34.745  32.525  27.737  1.00  0.00     0.006 A 
ENDBRANCH  53  74
BRANCH  65  82
ATOM     82  C   UNL A   1      39.351  32.086  35.616  1.00  0.00     0.057 A 
ATOM     83  C   UNL A   1      39.799  33.398  35.811  1.00  0.00     0.134 A 
ATOM     84  C   UNL A   1      38.416  31.581  36.532  1.00  0.00     0.134 A 
ATOM     85  F   UNL A   1      40.702  33.939  34.979  1.00  0.00    -0.206 F 
ATOM     86  C   UNL A   1      39.357  34.169  36.889  1.00  0.00     0.040 A 
ATOM     87  C   UNL A   1      37.942  32.354  37.594  1.00  0.00     0.040 A 
ATOM     88  F   UNL A   1      37.934  30.337  36.399  1.00  0.00    -0.206 F 
ATOM     89  C   UNL A   1      38.418  33.649  37.778  1.00  0.00     0.006 A 
ENDBRANCH  65  82
ENDBRANCH  39  40
ENDBRANCH  32  34
ENDBRANCH  31  32
ENDBRANCH  30  31
ENDBRANCH  29  30
ENDBRANCH  28  29
ENDBRANCH  27  28
ENDBRANCH  26  27
ENDBRANCH   1  26
TORSDOF 22
ENDMDL
