MODEL 1
REMARK VINA RESULT:     -10.7      0.000      0.000
REMARK SMILES NS(=O)(=O)c1ccc(C#Cc2cc(Cl)cc3c2O[C@H](C(F)(F)F)C(C(=O)OCCOCCOCCOCCOC(=O)c2ccc(-c4c5nc(c(-c6c(F)cccc6F)c6ccc([nH]6)c(-c6c(F)cccc6F)c6nc(c(-c7c(F)cccc7F)c7ccc4[nH]7)C=C6)C=C5)cc2)=C3)cc1
REMARK SMILES IDX 32 1 31 2 30 3 29 4 28 5 27 6 25 7 26 8 24 9 11 10 12 11
REMARK SMILES IDX 17 12 13 13 16 14 18 15 14 16 15 17 96 18 19 19 10 20 9 21
REMARK SMILES IDX 8 22 5 23 6 24 98 25 7 26 97 27 2 28 3 29 4 30 1 31 20 34
REMARK SMILES IDX 21 35 22 36 23 37 33 38 34 39 35 40 36 41 37 42 38 43 39 44
REMARK SMILES IDX 40 45 41 46 42 47 43 48 95 49 44 50 94 51 45 52 46 53 47 54
REMARK SMILES IDX 88 55 48 56 93 57 87 58 89 59 49 60 92 61 86 62 85 63 50 65
REMARK SMILES IDX 76 66 59 67 75 68 60 69 63 70 74 71 90 72 61 73 62 74 73 76
REMARK SMILES IDX 91 77 64 78 51 79 52 80 57 81 53 82 54 83 56 84 58 85 55 86
REMARK SMILES IDX 77 87 78 88 83 89 79 90 80 91 82 92 84 93 81 94 65 95 66 96
REMARK SMILES IDX 71 97 67 98 68 99 70 100 72 101 69 102
REMARK H PARENT 1 32 1 33 89 64 63 75
REMARK Flexibility Score: inf
ROOT
ATOM      1  C   UNL A   1      33.649  19.897  25.330  1.00  0.00     0.188 C 
ENDROOT
BRANCH   1   2
ATOM      2  C   UNL A   1      32.492  19.405  24.436  1.00  0.00     0.188 C 
BRANCH   2   3
ATOM      3  O   UNL A   1      32.592  19.732  23.066  1.00  0.00    -0.376 OA
BRANCH   3   4
ATOM      4  C   UNL A   1      32.010  20.889  22.495  1.00  0.00     0.202 C 
BRANCH   4   5
ATOM      5  C   UNL A   1      32.283  22.347  22.905  1.00  0.00     0.261 C 
BRANCH   5   6
ATOM      6  O   UNL A   1      31.165  23.169  23.221  1.00  0.00    -0.460 OA
BRANCH   6   7
ATOM      7  C   UNL A   1      30.955  23.418  24.527  1.00  0.00     0.338 C 
ATOM      8  O   UNL A   1      30.924  22.602  25.432  1.00  0.00    -0.246 OA
BRANCH   7   9
ATOM      9  C   UNL A   1      30.940  24.882  24.718  1.00  0.00     0.087 C 
ATOM     10  C   UNL A   1      31.193  29.039  24.898  1.00  0.00     0.069 A 
ATOM     11  C   UNL A   1      30.476  29.810  23.979  1.00  0.00     0.041 A 
ATOM     12  C   UNL A   1      31.030  27.646  24.929  1.00  0.00     0.143 A 
ATOM     13  C   UNL A   1      29.586  29.193  23.105  1.00  0.00     0.043 A 
ATOM     14  C   UNL A   1      30.182  27.032  24.001  1.00  0.00     0.020 A 
ATOM     15  O   UNL A   1      31.730  26.945  25.871  1.00  0.00    -0.474 OA
ATOM     16  Cl  UNL A   1      28.707  30.140  21.969  1.00  0.00    -0.084 Cl
ATOM     17  C   UNL A   1      29.432  27.809  23.112  1.00  0.00     0.032 A 
ATOM     18  C   UNL A   1      30.156  25.585  23.892  1.00  0.00     0.027 C 
ATOM     19  C   UNL A   1      31.754  25.494  25.826  1.00  0.00     0.316 C 
BRANCH  10  20
ATOM     20  C   UNL A   1      32.133  29.697  25.761  1.00  0.00    -0.058 C 
ATOM     21  C   UNL A   1      32.913  30.242  26.488  1.00  0.00    -0.062 C 
BRANCH  21  22
ATOM     22  C   UNL A   1      33.882  30.843  27.352  1.00  0.00     0.025 A 
ATOM     23  C   UNL A   1      35.871  32.087  28.856  1.00  0.00     0.082 A 
ATOM     24  C   UNL A   1      36.006  30.738  28.516  1.00  0.00     0.023 A 
ATOM     25  C   UNL A   1      34.726  32.803  28.491  1.00  0.00     0.023 A 
ATOM     26  C   UNL A   1      35.005  30.117  27.762  1.00  0.00     0.018 A 
ATOM     27  C   UNL A   1      33.732  32.178  27.735  1.00  0.00     0.018 A 
BRANCH  23  28
ATOM     28  S   UNL A   1      37.140  32.945  29.736  1.00  0.00     0.238 S 
ATOM     29  O   UNL A   1      38.423  32.494  29.253  1.00  0.00    -0.207 OA
ATOM     30  O   UNL A   1      36.788  32.955  31.137  1.00  0.00    -0.207 OA
BRANCH  28  31
ATOM     31  N   UNL A   1      37.016  34.542  29.224  1.00  0.00    -0.225 NA
ATOM     32  H   UNL A   1      36.575  35.100  29.955  1.00  0.00     0.137 HD
ATOM     33  H   UNL A   1      36.452  34.584  28.375  1.00  0.00     0.137 HD
ENDBRANCH  28  31
ENDBRANCH  23  28
ENDBRANCH  21  22
ENDBRANCH  10  20
BRANCH  19  34
ATOM     34  C   UNL A   1      33.221  25.049  25.778  1.00  0.00     0.430 C 
ATOM     35  F   UNL A   1      33.649  24.890  24.503  1.00  0.00    -0.167 F 
ATOM     36  F   UNL A   1      34.047  25.953  26.353  1.00  0.00    -0.167 F 
ATOM     37  F   UNL A   1      33.405  23.870  26.417  1.00  0.00    -0.167 F 
ENDBRANCH  19  34
ENDBRANCH   7   9
ENDBRANCH   6   7
ENDBRANCH   5   6
ENDBRANCH   4   5
ENDBRANCH   3   4
ENDBRANCH   2   3
ENDBRANCH   1   2
BRANCH   1  38
ATOM     38  O   UNL A   1      34.890  20.067  24.668  1.00  0.00    -0.377 OA
BRANCH  38  39
ATOM     39  C   UNL A   1      35.727  21.162  25.040  1.00  0.00     0.188 C 
BRANCH  39  40
ATOM     40  C   UNL A   1      37.273  21.127  24.918  1.00  0.00     0.188 C 
BRANCH  40  41
ATOM     41  O   UNL A   1      37.951  22.101  25.686  1.00  0.00    -0.376 OA
BRANCH  41  42
ATOM     42  C   UNL A   1      39.288  21.910  26.096  1.00  0.00     0.202 C 
BRANCH  42  43
ATOM     43  C   UNL A   1      40.005  23.000  26.903  1.00  0.00     0.261 C 
BRANCH  43  44
ATOM     44  O   UNL A   1      41.206  23.536  26.340  1.00  0.00    -0.460 OA
BRANCH  44  45
ATOM     45  C   UNL A   1      42.373  23.243  26.955  1.00  0.00     0.338 C 
ATOM     46  O   UNL A   1      42.735  22.160  27.373  1.00  0.00    -0.246 OA
BRANCH  45  47
ATOM     47  C   UNL A   1      43.222  24.452  26.845  1.00  0.00     0.060 A 
ATOM     48  C   UNL A   1      43.765  25.026  27.997  1.00  0.00     0.016 A 
ATOM     49  C   UNL A   1      43.413  25.055  25.594  1.00  0.00     0.016 A 
ATOM     50  C   UNL A   1      44.525  26.192  27.890  1.00  0.00     0.010 A 
ATOM     51  C   UNL A   1      44.168  26.229  25.492  1.00  0.00     0.010 A 
ATOM     52  C   UNL A   1      44.751  26.789  26.637  1.00  0.00    -0.014 A 
BRANCH  52  53
ATOM     53  C   UNL A   1      45.749  27.882  26.524  1.00  0.00     0.031 A 
ATOM     54  C   UNL A   1      45.376  29.330  26.629  1.00  0.00     0.074 A 
ATOM     55  C   UNL A   1      47.035  27.532  26.329  1.00  0.00     0.049 A 
ATOM     56  N   UNL A   1      46.160  30.378  26.653  1.00  0.00    -0.248 NA
ATOM     57  C   UNL A   1      43.944  29.644  26.708  1.00  0.00     0.031 C 
ATOM     58  C   UNL A   1      47.512  26.156  26.175  1.00  0.00     0.029 A 
ATOM     59  N   UNL A   1      48.172  28.292  26.247  1.00  0.00    -0.354 N 
ATOM     60  C   UNL A   1      45.323  31.480  26.778  1.00  0.00     0.074 A 
ATOM     61  C   UNL A   1      43.966  30.969  26.766  1.00  0.00     0.031 C 
ATOM     62  C   UNL A   1      48.848  26.167  26.059  1.00  0.00     0.029 A 
ATOM     63  C   UNL A   1      49.315  27.548  26.092  1.00  0.00     0.049 A 
ATOM     64  H   UNL A   1      48.169  29.275  26.294  1.00  0.00     0.167 HD
ATOM     65  C   UNL A   1      45.660  32.788  26.909  1.00  0.00     0.037 A 
ATOM     66  C   UNL A   1      50.600  27.934  25.986  1.00  0.00     0.037 A 
ATOM     67  C   UNL A   1      47.013  33.291  26.880  1.00  0.00     0.049 A 
ATOM     68  C   UNL A   1      50.933  29.398  26.062  1.00  0.00     0.074 A 
ATOM     69  C   UNL A   1      47.455  34.596  27.031  1.00  0.00     0.029 A 
ATOM     70  N   UNL A   1      48.144  32.517  26.662  1.00  0.00    -0.354 N 
ATOM     71  N   UNL A   1      50.139  30.421  26.266  1.00  0.00    -0.248 NA
ATOM     72  C   UNL A   1      52.347  29.758  25.896  1.00  0.00     0.031 C 
ATOM     73  C   UNL A   1      48.839  34.620  26.834  1.00  0.00     0.029 A 
ATOM     74  C   UNL A   1      49.276  33.320  26.636  1.00  0.00     0.049 A 
ATOM     75  H   UNL A   1      48.145  31.539  26.544  1.00  0.00     0.167 HD
ATOM     76  C   UNL A   1      50.961  31.541  26.283  1.00  0.00     0.074 A 
ATOM     77  C   UNL A   1      52.316  31.066  26.095  1.00  0.00     0.031 C 
ATOM     78  C   UNL A   1      50.623  32.845  26.439  1.00  0.00     0.037 A 
BRANCH  65  79
ATOM     79  C   UNL A   1      44.538  33.777  27.080  1.00  0.00     0.057 A 
ATOM     80  C   UNL A   1      44.035  34.084  28.352  1.00  0.00     0.134 A 
ATOM     81  C   UNL A   1      43.928  34.398  25.981  1.00  0.00     0.134 A 
ATOM     82  F   UNL A   1      44.556  33.513  29.447  1.00  0.00    -0.206 F 
ATOM     83  C   UNL A   1      42.975  34.977  28.523  1.00  0.00     0.040 A 
ATOM     84  C   UNL A   1      42.890  35.318  26.143  1.00  0.00     0.040 A 
ATOM     85  F   UNL A   1      44.357  34.149  24.735  1.00  0.00    -0.206 F 
ATOM     86  C   UNL A   1      42.408  35.606  27.418  1.00  0.00     0.006 A 
ENDBRANCH  65  79
BRANCH  66  87
ATOM     87  C   UNL A   1      51.672  26.924  25.804  1.00  0.00     0.057 A 
ATOM     88  C   UNL A   1      52.085  26.522  24.528  1.00  0.00     0.134 A 
ATOM     89  C   UNL A   1      52.340  26.368  26.902  1.00  0.00     0.134 A 
ATOM     90  F   UNL A   1      51.478  27.007  23.435  1.00  0.00    -0.206 F 
ATOM     91  C   UNL A   1      53.125  25.611  24.349  1.00  0.00     0.040 A 
ATOM     92  C   UNL A   1      53.405  25.483  26.737  1.00  0.00     0.040 A 
ATOM     93  F   UNL A   1      52.000  26.723  28.150  1.00  0.00    -0.206 F 
ATOM     94  C   UNL A   1      53.800  25.100  25.456  1.00  0.00     0.006 A 
ENDBRANCH  66  87
BRANCH  78  95
ATOM     95  C   UNL A   1      51.747  33.844  26.446  1.00  0.00     0.057 A 
ATOM     96  C   UNL A   1      52.177  34.442  25.253  1.00  0.00     0.134 A 
ATOM     97  C   UNL A   1      52.402  34.225  27.625  1.00  0.00     0.134 A 
ATOM     98  F   UNL A   1      51.604  34.121  24.084  1.00  0.00    -0.206 F 
ATOM     99  C   UNL A   1      53.211  35.380  25.235  1.00  0.00     0.040 A 
ATOM    100  C   UNL A   1      53.412  35.189  27.624  1.00  0.00     0.040 A 
ATOM    101  F   UNL A   1      52.033  33.704  28.806  1.00  0.00    -0.206 F 
ATOM    102  C   UNL A   1      53.822  35.766  26.425  1.00  0.00     0.006 A 
ENDBRANCH  78  95
ENDBRANCH  52  53
ENDBRANCH  45  47
ENDBRANCH  44  45
ENDBRANCH  43  44
ENDBRANCH  42  43
ENDBRANCH  41  42
ENDBRANCH  40  41
ENDBRANCH  39  40
ENDBRANCH  38  39
ENDBRANCH   1  38
TORSDOF 25
ENDMDL
MODEL 2
REMARK VINA RESULT:     -10.5      0.458      5.638
REMARK SMILES NS(=O)(=O)c1ccc(C#Cc2cc(Cl)cc3c2O[C@H](C(F)(F)F)C(C(=O)OCCOCCOCCOCCOC(=O)c2ccc(-c4c5nc(c(-c6c(F)cccc6F)c6ccc([nH]6)c(-c6c(F)cccc6F)c6nc(c(-c7c(F)cccc7F)c7ccc4[nH]7)C=C6)C=C5)cc2)=C3)cc1
REMARK SMILES IDX 32 1 31 2 30 3 29 4 28 5 27 6 25 7 26 8 24 9 11 10 12 11
REMARK SMILES IDX 17 12 13 13 16 14 18 15 14 16 15 17 96 18 19 19 10 20 9 21
REMARK SMILES IDX 8 22 5 23 6 24 98 25 7 26 97 27 2 28 3 29 4 30 1 31 20 34
REMARK SMILES IDX 21 35 22 36 23 37 33 38 34 39 35 40 36 41 37 42 38 43 39 44
REMARK SMILES IDX 40 45 41 46 42 47 43 48 95 49 44 50 94 51 45 52 46 53 47 54
REMARK SMILES IDX 88 55 48 56 93 57 87 58 89 59 49 60 92 61 86 62 85 63 50 65
REMARK SMILES IDX 76 66 59 67 75 68 60 69 63 70 74 71 90 72 61 73 62 74 73 76
REMARK SMILES IDX 91 77 64 78 51 79 52 80 57 81 53 82 54 83 56 84 58 85 55 86
REMARK SMILES IDX 77 87 78 88 83 89 79 90 80 91 82 92 84 93 81 94 65 95 66 96
REMARK SMILES IDX 71 97 67 98 68 99 70 100 72 101 69 102
REMARK H PARENT 1 32 1 33 89 64 63 75
REMARK Flexibility Score: inf
ROOT
ATOM      1  C   UNL A   1      34.438  19.052  24.903  1.00  0.00     0.188 C 
ENDROOT
BRANCH   1   2
ATOM      2  C   UNL A   1      33.153  19.895  24.765  1.00  0.00     0.188 C 
BRANCH   2   3
ATOM      3  O   UNL A   1      32.435  19.726  23.560  1.00  0.00    -0.376 OA
BRANCH   3   4
ATOM      4  C   UNL A   1      32.133  20.789  22.676  1.00  0.00     0.202 C 
BRANCH   4   5
ATOM      5  C   UNL A   1      32.356  22.289  22.940  1.00  0.00     0.261 C 
BRANCH   5   6
ATOM      6  O   UNL A   1      31.226  23.076  23.299  1.00  0.00    -0.460 OA
BRANCH   6   7
ATOM      7  C   UNL A   1      31.064  23.326  24.612  1.00  0.00     0.338 C 
ATOM      8  O   UNL A   1      31.070  22.512  25.518  1.00  0.00    -0.246 OA
BRANCH   7   9
ATOM      9  C   UNL A   1      31.048  24.791  24.800  1.00  0.00     0.087 C 
ATOM     10  C   UNL A   1      31.289  28.949  24.966  1.00  0.00     0.069 A 
ATOM     11  C   UNL A   1      30.540  29.715  24.068  1.00  0.00     0.041 A 
ATOM     12  C   UNL A   1      31.133  27.555  25.003  1.00  0.00     0.143 A 
ATOM     13  C   UNL A   1      29.627  29.093  23.222  1.00  0.00     0.043 A 
ATOM     14  C   UNL A   1      30.259  26.936  24.104  1.00  0.00     0.020 A 
ATOM     15  O   UNL A   1      31.864  26.859  25.925  1.00  0.00    -0.474 OA
ATOM     16  Cl  UNL A   1      28.710  30.034  22.113  1.00  0.00    -0.084 Cl
ATOM     17  C   UNL A   1      29.480  27.708  23.236  1.00  0.00     0.032 A 
ATOM     18  C   UNL A   1      30.236  25.489  23.997  1.00  0.00     0.027 C 
ATOM     19  C   UNL A   1      31.894  25.407  25.881  1.00  0.00     0.316 C 
BRANCH  10  20
ATOM     20  C   UNL A   1      32.252  29.612  25.798  1.00  0.00    -0.058 C 
ATOM     21  C   UNL A   1      33.060  30.157  26.494  1.00  0.00    -0.062 C 
BRANCH  21  22
ATOM     22  C   UNL A   1      34.057  30.827  27.272  1.00  0.00     0.025 A 
ATOM     23  C   UNL A   1      35.918  32.029  28.962  1.00  0.00     0.082 A 
ATOM     24  C   UNL A   1      34.723  32.692  28.670  1.00  0.00     0.023 A 
ATOM     25  C   UNL A   1      36.208  30.792  28.376  1.00  0.00     0.023 A 
ATOM     26  C   UNL A   1      33.792  32.086  27.820  1.00  0.00     0.018 A 
ATOM     27  C   UNL A   1      35.273  30.191  27.532  1.00  0.00     0.018 A 
BRANCH  23  28
ATOM     28  S   UNL A   1      37.094  32.708  30.092  1.00  0.00     0.238 S 
ATOM     29  O   UNL A   1      38.381  32.108  29.833  1.00  0.00    -0.207 OA
ATOM     30  O   UNL A   1      36.492  32.738  31.404  1.00  0.00    -0.207 OA
BRANCH  28  31
ATOM     31  N   UNL A   1      37.259  34.316  29.629  1.00  0.00    -0.225 NA
ATOM     32  H   UNL A   1      37.481  34.361  28.635  1.00  0.00     0.137 HD
ATOM     33  H   UNL A   1      38.010  34.749  30.166  1.00  0.00     0.137 HD
ENDBRANCH  28  31
ENDBRANCH  23  28
ENDBRANCH  21  22
ENDBRANCH  10  20
BRANCH  19  34
ATOM     34  C   UNL A   1      33.360  24.968  25.789  1.00  0.00     0.430 C 
ATOM     35  F   UNL A   1      33.670  24.535  24.544  1.00  0.00    -0.167 F 
ATOM     36  F   UNL A   1      34.213  25.980  26.070  1.00  0.00    -0.167 F 
ATOM     37  F   UNL A   1      33.633  23.960  26.650  1.00  0.00    -0.167 F 
ENDBRANCH  19  34
ENDBRANCH   7   9
ENDBRANCH   6   7
ENDBRANCH   5   6
ENDBRANCH   4   5
ENDBRANCH   3   4
ENDBRANCH   2   3
ENDBRANCH   1   2
BRANCH   1  38
ATOM     38  O   UNL A   1      35.644  19.742  24.626  1.00  0.00    -0.377 OA
BRANCH  38  39
ATOM     39  C   UNL A   1      35.779  21.096  25.059  1.00  0.00     0.188 C 
BRANCH  39  40
ATOM     40  C   UNL A   1      37.026  21.965  24.747  1.00  0.00     0.188 C 
BRANCH  40  41
ATOM     41  O   UNL A   1      38.154  21.693  25.554  1.00  0.00    -0.376 OA
BRANCH  41  42
ATOM     42  C   UNL A   1      38.696  22.676  26.410  1.00  0.00     0.202 C 
BRANCH  42  43
ATOM     43  C   UNL A   1      40.138  22.540  26.915  1.00  0.00     0.261 C 
BRANCH  43  44
ATOM     44  O   UNL A   1      41.089  23.485  26.414  1.00  0.00    -0.460 OA
BRANCH  44  45
ATOM     45  C   UNL A   1      42.349  23.050  26.191  1.00  0.00     0.338 C 
ATOM     46  O   UNL A   1      42.694  21.939  25.836  1.00  0.00    -0.246 OA
BRANCH  45  47
ATOM     47  C   UNL A   1      43.226  24.241  26.267  1.00  0.00     0.060 A 
ATOM     48  C   UNL A   1      43.587  24.759  27.513  1.00  0.00     0.016 A 
ATOM     49  C   UNL A   1      43.626  24.885  25.088  1.00  0.00     0.016 A 
ATOM     50  C   UNL A   1      44.374  25.910  27.576  1.00  0.00     0.010 A 
ATOM     51  C   UNL A   1      44.407  26.044  25.155  1.00  0.00     0.010 A 
ATOM     52  C   UNL A   1      44.809  26.548  26.400  1.00  0.00    -0.014 A 
BRANCH  52  53
ATOM     53  C   UNL A   1      45.831  27.620  26.491  1.00  0.00     0.031 A 
ATOM     54  C   UNL A   1      47.302  27.342  26.428  1.00  0.00     0.074 A 
ATOM     55  C   UNL A   1      45.392  28.887  26.625  1.00  0.00     0.049 A 
ATOM     56  N   UNL A   1      48.296  28.193  26.390  1.00  0.00    -0.248 NA
ATOM     57  C   UNL A   1      47.711  25.932  26.416  1.00  0.00     0.031 C 
ATOM     58  C   UNL A   1      43.984  29.276  26.733  1.00  0.00     0.029 A 
ATOM     59  N   UNL A   1      46.073  30.074  26.672  1.00  0.00    -0.354 N 
ATOM     60  C   UNL A   1      49.453  27.427  26.321  1.00  0.00     0.074 A 
ATOM     61  C   UNL A   1      49.033  26.040  26.382  1.00  0.00     0.031 C 
ATOM     62  C   UNL A   1      43.904  30.614  26.792  1.00  0.00     0.029 A 
ATOM     63  C   UNL A   1      45.251  31.171  26.765  1.00  0.00     0.049 A 
ATOM     64  H   UNL A   1      47.055  30.136  26.644  1.00  0.00     0.167 HD
ATOM     65  C   UNL A   1      50.738  27.845  26.200  1.00  0.00     0.037 A 
ATOM     66  C   UNL A   1      45.549  32.482  26.823  1.00  0.00     0.037 A 
ATOM     67  C   UNL A   1      51.149  29.230  26.180  1.00  0.00     0.049 A 
ATOM     68  C   UNL A   1      46.989  32.909  26.760  1.00  0.00     0.074 A 
ATOM     69  C   UNL A   1      52.425  29.751  26.035  1.00  0.00     0.029 A 
ATOM     70  N   UNL A   1      50.298  30.314  26.336  1.00  0.00    -0.354 N 
ATOM     71  N   UNL A   1      48.066  32.178  26.609  1.00  0.00    -0.248 NA
ATOM     72  C   UNL A   1      47.250  34.350  26.872  1.00  0.00     0.031 C 
ATOM     73  C   UNL A   1      52.353  31.141  26.173  1.00  0.00     0.029 A 
ATOM     74  C   UNL A   1      51.023  31.497  26.328  1.00  0.00     0.049 A 
ATOM     75  H   UNL A   1      49.320  30.254  26.436  1.00  0.00     0.167 HD
ATOM     76  C   UNL A   1      49.129  33.072  26.577  1.00  0.00     0.074 A 
ATOM     77  C   UNL A   1      48.562  34.399  26.698  1.00  0.00     0.031 C 
ATOM     78  C   UNL A   1      50.456  32.816  26.459  1.00  0.00     0.037 A 
BRANCH  65  79
ATOM     79  C   UNL A   1      51.803  26.786  26.095  1.00  0.00     0.057 A 
ATOM     80  C   UNL A   1      52.500  26.348  27.229  1.00  0.00     0.134 A 
ATOM     81  C   UNL A   1      52.166  26.225  24.862  1.00  0.00     0.134 A 
ATOM     82  F   UNL A   1      52.219  26.855  28.439  1.00  0.00    -0.206 F 
ATOM     83  C   UNL A   1      53.510  25.389  27.143  1.00  0.00     0.040 A 
ATOM     84  C   UNL A   1      53.151  25.241  24.768  1.00  0.00     0.040 A 
ATOM     85  F   UNL A   1      51.543  26.599  23.735  1.00  0.00    -0.206 F 
ATOM     86  C   UNL A   1      53.829  24.822  25.911  1.00  0.00     0.006 A 
ENDBRANCH  65  79
BRANCH  66  87
ATOM     87  C   UNL A   1      44.466  33.491  26.940  1.00  0.00     0.057 A 
ATOM     88  C   UNL A   1      43.998  33.913  28.191  1.00  0.00     0.134 A 
ATOM     89  C   UNL A   1      43.904  34.088  25.806  1.00  0.00     0.134 A 
ATOM     90  F   UNL A   1      44.486  33.371  29.317  1.00  0.00    -0.206 F 
ATOM     91  C   UNL A   1      43.016  34.896  28.309  1.00  0.00     0.040 A 
ATOM     92  C   UNL A   1      42.947  35.097  25.911  1.00  0.00     0.040 A 
ATOM     93  F   UNL A   1      44.321  33.736  24.581  1.00  0.00    -0.206 F 
ATOM     94  C   UNL A   1      42.499  35.503  27.167  1.00  0.00     0.006 A 
ENDBRANCH  66  87
BRANCH  78  95
ATOM     95  C   UNL A   1      51.379  34.003  26.423  1.00  0.00     0.057 A 
ATOM     96  C   UNL A   1      51.819  34.528  25.200  1.00  0.00     0.134 A 
ATOM     97  C   UNL A   1      51.830  34.635  27.590  1.00  0.00     0.134 A 
ATOM     98  F   UNL A   1      51.435  33.971  24.042  1.00  0.00    -0.206 F 
ATOM     99  C   UNL A   1      52.667  35.635  25.140  1.00  0.00     0.040 A 
ATOM    100  C   UNL A   1      52.648  35.766  27.542  1.00  0.00     0.040 A 
ATOM    101  F   UNL A   1      51.438  34.195  28.796  1.00  0.00    -0.206 F 
ATOM    102  C   UNL A   1      53.073  36.265  26.313  1.00  0.00     0.006 A 
ENDBRANCH  78  95
ENDBRANCH  52  53
ENDBRANCH  45  47
ENDBRANCH  44  45
ENDBRANCH  43  44
ENDBRANCH  42  43
ENDBRANCH  41  42
ENDBRANCH  40  41
ENDBRANCH  39  40
ENDBRANCH  38  39
ENDBRANCH   1  38
TORSDOF 25
ENDMDL
MODEL 3
REMARK VINA RESULT:      -9.8      5.948     11.421
REMARK SMILES NS(=O)(=O)c1ccc(C#Cc2cc(Cl)cc3c2O[C@H](C(F)(F)F)C(C(=O)OCCOCCOCCOCCOC(=O)c2ccc(-c4c5nc(c(-c6c(F)cccc6F)c6ccc([nH]6)c(-c6c(F)cccc6F)c6nc(c(-c7c(F)cccc7F)c7ccc4[nH]7)C=C6)C=C5)cc2)=C3)cc1
REMARK SMILES IDX 32 1 31 2 30 3 29 4 28 5 27 6 25 7 26 8 24 9 11 10 12 11
REMARK SMILES IDX 17 12 13 13 16 14 18 15 14 16 15 17 96 18 19 19 10 20 9 21
REMARK SMILES IDX 8 22 5 23 6 24 98 25 7 26 97 27 2 28 3 29 4 30 1 31 20 34
REMARK SMILES IDX 21 35 22 36 23 37 33 38 34 39 35 40 36 41 37 42 38 43 39 44
REMARK SMILES IDX 40 45 41 46 42 47 43 48 95 49 44 50 94 51 45 52 46 53 47 54
REMARK SMILES IDX 88 55 48 56 93 57 87 58 89 59 49 60 92 61 86 62 85 63 50 65
REMARK SMILES IDX 76 66 59 67 75 68 60 69 63 70 74 71 90 72 61 73 62 74 73 76
REMARK SMILES IDX 91 77 64 78 51 79 52 80 57 81 53 82 54 83 56 84 58 85 55 86
REMARK SMILES IDX 77 87 78 88 83 89 79 90 80 91 82 92 84 93 81 94 65 95 66 96
REMARK SMILES IDX 71 97 67 98 68 99 70 100 72 101 69 102
REMARK H PARENT 1 32 1 33 89 64 63 75
REMARK Flexibility Score: inf
ROOT
ATOM      1  C   UNL A   1      37.752  31.696  35.028  1.00  0.00     0.188 C 
ENDROOT
BRANCH   1   2
ATOM      2  C   UNL A   1      37.482  32.463  33.717  1.00  0.00     0.188 C 
BRANCH   2   3
ATOM      3  O   UNL A   1      38.570  32.545  32.819  1.00  0.00    -0.376 OA
BRANCH   3   4
ATOM      4  C   UNL A   1      39.488  31.489  32.606  1.00  0.00     0.202 C 
BRANCH   4   5
ATOM      5  C   UNL A   1      39.192  30.147  31.914  1.00  0.00     0.261 C 
BRANCH   5   6
ATOM      6  O   UNL A   1      40.299  29.349  31.510  1.00  0.00    -0.460 OA
BRANCH   6   7
ATOM      7  C   UNL A   1      40.674  29.455  30.221  1.00  0.00     0.338 C 
ATOM      8  O   UNL A   1      41.244  30.397  29.700  1.00  0.00    -0.246 OA
BRANCH   7   9
ATOM      9  C   UNL A   1      40.432  28.153  29.566  1.00  0.00     0.087 C 
ATOM     10  C   UNL A   1      39.938  24.665  27.337  1.00  0.00     0.069 A 
ATOM     11  C   UNL A   1      41.038  23.831  27.118  1.00  0.00     0.041 A 
ATOM     12  C   UNL A   1      40.057  25.781  28.181  1.00  0.00     0.143 A 
ATOM     13  C   UNL A   1      42.247  24.100  27.752  1.00  0.00     0.043 A 
ATOM     14  C   UNL A   1      41.295  26.076  28.760  1.00  0.00     0.020 A 
ATOM     15  O   UNL A   1      38.941  26.543  28.387  1.00  0.00    -0.474 OA
ATOM     16  Cl  UNL A   1      43.602  23.077  27.478  1.00  0.00    -0.084 Cl
ATOM     17  C   UNL A   1      42.382  25.216  28.574  1.00  0.00     0.032 A 
ATOM     18  C   UNL A   1      41.481  27.328  29.470  1.00  0.00     0.027 C 
ATOM     19  C   UNL A   1      39.048  27.811  29.087  1.00  0.00     0.316 C 
BRANCH  10  20
ATOM     20  C   UNL A   1      38.715  24.389  26.639  1.00  0.00    -0.058 C 
ATOM     21  C   UNL A   1      37.698  24.161  26.049  1.00  0.00    -0.062 C 
BRANCH  21  22
ATOM     22  C   UNL A   1      36.504  23.831  25.333  1.00  0.00     0.025 A 
ATOM     23  C   UNL A   1      34.174  23.000  24.051  1.00  0.00     0.082 A 
ATOM     24  C   UNL A   1      35.414  22.748  23.459  1.00  0.00     0.023 A 
ATOM     25  C   UNL A   1      34.089  23.708  25.255  1.00  0.00     0.023 A 
ATOM     26  C   UNL A   1      36.581  23.168  24.105  1.00  0.00     0.018 A 
ATOM     27  C   UNL A   1      35.258  24.120  25.897  1.00  0.00     0.018 A 
BRANCH  23  28
ATOM     28  S   UNL A   1      32.671  22.423  23.322  1.00  0.00     0.238 S 
ATOM     29  O   UNL A   1      31.575  23.198  23.852  1.00  0.00    -0.207 OA
ATOM     30  O   UNL A   1      32.691  20.979  23.336  1.00  0.00    -0.207 OA
BRANCH  28  31
ATOM     31  N   UNL A   1      32.779  22.865  21.704  1.00  0.00    -0.225 NA
ATOM     32  H   UNL A   1      32.160  23.655  21.526  1.00  0.00     0.137 HD
ATOM     33  H   UNL A   1      32.504  22.078  21.117  1.00  0.00     0.137 HD
ENDBRANCH  28  31
ENDBRANCH  23  28
ENDBRANCH  21  22
ENDBRANCH  10  20
BRANCH  19  34
ATOM     34  C   UNL A   1      38.465  28.900  28.179  1.00  0.00     0.430 C 
ATOM     35  F   UNL A   1      38.173  30.023  28.877  1.00  0.00    -0.167 F 
ATOM     36  F   UNL A   1      39.327  29.265  27.202  1.00  0.00    -0.167 F 
ATOM     37  F   UNL A   1      37.324  28.489  27.577  1.00  0.00    -0.167 F 
ENDBRANCH  19  34
ENDBRANCH   7   9
ENDBRANCH   6   7
ENDBRANCH   5   6
ENDBRANCH   4   5
ENDBRANCH   3   4
ENDBRANCH   2   3
ENDBRANCH   1   2
BRANCH   1  38
ATOM     38  O   UNL A   1      37.323  32.352  36.208  1.00  0.00    -0.377 OA
BRANCH  38  39
ATOM     39  C   UNL A   1      38.031  32.117  37.426  1.00  0.00     0.188 C 
BRANCH  39  40
ATOM     40  C   UNL A   1      37.397  32.319  38.827  1.00  0.00     0.188 C 
BRANCH  40  41
ATOM     41  O   UNL A   1      37.635  33.586  39.408  1.00  0.00    -0.376 OA
BRANCH  41  42
ATOM     42  C   UNL A   1      38.938  33.993  39.770  1.00  0.00     0.202 C 
BRANCH  42  43
ATOM     43  C   UNL A   1      39.271  35.486  39.878  1.00  0.00     0.261 C 
BRANCH  43  44
ATOM     44  O   UNL A   1      39.417  36.206  38.650  1.00  0.00    -0.460 OA
BRANCH  44  45
ATOM     45  C   UNL A   1      40.662  36.589  38.291  1.00  0.00     0.338 C 
ATOM     46  O   UNL A   1      41.359  37.430  38.826  1.00  0.00    -0.246 OA
BRANCH  45  47
ATOM     47  C   UNL A   1      41.106  35.647  37.237  1.00  0.00     0.060 A 
ATOM     48  C   UNL A   1      40.157  34.958  36.478  1.00  0.00     0.016 A 
ATOM     49  C   UNL A   1      42.473  35.398  37.059  1.00  0.00     0.016 A 
ATOM     50  C   UNL A   1      40.581  34.038  35.519  1.00  0.00     0.010 A 
ATOM     51  C   UNL A   1      42.895  34.467  36.103  1.00  0.00     0.010 A 
ATOM     52  C   UNL A   1      41.952  33.801  35.308  1.00  0.00    -0.014 A 
BRANCH  52  53
ATOM     53  C   UNL A   1      42.378  33.002  34.133  1.00  0.00     0.031 A 
ATOM     54  C   UNL A   1      42.571  33.604  32.774  1.00  0.00     0.074 A 
ATOM     55  C   UNL A   1      42.605  31.688  34.323  1.00  0.00     0.049 A 
ATOM     56  N   UNL A   1      43.041  33.043  31.688  1.00  0.00    -0.248 NA
ATOM     57  C   UNL A   1      42.180  35.009  32.608  1.00  0.00     0.031 C 
ATOM     58  C   UNL A   1      42.416  30.984  35.594  1.00  0.00     0.029 A 
ATOM     59  N   UNL A   1      43.058  30.719  33.467  1.00  0.00    -0.354 N 
ATOM     60  C   UNL A   1      43.030  34.030  30.711  1.00  0.00     0.074 A 
ATOM     61  C   UNL A   1      42.450  35.210  31.324  1.00  0.00     0.031 C 
ATOM     62  C   UNL A   1      42.791  29.704  35.444  1.00  0.00     0.029 A 
ATOM     63  C   UNL A   1      43.207  29.491  34.063  1.00  0.00     0.049 A 
ATOM     64  H   UNL A   1      43.255  30.887  32.518  1.00  0.00     0.167 HD
ATOM     65  C   UNL A   1      43.478  33.960  29.433  1.00  0.00     0.037 A 
ATOM     66  C   UNL A   1      43.632  28.321  33.554  1.00  0.00     0.037 A 
ATOM     67  C   UNL A   1      44.017  32.769  28.819  1.00  0.00     0.049 A 
ATOM     68  C   UNL A   1      44.053  28.259  32.112  1.00  0.00     0.074 A 
ATOM     69  C   UNL A   1      44.521  32.608  27.538  1.00  0.00     0.029 A 
ATOM     70  N   UNL A   1      44.100  31.527  29.432  1.00  0.00    -0.354 N 
ATOM     71  N   UNL A   1      44.118  29.221  31.224  1.00  0.00    -0.248 NA
ATOM     72  C   UNL A   1      44.465  26.944  31.605  1.00  0.00     0.031 C 
ATOM     73  C   UNL A   1      44.841  31.259  27.355  1.00  0.00     0.029 A 
ATOM     74  C   UNL A   1      44.609  30.589  28.545  1.00  0.00     0.049 A 
ATOM     75  H   UNL A   1      43.836  31.338  30.362  1.00  0.00     0.167 HD
ATOM     76  C   UNL A   1      44.606  28.633  30.063  1.00  0.00     0.074 A 
ATOM     77  C   UNL A   1      44.844  27.238  30.371  1.00  0.00     0.031 C 
ATOM     78  C   UNL A   1      44.835  29.198  28.852  1.00  0.00     0.037 A 
BRANCH  65  79
ATOM     79  C   UNL A   1      43.390  35.211  28.600  1.00  0.00     0.057 A 
ATOM     80  C   UNL A   1      44.527  35.990  28.344  1.00  0.00     0.134 A 
ATOM     81  C   UNL A   1      42.171  35.667  28.080  1.00  0.00     0.134 A 
ATOM     82  F   UNL A   1      45.725  35.626  28.826  1.00  0.00    -0.206 F 
ATOM     83  C   UNL A   1      44.455  37.168  27.598  1.00  0.00     0.040 A 
ATOM     84  C   UNL A   1      42.092  36.825  27.305  1.00  0.00     0.040 A 
ATOM     85  F   UNL A   1      41.041  34.973  28.287  1.00  0.00    -0.206 F 
ATOM     86  C   UNL A   1      43.237  37.582  27.065  1.00  0.00     0.006 A 
ENDBRANCH  65  79
BRANCH  66  87
ATOM     87  C   UNL A   1      43.689  27.109  34.410  1.00  0.00     0.057 A 
ATOM     88  C   UNL A   1      42.539  26.359  34.688  1.00  0.00     0.134 A 
ATOM     89  C   UNL A   1      44.902  26.646  34.934  1.00  0.00     0.134 A 
ATOM     90  F   UNL A   1      41.344  26.755  34.226  1.00  0.00    -0.206 F 
ATOM     91  C   UNL A   1      42.594  25.193  35.450  1.00  0.00     0.040 A 
ATOM     92  C   UNL A   1      44.977  25.463  35.668  1.00  0.00     0.040 A 
ATOM     93  F   UNL A   1      46.041  27.313  34.690  1.00  0.00    -0.206 F 
ATOM     94  C   UNL A   1      43.818  24.732  35.929  1.00  0.00     0.006 A 
ENDBRANCH  66  87
BRANCH  78  95
ATOM     95  C   UNL A   1      45.403  28.308  27.781  1.00  0.00     0.057 A 
ATOM     96  C   UNL A   1      44.566  27.726  26.819  1.00  0.00     0.134 A 
ATOM     97  C   UNL A   1      46.773  28.027  27.691  1.00  0.00     0.134 A 
ATOM     98  F   UNL A   1      43.242  27.942  26.846  1.00  0.00    -0.206 F 
ATOM     99  C   UNL A   1      45.070  26.905  25.809  1.00  0.00     0.040 A 
ATOM    100  C   UNL A   1      47.294  27.238  26.663  1.00  0.00     0.040 A 
ATOM    101  F   UNL A   1      47.636  28.561  28.570  1.00  0.00    -0.206 F 
ATOM    102  C   UNL A   1      46.440  26.670  25.721  1.00  0.00     0.006 A 
ENDBRANCH  78  95
ENDBRANCH  52  53
ENDBRANCH  45  47
ENDBRANCH  44  45
ENDBRANCH  43  44
ENDBRANCH  42  43
ENDBRANCH  41  42
ENDBRANCH  40  41
ENDBRANCH  39  40
ENDBRANCH  38  39
ENDBRANCH   1  38
TORSDOF 25
ENDMDL
