MODEL 1
REMARK VINA RESULT:      -9.5      0.000      0.000
REMARK SMILES Cc1cc(C)c2c(=O)n(CCCC(=O)OCCOCCOCCOCCOC(=O)c3ccc(-c4c5nc(c(-c6c(F)cccc6F)c6ccc([nH]6)c(-c6c(F)cccc6F)c6nc(c(-c7c(F)cccc7F)c7ccc4[nH]7)C=C6)C=C5)cc3)sc2n1
REMARK SMILES IDX 20 1 19 2 18 3 17 4 16 5 15 6 13 7 14 8 12 9 11 10 10 11
REMARK SMILES IDX 9 12 1 13 2 14 3 15 86 16 4 17 85 18 5 19 6 20 84 21 7 22
REMARK SMILES IDX 8 23 21 24 22 25 23 26 24 27 25 28 26 29 27 30 28 31 29 32
REMARK SMILES IDX 30 33 31 34 83 35 32 36 82 37 33 38 34 39 35 40 76 41 36 42
REMARK SMILES IDX 81 43 75 44 77 45 37 46 80 47 74 48 73 49 38 51 64 52 47 53
REMARK SMILES IDX 63 54 48 55 51 56 62 57 78 58 49 59 50 60 61 62 79 63 52 64
REMARK SMILES IDX 39 65 40 66 45 67 41 68 42 69 44 70 46 71 43 72 65 73 66 74
REMARK SMILES IDX 71 75 67 76 68 77 70 78 72 79 69 80 53 81 54 82 59 83 55 84
REMARK SMILES IDX 56 85 58 86 60 87 57 88
REMARK H PARENT 77 50 51 61
REMARK Flexibility Score: inf
ROOT
ATOM      1  C   UNL A   1      38.013  22.071  25.786  1.00  0.00     0.188 C 
ENDROOT
BRANCH   1   2
ATOM      2  C   UNL A   1      37.179  22.528  24.572  1.00  0.00     0.188 C 
BRANCH   2   3
ATOM      3  O   UNL A   1      35.882  22.037  24.340  1.00  0.00    -0.376 OA
BRANCH   3   4
ATOM      4  C   UNL A   1      35.349  20.941  25.056  1.00  0.00     0.202 C 
BRANCH   4   5
ATOM      5  C   UNL A   1      34.287  21.078  26.162  1.00  0.00     0.261 C 
BRANCH   5   6
ATOM      6  O   UNL A   1      34.391  22.242  27.001  1.00  0.00    -0.463 OA
BRANCH   6   7
ATOM      7  C   UNL A   1      33.463  23.216  26.829  1.00  0.00     0.305 C 
ATOM      8  O   UNL A   1      32.456  23.319  27.522  1.00  0.00    -0.252 OA
BRANCH   7   9
ATOM      9  C   UNL A   1      33.828  24.300  25.797  1.00  0.00     0.124 C 
BRANCH   9  10
ATOM     10  C   UNL A   1      33.180  25.700  25.634  1.00  0.00     0.035 C 
BRANCH  10  11
ATOM     11  C   UNL A   1      33.097  26.348  24.249  1.00  0.00     0.139 C 
BRANCH  11  12
ATOM     12  N   UNL A   1      31.958  27.213  24.141  1.00  0.00    -0.262 N 
ATOM     13  C   UNL A   1      28.276  31.078  21.342  1.00  0.00     0.067 C 
ATOM     14  C   UNL A   1      28.776  29.874  22.071  1.00  0.00     0.039 A 
ATOM     15  C   UNL A   1      27.914  28.884  22.576  1.00  0.00     0.027 A 
ATOM     16  N   UNL A   1      30.098  29.875  22.304  1.00  0.00    -0.241 NA
ATOM     17  C   UNL A   1      28.433  27.796  23.298  1.00  0.00    -0.033 A 
ATOM     18  C   UNL A   1      30.546  28.846  23.021  1.00  0.00     0.146 A 
ATOM     19  C   UNL A   1      27.567  26.760  23.939  1.00  0.00     0.045 C 
ATOM     20  C   UNL A   1      29.801  27.775  23.473  1.00  0.00     0.081 A 
ATOM     21  S   UNL A   1      32.165  28.835  23.669  1.00  0.00    -0.035 S 
ATOM     22  C   UNL A   1      30.655  26.754  24.110  1.00  0.00     0.270 A 
ATOM     23  O   UNL A   1      30.258  25.654  24.455  1.00  0.00    -0.268 OA
ENDBRANCH  11  12
ENDBRANCH  10  11
ENDBRANCH   9  10
ENDBRANCH   7   9
ENDBRANCH   6   7
ENDBRANCH   5   6
ENDBRANCH   4   5
ENDBRANCH   3   4
ENDBRANCH   2   3
ENDBRANCH   1   2
BRANCH   1  24
ATOM     24  O   UNL A   1      38.991  21.066  25.781  1.00  0.00    -0.377 OA
BRANCH  24  25
ATOM     25  C   UNL A   1      40.119  21.172  26.606  1.00  0.00     0.188 C 
BRANCH  25  26
ATOM     26  C   UNL A   1      41.336  22.031  26.199  1.00  0.00     0.188 C 
BRANCH  26  27
ATOM     27  O   UNL A   1      42.466  21.479  25.547  1.00  0.00    -0.376 OA
BRANCH  27  28
ATOM     28  C   UNL A   1      43.823  21.897  25.600  1.00  0.00     0.202 C 
BRANCH  28  29
ATOM     29  C   UNL A   1      44.370  23.195  25.014  1.00  0.00     0.261 C 
BRANCH  29  30
ATOM     30  O   UNL A   1      44.673  24.158  25.984  1.00  0.00    -0.460 OA
BRANCH  30  31
ATOM     31  C   UNL A   1      44.039  25.321  25.779  1.00  0.00     0.338 C 
ATOM     32  O   UNL A   1      44.379  26.259  25.057  1.00  0.00    -0.246 OA
BRANCH  31  33
ATOM     33  C   UNL A   1      42.868  25.311  26.636  1.00  0.00     0.060 A 
ATOM     34  C   UNL A   1      41.677  25.817  26.114  1.00  0.00     0.016 A 
ATOM     35  C   UNL A   1      43.213  25.514  27.959  1.00  0.00     0.016 A 
ATOM     36  C   UNL A   1      41.224  26.993  26.692  1.00  0.00     0.010 A 
ATOM     37  C   UNL A   1      42.484  26.459  28.599  1.00  0.00     0.010 A 
ATOM     38  C   UNL A   1      41.913  27.467  27.822  1.00  0.00    -0.014 A 
BRANCH  38  39
ATOM     39  C   UNL A   1      41.526  28.652  28.621  1.00  0.00     0.031 A 
ATOM     40  C   UNL A   1      42.632  29.677  28.295  1.00  0.00     0.074 A 
ATOM     41  C   UNL A   1      40.363  28.770  29.377  1.00  0.00     0.049 A 
ATOM     42  N   UNL A   1      43.700  29.849  29.014  1.00  0.00    -0.248 NA
ATOM     43  C   UNL A   1      42.868  30.224  26.915  1.00  0.00     0.031 C 
ATOM     44  C   UNL A   1      39.238  27.827  29.683  1.00  0.00     0.029 A 
ATOM     45  N   UNL A   1      39.920  29.853  30.146  1.00  0.00    -0.354 N 
ATOM     46  C   UNL A   1      44.441  30.840  28.364  1.00  0.00     0.074 A 
ATOM     47  C   UNL A   1      44.094  30.752  26.991  1.00  0.00     0.031 C 
ATOM     48  C   UNL A   1      38.175  28.470  30.267  1.00  0.00     0.029 A 
ATOM     49  C   UNL A   1      38.526  29.856  30.528  1.00  0.00     0.049 A 
ATOM     50  H   UNL A   1      40.530  30.577  30.416  1.00  0.00     0.167 HD
ATOM     51  C   UNL A   1      44.870  31.920  29.075  1.00  0.00     0.037 A 
ATOM     52  C   UNL A   1      37.845  30.836  31.249  1.00  0.00     0.037 A 
ATOM     53  C   UNL A   1      44.827  31.581  30.477  1.00  0.00     0.049 A 
ATOM     54  C   UNL A   1      38.909  31.678  31.846  1.00  0.00     0.074 A 
ATOM     55  C   UNL A   1      45.491  30.662  31.264  1.00  0.00     0.029 A 
ATOM     56  N   UNL A   1      43.578  31.742  31.014  1.00  0.00    -0.354 N 
ATOM     57  N   UNL A   1      39.698  31.221  32.774  1.00  0.00    -0.248 NA
ATOM     58  C   UNL A   1      39.432  32.707  30.959  1.00  0.00     0.031 C 
ATOM     59  C   UNL A   1      44.497  30.086  32.111  1.00  0.00     0.029 A 
ATOM     60  C   UNL A   1      43.318  30.810  31.977  1.00  0.00     0.049 A 
ATOM     61  H   UNL A   1      42.946  32.443  30.739  1.00  0.00     0.167 HD
ATOM     62  C   UNL A   1      40.957  31.508  32.283  1.00  0.00     0.074 A 
ATOM     63  C   UNL A   1      40.726  32.440  31.158  1.00  0.00     0.031 C 
ATOM     64  C   UNL A   1      42.014  30.688  32.571  1.00  0.00     0.037 A 
BRANCH  51  65
ATOM     65  C   UNL A   1      44.796  33.355  28.588  1.00  0.00     0.057 A 
ATOM     66  C   UNL A   1      45.992  34.045  28.329  1.00  0.00     0.134 A 
ATOM     67  C   UNL A   1      43.638  34.168  28.585  1.00  0.00     0.134 A 
ATOM     68  F   UNL A   1      47.170  33.406  28.371  1.00  0.00    -0.206 F 
ATOM     69  C   UNL A   1      46.032  35.424  28.071  1.00  0.00     0.040 A 
ATOM     70  C   UNL A   1      43.660  35.537  28.284  1.00  0.00     0.040 A 
ATOM     71  F   UNL A   1      42.437  33.712  28.957  1.00  0.00    -0.206 F 
ATOM     72  C   UNL A   1      44.863  36.173  28.034  1.00  0.00     0.006 A 
ENDBRANCH  51  65
BRANCH  52  73
ATOM     73  C   UNL A   1      36.485  31.508  31.102  1.00  0.00     0.057 A 
ATOM     74  C   UNL A   1      35.763  32.092  32.186  1.00  0.00     0.134 A 
ATOM     75  C   UNL A   1      36.087  31.954  29.841  1.00  0.00     0.134 A 
ATOM     76  F   UNL A   1      36.042  31.765  33.458  1.00  0.00    -0.206 F 
ATOM     77  C   UNL A   1      34.777  33.096  32.009  1.00  0.00     0.040 A 
ATOM     78  C   UNL A   1      35.126  32.968  29.654  1.00  0.00     0.040 A 
ATOM     79  F   UNL A   1      36.701  31.491  28.746  1.00  0.00    -0.206 F 
ATOM     80  C   UNL A   1      34.484  33.563  30.735  1.00  0.00     0.006 A 
ENDBRANCH  52  73
BRANCH  64  81
ATOM     81  C   UNL A   1      41.836  29.595  33.598  1.00  0.00     0.057 A 
ATOM     82  C   UNL A   1      41.646  28.223  33.355  1.00  0.00     0.134 A 
ATOM     83  C   UNL A   1      42.043  29.966  34.927  1.00  0.00     0.134 A 
ATOM     84  F   UNL A   1      41.566  27.741  32.109  1.00  0.00    -0.206 F 
ATOM     85  C   UNL A   1      41.609  27.280  34.396  1.00  0.00     0.040 A 
ATOM     86  C   UNL A   1      42.046  29.037  35.967  1.00  0.00     0.040 A 
ATOM     87  F   UNL A   1      42.321  31.244  35.225  1.00  0.00    -0.206 F 
ATOM     88  C   UNL A   1      41.808  27.692  35.711  1.00  0.00     0.006 A 
ENDBRANCH  64  81
ENDBRANCH  38  39
ENDBRANCH  31  33
ENDBRANCH  30  31
ENDBRANCH  29  30
ENDBRANCH  28  29
ENDBRANCH  27  28
ENDBRANCH  26  27
ENDBRANCH  25  26
ENDBRANCH  24  25
ENDBRANCH   1  24
TORSDOF 23
ENDMDL
MODEL 2
REMARK VINA RESULT:      -9.2      3.313      8.872
REMARK SMILES Cc1cc(C)c2c(=O)n(CCCC(=O)OCCOCCOCCOCCOC(=O)c3ccc(-c4c5nc(c(-c6c(F)cccc6F)c6ccc([nH]6)c(-c6c(F)cccc6F)c6nc(c(-c7c(F)cccc7F)c7ccc4[nH]7)C=C6)C=C5)cc3)sc2n1
REMARK SMILES IDX 20 1 19 2 18 3 17 4 16 5 15 6 13 7 14 8 12 9 11 10 10 11
REMARK SMILES IDX 9 12 1 13 2 14 3 15 86 16 4 17 85 18 5 19 6 20 84 21 7 22
REMARK SMILES IDX 8 23 21 24 22 25 23 26 24 27 25 28 26 29 27 30 28 31 29 32
REMARK SMILES IDX 30 33 31 34 83 35 32 36 82 37 33 38 34 39 35 40 76 41 36 42
REMARK SMILES IDX 81 43 75 44 77 45 37 46 80 47 74 48 73 49 38 51 64 52 47 53
REMARK SMILES IDX 63 54 48 55 51 56 62 57 78 58 49 59 50 60 61 62 79 63 52 64
REMARK SMILES IDX 39 65 40 66 45 67 41 68 42 69 44 70 46 71 43 72 65 73 66 74
REMARK SMILES IDX 71 75 67 76 68 77 70 78 72 79 69 80 53 81 54 82 59 83 55 84
REMARK SMILES IDX 56 85 58 86 60 87 57 88
REMARK H PARENT 77 50 51 61
REMARK Flexibility Score: inf
ROOT
ATOM      1  C   UNL A   1      33.806  29.104  26.478  1.00  0.00     0.188 C 
ENDROOT
BRANCH   1   2
ATOM      2  C   UNL A   1      32.913  29.704  25.373  1.00  0.00     0.188 C 
BRANCH   2   3
ATOM      3  O   UNL A   1      33.037  29.310  24.029  1.00  0.00    -0.376 OA
BRANCH   3   4
ATOM      4  C   UNL A   1      32.496  28.098  23.542  1.00  0.00     0.202 C 
BRANCH   4   5
ATOM      5  C   UNL A   1      31.386  28.024  22.479  1.00  0.00     0.261 C 
BRANCH   5   6
ATOM      6  O   UNL A   1      30.259  27.188  22.794  1.00  0.00    -0.463 OA
BRANCH   6   7
ATOM      7  C   UNL A   1      30.516  25.994  23.384  1.00  0.00     0.305 C 
ATOM      8  O   UNL A   1      31.259  25.147  22.898  1.00  0.00    -0.252 OA
BRANCH   7   9
ATOM      9  C   UNL A   1      29.937  25.819  24.800  1.00  0.00     0.124 C 
BRANCH   9  10
ATOM     10  C   UNL A   1      30.725  25.617  26.121  1.00  0.00     0.035 C 
BRANCH  10  11
ATOM     11  C   UNL A   1      32.254  25.519  26.092  1.00  0.00     0.139 C 
BRANCH  11  12
ATOM     12  N   UNL A   1      32.695  24.155  26.135  1.00  0.00    -0.262 N 
ATOM     13  C   UNL A   1      32.532  18.310  24.672  1.00  0.00     0.067 C 
ATOM     14  C   UNL A   1      33.017  19.711  24.856  1.00  0.00     0.039 A 
ATOM     15  C   UNL A   1      34.354  20.084  24.629  1.00  0.00     0.027 A 
ATOM     16  N   UNL A   1      32.102  20.553  25.362  1.00  0.00    -0.241 NA
ATOM     17  C   UNL A   1      34.769  21.406  24.864  1.00  0.00    -0.033 A 
ATOM     18  C   UNL A   1      32.543  21.786  25.604  1.00  0.00     0.146 A 
ATOM     19  C   UNL A   1      36.191  21.846  24.733  1.00  0.00     0.045 C 
ATOM     20  C   UNL A   1      33.802  22.278  25.322  1.00  0.00     0.081 A 
ATOM     21  S   UNL A   1      31.593  22.919  26.529  1.00  0.00    -0.035 S 
ATOM     22  C   UNL A   1      33.890  23.725  25.594  1.00  0.00     0.270 A 
ATOM     23  O   UNL A   1      34.847  24.418  25.288  1.00  0.00    -0.268 OA
ENDBRANCH  11  12
ENDBRANCH  10  11
ENDBRANCH   9  10
ENDBRANCH   7   9
ENDBRANCH   6   7
ENDBRANCH   5   6
ENDBRANCH   4   5
ENDBRANCH   3   4
ENDBRANCH   2   3
ENDBRANCH   1   2
BRANCH   1  24
ATOM     24  O   UNL A   1      34.214  29.757  27.650  1.00  0.00    -0.377 OA
BRANCH  24  25
ATOM     25  C   UNL A   1      34.596  31.105  27.614  1.00  0.00     0.188 C 
BRANCH  25  26
ATOM     26  C   UNL A   1      33.600  32.232  27.966  1.00  0.00     0.188 C 
BRANCH  26  27
ATOM     27  O   UNL A   1      34.027  33.548  28.274  1.00  0.00    -0.376 OA
BRANCH  27  28
ATOM     28  C   UNL A   1      34.276  34.133  29.545  1.00  0.00     0.202 C 
BRANCH  28  29
ATOM     29  C   UNL A   1      35.132  33.517  30.647  1.00  0.00     0.261 C 
BRANCH  29  30
ATOM     30  O   UNL A   1      36.500  33.770  30.494  1.00  0.00    -0.460 OA
BRANCH  30  31
ATOM     31  C   UNL A   1      37.145  32.778  29.863  1.00  0.00     0.338 C 
ATOM     32  O   UNL A   1      37.407  32.678  28.664  1.00  0.00    -0.246 OA
BRANCH  31  33
ATOM     33  C   UNL A   1      37.440  31.772  30.867  1.00  0.00     0.060 A 
ATOM     34  C   UNL A   1      38.516  32.005  31.723  1.00  0.00     0.016 A 
ATOM     35  C   UNL A   1      37.157  30.502  30.401  1.00  0.00     0.016 A 
ATOM     36  C   UNL A   1      39.600  31.155  31.564  1.00  0.00     0.010 A 
ATOM     37  C   UNL A   1      38.144  29.593  30.590  1.00  0.00     0.010 A 
ATOM     38  C   UNL A   1      39.451  30.073  30.679  1.00  0.00    -0.014 A 
BRANCH  38  39
ATOM     39  C   UNL A   1      40.462  29.017  30.446  1.00  0.00     0.031 A 
ATOM     40  C   UNL A   1      41.028  28.750  31.856  1.00  0.00     0.074 A 
ATOM     41  C   UNL A   1      40.706  28.388  29.228  1.00  0.00     0.049 A 
ATOM     42  N   UNL A   1      42.094  29.321  32.332  1.00  0.00    -0.248 NA
ATOM     43  C   UNL A   1      40.198  28.221  32.992  1.00  0.00     0.031 C 
ATOM     44  C   UNL A   1      40.150  28.574  27.848  1.00  0.00     0.029 A 
ATOM     45  N   UNL A   1      41.630  27.380  28.928  1.00  0.00    -0.354 N 
ATOM     46  C   UNL A   1      42.242  28.827  33.631  1.00  0.00     0.074 A 
ATOM     47  C   UNL A   1      40.936  28.489  34.074  1.00  0.00     0.031 C 
ATOM     48  C   UNL A   1      40.507  27.547  27.009  1.00  0.00     0.029 A 
ATOM     49  C   UNL A   1      41.430  26.656  27.692  1.00  0.00     0.049 A 
ATOM     50  H   UNL A   1      42.381  27.174  29.530  1.00  0.00     0.167 HD
ATOM     51  C   UNL A   1      43.441  28.300  34.007  1.00  0.00     0.037 A 
ATOM     52  C   UNL A   1      42.182  25.591  27.201  1.00  0.00     0.037 A 
ATOM     53  C   UNL A   1      44.448  28.771  33.088  1.00  0.00     0.049 A 
ATOM     54  C   UNL A   1      43.423  25.595  28.011  1.00  0.00     0.074 A 
ATOM     55  C   UNL A   1      44.966  30.014  32.785  1.00  0.00     0.029 A 
ATOM     56  N   UNL A   1      44.496  28.026  31.940  1.00  0.00    -0.354 N 
ATOM     57  N   UNL A   1      44.297  26.554  27.913  1.00  0.00    -0.248 NA
ATOM     58  C   UNL A   1      43.309  24.911  29.291  1.00  0.00     0.031 C 
ATOM     59  C   UNL A   1      45.060  30.059  31.361  1.00  0.00     0.029 A 
ATOM     60  C   UNL A   1      44.811  28.789  30.853  1.00  0.00     0.049 A 
ATOM     61  H   UNL A   1      44.324  27.058  31.904  1.00  0.00     0.167 HD
ATOM     62  C   UNL A   1      44.476  26.948  29.225  1.00  0.00     0.074 A 
ATOM     63  C   UNL A   1      43.844  25.884  30.035  1.00  0.00     0.031 C 
ATOM     64  C   UNL A   1      44.768  28.252  29.520  1.00  0.00     0.037 A 
BRANCH  51  65
ATOM     65  C   UNL A   1      43.605  27.014  34.797  1.00  0.00     0.057 A 
ATOM     66  C   UNL A   1      43.985  27.092  36.146  1.00  0.00     0.134 A 
ATOM     67  C   UNL A   1      43.643  25.709  34.251  1.00  0.00     0.134 A 
ATOM     68  F   UNL A   1      44.060  28.279  36.766  1.00  0.00    -0.206 F 
ATOM     69  C   UNL A   1      44.354  25.965  36.897  1.00  0.00     0.040 A 
ATOM     70  C   UNL A   1      43.967  24.570  35.002  1.00  0.00     0.040 A 
ATOM     71  F   UNL A   1      43.459  25.468  32.948  1.00  0.00    -0.206 F 
ATOM     72  C   UNL A   1      44.332  24.697  36.330  1.00  0.00     0.006 A 
ENDBRANCH  51  65
BRANCH  52  73
ATOM     73  C   UNL A   1      41.833  24.260  26.545  1.00  0.00     0.057 A 
ATOM     74  C   UNL A   1      42.735  23.514  25.727  1.00  0.00     0.134 A 
ATOM     75  C   UNL A   1      40.773  23.512  27.060  1.00  0.00     0.134 A 
ATOM     76  F   UNL A   1      43.807  24.098  25.170  1.00  0.00    -0.206 F 
ATOM     77  C   UNL A   1      42.612  22.117  25.514  1.00  0.00     0.040 A 
ATOM     78  C   UNL A   1      40.655  22.121  26.875  1.00  0.00     0.040 A 
ATOM     79  F   UNL A   1      39.870  24.098  27.855  1.00  0.00    -0.206 F 
ATOM     80  C   UNL A   1      41.585  21.410  26.123  1.00  0.00     0.006 A 
ENDBRANCH  52  73
BRANCH  64  81
ATOM     81  C   UNL A   1      45.100  29.202  28.395  1.00  0.00     0.057 A 
ATOM     82  C   UNL A   1      44.250  30.159  27.812  1.00  0.00     0.134 A 
ATOM     83  C   UNL A   1      46.439  29.243  28.005  1.00  0.00     0.134 A 
ATOM     84  F   UNL A   1      42.979  30.294  28.206  1.00  0.00    -0.206 F 
ATOM     85  C   UNL A   1      44.708  31.071  26.846  1.00  0.00     0.040 A 
ATOM     86  C   UNL A   1      46.916  30.167  27.075  1.00  0.00     0.040 A 
ATOM     87  F   UNL A   1      47.326  28.422  28.586  1.00  0.00    -0.206 F 
ATOM     88  C   UNL A   1      46.049  31.072  26.474  1.00  0.00     0.006 A 
ENDBRANCH  64  81
ENDBRANCH  38  39
ENDBRANCH  31  33
ENDBRANCH  30  31
ENDBRANCH  29  30
ENDBRANCH  28  29
ENDBRANCH  27  28
ENDBRANCH  26  27
ENDBRANCH  25  26
ENDBRANCH  24  25
ENDBRANCH   1  24
TORSDOF 23
ENDMDL
MODEL 3
REMARK VINA RESULT:      -9.1      2.397      3.309
REMARK SMILES Cc1cc(C)c2c(=O)n(CCCC(=O)OCCOCCOCCOCCOC(=O)c3ccc(-c4c5nc(c(-c6c(F)cccc6F)c6ccc([nH]6)c(-c6c(F)cccc6F)c6nc(c(-c7c(F)cccc7F)c7ccc4[nH]7)C=C6)C=C5)cc3)sc2n1
REMARK SMILES IDX 20 1 19 2 18 3 17 4 16 5 15 6 13 7 14 8 12 9 11 10 10 11
REMARK SMILES IDX 9 12 1 13 2 14 3 15 86 16 4 17 85 18 5 19 6 20 84 21 7 22
REMARK SMILES IDX 8 23 21 24 22 25 23 26 24 27 25 28 26 29 27 30 28 31 29 32
REMARK SMILES IDX 30 33 31 34 83 35 32 36 82 37 33 38 34 39 35 40 76 41 36 42
REMARK SMILES IDX 81 43 75 44 77 45 37 46 80 47 74 48 73 49 38 51 64 52 47 53
REMARK SMILES IDX 63 54 48 55 51 56 62 57 78 58 49 59 50 60 61 62 79 63 52 64
REMARK SMILES IDX 39 65 40 66 45 67 41 68 42 69 44 70 46 71 43 72 65 73 66 74
REMARK SMILES IDX 71 75 67 76 68 77 70 78 72 79 69 80 53 81 54 82 59 83 55 84
REMARK SMILES IDX 56 85 58 86 60 87 57 88
REMARK H PARENT 77 50 51 61
REMARK Flexibility Score: inf
ROOT
ATOM      1  C   UNL A   1      38.666  21.837  25.720  1.00  0.00     0.188 C 
ENDROOT
BRANCH   1   2
ATOM      2  C   UNL A   1      37.496  21.154  24.983  1.00  0.00     0.188 C 
BRANCH   2   3
ATOM      3  O   UNL A   1      36.214  21.067  25.554  1.00  0.00    -0.376 OA
BRANCH   3   4
ATOM      4  C   UNL A   1      35.672  22.096  26.358  1.00  0.00     0.202 C 
BRANCH   4   5
ATOM      5  C   UNL A   1      34.708  23.173  25.831  1.00  0.00     0.261 C 
BRANCH   5   6
ATOM      6  O   UNL A   1      35.022  23.733  24.544  1.00  0.00    -0.463 OA
BRANCH   6   7
ATOM      7  C   UNL A   1      34.245  23.360  23.497  1.00  0.00     0.305 C 
ATOM      8  O   UNL A   1      34.422  23.759  22.349  1.00  0.00    -0.252 OA
BRANCH   7   9
ATOM      9  C   UNL A   1      33.203  22.268  23.803  1.00  0.00     0.124 C 
BRANCH   9  10
ATOM     10  C   UNL A   1      31.662  22.431  23.873  1.00  0.00     0.035 C 
BRANCH  10  11
ATOM     11  C   UNL A   1      31.042  23.434  24.851  1.00  0.00     0.139 C 
BRANCH  11  12
ATOM     12  N   UNL A   1      31.277  24.787  24.437  1.00  0.00    -0.262 N 
ATOM     13  C   UNL A   1      29.839  30.040  21.856  1.00  0.00     0.067 C 
ATOM     14  C   UNL A   1      30.259  29.030  22.873  1.00  0.00     0.039 A 
ATOM     15  C   UNL A   1      30.728  29.392  24.148  1.00  0.00     0.027 A 
ATOM     16  N   UNL A   1      30.259  27.763  22.430  1.00  0.00    -0.241 NA
ATOM     17  C   UNL A   1      31.157  28.403  25.051  1.00  0.00    -0.033 A 
ATOM     18  C   UNL A   1      30.706  26.861  23.302  1.00  0.00     0.146 A 
ATOM     19  C   UNL A   1      31.752  28.724  26.383  1.00  0.00     0.045 C 
ATOM     20  C   UNL A   1      31.090  27.099  24.606  1.00  0.00     0.081 A 
ATOM     21  S   UNL A   1      31.057  25.225  22.807  1.00  0.00    -0.035 S 
ATOM     22  C   UNL A   1      31.391  25.843  25.319  1.00  0.00     0.270 A 
ATOM     23  O   UNL A   1      31.609  25.776  26.518  1.00  0.00    -0.268 OA
ENDBRANCH  11  12
ENDBRANCH  10  11
ENDBRANCH   9  10
ENDBRANCH   7   9
ENDBRANCH   6   7
ENDBRANCH   5   6
ENDBRANCH   4   5
ENDBRANCH   3   4
ENDBRANCH   2   3
ENDBRANCH   1   2
BRANCH   1  24
ATOM     24  O   UNL A   1      39.833  21.205  26.174  1.00  0.00    -0.377 OA
BRANCH  24  25
ATOM     25  C   UNL A   1      40.422  21.594  27.386  1.00  0.00     0.188 C 
BRANCH  25  26
ATOM     26  C   UNL A   1      41.608  22.583  27.423  1.00  0.00     0.188 C 
BRANCH  26  27
ATOM     27  O   UNL A   1      42.738  22.377  28.253  1.00  0.00    -0.376 OA
BRANCH  27  28
ATOM     28  C   UNL A   1      43.437  23.313  29.062  1.00  0.00     0.202 C 
BRANCH  28  29
ATOM     29  C   UNL A   1      44.093  24.595  28.561  1.00  0.00     0.261 C 
BRANCH  29  30
ATOM     30  O   UNL A   1      44.356  25.519  29.580  1.00  0.00    -0.460 OA
BRANCH  30  31
ATOM     31  C   UNL A   1      43.858  26.736  29.320  1.00  0.00     0.338 C 
ATOM     32  O   UNL A   1      44.360  27.641  28.654  1.00  0.00    -0.246 OA
BRANCH  31  33
ATOM     33  C   UNL A   1      42.600  26.831  30.041  1.00  0.00     0.060 A 
ATOM     34  C   UNL A   1      41.423  26.836  29.293  1.00  0.00     0.016 A 
ATOM     35  C   UNL A   1      42.731  27.607  31.176  1.00  0.00     0.016 A 
ATOM     36  C   UNL A   1      40.713  28.026  29.306  1.00  0.00     0.010 A 
ATOM     37  C   UNL A   1      41.780  28.560  31.327  1.00  0.00     0.010 A 
ATOM     38  C   UNL A   1      41.161  29.039  30.173  1.00  0.00    -0.014 A 
BRANCH  38  39
ATOM     39  C   UNL A   1      40.485  30.338  30.386  1.00  0.00     0.031 A 
ATOM     40  C   UNL A   1      41.606  31.368  30.138  1.00  0.00     0.074 A 
ATOM     41  C   UNL A   1      39.126  30.509  30.641  1.00  0.00     0.049 A 
ATOM     42  N   UNL A   1      42.346  31.879  31.075  1.00  0.00    -0.248 NA
ATOM     43  C   UNL A   1      42.301  31.527  28.814  1.00  0.00     0.031 C 
ATOM     44  C   UNL A   1      37.992  29.549  30.840  1.00  0.00     0.029 A 
ATOM     45  N   UNL A   1      38.412  31.696  30.842  1.00  0.00    -0.354 N 
ATOM     46  C   UNL A   1      43.242  32.735  30.429  1.00  0.00     0.074 A 
ATOM     47  C   UNL A   1      43.406  32.215  29.119  1.00  0.00     0.031 C 
ATOM     48  C   UNL A   1      36.774  30.183  30.810  1.00  0.00     0.029 A 
ATOM     49  C   UNL A   1      36.973  31.620  30.724  1.00  0.00     0.049 A 
ATOM     50  H   UNL A   1      38.868  32.542  31.056  1.00  0.00     0.167 HD
ATOM     51  C   UNL A   1      43.364  34.019  30.866  1.00  0.00     0.037 A 
ATOM     52  C   UNL A   1      36.055  32.663  30.836  1.00  0.00     0.037 A 
ATOM     53  C   UNL A   1      42.837  34.091  32.207  1.00  0.00     0.049 A 
ATOM     54  C   UNL A   1      36.816  33.775  31.453  1.00  0.00     0.074 A 
ATOM     55  C   UNL A   1      43.203  33.531  33.414  1.00  0.00     0.029 A 
ATOM     56  N   UNL A   1      41.474  34.228  32.225  1.00  0.00    -0.354 N 
ATOM     57  N   UNL A   1      37.238  33.711  32.682  1.00  0.00    -0.248 NA
ATOM     58  C   UNL A   1      37.592  34.570  30.512  1.00  0.00     0.031 C 
ATOM     59  C   UNL A   1      41.989  33.091  34.023  1.00  0.00     0.029 A 
ATOM     60  C   UNL A   1      40.915  33.582  33.289  1.00  0.00     0.049 A 
ATOM     61  H   UNL A   1      40.961  34.730  31.553  1.00  0.00     0.167 HD
ATOM     62  C   UNL A   1      38.581  34.013  32.568  1.00  0.00     0.074 A 
ATOM     63  C   UNL A   1      38.738  34.548  31.198  1.00  0.00     0.031 C 
ATOM     64  C   UNL A   1      39.489  33.459  33.429  1.00  0.00     0.037 A 
BRANCH  51  65
ATOM     65  C   UNL A   1      43.429  35.234  29.958  1.00  0.00     0.057 A 
ATOM     66  C   UNL A   1      42.342  35.505  29.110  1.00  0.00     0.134 A 
ATOM     67  C   UNL A   1      44.583  36.011  29.698  1.00  0.00     0.134 A 
ATOM     68  F   UNL A   1      41.211  34.791  29.204  1.00  0.00    -0.206 F 
ATOM     69  C   UNL A   1      42.391  36.479  28.101  1.00  0.00     0.040 A 
ATOM     70  C   UNL A   1      44.630  37.017  28.723  1.00  0.00     0.040 A 
ATOM     71  F   UNL A   1      45.754  35.786  30.304  1.00  0.00    -0.206 F 
ATOM     72  C   UNL A   1      43.532  37.249  27.913  1.00  0.00     0.006 A 
ENDBRANCH  51  65
BRANCH  52  73
ATOM     73  C   UNL A   1      34.818  33.077  30.048  1.00  0.00     0.057 A 
ATOM     74  C   UNL A   1      34.016  34.215  30.361  1.00  0.00     0.134 A 
ATOM     75  C   UNL A   1      34.663  32.608  28.742  1.00  0.00     0.134 A 
ATOM     76  F   UNL A   1      34.066  34.781  31.578  1.00  0.00    -0.206 F 
ATOM     77  C   UNL A   1      33.189  34.866  29.411  1.00  0.00     0.040 A 
ATOM     78  C   UNL A   1      33.863  33.260  27.783  1.00  0.00     0.040 A 
ATOM     79  F   UNL A   1      35.374  31.554  28.323  1.00  0.00    -0.206 F 
ATOM     80  C   UNL A   1      33.141  34.406  28.102  1.00  0.00     0.006 A 
ENDBRANCH  52  73
BRANCH  64  81
ATOM     81  C   UNL A   1      38.988  32.690  34.628  1.00  0.00     0.057 A 
ATOM     82  C   UNL A   1      38.915  31.292  34.771  1.00  0.00     0.134 A 
ATOM     83  C   UNL A   1      38.723  33.444  35.771  1.00  0.00     0.134 A 
ATOM     84  F   UNL A   1      39.272  30.470  33.777  1.00  0.00    -0.206 F 
ATOM     85  C   UNL A   1      38.539  30.686  35.982  1.00  0.00     0.040 A 
ATOM     86  C   UNL A   1      38.386  32.856  36.989  1.00  0.00     0.040 A 
ATOM     87  F   UNL A   1      38.863  34.777  35.735  1.00  0.00    -0.206 F 
ATOM     88  C   UNL A   1      38.270  31.475  37.097  1.00  0.00     0.006 A 
ENDBRANCH  64  81
ENDBRANCH  38  39
ENDBRANCH  31  33
ENDBRANCH  30  31
ENDBRANCH  29  30
ENDBRANCH  28  29
ENDBRANCH  27  28
ENDBRANCH  26  27
ENDBRANCH  25  26
ENDBRANCH  24  25
ENDBRANCH   1  24
TORSDOF 23
ENDMDL
