MODEL 1
REMARK VINA RESULT:     -10.3      0.000      0.000
REMARK SMILES Nc1ccc2[nH]cc(C(=O)OCCOCCOCCOCCOC(=O)c3ccc(-c4c5nc(c(-c6c(F)cccc6F)c6ccc([nH]6)c(-c6c(F)cccc6F)c6nc(c(-c7c(F)cccc7F)c7ccc4[nH]7)C=C6)C=C5)cc3)c2c1
REMARK SMILES IDX 18 1 17 2 16 3 15 4 14 5 13 6 12 7 11 8 9 9 10 10 8 11 2 12
REMARK SMILES IDX 3 13 81 14 4 15 80 16 5 17 6 18 7 19 1 21 19 24 20 25 21 26
REMARK SMILES IDX 22 27 23 28 24 29 25 30 26 31 27 32 79 33 28 34 78 35 29 36
REMARK SMILES IDX 30 37 31 38 72 39 32 40 77 41 71 42 73 43 33 44 76 45 70 46
REMARK SMILES IDX 69 47 34 49 60 50 43 51 59 52 44 53 47 54 58 55 74 56 45 57
REMARK SMILES IDX 46 58 57 60 75 61 48 62 35 63 36 64 41 65 37 66 38 67 40 68
REMARK SMILES IDX 42 69 39 70 61 71 62 72 67 73 63 74 64 75 66 76 68 77 65 78
REMARK SMILES IDX 49 79 50 80 55 81 51 82 52 83 54 84 56 85 53 86
REMARK H PARENT 6 20 1 22 1 23 73 48 47 59
REMARK Flexibility Score: inf
ROOT
ATOM      1  C   UNL A   1      40.103  21.484  26.272  1.00  0.00     0.188 C 
ENDROOT
BRANCH   1   2
ATOM      2  O   UNL A   1      38.793  21.836  25.834  1.00  0.00    -0.377 OA
BRANCH   2   3
ATOM      3  C   UNL A   1      38.000  20.839  25.221  1.00  0.00     0.188 C 
BRANCH   3   4
ATOM      4  C   UNL A   1      36.526  21.187  24.964  1.00  0.00     0.188 C 
BRANCH   4   5
ATOM      5  O   UNL A   1      35.988  22.148  25.866  1.00  0.00    -0.376 OA
BRANCH   5   6
ATOM      6  C   UNL A   1      36.115  23.517  25.502  1.00  0.00     0.202 C 
BRANCH   6   7
ATOM      7  C   UNL A   1      34.807  24.313  25.362  1.00  0.00     0.261 C 
BRANCH   7   8
ATOM      8  O   UNL A   1      33.637  23.680  25.895  1.00  0.00    -0.460 OA
BRANCH   8   9
ATOM      9  C   UNL A   1      32.488  23.804  25.171  1.00  0.00     0.340 C 
ATOM     10  O   UNL A   1      31.745  24.764  25.222  1.00  0.00    -0.246 OA
BRANCH   9  11
ATOM     11  C   UNL A   1      32.353  22.725  24.197  1.00  0.00     0.085 A 
ATOM     12  C   UNL A   1      32.741  19.080  25.345  1.00  0.00     0.032 A 
ATOM     13  C   UNL A   1      32.515  18.526  24.086  1.00  0.00     0.027 A 
ATOM     14  C   UNL A   1      32.707  20.473  25.497  1.00  0.00     0.036 A 
ATOM     15  C   UNL A   1      32.322  19.324  22.953  1.00  0.00     0.029 A 
ATOM     16  C   UNL A   1      32.481  21.310  24.381  1.00  0.00     0.016 A 
ATOM     17  C   UNL A   1      32.307  20.710  23.133  1.00  0.00     0.046 A 
ATOM     18  N   UNL A   1      32.132  21.718  22.216  1.00  0.00    -0.360 N 
ATOM     19  C   UNL A   1      32.119  22.931  22.846  1.00  0.00     0.099 A 
ATOM     20  H   UNL A   1      32.030  21.586  21.245  1.00  0.00     0.166 HD
BRANCH  12  21
ATOM     21  N   UNL A   1      32.857  18.261  26.460  1.00  0.00    -0.399 N 
ATOM     22  H   UNL A   1      32.194  17.549  26.620  1.00  0.00     0.156 HD
ATOM     23  H   UNL A   1      33.601  18.390  27.092  1.00  0.00     0.156 HD
ENDBRANCH  12  21
ENDBRANCH   9  11
ENDBRANCH   8   9
ENDBRANCH   7   8
ENDBRANCH   6   7
ENDBRANCH   5   6
ENDBRANCH   4   5
ENDBRANCH   3   4
ENDBRANCH   2   3
ENDBRANCH   1   2
BRANCH   1  24
ATOM     24  C   UNL A   1      40.614  20.033  26.148  1.00  0.00     0.188 C 
BRANCH  24  25
ATOM     25  O   UNL A   1      41.947  19.887  26.608  1.00  0.00    -0.376 OA
BRANCH  25  26
ATOM     26  C   UNL A   1      42.629  18.693  26.265  1.00  0.00     0.202 C 
BRANCH  26  27
ATOM     27  C   UNL A   1      43.670  18.755  25.134  1.00  0.00     0.261 C 
BRANCH  27  28
ATOM     28  O   UNL A   1      43.925  20.075  24.629  1.00  0.00    -0.460 OA
BRANCH  28  29
ATOM     29  C   UNL A   1      45.161  20.615  24.729  1.00  0.00     0.338 C 
ATOM     30  O   UNL A   1      46.198  20.173  24.277  1.00  0.00    -0.246 OA
BRANCH  29  31
ATOM     31  C   UNL A   1      44.941  22.013  25.195  1.00  0.00     0.060 A 
ATOM     32  C   UNL A   1      45.658  22.531  26.277  1.00  0.00     0.016 A 
ATOM     33  C   UNL A   1      43.792  22.672  24.731  1.00  0.00     0.016 A 
ATOM     34  C   UNL A   1      45.147  23.628  26.967  1.00  0.00     0.010 A 
ATOM     35  C   UNL A   1      43.287  23.777  25.422  1.00  0.00     0.010 A 
ATOM     36  C   UNL A   1      43.940  24.237  26.567  1.00  0.00    -0.014 A 
BRANCH  36  37
ATOM     37  C   UNL A   1      43.561  25.479  27.263  1.00  0.00     0.031 A 
ATOM     38  C   UNL A   1      44.542  26.580  27.041  1.00  0.00     0.074 A 
ATOM     39  C   UNL A   1      42.419  25.782  27.917  1.00  0.00     0.049 A 
ATOM     40  N   UNL A   1      45.263  27.209  27.911  1.00  0.00    -0.248 NA
ATOM     41  C   UNL A   1      44.822  26.938  25.642  1.00  0.00     0.031 C 
ATOM     42  C   UNL A   1      41.176  25.018  27.986  1.00  0.00     0.029 A 
ATOM     43  N   UNL A   1      42.115  26.931  28.608  1.00  0.00    -0.354 N 
ATOM     44  C   UNL A   1      45.985  28.151  27.186  1.00  0.00     0.074 A 
ATOM     45  C   UNL A   1      45.774  27.856  25.792  1.00  0.00     0.031 C 
ATOM     46  C   UNL A   1      40.202  25.799  28.512  1.00  0.00     0.029 A 
ATOM     47  C   UNL A   1      40.767  27.080  28.914  1.00  0.00     0.049 A 
ATOM     48  H   UNL A   1      42.796  27.595  28.865  1.00  0.00     0.167 HD
ATOM     49  C   UNL A   1      46.559  29.236  27.769  1.00  0.00     0.037 A 
ATOM     50  C   UNL A   1      40.150  28.185  29.406  1.00  0.00     0.037 A 
ATOM     51  C   UNL A   1      46.713  29.076  29.189  1.00  0.00     0.049 A 
ATOM     52  C   UNL A   1      41.178  29.089  29.971  1.00  0.00     0.074 A 
ATOM     53  C   UNL A   1      47.374  28.187  30.015  1.00  0.00     0.029 A 
ATOM     54  N   UNL A   1      45.879  29.790  30.012  1.00  0.00    -0.354 N 
ATOM     55  N   UNL A   1      41.796  28.901  31.100  1.00  0.00    -0.248 NA
ATOM     56  C   UNL A   1      41.764  30.097  29.100  1.00  0.00     0.031 C 
ATOM     57  C   UNL A   1      46.572  28.097  31.191  1.00  0.00     0.029 A 
ATOM     58  C   UNL A   1      45.478  28.942  31.008  1.00  0.00     0.049 A 
ATOM     59  H   UNL A   1      45.619  30.734  29.906  1.00  0.00     0.167 HD
ATOM     60  C   UNL A   1      43.058  29.433  30.901  1.00  0.00     0.074 A 
ATOM     61  C   UNL A   1      42.937  30.267  29.711  1.00  0.00     0.031 C 
ATOM     62  C   UNL A   1      44.143  28.926  31.553  1.00  0.00     0.037 A 
BRANCH  49  63
ATOM     63  C   UNL A   1      46.662  30.582  27.099  1.00  0.00     0.057 A 
ATOM     64  C   UNL A   1      45.543  31.349  26.715  1.00  0.00     0.134 A 
ATOM     65  C   UNL A   1      47.886  31.271  27.114  1.00  0.00     0.134 A 
ATOM     66  F   UNL A   1      44.296  30.860  26.737  1.00  0.00    -0.206 F 
ATOM     67  C   UNL A   1      45.632  32.704  26.385  1.00  0.00     0.040 A 
ATOM     68  C   UNL A   1      47.977  32.640  26.841  1.00  0.00     0.040 A 
ATOM     69  F   UNL A   1      49.019  30.652  27.483  1.00  0.00    -0.206 F 
ATOM     70  C   UNL A   1      46.846  33.363  26.481  1.00  0.00     0.006 A 
ENDBRANCH  49  63
BRANCH  50  71
ATOM     71  C   UNL A   1      38.739  28.631  29.288  1.00  0.00     0.057 A 
ATOM     72  C   UNL A   1      38.259  29.249  28.121  1.00  0.00     0.134 A 
ATOM     73  C   UNL A   1      37.892  28.701  30.408  1.00  0.00     0.134 A 
ATOM     74  F   UNL A   1      39.013  29.320  27.016  1.00  0.00    -0.206 F 
ATOM     75  C   UNL A   1      37.021  29.899  28.070  1.00  0.00     0.040 A 
ATOM     76  C   UNL A   1      36.655  29.360  30.374  1.00  0.00     0.040 A 
ATOM     77  F   UNL A   1      38.271  28.184  31.586  1.00  0.00    -0.206 F 
ATOM     78  C   UNL A   1      36.219  29.968  29.202  1.00  0.00     0.006 A 
ENDBRANCH  50  71
BRANCH  62  79
ATOM     79  C   UNL A   1      43.896  28.060  32.753  1.00  0.00     0.057 A 
ATOM     80  C   UNL A   1      43.881  28.661  34.017  1.00  0.00     0.134 A 
ATOM     81  C   UNL A   1      43.774  26.662  32.708  1.00  0.00     0.134 A 
ATOM     82  F   UNL A   1      44.049  29.988  34.139  1.00  0.00    -0.206 F 
ATOM     83  C   UNL A   1      43.725  27.914  35.186  1.00  0.00     0.040 A 
ATOM     84  C   UNL A   1      43.576  25.909  33.869  1.00  0.00     0.040 A 
ATOM     85  F   UNL A   1      43.888  25.989  31.554  1.00  0.00    -0.206 F 
ATOM     86  C   UNL A   1      43.556  26.535  35.112  1.00  0.00     0.006 A 
ENDBRANCH  62  79
ENDBRANCH  36  37
ENDBRANCH  29  31
ENDBRANCH  28  29
ENDBRANCH  27  28
ENDBRANCH  26  27
ENDBRANCH  25  26
ENDBRANCH  24  25
ENDBRANCH   1  24
TORSDOF 21
ENDMDL
MODEL 2
REMARK VINA RESULT:      -9.9      1.955      2.766
REMARK SMILES Nc1ccc2[nH]cc(C(=O)OCCOCCOCCOCCOC(=O)c3ccc(-c4c5nc(c(-c6c(F)cccc6F)c6ccc([nH]6)c(-c6c(F)cccc6F)c6nc(c(-c7c(F)cccc7F)c7ccc4[nH]7)C=C6)C=C5)cc3)c2c1
REMARK SMILES IDX 18 1 17 2 16 3 15 4 14 5 13 6 12 7 11 8 9 9 10 10 8 11 2 12
REMARK SMILES IDX 3 13 81 14 4 15 80 16 5 17 6 18 7 19 1 21 19 24 20 25 21 26
REMARK SMILES IDX 22 27 23 28 24 29 25 30 26 31 27 32 79 33 28 34 78 35 29 36
REMARK SMILES IDX 30 37 31 38 72 39 32 40 77 41 71 42 73 43 33 44 76 45 70 46
REMARK SMILES IDX 69 47 34 49 60 50 43 51 59 52 44 53 47 54 58 55 74 56 45 57
REMARK SMILES IDX 46 58 57 60 75 61 48 62 35 63 36 64 41 65 37 66 38 67 40 68
REMARK SMILES IDX 42 69 39 70 61 71 62 72 67 73 63 74 64 75 66 76 68 77 65 78
REMARK SMILES IDX 49 79 50 80 55 81 51 82 52 83 54 84 56 85 53 86
REMARK H PARENT 6 20 1 22 1 23 73 48 47 59
REMARK Flexibility Score: inf
ROOT
ATOM      1  C   UNL A   1      40.320  20.939  26.641  1.00  0.00     0.188 C 
ENDROOT
BRANCH   1   2
ATOM      2  O   UNL A   1      39.600  21.750  25.715  1.00  0.00    -0.377 OA
BRANCH   2   3
ATOM      3  C   UNL A   1      38.438  22.415  26.167  1.00  0.00     0.188 C 
BRANCH   3   4
ATOM      4  C   UNL A   1      37.170  22.248  25.318  1.00  0.00     0.188 C 
BRANCH   4   5
ATOM      5  O   UNL A   1      36.118  21.546  25.972  1.00  0.00    -0.376 OA
BRANCH   5   6
ATOM      6  C   UNL A   1      34.796  21.777  25.501  1.00  0.00     0.202 C 
BRANCH   6   7
ATOM      7  C   UNL A   1      33.784  22.307  26.531  1.00  0.00     0.261 C 
BRANCH   7   8
ATOM      8  O   UNL A   1      33.707  23.734  26.645  1.00  0.00    -0.460 OA
BRANCH   8   9
ATOM      9  C   UNL A   1      32.462  24.287  26.598  1.00  0.00     0.340 C 
ATOM     10  O   UNL A   1      31.529  23.939  27.292  1.00  0.00    -0.246 OA
BRANCH   9  11
ATOM     11  C   UNL A   1      32.436  25.467  25.738  1.00  0.00     0.085 A 
ATOM     12  C   UNL A   1      29.145  26.508  24.052  1.00  0.00     0.032 A 
ATOM     13  C   UNL A   1      29.678  27.626  23.412  1.00  0.00     0.027 A 
ATOM     14  C   UNL A   1      29.977  25.717  24.857  1.00  0.00     0.036 A 
ATOM     15  C   UNL A   1      31.038  27.944  23.495  1.00  0.00     0.029 A 
ATOM     16  C   UNL A   1      31.349  26.027  24.992  1.00  0.00     0.016 A 
ATOM     17  C   UNL A   1      31.846  27.129  24.294  1.00  0.00     0.046 A 
ATOM     18  N   UNL A   1      33.191  27.209  24.562  1.00  0.00    -0.360 N 
ATOM     19  C   UNL A   1      33.552  26.241  25.457  1.00  0.00     0.099 A 
ATOM     20  H   UNL A   1      33.806  27.868  24.166  1.00  0.00     0.166 HD
BRANCH  12  21
ATOM     21  N   UNL A   1      27.779  26.261  24.009  1.00  0.00    -0.399 N 
ATOM     22  H   UNL A   1      27.322  26.175  23.141  1.00  0.00     0.156 HD
ATOM     23  H   UNL A   1      27.268  26.171  24.845  1.00  0.00     0.156 HD
ENDBRANCH  12  21
ENDBRANCH   9  11
ENDBRANCH   8   9
ENDBRANCH   7   8
ENDBRANCH   6   7
ENDBRANCH   5   6
ENDBRANCH   4   5
ENDBRANCH   3   4
ENDBRANCH   2   3
ENDBRANCH   1   2
BRANCH   1  24
ATOM     24  C   UNL A   1      41.365  19.916  26.148  1.00  0.00     0.188 C 
BRANCH  24  25
ATOM     25  O   UNL A   1      42.118  19.357  27.210  1.00  0.00    -0.376 OA
BRANCH  25  26
ATOM     26  C   UNL A   1      43.204  18.512  26.867  1.00  0.00     0.202 C 
BRANCH  26  27
ATOM     27  C   UNL A   1      43.592  18.400  25.382  1.00  0.00     0.261 C 
BRANCH  27  28
ATOM     28  O   UNL A   1      44.830  19.041  25.039  1.00  0.00    -0.460 OA
BRANCH  28  29
ATOM     29  C   UNL A   1      44.887  19.892  23.989  1.00  0.00     0.338 C 
ATOM     30  O   UNL A   1      44.740  19.624  22.813  1.00  0.00    -0.246 OA
BRANCH  29  31
ATOM     31  C   UNL A   1      44.822  21.256  24.586  1.00  0.00     0.060 A 
ATOM     32  C   UNL A   1      45.570  21.579  25.721  1.00  0.00     0.016 A 
ATOM     33  C   UNL A   1      43.770  22.088  24.174  1.00  0.00     0.016 A 
ATOM     34  C   UNL A   1      45.175  22.659  26.509  1.00  0.00     0.010 A 
ATOM     35  C   UNL A   1      43.382  23.175  24.963  1.00  0.00     0.010 A 
ATOM     36  C   UNL A   1      44.057  23.443  26.155  1.00  0.00    -0.014 A 
BRANCH  36  37
ATOM     37  C   UNL A   1      43.811  24.649  26.964  1.00  0.00     0.031 A 
ATOM     38  C   UNL A   1      44.902  25.657  26.834  1.00  0.00     0.074 A 
ATOM     39  C   UNL A   1      42.706  25.010  27.653  1.00  0.00     0.049 A 
ATOM     40  N   UNL A   1      45.684  26.125  27.750  1.00  0.00    -0.248 NA
ATOM     41  C   UNL A   1      45.219  26.109  25.469  1.00  0.00     0.031 C 
ATOM     42  C   UNL A   1      41.390  24.377  27.663  1.00  0.00     0.029 A 
ATOM     43  N   UNL A   1      42.525  26.117  28.447  1.00  0.00    -0.354 N 
ATOM     44  C   UNL A   1      46.503  27.049  27.106  1.00  0.00     0.074 A 
ATOM     45  C   UNL A   1      46.262  26.905  25.693  1.00  0.00     0.031 C 
ATOM     46  C   UNL A   1      40.503  25.204  28.267  1.00  0.00     0.029 A 
ATOM     47  C   UNL A   1      41.200  26.377  28.778  1.00  0.00     0.049 A 
ATOM     48  H   UNL A   1      43.271  26.679  28.757  1.00  0.00     0.167 HD
ATOM     49  C   UNL A   1      47.187  28.010  27.780  1.00  0.00     0.037 A 
ATOM     50  C   UNL A   1      40.702  27.492  29.373  1.00  0.00     0.037 A 
ATOM     51  C   UNL A   1      47.322  27.707  29.178  1.00  0.00     0.049 A 
ATOM     52  C   UNL A   1      41.819  28.229  30.008  1.00  0.00     0.074 A 
ATOM     53  C   UNL A   1      47.886  26.683  29.914  1.00  0.00     0.029 A 
ATOM     54  N   UNL A   1      46.568  28.426  30.069  1.00  0.00    -0.354 N 
ATOM     55  N   UNL A   1      42.413  27.875  31.110  1.00  0.00    -0.248 NA
ATOM     56  C   UNL A   1      42.508  29.245  29.227  1.00  0.00     0.031 C 
ATOM     57  C   UNL A   1      47.078  26.570  31.084  1.00  0.00     0.029 A 
ATOM     58  C   UNL A   1      46.079  27.538  30.989  1.00  0.00     0.049 A 
ATOM     59  H   UNL A   1      46.409  29.398  30.051  1.00  0.00     0.167 HD
ATOM     60  C   UNL A   1      43.725  28.288  30.948  1.00  0.00     0.074 A 
ATOM     61  C   UNL A   1      43.693  29.234  29.840  1.00  0.00     0.031 C 
ATOM     62  C   UNL A   1      44.750  27.613  31.542  1.00  0.00     0.037 A 
BRANCH  49  63
ATOM     63  C   UNL A   1      47.431  29.393  27.233  1.00  0.00     0.057 A 
ATOM     64  C   UNL A   1      46.400  30.315  26.954  1.00  0.00     0.134 A 
ATOM     65  C   UNL A   1      48.726  29.935  27.275  1.00  0.00     0.134 A 
ATOM     66  F   UNL A   1      45.106  29.969  26.968  1.00  0.00    -0.206 F 
ATOM     67  C   UNL A   1      46.638  31.675  26.747  1.00  0.00     0.040 A 
ATOM     68  C   UNL A   1      48.969  31.305  27.126  1.00  0.00     0.040 A 
ATOM     69  F   UNL A   1      49.787  29.161  27.552  1.00  0.00    -0.206 F 
ATOM     70  C   UNL A   1      47.922  32.181  26.867  1.00  0.00     0.006 A 
ENDBRANCH  49  63
BRANCH  50  71
ATOM     71  C   UNL A   1      39.346  28.093  29.308  1.00  0.00     0.057 A 
ATOM     72  C   UNL A   1      38.931  28.852  28.202  1.00  0.00     0.134 A 
ATOM     73  C   UNL A   1      38.514  28.158  30.440  1.00  0.00     0.134 A 
ATOM     74  F   UNL A   1      39.685  28.936  27.098  1.00  0.00    -0.206 F 
ATOM     75  C   UNL A   1      37.768  29.631  28.219  1.00  0.00     0.040 A 
ATOM     76  C   UNL A   1      37.354  28.943  30.475  1.00  0.00     0.040 A 
ATOM     77  F   UNL A   1      38.839  27.507  31.567  1.00  0.00    -0.206 F 
ATOM     78  C   UNL A   1      36.982  29.690  29.362  1.00  0.00     0.006 A 
ENDBRANCH  50  71
BRANCH  62  79
ATOM     79  C   UNL A   1      44.412  26.672  32.661  1.00  0.00     0.057 A 
ATOM     80  C   UNL A   1      44.411  27.167  33.970  1.00  0.00     0.134 A 
ATOM     81  C   UNL A   1      44.191  25.296  32.497  1.00  0.00     0.134 A 
ATOM     82  F   UNL A   1      44.672  28.464  34.205  1.00  0.00    -0.206 F 
ATOM     83  C   UNL A   1      44.174  26.341  35.070  1.00  0.00     0.040 A 
ATOM     84  C   UNL A   1      43.911  24.467  33.588  1.00  0.00     0.040 A 
ATOM     85  F   UNL A   1      44.284  24.712  31.293  1.00  0.00    -0.206 F 
ATOM     86  C   UNL A   1      43.907  24.988  34.879  1.00  0.00     0.006 A 
ENDBRANCH  62  79
ENDBRANCH  36  37
ENDBRANCH  29  31
ENDBRANCH  28  29
ENDBRANCH  27  28
ENDBRANCH  26  27
ENDBRANCH  25  26
ENDBRANCH  24  25
ENDBRANCH   1  24
TORSDOF 21
ENDMDL
MODEL 3
REMARK VINA RESULT:      -9.7      1.799      2.862
REMARK SMILES Nc1ccc2[nH]cc(C(=O)OCCOCCOCCOCCOC(=O)c3ccc(-c4c5nc(c(-c6c(F)cccc6F)c6ccc([nH]6)c(-c6c(F)cccc6F)c6nc(c(-c7c(F)cccc7F)c7ccc4[nH]7)C=C6)C=C5)cc3)c2c1
REMARK SMILES IDX 18 1 17 2 16 3 15 4 14 5 13 6 12 7 11 8 9 9 10 10 8 11 2 12
REMARK SMILES IDX 3 13 81 14 4 15 80 16 5 17 6 18 7 19 1 21 19 24 20 25 21 26
REMARK SMILES IDX 22 27 23 28 24 29 25 30 26 31 27 32 79 33 28 34 78 35 29 36
REMARK SMILES IDX 30 37 31 38 72 39 32 40 77 41 71 42 73 43 33 44 76 45 70 46
REMARK SMILES IDX 69 47 34 49 60 50 43 51 59 52 44 53 47 54 58 55 74 56 45 57
REMARK SMILES IDX 46 58 57 60 75 61 48 62 35 63 36 64 41 65 37 66 38 67 40 68
REMARK SMILES IDX 42 69 39 70 61 71 62 72 67 73 63 74 64 75 66 76 68 77 65 78
REMARK SMILES IDX 49 79 50 80 55 81 51 82 52 83 54 84 56 85 53 86
REMARK H PARENT 6 20 1 22 1 23 73 48 47 59
REMARK Flexibility Score: inf
ROOT
ATOM      1  C   UNL A   1      40.990  21.032  26.229  1.00  0.00     0.188 C 
ENDROOT
BRANCH   1   2
ATOM      2  O   UNL A   1      39.645  21.462  26.025  1.00  0.00    -0.377 OA
BRANCH   2   3
ATOM      3  C   UNL A   1      39.289  22.768  26.432  1.00  0.00     0.188 C 
BRANCH   3   4
ATOM      4  C   UNL A   1      37.948  23.312  25.919  1.00  0.00     0.188 C 
BRANCH   4   5
ATOM      5  O   UNL A   1      37.092  22.320  25.362  1.00  0.00    -0.376 OA
BRANCH   5   6
ATOM      6  C   UNL A   1      35.704  22.624  25.303  1.00  0.00     0.202 C 
BRANCH   6   7
ATOM      7  C   UNL A   1      34.847  22.148  26.489  1.00  0.00     0.261 C 
BRANCH   7   8
ATOM      8  O   UNL A   1      33.431  22.139  26.266  1.00  0.00    -0.460 OA
BRANCH   8   9
ATOM      9  C   UNL A   1      32.646  22.587  27.285  1.00  0.00     0.340 C 
ATOM     10  O   UNL A   1      32.858  22.370  28.461  1.00  0.00    -0.246 OA
BRANCH   9  11
ATOM     11  C   UNL A   1      31.620  23.508  26.803  1.00  0.00     0.085 A 
ATOM     12  C   UNL A   1      32.666  26.876  25.280  1.00  0.00     0.032 A 
ATOM     13  C   UNL A   1      31.367  27.298  25.004  1.00  0.00     0.027 A 
ATOM     14  C   UNL A   1      32.867  25.624  25.878  1.00  0.00     0.036 A 
ATOM     15  C   UNL A   1      30.250  26.538  25.368  1.00  0.00     0.029 A 
ATOM     16  C   UNL A   1      31.764  24.812  26.229  1.00  0.00     0.016 A 
ATOM     17  C   UNL A   1      30.481  25.300  25.976  1.00  0.00     0.046 A 
ATOM     18  N   UNL A   1      29.589  24.355  26.422  1.00  0.00    -0.360 N 
ATOM     19  C   UNL A   1      30.259  23.257  26.887  1.00  0.00     0.099 A 
ATOM     20  H   UNL A   1      28.610  24.454  26.410  1.00  0.00     0.166 HD
BRANCH  12  21
ATOM     21  N   UNL A   1      33.753  27.620  24.841  1.00  0.00    -0.399 N 
ATOM     22  H   UNL A   1      34.222  27.365  24.013  1.00  0.00     0.156 HD
ATOM     23  H   UNL A   1      34.056  28.402  25.357  1.00  0.00     0.156 HD
ENDBRANCH  12  21
ENDBRANCH   9  11
ENDBRANCH   8   9
ENDBRANCH   7   8
ENDBRANCH   6   7
ENDBRANCH   5   6
ENDBRANCH   4   5
ENDBRANCH   3   4
ENDBRANCH   2   3
ENDBRANCH   1   2
BRANCH   1  24
ATOM     24  C   UNL A   1      41.350  19.531  26.209  1.00  0.00     0.188 C 
BRANCH  24  25
ATOM     25  O   UNL A   1      42.372  19.233  25.274  1.00  0.00    -0.376 OA
BRANCH  25  26
ATOM     26  C   UNL A   1      43.544  18.604  25.766  1.00  0.00     0.202 C 
BRANCH  26  27
ATOM     27  C   UNL A   1      44.876  18.899  25.054  1.00  0.00     0.261 C 
BRANCH  27  28
ATOM     28  O   UNL A   1      45.328  20.256  25.172  1.00  0.00    -0.460 OA
BRANCH  28  29
ATOM     29  C   UNL A   1      44.854  21.208  24.335  1.00  0.00     0.338 C 
ATOM     30  O   UNL A   1      44.645  21.103  23.143  1.00  0.00    -0.246 OA
BRANCH  29  31
ATOM     31  C   UNL A   1      44.320  22.280  25.222  1.00  0.00     0.060 A 
ATOM     32  C   UNL A   1      43.363  23.185  24.758  1.00  0.00     0.016 A 
ATOM     33  C   UNL A   1      45.026  22.544  26.406  1.00  0.00     0.016 A 
ATOM     34  C   UNL A   1      43.213  24.408  25.411  1.00  0.00     0.010 A 
ATOM     35  C   UNL A   1      44.867  23.769  27.061  1.00  0.00     0.010 A 
ATOM     36  C   UNL A   1      43.989  24.723  26.544  1.00  0.00    -0.014 A 
BRANCH  36  37
ATOM     37  C   UNL A   1      43.652  25.971  27.251  1.00  0.00     0.031 A 
ATOM     38  C   UNL A   1      44.663  27.045  27.027  1.00  0.00     0.074 A 
ATOM     39  C   UNL A   1      42.525  26.304  27.917  1.00  0.00     0.049 A 
ATOM     40  N   UNL A   1      45.409  27.647  27.894  1.00  0.00    -0.248 NA
ATOM     41  C   UNL A   1      44.941  27.403  25.627  1.00  0.00     0.031 C 
ATOM     42  C   UNL A   1      41.261  25.576  27.992  1.00  0.00     0.029 A 
ATOM     43  N   UNL A   1      42.261  27.457  28.617  1.00  0.00    -0.354 N 
ATOM     44  C   UNL A   1      46.153  28.573  27.168  1.00  0.00     0.074 A 
ATOM     45  C   UNL A   1      45.921  28.292  25.774  1.00  0.00     0.031 C 
ATOM     46  C   UNL A   1      40.315  26.381  28.532  1.00  0.00     0.029 A 
ATOM     47  C   UNL A   1      40.921  27.643  28.936  1.00  0.00     0.049 A 
ATOM     48  H   UNL A   1      42.963  28.099  28.872  1.00  0.00     0.167 HD
ATOM     49  C   UNL A   1      46.763  29.636  27.752  1.00  0.00     0.037 A 
ATOM     50  C   UNL A   1      40.340  28.763  29.440  1.00  0.00     0.037 A 
ATOM     51  C   UNL A   1      46.924  29.463  29.170  1.00  0.00     0.049 A 
ATOM     52  C   UNL A   1      41.399  29.633  30.001  1.00  0.00     0.074 A 
ATOM     53  C   UNL A   1      47.566  28.551  29.984  1.00  0.00     0.029 A 
ATOM     54  N   UNL A   1      46.119  30.196  30.004  1.00  0.00    -0.354 N 
ATOM     55  N   UNL A   1      42.021  29.420  31.123  1.00  0.00    -0.248 NA
ATOM     56  C   UNL A   1      42.007  30.629  29.131  1.00  0.00     0.031 C 
ATOM     57  C   UNL A   1      46.773  28.476  31.167  1.00  0.00     0.029 A 
ATOM     58  C   UNL A   1      45.702  29.354  30.999  1.00  0.00     0.049 A 
ATOM     59  H   UNL A   1      45.886  31.148  29.906  1.00  0.00     0.167 HD
ATOM     60  C   UNL A   1      43.297  29.916  30.916  1.00  0.00     0.074 A 
ATOM     61  C   UNL A   1      43.190  30.760  29.733  1.00  0.00     0.031 C 
ATOM     62  C   UNL A   1      44.373  29.374  31.556  1.00  0.00     0.037 A 
BRANCH  49  63
ATOM     63  C   UNL A   1      46.899  30.983  27.089  1.00  0.00     0.057 A 
ATOM     64  C   UNL A   1      45.800  31.791  26.732  1.00  0.00     0.134 A 
ATOM     65  C   UNL A   1      48.147  31.629  27.084  1.00  0.00     0.134 A 
ATOM     66  F   UNL A   1      44.538  31.345  26.777  1.00  0.00    -0.206 F 
ATOM     67  C   UNL A   1      45.929  33.144  26.410  1.00  0.00     0.040 A 
ATOM     68  C   UNL A   1      48.280  32.996  26.818  1.00  0.00     0.040 A 
ATOM     69  F   UNL A   1      49.264  30.969  27.426  1.00  0.00    -0.206 F 
ATOM     70  C   UNL A   1      47.168  33.760  26.486  1.00  0.00     0.006 A 
ENDBRANCH  49  63
BRANCH  50  71
ATOM     71  C   UNL A   1      38.942  29.251  29.337  1.00  0.00     0.057 A 
ATOM     72  C   UNL A   1      38.062  29.193  30.430  1.00  0.00     0.134 A 
ATOM     73  C   UNL A   1      38.354  29.544  28.095  1.00  0.00     0.134 A 
ATOM     74  F   UNL A   1      38.494  28.840  31.649  1.00  0.00    -0.206 F 
ATOM     75  C   UNL A   1      36.686  29.409  30.299  1.00  0.00     0.040 A 
ATOM     76  C   UNL A   1      36.975  29.749  27.946  1.00  0.00     0.040 A 
ATOM     77  F   UNL A   1      39.094  29.579  26.977  1.00  0.00    -0.206 F 
ATOM     78  C   UNL A   1      36.135  29.674  29.052  1.00  0.00     0.006 A 
ENDBRANCH  50  71
BRANCH  62  79
ATOM     79  C   UNL A   1      44.110  28.508  32.753  1.00  0.00     0.057 A 
ATOM     80  C   UNL A   1      43.849  27.148  32.546  1.00  0.00     0.134 A 
ATOM     81  C   UNL A   1      44.012  28.986  34.068  1.00  0.00     0.134 A 
ATOM     82  F   UNL A   1      43.870  26.634  31.306  1.00  0.00    -0.206 F 
ATOM     83  C   UNL A   1      43.529  26.291  33.601  1.00  0.00     0.040 A 
ATOM     84  C   UNL A   1      43.733  28.129  35.137  1.00  0.00     0.040 A 
ATOM     85  F   UNL A   1      44.136  30.291  34.347  1.00  0.00    -0.206 F 
ATOM     86  C   UNL A   1      43.486  26.779  34.904  1.00  0.00     0.006 A 
ENDBRANCH  62  79
ENDBRANCH  36  37
ENDBRANCH  29  31
ENDBRANCH  28  29
ENDBRANCH  27  28
ENDBRANCH  26  27
ENDBRANCH  25  26
ENDBRANCH  24  25
ENDBRANCH   1  24
TORSDOF 21
ENDMDL
