MODEL 1
REMARK VINA RESULT:      -9.4      0.000      0.000
REMARK SMILES Cc1nn(C)cc1-c1ccnc2nc(CCC(=O)OCCOCCOCCOCCOC(=O)c3ccc(-c4c5nc(c(-c6c(F)cccc6F)c6ccc([nH]6)c(-c6c(F)cccc6F)c6nc(c(-c7c(F)cccc7F)c7ccc4[nH]7)C=C6)C=C5)cc3)nn12
REMARK SMILES IDX 24 1 23 2 22 3 21 4 20 5 19 6 17 7 18 8 16 9 15 10 14 11
REMARK SMILES IDX 8 12 9 13 89 14 10 15 12 16 88 17 11 18 13 19 7 20 1 21 2 22
REMARK SMILES IDX 3 23 4 24 6 25 5 26 25 27 26 28 27 29 28 30 29 31 30 32
REMARK SMILES IDX 31 33 32 34 33 35 34 36 35 37 87 38 36 39 86 40 37 41 38 42
REMARK SMILES IDX 39 43 80 44 40 45 85 46 79 47 81 48 41 49 84 50 78 51 77 52
REMARK SMILES IDX 42 54 68 55 51 56 67 57 52 58 55 59 66 60 82 61 53 62 54 63
REMARK SMILES IDX 65 65 83 66 56 67 43 68 44 69 49 70 45 71 46 72 48 73 50 74
REMARK SMILES IDX 47 75 69 76 70 77 75 78 71 79 72 80 74 81 76 82 73 83 57 84
REMARK SMILES IDX 58 85 63 86 59 87 60 88 62 89 64 90 61 91
REMARK H PARENT 81 53 55 64
REMARK Flexibility Score: inf
ROOT
ATOM      1  C   UNL A   1      34.363  35.141  30.366  1.00  0.00     0.188 C 
ENDROOT
BRANCH   1   2
ATOM      2  C   UNL A   1      34.499  34.602  28.929  1.00  0.00     0.188 C 
BRANCH   2   3
ATOM      3  O   UNL A   1      34.468  33.182  28.884  1.00  0.00    -0.376 OA
BRANCH   3   4
ATOM      4  C   UNL A   1      33.683  32.517  27.914  1.00  0.00     0.202 C 
BRANCH   4   5
ATOM      5  C   UNL A   1      34.040  31.096  27.467  1.00  0.00     0.261 C 
BRANCH   5   6
ATOM      6  O   UNL A   1      32.979  30.141  27.595  1.00  0.00    -0.463 OA
BRANCH   6   7
ATOM      7  C   UNL A   1      32.064  30.042  26.619  1.00  0.00     0.306 C 
ATOM      8  O   UNL A   1      31.544  31.008  26.070  1.00  0.00    -0.252 OA
BRANCH   7   9
ATOM      9  C   UNL A   1      31.759  28.613  26.200  1.00  0.00     0.131 C 
BRANCH   9  10
ATOM     10  C   UNL A   1      32.798  27.505  26.379  1.00  0.00     0.091 C 
BRANCH  10  11
ATOM     11  C   UNL A   1      32.850  26.468  25.312  1.00  0.00     0.154 A 
ATOM     12  C   UNL A   1      33.987  23.564  23.762  1.00  0.00     0.081 A 
ATOM     13  C   UNL A   1      33.761  23.201  22.486  1.00  0.00     0.049 A 
ATOM     14  N   UNL A   1      33.400  24.747  24.238  1.00  0.00    -0.196 N 
ATOM     15  C   UNL A   1      32.934  24.140  21.684  1.00  0.00     0.117 A 
ATOM     16  C   UNL A   1      32.656  25.583  23.398  1.00  0.00     0.252 A 
ATOM     17  N   UNL A   1      33.491  25.311  25.466  1.00  0.00    -0.149 NA
ATOM     18  N   UNL A   1      32.418  25.257  22.093  1.00  0.00    -0.220 NA
ATOM     19  N   UNL A   1      32.323  26.670  24.066  1.00  0.00    -0.194 NA
BRANCH  12  20
ATOM     20  C   UNL A   1      35.022  22.959  24.533  1.00  0.00     0.041 A 
ATOM     21  C   UNL A   1      33.447  21.433  25.886  1.00  0.00     0.069 C 
ATOM     22  C   UNL A   1      34.774  21.952  25.487  1.00  0.00     0.069 A 
ATOM     23  N   UNL A   1      35.904  21.507  26.043  1.00  0.00    -0.178 NA
ATOM     24  N   UNL A   1      36.869  22.198  25.408  1.00  0.00    -0.275 N 
ATOM     25  C   UNL A   1      36.386  23.103  24.496  1.00  0.00     0.119 A 
ATOM     26  C   UNL A   1      38.249  21.900  25.707  1.00  0.00     0.173 C 
ENDBRANCH  12  20
ENDBRANCH  10  11
ENDBRANCH   9  10
ENDBRANCH   7   9
ENDBRANCH   6   7
ENDBRANCH   5   6
ENDBRANCH   4   5
ENDBRANCH   3   4
ENDBRANCH   2   3
ENDBRANCH   1   2
BRANCH   1  27
ATOM     27  O   UNL A   1      33.347  34.588  31.188  1.00  0.00    -0.377 OA
BRANCH  27  28
ATOM     28  C   UNL A   1      33.522  34.815  32.585  1.00  0.00     0.188 C 
BRANCH  28  29
ATOM     29  C   UNL A   1      34.078  33.582  33.300  1.00  0.00     0.188 C 
BRANCH  29  30
ATOM     30  O   UNL A   1      35.496  33.632  33.419  1.00  0.00    -0.376 OA
BRANCH  30  31
ATOM     31  C   UNL A   1      36.211  32.492  32.951  1.00  0.00     0.202 C 
BRANCH  31  32
ATOM     32  C   UNL A   1      36.866  32.515  31.554  1.00  0.00     0.261 C 
BRANCH  32  33
ATOM     33  O   UNL A   1      36.591  31.406  30.671  1.00  0.00    -0.460 OA
BRANCH  33  34
ATOM     34  C   UNL A   1      36.993  30.169  31.028  1.00  0.00     0.338 C 
ATOM     35  O   UNL A   1      36.342  29.319  31.612  1.00  0.00    -0.246 OA
BRANCH  34  36
ATOM     36  C   UNL A   1      38.349  29.944  30.470  1.00  0.00     0.060 A 
ATOM     37  C   UNL A   1      38.535  29.955  29.079  1.00  0.00     0.016 A 
ATOM     38  C   UNL A   1      39.444  29.744  31.316  1.00  0.00     0.016 A 
ATOM     39  C   UNL A   1      39.815  29.773  28.531  1.00  0.00     0.010 A 
ATOM     40  C   UNL A   1      40.720  29.552  30.767  1.00  0.00     0.010 A 
ATOM     41  C   UNL A   1      40.919  29.560  29.370  1.00  0.00    -0.014 A 
BRANCH  41  42
ATOM     42  C   UNL A   1      42.253  29.170  28.834  1.00  0.00     0.031 A 
ATOM     43  C   UNL A   1      42.484  27.720  28.531  1.00  0.00     0.074 A 
ATOM     44  C   UNL A   1      43.268  30.038  28.656  1.00  0.00     0.049 A 
ATOM     45  N   UNL A   1      43.570  27.126  28.112  1.00  0.00    -0.248 NA
ATOM     46  C   UNL A   1      41.326  26.830  28.701  1.00  0.00     0.031 C 
ATOM     47  C   UNL A   1      43.174  31.482  28.779  1.00  0.00     0.029 A 
ATOM     48  N   UNL A   1      44.594  29.825  28.360  1.00  0.00    -0.354 N 
ATOM     49  C   UNL A   1      43.208  25.804  27.908  1.00  0.00     0.074 A 
ATOM     50  C   UNL A   1      41.835  25.664  28.343  1.00  0.00     0.031 C 
ATOM     51  C   UNL A   1      44.399  32.027  28.674  1.00  0.00     0.029 A 
ATOM     52  C   UNL A   1      45.367  30.962  28.435  1.00  0.00     0.049 A 
ATOM     53  H   UNL A   1      44.958  28.942  28.118  1.00  0.00     0.167 HD
ATOM     54  C   UNL A   1      43.937  24.805  27.360  1.00  0.00     0.037 A 
ATOM     55  C   UNL A   1      46.699  31.129  28.317  1.00  0.00     0.037 A 
ATOM     56  C   UNL A   1      45.315  24.922  26.976  1.00  0.00     0.049 A 
ATOM     57  C   UNL A   1      47.550  29.953  27.916  1.00  0.00     0.074 A 
ATOM     58  C   UNL A   1      46.140  23.961  26.419  1.00  0.00     0.029 A 
ATOM     59  N   UNL A   1      46.083  26.065  27.140  1.00  0.00    -0.354 N 
ATOM     60  N   UNL A   1      47.182  28.722  27.653  1.00  0.00    -0.248 NA
ATOM     61  C   UNL A   1      48.991  30.195  27.748  1.00  0.00     0.031 C 
ATOM     62  C   UNL A   1      47.424  24.507  26.300  1.00  0.00     0.029 A 
ATOM     63  C   UNL A   1      47.385  25.823  26.735  1.00  0.00     0.049 A 
ATOM     64  H   UNL A   1      45.751  26.923  27.492  1.00  0.00     0.167 HD
ATOM     65  C   UNL A   1      48.325  28.064  27.221  1.00  0.00     0.074 A 
ATOM     66  C   UNL A   1      49.407  29.025  27.278  1.00  0.00     0.031 C 
ATOM     67  C   UNL A   1      48.457  26.786  26.789  1.00  0.00     0.037 A 
BRANCH  54  68
ATOM     68  C   UNL A   1      43.223  23.504  27.166  1.00  0.00     0.057 A 
ATOM     69  C   UNL A   1      42.694  23.141  25.919  1.00  0.00     0.134 A 
ATOM     70  C   UNL A   1      43.007  22.635  28.241  1.00  0.00     0.134 A 
ATOM     71  F   UNL A   1      42.845  23.947  24.855  1.00  0.00    -0.206 F 
ATOM     72  C   UNL A   1      41.938  21.981  25.758  1.00  0.00     0.040 A 
ATOM     73  C   UNL A   1      42.274  21.459  28.086  1.00  0.00     0.040 A 
ATOM     74  F   UNL A   1      43.483  22.930  29.460  1.00  0.00    -0.206 F 
ATOM     75  C   UNL A   1      41.727  21.136  26.845  1.00  0.00     0.006 A 
ENDBRANCH  54  68
BRANCH  55  76
ATOM     76  C   UNL A   1      47.316  32.464  28.530  1.00  0.00     0.057 A 
ATOM     77  C   UNL A   1      47.497  33.356  27.467  1.00  0.00     0.134 A 
ATOM     78  C   UNL A   1      47.777  32.864  29.791  1.00  0.00     0.134 A 
ATOM     79  F   UNL A   1      47.094  33.024  26.233  1.00  0.00    -0.206 F 
ATOM     80  C   UNL A   1      48.136  34.586  27.643  1.00  0.00     0.040 A 
ATOM     81  C   UNL A   1      48.406  34.097  29.984  1.00  0.00     0.040 A 
ATOM     82  F   UNL A   1      47.621  32.064  30.857  1.00  0.00    -0.206 F 
ATOM     83  C   UNL A   1      48.594  34.959  28.905  1.00  0.00     0.006 A 
ENDBRANCH  55  76
BRANCH  67  84
ATOM     84  C   UNL A   1      49.808  26.357  26.296  1.00  0.00     0.057 A 
ATOM     85  C   UNL A   1      50.280  26.704  25.025  1.00  0.00     0.134 A 
ATOM     86  C   UNL A   1      50.669  25.630  27.130  1.00  0.00     0.134 A 
ATOM     87  F   UNL A   1      49.501  27.384  24.172  1.00  0.00    -0.206 F 
ATOM     88  C   UNL A   1      51.556  26.331  24.595  1.00  0.00     0.040 A 
ATOM     89  C   UNL A   1      51.955  25.274  26.721  1.00  0.00     0.040 A 
ATOM     90  F   UNL A   1      50.280  25.269  28.363  1.00  0.00    -0.206 F 
ATOM     91  C   UNL A   1      52.399  25.622  25.448  1.00  0.00     0.006 A 
ENDBRANCH  67  84
ENDBRANCH  41  42
ENDBRANCH  34  36
ENDBRANCH  33  34
ENDBRANCH  32  33
ENDBRANCH  31  32
ENDBRANCH  30  31
ENDBRANCH  29  30
ENDBRANCH  28  29
ENDBRANCH  27  28
ENDBRANCH   1  27
TORSDOF 23
ENDMDL
MODEL 2
REMARK VINA RESULT:      -9.0      1.816      6.428
REMARK SMILES Cc1nn(C)cc1-c1ccnc2nc(CCC(=O)OCCOCCOCCOCCOC(=O)c3ccc(-c4c5nc(c(-c6c(F)cccc6F)c6ccc([nH]6)c(-c6c(F)cccc6F)c6nc(c(-c7c(F)cccc7F)c7ccc4[nH]7)C=C6)C=C5)cc3)nn12
REMARK SMILES IDX 24 1 23 2 22 3 21 4 20 5 19 6 17 7 18 8 16 9 15 10 14 11
REMARK SMILES IDX 8 12 9 13 89 14 10 15 12 16 88 17 11 18 13 19 7 20 1 21 2 22
REMARK SMILES IDX 3 23 4 24 6 25 5 26 25 27 26 28 27 29 28 30 29 31 30 32
REMARK SMILES IDX 31 33 32 34 33 35 34 36 35 37 87 38 36 39 86 40 37 41 38 42
REMARK SMILES IDX 39 43 80 44 40 45 85 46 79 47 81 48 41 49 84 50 78 51 77 52
REMARK SMILES IDX 42 54 68 55 51 56 67 57 52 58 55 59 66 60 82 61 53 62 54 63
REMARK SMILES IDX 65 65 83 66 56 67 43 68 44 69 49 70 45 71 46 72 48 73 50 74
REMARK SMILES IDX 47 75 69 76 70 77 75 78 71 79 72 80 74 81 76 82 73 83 57 84
REMARK SMILES IDX 58 85 63 86 59 87 60 88 62 89 64 90 61 91
REMARK H PARENT 81 53 55 64
REMARK Flexibility Score: inf
ROOT
ATOM      1  C   UNL A   1      34.698  35.141  29.950  1.00  0.00     0.188 C 
ENDROOT
BRANCH   1   2
ATOM      2  C   UNL A   1      34.803  34.143  28.780  1.00  0.00     0.188 C 
BRANCH   2   3
ATOM      3  O   UNL A   1      35.600  33.014  29.109  1.00  0.00    -0.376 OA
BRANCH   3   4
ATOM      4  C   UNL A   1      35.325  31.754  28.528  1.00  0.00     0.202 C 
BRANCH   4   5
ATOM      5  C   UNL A   1      34.189  31.598  27.512  1.00  0.00     0.261 C 
BRANCH   5   6
ATOM      6  O   UNL A   1      33.336  30.467  27.733  1.00  0.00    -0.463 OA
BRANCH   6   7
ATOM      7  C   UNL A   1      33.421  29.411  26.910  1.00  0.00     0.306 C 
ATOM      8  O   UNL A   1      34.251  28.516  27.031  1.00  0.00    -0.252 OA
BRANCH   7   9
ATOM      9  C   UNL A   1      32.354  29.383  25.829  1.00  0.00     0.131 C 
BRANCH   9  10
ATOM     10  C   UNL A   1      32.286  28.233  24.823  1.00  0.00     0.091 C 
BRANCH  10  11
ATOM     11  C   UNL A   1      31.999  26.882  25.380  1.00  0.00     0.154 A 
ATOM     12  C   UNL A   1      32.573  23.494  25.942  1.00  0.00     0.081 A 
ATOM     13  C   UNL A   1      31.689  22.606  26.433  1.00  0.00     0.049 A 
ATOM     14  N   UNL A   1      32.187  24.839  25.835  1.00  0.00    -0.196 N 
ATOM     15  C   UNL A   1      30.348  23.150  26.774  1.00  0.00     0.117 A 
ATOM     16  C   UNL A   1      30.889  25.254  26.156  1.00  0.00     0.252 A 
ATOM     17  N   UNL A   1      32.894  25.896  25.368  1.00  0.00    -0.149 NA
ATOM     18  N   UNL A   1      29.959  24.381  26.643  1.00  0.00    -0.220 NA
ATOM     19  N   UNL A   1      30.766  26.533  25.857  1.00  0.00    -0.194 NA
BRANCH  12  20
ATOM     20  C   UNL A   1      33.751  23.067  25.262  1.00  0.00     0.041 A 
ATOM     21  C   UNL A   1      32.674  23.035  22.922  1.00  0.00     0.069 C 
ATOM     22  C   UNL A   1      33.804  22.890  23.866  1.00  0.00     0.069 A 
ATOM     23  N   UNL A   1      35.026  22.535  23.456  1.00  0.00    -0.178 NA
ATOM     24  N   UNL A   1      35.755  22.534  24.587  1.00  0.00    -0.275 N 
ATOM     25  C   UNL A   1      35.027  22.833  25.711  1.00  0.00     0.119 A 
ATOM     26  C   UNL A   1      37.172  22.273  24.500  1.00  0.00     0.173 C 
ENDBRANCH  12  20
ENDBRANCH  10  11
ENDBRANCH   9  10
ENDBRANCH   7   9
ENDBRANCH   6   7
ENDBRANCH   5   6
ENDBRANCH   4   5
ENDBRANCH   3   4
ENDBRANCH   2   3
ENDBRANCH   1   2
BRANCH   1  27
ATOM     27  O   UNL A   1      33.422  35.693  30.238  1.00  0.00    -0.377 OA
BRANCH  27  28
ATOM     28  C   UNL A   1      33.032  35.607  31.607  1.00  0.00     0.188 C 
BRANCH  28  29
ATOM     29  C   UNL A   1      33.806  36.593  32.484  1.00  0.00     0.188 C 
BRANCH  29  30
ATOM     30  O   UNL A   1      34.999  36.016  33.006  1.00  0.00    -0.376 OA
BRANCH  30  31
ATOM     31  C   UNL A   1      34.832  34.929  33.912  1.00  0.00     0.202 C 
BRANCH  31  32
ATOM     32  C   UNL A   1      34.878  33.478  33.388  1.00  0.00     0.261 C 
BRANCH  32  33
ATOM     33  O   UNL A   1      36.125  33.011  32.829  1.00  0.00    -0.460 OA
BRANCH  33  34
ATOM     34  C   UNL A   1      37.033  32.434  33.643  1.00  0.00     0.338 C 
ATOM     35  O   UNL A   1      36.920  32.212  34.837  1.00  0.00    -0.246 OA
BRANCH  34  36
ATOM     36  C   UNL A   1      38.174  31.978  32.813  1.00  0.00     0.060 A 
ATOM     37  C   UNL A   1      38.030  31.903  31.419  1.00  0.00     0.016 A 
ATOM     38  C   UNL A   1      39.397  31.644  33.404  1.00  0.00     0.016 A 
ATOM     39  C   UNL A   1      39.107  31.500  30.614  1.00  0.00     0.010 A 
ATOM     40  C   UNL A   1      40.468  31.232  32.599  1.00  0.00     0.010 A 
ATOM     41  C   UNL A   1      40.334  31.152  31.196  1.00  0.00    -0.014 A 
BRANCH  41  42
ATOM     42  C   UNL A   1      41.437  30.537  30.405  1.00  0.00     0.031 A 
ATOM     43  C   UNL A   1      42.576  31.420  29.996  1.00  0.00     0.074 A 
ATOM     44  C   UNL A   1      41.438  29.251  30.002  1.00  0.00     0.049 A 
ATOM     45  N   UNL A   1      43.620  31.137  29.262  1.00  0.00    -0.248 NA
ATOM     46  C   UNL A   1      42.542  32.800  30.505  1.00  0.00     0.031 C 
ATOM     47  C   UNL A   1      40.483  28.237  30.414  1.00  0.00     0.029 A 
ATOM     48  N   UNL A   1      42.260  28.583  29.124  1.00  0.00    -0.354 N 
ATOM     49  C   UNL A   1      44.397  32.284  29.275  1.00  0.00     0.074 A 
ATOM     50  C   UNL A   1      43.659  33.294  30.002  1.00  0.00     0.031 C 
ATOM     51  C   UNL A   1      40.693  27.107  29.717  1.00  0.00     0.029 A 
ATOM     52  C   UNL A   1      41.832  27.308  28.829  1.00  0.00     0.049 A 
ATOM     53  H   UNL A   1      43.077  28.978  28.743  1.00  0.00     0.167 HD
ATOM     54  C   UNL A   1      45.638  32.467  28.768  1.00  0.00     0.037 A 
ATOM     55  C   UNL A   1      42.308  26.403  27.950  1.00  0.00     0.037 A 
ATOM     56  C   UNL A   1      46.354  31.489  28.000  1.00  0.00     0.049 A 
ATOM     57  C   UNL A   1      43.587  26.702  27.214  1.00  0.00     0.074 A 
ATOM     58  C   UNL A   1      47.614  31.586  27.438  1.00  0.00     0.029 A 
ATOM     59  N   UNL A   1      45.856  30.241  27.656  1.00  0.00    -0.354 N 
ATOM     60  N   UNL A   1      44.353  27.763  27.292  1.00  0.00    -0.248 NA
ATOM     61  C   UNL A   1      44.096  25.663  26.305  1.00  0.00     0.031 C 
ATOM     62  C   UNL A   1      47.855  30.417  26.706  1.00  0.00     0.029 A 
ATOM     63  C   UNL A   1      46.766  29.572  26.853  1.00  0.00     0.049 A 
ATOM     64  H   UNL A   1      44.984  29.882  27.941  1.00  0.00     0.167 HD
ATOM     65  C   UNL A   1      45.464  27.493  26.505  1.00  0.00     0.074 A 
ATOM     66  C   UNL A   1      45.263  26.175  25.938  1.00  0.00     0.031 C 
ATOM     67  C   UNL A   1      46.563  28.258  26.296  1.00  0.00     0.037 A 
BRANCH  54  68
ATOM     68  C   UNL A   1      46.268  33.796  29.044  1.00  0.00     0.057 A 
ATOM     69  C   UNL A   1      46.979  34.035  30.229  1.00  0.00     0.134 A 
ATOM     70  C   UNL A   1      46.114  34.863  28.152  1.00  0.00     0.134 A 
ATOM     71  F   UNL A   1      47.137  33.058  31.136  1.00  0.00    -0.206 F 
ATOM     72  C   UNL A   1      47.477  35.300  30.538  1.00  0.00     0.040 A 
ATOM     73  C   UNL A   1      46.631  36.127  28.439  1.00  0.00     0.040 A 
ATOM     74  F   UNL A   1      45.440  34.699  27.005  1.00  0.00    -0.206 F 
ATOM     75  C   UNL A   1      47.303  36.350  29.640  1.00  0.00     0.006 A 
ENDBRANCH  54  68
BRANCH  55  76
ATOM     76  C   UNL A   1      41.608  25.108  27.746  1.00  0.00     0.057 A 
ATOM     77  C   UNL A   1      40.502  25.009  26.894  1.00  0.00     0.134 A 
ATOM     78  C   UNL A   1      42.001  23.949  28.427  1.00  0.00     0.134 A 
ATOM     79  F   UNL A   1      40.066  26.087  26.228  1.00  0.00    -0.206 F 
ATOM     80  C   UNL A   1      39.795  23.813  26.747  1.00  0.00     0.040 A 
ATOM     81  C   UNL A   1      41.311  22.742  28.279  1.00  0.00     0.040 A 
ATOM     82  F   UNL A   1      43.062  23.968  29.248  1.00  0.00    -0.206 F 
ATOM     83  C   UNL A   1      40.199  22.675  27.441  1.00  0.00     0.006 A 
ENDBRANCH  55  76
BRANCH  67  84
ATOM     84  C   UNL A   1      47.663  27.678  25.456  1.00  0.00     0.057 A 
ATOM     85  C   UNL A   1      48.765  27.026  26.021  1.00  0.00     0.134 A 
ATOM     86  C   UNL A   1      47.587  27.726  24.057  1.00  0.00     0.134 A 
ATOM     87  F   UNL A   1      48.906  26.959  27.353  1.00  0.00    -0.206 F 
ATOM     88  C   UNL A   1      49.761  26.456  25.225  1.00  0.00     0.040 A 
ATOM     89  C   UNL A   1      48.562  27.138  23.251  1.00  0.00     0.040 A 
ATOM     90  F   UNL A   1      46.554  28.332  23.451  1.00  0.00    -0.206 F 
ATOM     91  C   UNL A   1      49.655  26.504  23.835  1.00  0.00     0.006 A 
ENDBRANCH  67  84
ENDBRANCH  41  42
ENDBRANCH  34  36
ENDBRANCH  33  34
ENDBRANCH  32  33
ENDBRANCH  31  32
ENDBRANCH  30  31
ENDBRANCH  29  30
ENDBRANCH  28  29
ENDBRANCH  27  28
ENDBRANCH   1  27
TORSDOF 23
ENDMDL
MODEL 3
REMARK VINA RESULT:      -8.6      6.134     10.851
REMARK SMILES Cc1nn(C)cc1-c1ccnc2nc(CCC(=O)OCCOCCOCCOCCOC(=O)c3ccc(-c4c5nc(c(-c6c(F)cccc6F)c6ccc([nH]6)c(-c6c(F)cccc6F)c6nc(c(-c7c(F)cccc7F)c7ccc4[nH]7)C=C6)C=C5)cc3)nn12
REMARK SMILES IDX 24 1 23 2 22 3 21 4 20 5 19 6 17 7 18 8 16 9 15 10 14 11
REMARK SMILES IDX 8 12 9 13 89 14 10 15 12 16 88 17 11 18 13 19 7 20 1 21 2 22
REMARK SMILES IDX 3 23 4 24 6 25 5 26 25 27 26 28 27 29 28 30 29 31 30 32
REMARK SMILES IDX 31 33 32 34 33 35 34 36 35 37 87 38 36 39 86 40 37 41 38 42
REMARK SMILES IDX 39 43 80 44 40 45 85 46 79 47 81 48 41 49 84 50 78 51 77 52
REMARK SMILES IDX 42 54 68 55 51 56 67 57 52 58 55 59 66 60 82 61 53 62 54 63
REMARK SMILES IDX 65 65 83 66 56 67 43 68 44 69 49 70 45 71 46 72 48 73 50 74
REMARK SMILES IDX 47 75 69 76 70 77 75 78 71 79 72 80 74 81 76 82 73 83 57 84
REMARK SMILES IDX 58 85 63 86 59 87 60 88 62 89 64 90 61 91
REMARK H PARENT 81 53 55 64
REMARK Flexibility Score: inf
ROOT
ATOM      1  C   UNL A   1      42.342  41.036  30.750  1.00  0.00     0.188 C 
ENDROOT
BRANCH   1   2
ATOM      2  C   UNL A   1      43.394  40.888  29.634  1.00  0.00     0.188 C 
BRANCH   2   3
ATOM      3  O   UNL A   1      42.946  40.042  28.584  1.00  0.00    -0.376 OA
BRANCH   3   4
ATOM      4  C   UNL A   1      42.842  38.646  28.789  1.00  0.00     0.202 C 
BRANCH   4   5
ATOM      5  C   UNL A   1      41.985  37.787  27.855  1.00  0.00     0.261 C 
BRANCH   5   6
ATOM      6  O   UNL A   1      41.220  36.766  28.510  1.00  0.00    -0.463 OA
BRANCH   6   7
ATOM      7  C   UNL A   1      41.623  35.489  28.427  1.00  0.00     0.306 C 
ATOM      8  O   UNL A   1      42.435  35.083  27.602  1.00  0.00    -0.252 OA
BRANCH   7   9
ATOM      9  C   UNL A   1      41.027  34.583  29.490  1.00  0.00     0.131 C 
BRANCH   9  10
ATOM     10  C   UNL A   1      39.700  34.933  30.165  1.00  0.00     0.091 C 
BRANCH  10  11
ATOM     11  C   UNL A   1      38.506  34.163  29.719  1.00  0.00     0.154 A 
ATOM     12  C   UNL A   1      35.138  33.279  29.664  1.00  0.00     0.081 A 
ATOM     13  C   UNL A   1      34.615  32.167  29.115  1.00  0.00     0.049 A 
ATOM     14  N   UNL A   1      36.519  33.503  29.542  1.00  0.00    -0.196 N 
ATOM     15  C   UNL A   1      35.585  31.249  28.464  1.00  0.00     0.117 A 
ATOM     16  C   UNL A   1      37.360  32.565  28.932  1.00  0.00     0.252 A 
ATOM     17  N   UNL A   1      37.261  34.532  30.014  1.00  0.00    -0.149 NA
ATOM     18  N   UNL A   1      36.868  31.418  28.377  1.00  0.00    -0.220 NA
ATOM     19  N   UNL A   1      38.609  32.971  29.057  1.00  0.00    -0.194 NA
BRANCH  12  20
ATOM     20  C   UNL A   1      34.402  34.060  30.601  1.00  0.00     0.041 A 
ATOM     21  C   UNL A   1      35.051  32.642  32.652  1.00  0.00     0.069 C 
ATOM     22  C   UNL A   1      34.391  33.785  31.983  1.00  0.00     0.069 A 
ATOM     23  N   UNL A   1      33.672  34.683  32.662  1.00  0.00    -0.178 NA
ATOM     24  N   UNL A   1      33.266  35.551  31.717  1.00  0.00    -0.275 N 
ATOM     25  C   UNL A   1      33.668  35.210  30.450  1.00  0.00     0.119 A 
ATOM     26  C   UNL A   1      32.522  36.721  32.120  1.00  0.00     0.173 C 
ENDBRANCH  12  20
ENDBRANCH  10  11
ENDBRANCH   9  10
ENDBRANCH   7   9
ENDBRANCH   6   7
ENDBRANCH   5   6
ENDBRANCH   4   5
ENDBRANCH   3   4
ENDBRANCH   2   3
ENDBRANCH   1   2
BRANCH   1  27
ATOM     27  O   UNL A   1      42.363  42.223  31.529  1.00  0.00    -0.377 OA
BRANCH  27  28
ATOM     28  C   UNL A   1      43.022  43.327  30.914  1.00  0.00     0.188 C 
BRANCH  28  29
ATOM     29  C   UNL A   1      44.015  44.001  31.863  1.00  0.00     0.188 C 
BRANCH  29  30
ATOM     30  O   UNL A   1      45.313  43.421  31.775  1.00  0.00    -0.376 OA
BRANCH  30  31
ATOM     31  C   UNL A   1      46.052  43.336  32.989  1.00  0.00     0.202 C 
BRANCH  31  32
ATOM     32  C   UNL A   1      45.315  43.394  34.344  1.00  0.00     0.261 C 
BRANCH  32  33
ATOM     33  O   UNL A   1      44.719  42.172  34.830  1.00  0.00    -0.460 OA
BRANCH  33  34
ATOM     34  C   UNL A   1      45.521  41.164  35.229  1.00  0.00     0.338 C 
ATOM     35  O   UNL A   1      46.435  41.221  36.035  1.00  0.00    -0.246 OA
BRANCH  34  36
ATOM     36  C   UNL A   1      45.025  39.907  34.617  1.00  0.00     0.060 A 
ATOM     37  C   UNL A   1      45.718  38.708  34.841  1.00  0.00     0.016 A 
ATOM     38  C   UNL A   1      43.863  39.904  33.839  1.00  0.00     0.016 A 
ATOM     39  C   UNL A   1      45.249  37.503  34.294  1.00  0.00     0.010 A 
ATOM     40  C   UNL A   1      43.401  38.701  33.286  1.00  0.00     0.010 A 
ATOM     41  C   UNL A   1      44.091  37.489  33.503  1.00  0.00    -0.014 A 
BRANCH  41  42
ATOM     42  C   UNL A   1      43.666  36.278  32.746  1.00  0.00     0.031 A 
ATOM     43  C   UNL A   1      42.562  35.447  33.327  1.00  0.00     0.074 A 
ATOM     44  C   UNL A   1      44.252  35.869  31.604  1.00  0.00     0.049 A 
ATOM     45  N   UNL A   1      42.055  34.324  32.890  1.00  0.00    -0.248 NA
ATOM     46  C   UNL A   1      41.932  35.969  34.549  1.00  0.00     0.031 C 
ATOM     47  C   UNL A   1      45.240  36.618  30.848  1.00  0.00     0.029 A 
ATOM     48  N   UNL A   1      44.120  34.699  30.892  1.00  0.00    -0.354 N 
ATOM     49  C   UNL A   1      41.006  34.039  33.748  1.00  0.00     0.074 A 
ATOM     50  C   UNL A   1      41.012  35.049  34.785  1.00  0.00     0.031 C 
ATOM     51  C   UNL A   1      45.713  35.860  29.843  1.00  0.00     0.029 A 
ATOM     52  C   UNL A   1      45.026  34.574  29.863  1.00  0.00     0.049 A 
ATOM     53  H   UNL A   1      43.442  34.016  31.099  1.00  0.00     0.167 HD
ATOM     54  C   UNL A   1      40.085  33.052  33.656  1.00  0.00     0.037 A 
ATOM     55  C   UNL A   1      45.269  33.544  29.027  1.00  0.00     0.037 A 
ATOM     56  C   UNL A   1      40.103  32.015  32.663  1.00  0.00     0.049 A 
ATOM     57  C   UNL A   1      44.369  32.338  29.073  1.00  0.00     0.074 A 
ATOM     58  C   UNL A   1      39.217  30.967  32.493  1.00  0.00     0.029 A 
ATOM     59  N   UNL A   1      41.079  31.877  31.687  1.00  0.00    -0.354 N 
ATOM     60  N   UNL A   1      43.331  32.114  29.842  1.00  0.00    -0.248 NA
ATOM     61  C   UNL A   1      44.640  31.263  28.105  1.00  0.00     0.031 C 
ATOM     62  C   UNL A   1      39.690  30.162  31.450  1.00  0.00     0.029 A 
ATOM     63  C   UNL A   1      40.842  30.738  30.937  1.00  0.00     0.049 A 
ATOM     64  H   UNL A   1      41.830  32.499  31.547  1.00  0.00     0.167 HD
ATOM     65  C   UNL A   1      42.784  30.915  29.407  1.00  0.00     0.074 A 
ATOM     66  C   UNL A   1      43.618  30.445  28.321  1.00  0.00     0.031 C 
ATOM     67  C   UNL A   1      41.673  30.278  29.852  1.00  0.00     0.037 A 
BRANCH  54  68
ATOM     68  C   UNL A   1      38.996  33.074  34.682  1.00  0.00     0.057 A 
ATOM     69  C   UNL A   1      37.844  33.855  34.506  1.00  0.00     0.134 A 
ATOM     70  C   UNL A   1      39.123  32.362  35.879  1.00  0.00     0.134 A 
ATOM     71  F   UNL A   1      37.678  34.581  33.390  1.00  0.00    -0.206 F 
ATOM     72  C   UNL A   1      36.877  33.960  35.505  1.00  0.00     0.040 A 
ATOM     73  C   UNL A   1      38.149  32.440  36.875  1.00  0.00     0.040 A 
ATOM     74  F   UNL A   1      40.204  31.603  36.108  1.00  0.00    -0.206 F 
ATOM     75  C   UNL A   1      37.029  33.250  36.693  1.00  0.00     0.006 A 
ENDBRANCH  54  68
BRANCH  55  76
ATOM     76  C   UNL A   1      46.378  33.618  28.040  1.00  0.00     0.057 A 
ATOM     77  C   UNL A   1      47.652  33.127  28.345  1.00  0.00     0.134 A 
ATOM     78  C   UNL A   1      46.203  34.218  26.786  1.00  0.00     0.134 A 
ATOM     79  F   UNL A   1      47.888  32.558  29.536  1.00  0.00    -0.206 F 
ATOM     80  C   UNL A   1      48.719  33.252  27.452  1.00  0.00     0.040 A 
ATOM     81  C   UNL A   1      47.258  34.338  25.877  1.00  0.00     0.040 A 
ATOM     82  F   UNL A   1      45.003  34.696  26.422  1.00  0.00    -0.206 F 
ATOM     83  C   UNL A   1      48.523  33.859  26.213  1.00  0.00     0.006 A 
ENDBRANCH  55  76
BRANCH  67  84
ATOM     84  C   UNL A   1      41.259  29.024  29.138  1.00  0.00     0.057 A 
ATOM     85  C   UNL A   1      41.828  27.780  29.431  1.00  0.00     0.134 A 
ATOM     86  C   UNL A   1      40.238  29.059  28.179  1.00  0.00     0.134 A 
ATOM     87  F   UNL A   1      42.821  27.679  30.327  1.00  0.00    -0.206 F 
ATOM     88  C   UNL A   1      41.405  26.615  28.786  1.00  0.00     0.040 A 
ATOM     89  C   UNL A   1      39.789  27.899  27.547  1.00  0.00     0.040 A 
ATOM     90  F   UNL A   1      39.647  30.219  27.854  1.00  0.00    -0.206 F 
ATOM     91  C   UNL A   1      40.376  26.673  27.848  1.00  0.00     0.006 A 
ENDBRANCH  67  84
ENDBRANCH  41  42
ENDBRANCH  34  36
ENDBRANCH  33  34
ENDBRANCH  32  33
ENDBRANCH  31  32
ENDBRANCH  30  31
ENDBRANCH  29  30
ENDBRANCH  28  29
ENDBRANCH  27  28
ENDBRANCH   1  27
TORSDOF 23
ENDMDL
