MODEL 1
REMARK VINA RESULT:      -9.9      0.000      0.000
REMARK SMILES O=C(OCCOCCOCCOCCOC(=O)[C@H]1CCC[N@@H+]1Cc1ccccc1[N+](=O)[O-])c1ccc(-c2c3nc(c(-c4c(F)cccc4F)c4ccc([nH]4)c(-c4c(F)cccc4F)c4nc(c(-c5c(F)cccc5F)c5ccc2[nH]5)C=C4)C=C3)cc1
REMARK SMILES IDX 10 1 9 2 8 3 7 4 6 5 5 6 4 7 3 8 2 9 1 10 33 11 34 12 86 13
REMARK SMILES IDX 35 14 85 15 36 16 37 17 38 18 79 19 39 20 84 21 78 22 80 23
REMARK SMILES IDX 40 24 83 25 77 26 76 27 41 29 67 30 50 31 66 32 51 33 54 34
REMARK SMILES IDX 65 35 81 36 52 37 53 38 64 40 82 41 55 42 42 43 43 44 48 45
REMARK SMILES IDX 44 46 45 47 47 48 49 49 46 50 68 51 69 52 74 53 70 54 71 55
REMARK SMILES IDX 73 56 75 57 72 58 56 59 57 60 62 61 58 62 59 63 61 64 63 65
REMARK SMILES IDX 60 66 11 67 12 68 13 69 14 70 15 71 16 72 17 73 18 74 19 75
REMARK SMILES IDX 22 76 20 77 21 78 23 80 24 81 25 82 29 83 26 84 28 85 27 86
REMARK SMILES IDX 30 87 31 88 32 89
REMARK H PARENT 80 28 54 39 22 79
REMARK Flexibility Score: inf
ROOT
ATOM      1  C   UNL A   1      33.732  28.094  24.446  1.00  0.00     0.188 C 
ENDROOT
BRANCH   1   2
ATOM      2  O   UNL A   1      33.905  27.691  25.790  1.00  0.00    -0.377 OA
BRANCH   2   3
ATOM      3  C   UNL A   1      33.558  28.566  26.847  1.00  0.00     0.188 C 
BRANCH   3   4
ATOM      4  C   UNL A   1      32.103  28.572  27.261  1.00  0.00     0.188 C 
BRANCH   4   5
ATOM      5  O   UNL A   1      31.441  29.685  26.674  1.00  0.00    -0.376 OA
BRANCH   5   6
ATOM      6  C   UNL A   1      32.243  30.853  26.501  1.00  0.00     0.202 C 
BRANCH   6   7
ATOM      7  C   UNL A   1      31.603  32.140  27.025  1.00  0.00     0.261 C 
BRANCH   7   8
ATOM      8  O   UNL A   1      32.510  33.252  27.163  1.00  0.00    -0.460 OA
BRANCH   8   9
ATOM      9  C   UNL A   1      33.276  33.629  28.219  1.00  0.00     0.338 C 
ATOM     10  O   UNL A   1      32.894  34.570  28.914  1.00  0.00    -0.246 OA
BRANCH   9  11
ATOM     11  C   UNL A   1      34.576  32.988  28.580  1.00  0.00     0.060 A 
ATOM     12  C   UNL A   1      34.702  31.679  29.020  1.00  0.00     0.016 A 
ATOM     13  C   UNL A   1      35.761  33.722  28.406  1.00  0.00     0.016 A 
ATOM     14  C   UNL A   1      35.907  31.116  29.354  1.00  0.00     0.010 A 
ATOM     15  C   UNL A   1      37.007  33.162  28.723  1.00  0.00     0.010 A 
ATOM     16  C   UNL A   1      37.066  31.859  29.229  1.00  0.00    -0.014 A 
BRANCH  16  17
ATOM     17  C   UNL A   1      38.233  31.264  29.889  1.00  0.00     0.031 A 
ATOM     18  C   UNL A   1      38.390  31.532  31.354  1.00  0.00     0.074 A 
ATOM     19  C   UNL A   1      38.903  30.279  29.264  1.00  0.00     0.049 A 
ATOM     20  N   UNL A   1      39.296  31.094  32.183  1.00  0.00    -0.248 NA
ATOM     21  C   UNL A   1      37.359  32.380  31.983  1.00  0.00     0.031 C 
ATOM     22  C   UNL A   1      38.627  29.800  27.903  1.00  0.00     0.029 A 
ATOM     23  N   UNL A   1      39.897  29.453  29.708  1.00  0.00    -0.354 N 
ATOM     24  C   UNL A   1      38.961  31.636  33.416  1.00  0.00     0.074 A 
ATOM     25  C   UNL A   1      37.773  32.436  33.237  1.00  0.00     0.031 C 
ATOM     26  C   UNL A   1      39.425  28.756  27.633  1.00  0.00     0.029 A 
ATOM     27  C   UNL A   1      40.319  28.550  28.762  1.00  0.00     0.049 A 
ATOM     28  H   UNL A   1      40.273  29.500  30.617  1.00  0.00     0.167 HD
ATOM     29  C   UNL A   1      39.606  31.476  34.591  1.00  0.00     0.037 A 
ATOM     30  C   UNL A   1      41.356  27.695  28.806  1.00  0.00     0.037 A 
ATOM     31  C   UNL A   1      40.790  30.675  34.716  1.00  0.00     0.049 A 
ATOM     32  C   UNL A   1      42.160  27.662  30.077  1.00  0.00     0.074 A 
ATOM     33  C   UNL A   1      41.636  30.532  35.799  1.00  0.00     0.029 A 
ATOM     34  N   UNL A   1      41.291  29.871  33.698  1.00  0.00    -0.354 N 
ATOM     35  N   UNL A   1      41.937  28.289  31.210  1.00  0.00    -0.248 NA
ATOM     36  C   UNL A   1      43.362  26.824  30.077  1.00  0.00     0.031 C 
ATOM     37  C   UNL A   1      42.672  29.673  35.418  1.00  0.00     0.029 A 
ATOM     38  C   UNL A   1      42.442  29.237  34.120  1.00  0.00     0.049 A 
ATOM     39  H   UNL A   1      40.883  29.769  32.808  1.00  0.00     0.167 HD
ATOM     40  C   UNL A   1      42.965  27.915  32.062  1.00  0.00     0.074 A 
ATOM     41  C   UNL A   1      43.789  26.979  31.322  1.00  0.00     0.031 C 
ATOM     42  C   UNL A   1      43.220  28.310  33.335  1.00  0.00     0.037 A 
BRANCH  29  43
ATOM     43  C   UNL A   1      39.089  32.259  35.758  1.00  0.00     0.057 A 
ATOM     44  C   UNL A   1      38.196  31.714  36.691  1.00  0.00     0.134 A 
ATOM     45  C   UNL A   1      39.436  33.608  35.909  1.00  0.00     0.134 A 
ATOM     46  F   UNL A   1      37.786  30.442  36.577  1.00  0.00    -0.206 F 
ATOM     47  C   UNL A   1      37.650  32.489  37.717  1.00  0.00     0.040 A 
ATOM     48  C   UNL A   1      38.914  34.386  36.942  1.00  0.00     0.040 A 
ATOM     49  F   UNL A   1      40.267  34.197  35.037  1.00  0.00    -0.206 F 
ATOM     50  C   UNL A   1      38.012  33.829  37.847  1.00  0.00     0.006 A 
ENDBRANCH  29  43
BRANCH  30  51
ATOM     51  C   UNL A   1      41.749  26.908  27.606  1.00  0.00     0.057 A 
ATOM     52  C   UNL A   1      42.607  27.424  26.629  1.00  0.00     0.134 A 
ATOM     53  C   UNL A   1      41.228  25.624  27.382  1.00  0.00     0.134 A 
ATOM     54  F   UNL A   1      43.129  28.652  26.769  1.00  0.00    -0.206 F 
ATOM     55  C   UNL A   1      42.906  26.712  25.464  1.00  0.00     0.040 A 
ATOM     56  C   UNL A   1      41.545  24.888  26.239  1.00  0.00     0.040 A 
ATOM     57  F   UNL A   1      40.398  25.063  28.273  1.00  0.00    -0.206 F 
ATOM     58  C   UNL A   1      42.376  25.438  25.268  1.00  0.00     0.006 A 
ENDBRANCH  30  51
BRANCH  42  59
ATOM     59  C   UNL A   1      44.417  27.698  33.992  1.00  0.00     0.057 A 
ATOM     60  C   UNL A   1      45.675  28.311  33.948  1.00  0.00     0.134 A 
ATOM     61  C   UNL A   1      44.296  26.500  34.706  1.00  0.00     0.134 A 
ATOM     62  F   UNL A   1      45.852  29.453  33.267  1.00  0.00    -0.206 F 
ATOM     63  C   UNL A   1      46.782  27.734  34.566  1.00  0.00     0.040 A 
ATOM     64  C   UNL A   1      45.389  25.931  35.355  1.00  0.00     0.040 A 
ATOM     65  F   UNL A   1      43.112  25.874  34.792  1.00  0.00    -0.206 F 
ATOM     66  C   UNL A   1      46.637  26.544  35.280  1.00  0.00     0.006 A 
ENDBRANCH  42  59
ENDBRANCH  16  17
ENDBRANCH   9  11
ENDBRANCH   8   9
ENDBRANCH   7   8
ENDBRANCH   6   7
ENDBRANCH   5   6
ENDBRANCH   4   5
ENDBRANCH   3   4
ENDBRANCH   2   3
ENDBRANCH   1   2
BRANCH   1  67
ATOM     67  C   UNL A   1      33.310  27.079  23.371  1.00  0.00     0.188 C 
BRANCH  67  68
ATOM     68  O   UNL A   1      32.368  27.433  22.382  1.00  0.00    -0.376 OA
BRANCH  68  69
ATOM     69  C   UNL A   1      31.075  27.902  22.744  1.00  0.00     0.202 C 
BRANCH  69  70
ATOM     70  C   UNL A   1      30.317  27.409  23.989  1.00  0.00     0.261 C 
BRANCH  70  71
ATOM     71  O   UNL A   1      30.325  25.985  24.162  1.00  0.00    -0.459 OA
BRANCH  71  72
ATOM     72  C   UNL A   1      30.636  25.504  25.396  1.00  0.00     0.365 C 
ATOM     73  O   UNL A   1      29.937  25.682  26.394  1.00  0.00    -0.245 OA
BRANCH  72  74
ATOM     74  C   UNL A   1      31.868  24.560  25.369  1.00  0.00     0.295 C 
ATOM     75  C   UNL A   1      32.377  24.090  26.730  1.00  0.00     0.083 C 
ATOM     76  N   UNL A   1      31.526  23.300  24.687  1.00  0.00    -0.319 N 
ATOM     77  C   UNL A   1      31.585  22.838  27.033  1.00  0.00     0.068 C 
ATOM     78  C   UNL A   1      30.930  22.455  25.716  1.00  0.00     0.263 C 
ATOM     79  H   UNL A   1      30.842  23.438  23.944  1.00  0.00     0.349 HD
BRANCH  76  80
ATOM     80  C   UNL A   1      32.584  22.734  23.838  1.00  0.00     0.307 C 
BRANCH  80  81
ATOM     81  C   UNL A   1      33.037  21.300  24.071  1.00  0.00     0.084 A 
ATOM     82  C   UNL A   1      32.251  20.243  23.557  1.00  0.00     0.017 A 
ATOM     83  C   UNL A   1      34.211  20.935  24.757  1.00  0.00     0.278 A 
ATOM     84  C   UNL A   1      32.653  18.905  23.677  1.00  0.00     0.001 A 
ATOM     85  C   UNL A   1      34.641  19.599  24.839  1.00  0.00     0.086 A 
ATOM     86  C   UNL A   1      33.860  18.586  24.294  1.00  0.00     0.007 A 
BRANCH  83  87
ATOM     87  N   UNL A   1      35.020  21.916  25.467  1.00  0.00     0.063 N 
ATOM     88  O   UNL A   1      35.754  22.645  24.786  1.00  0.00    -0.258 OA
ATOM     89  O   UNL A   1      34.950  21.928  26.703  1.00  0.00    -0.258 OA
ENDBRANCH  83  87
ENDBRANCH  80  81
ENDBRANCH  76  80
ENDBRANCH  72  74
ENDBRANCH  71  72
ENDBRANCH  70  71
ENDBRANCH  69  70
ENDBRANCH  68  69
ENDBRANCH  67  68
ENDBRANCH   1  67
TORSDOF 23
ENDMDL
MODEL 2
REMARK VINA RESULT:      -9.6      1.603      2.402
REMARK SMILES O=C(OCCOCCOCCOCCOC(=O)[C@H]1CCC[N@@H+]1Cc1ccccc1[N+](=O)[O-])c1ccc(-c2c3nc(c(-c4c(F)cccc4F)c4ccc([nH]4)c(-c4c(F)cccc4F)c4nc(c(-c5c(F)cccc5F)c5ccc2[nH]5)C=C4)C=C3)cc1
REMARK SMILES IDX 10 1 9 2 8 3 7 4 6 5 5 6 4 7 3 8 2 9 1 10 33 11 34 12 86 13
REMARK SMILES IDX 35 14 85 15 36 16 37 17 38 18 79 19 39 20 84 21 78 22 80 23
REMARK SMILES IDX 40 24 83 25 77 26 76 27 41 29 67 30 50 31 66 32 51 33 54 34
REMARK SMILES IDX 65 35 81 36 52 37 53 38 64 40 82 41 55 42 42 43 43 44 48 45
REMARK SMILES IDX 44 46 45 47 47 48 49 49 46 50 68 51 69 52 74 53 70 54 71 55
REMARK SMILES IDX 73 56 75 57 72 58 56 59 57 60 62 61 58 62 59 63 61 64 63 65
REMARK SMILES IDX 60 66 11 67 12 68 13 69 14 70 15 71 16 72 17 73 18 74 19 75
REMARK SMILES IDX 22 76 20 77 21 78 23 80 24 81 25 82 29 83 26 84 28 85 27 86
REMARK SMILES IDX 30 87 31 88 32 89
REMARK H PARENT 80 28 54 39 22 79
REMARK Flexibility Score: inf
ROOT
ATOM      1  C   UNL A   1      34.024  28.275  23.498  1.00  0.00     0.188 C 
ENDROOT
BRANCH   1   2
ATOM      2  O   UNL A   1      33.668  27.790  24.778  1.00  0.00    -0.377 OA
BRANCH   2   3
ATOM      3  C   UNL A   1      33.455  28.691  25.848  1.00  0.00     0.188 C 
BRANCH   3   4
ATOM      4  C   UNL A   1      32.242  28.429  26.713  1.00  0.00     0.188 C 
BRANCH   4   5
ATOM      5  O   UNL A   1      31.813  29.641  27.321  1.00  0.00    -0.376 OA
BRANCH   5   6
ATOM      6  C   UNL A   1      32.473  30.821  26.865  1.00  0.00     0.202 C 
BRANCH   6   7
ATOM      7  C   UNL A   1      31.630  32.093  26.967  1.00  0.00     0.261 C 
BRANCH   7   8
ATOM      8  O   UNL A   1      32.387  33.321  26.962  1.00  0.00    -0.460 OA
BRANCH   8   9
ATOM      9  C   UNL A   1      32.942  34.009  27.993  1.00  0.00     0.338 C 
ATOM     10  O   UNL A   1      32.384  35.036  28.379  1.00  0.00    -0.246 OA
BRANCH   9  11
ATOM     11  C   UNL A   1      34.208  33.613  28.678  1.00  0.00     0.060 A 
ATOM     12  C   UNL A   1      35.473  33.985  28.248  1.00  0.00     0.016 A 
ATOM     13  C   UNL A   1      34.128  32.873  29.869  1.00  0.00     0.016 A 
ATOM     14  C   UNL A   1      36.623  33.603  28.891  1.00  0.00     0.010 A 
ATOM     15  C   UNL A   1      35.289  32.485  30.554  1.00  0.00     0.010 A 
ATOM     16  C   UNL A   1      36.541  32.832  30.036  1.00  0.00    -0.014 A 
BRANCH  16  17
ATOM     17  C   UNL A   1      37.818  32.242  30.454  1.00  0.00     0.031 A 
ATOM     18  C   UNL A   1      38.400  32.736  31.742  1.00  0.00     0.074 A 
ATOM     19  C   UNL A   1      38.233  31.104  29.869  1.00  0.00     0.049 A 
ATOM     20  N   UNL A   1      39.482  32.357  32.360  1.00  0.00    -0.248 NA
ATOM     21  C   UNL A   1      37.634  33.777  32.455  1.00  0.00     0.031 C 
ATOM     22  C   UNL A   1      37.556  30.433  28.751  1.00  0.00     0.029 A 
ATOM     23  N   UNL A   1      39.271  30.270  30.173  1.00  0.00    -0.354 N 
ATOM     24  C   UNL A   1      39.541  33.129  33.512  1.00  0.00     0.074 A 
ATOM     25  C   UNL A   1      38.392  34.002  33.514  1.00  0.00     0.031 C 
ATOM     26  C   UNL A   1      38.192  29.283  28.477  1.00  0.00     0.029 A 
ATOM     27  C   UNL A   1      39.361  29.183  29.339  1.00  0.00     0.049 A 
ATOM     28  H   UNL A   1      39.893  30.432  30.920  1.00  0.00     0.167 HD
ATOM     29  C   UNL A   1      40.487  33.106  34.475  1.00  0.00     0.037 A 
ATOM     30  C   UNL A   1      40.324  28.247  29.260  1.00  0.00     0.037 A 
ATOM     31  C   UNL A   1      41.617  32.223  34.423  1.00  0.00     0.049 A 
ATOM     32  C   UNL A   1      41.455  28.349  30.247  1.00  0.00     0.074 A 
ATOM     33  C   UNL A   1      42.728  32.181  35.241  1.00  0.00     0.029 A 
ATOM     34  N   UNL A   1      41.766  31.213  33.479  1.00  0.00    -0.354 N 
ATOM     35  N   UNL A   1      41.597  29.177  31.257  1.00  0.00    -0.248 NA
ATOM     36  C   UNL A   1      42.565  27.407  30.079  1.00  0.00     0.031 C 
ATOM     37  C   UNL A   1      43.570  31.170  34.763  1.00  0.00     0.029 A 
ATOM     38  C   UNL A   1      42.957  30.547  33.684  1.00  0.00     0.049 A 
ATOM     39  H   UNL A   1      41.116  31.004  32.770  1.00  0.00     0.167 HD
ATOM     40  C   UNL A   1      42.806  28.852  31.852  1.00  0.00     0.074 A 
ATOM     41  C   UNL A   1      43.337  27.726  31.107  1.00  0.00     0.031 C 
ATOM     42  C   UNL A   1      43.432  29.428  32.908  1.00  0.00     0.037 A 
BRANCH  29  43
ATOM     43  C   UNL A   1      40.363  34.122  35.568  1.00  0.00     0.057 A 
ATOM     44  C   UNL A   1      39.649  33.872  36.748  1.00  0.00     0.134 A 
ATOM     45  C   UNL A   1      40.909  35.401  35.404  1.00  0.00     0.134 A 
ATOM     46  F   UNL A   1      39.060  32.683  36.948  1.00  0.00    -0.206 F 
ATOM     47  C   UNL A   1      39.463  34.866  37.713  1.00  0.00     0.040 A 
ATOM     48  C   UNL A   1      40.750  36.395  36.370  1.00  0.00     0.040 A 
ATOM     49  F   UNL A   1      41.584  35.714  34.287  1.00  0.00    -0.206 F 
ATOM     50  C   UNL A   1      40.018  36.130  37.526  1.00  0.00     0.006 A 
ENDBRANCH  29  43
BRANCH  30  51
ATOM     51  C   UNL A   1      40.320  27.234  28.171  1.00  0.00     0.057 A 
ATOM     52  C   UNL A   1      39.679  25.998  28.309  1.00  0.00     0.134 A 
ATOM     53  C   UNL A   1      41.010  27.462  26.970  1.00  0.00     0.134 A 
ATOM     54  F   UNL A   1      39.015  25.705  29.437  1.00  0.00    -0.206 F 
ATOM     55  C   UNL A   1      39.750  25.018  27.315  1.00  0.00     0.040 A 
ATOM     56  C   UNL A   1      41.061  26.506  25.955  1.00  0.00     0.040 A 
ATOM     57  F   UNL A   1      41.649  28.623  26.764  1.00  0.00    -0.206 F 
ATOM     58  C   UNL A   1      40.441  25.273  26.132  1.00  0.00     0.006 A 
ENDBRANCH  30  51
BRANCH  42  59
ATOM     59  C   UNL A   1      44.736  28.819  33.319  1.00  0.00     0.057 A 
ATOM     60  C   UNL A   1      44.799  27.751  34.223  1.00  0.00     0.134 A 
ATOM     61  C   UNL A   1      45.937  29.288  32.774  1.00  0.00     0.134 A 
ATOM     62  F   UNL A   1      43.680  27.271  34.787  1.00  0.00    -0.206 F 
ATOM     63  C   UNL A   1      46.019  27.191  34.595  1.00  0.00     0.040 A 
ATOM     64  C   UNL A   1      47.159  28.713  33.114  1.00  0.00     0.040 A 
ATOM     65  F   UNL A   1      45.938  30.301  31.894  1.00  0.00    -0.206 F 
ATOM     66  C   UNL A   1      47.202  27.667  34.033  1.00  0.00     0.006 A 
ENDBRANCH  42  59
ENDBRANCH  16  17
ENDBRANCH   9  11
ENDBRANCH   8   9
ENDBRANCH   7   8
ENDBRANCH   6   7
ENDBRANCH   5   6
ENDBRANCH   4   5
ENDBRANCH   3   4
ENDBRANCH   2   3
ENDBRANCH   1   2
BRANCH   1  67
ATOM     67  C   UNL A   1      32.983  28.352  22.370  1.00  0.00     0.188 C 
BRANCH  67  68
ATOM     68  O   UNL A   1      31.741  28.987  22.583  1.00  0.00    -0.376 OA
BRANCH  68  69
ATOM     69  C   UNL A   1      30.543  28.227  22.681  1.00  0.00     0.202 C 
BRANCH  69  70
ATOM     70  C   UNL A   1      30.159  27.414  23.929  1.00  0.00     0.261 C 
BRANCH  70  71
ATOM     71  O   UNL A   1      30.070  25.999  23.710  1.00  0.00    -0.459 OA
BRANCH  71  72
ATOM     72  C   UNL A   1      31.221  25.278  23.779  1.00  0.00     0.365 C 
ATOM     73  O   UNL A   1      31.908  24.995  22.796  1.00  0.00    -0.245 OA
BRANCH  72  74
ATOM     74  C   UNL A   1      31.665  25.009  25.241  1.00  0.00     0.295 C 
ATOM     75  C   UNL A   1      30.539  24.783  26.248  1.00  0.00     0.083 C 
ATOM     76  N   UNL A   1      32.434  23.755  25.315  1.00  0.00    -0.319 N 
ATOM     77  C   UNL A   1      30.258  23.297  26.195  1.00  0.00     0.068 C 
ATOM     78  C   UNL A   1      31.438  22.698  25.446  1.00  0.00     0.263 C 
ATOM     79  H   UNL A   1      32.976  23.586  24.467  1.00  0.00     0.349 HD
BRANCH  76  80
ATOM     80  C   UNL A   1      33.574  23.767  26.243  1.00  0.00     0.307 C 
BRANCH  80  81
ATOM     81  C   UNL A   1      34.910  23.202  25.786  1.00  0.00     0.084 A 
ATOM     82  C   UNL A   1      35.937  24.095  25.405  1.00  0.00     0.017 A 
ATOM     83  C   UNL A   1      35.219  21.829  25.729  1.00  0.00     0.278 A 
ATOM     84  C   UNL A   1      37.212  23.637  25.045  1.00  0.00     0.001 A 
ATOM     85  C   UNL A   1      36.509  21.368  25.413  1.00  0.00     0.086 A 
ATOM     86  C   UNL A   1      37.505  22.277  25.074  1.00  0.00     0.007 A 
BRANCH  83  87
ATOM     87  N   UNL A   1      34.204  20.807  25.941  1.00  0.00     0.063 N 
ATOM     88  O   UNL A   1      33.889  20.109  24.967  1.00  0.00    -0.258 OA
ATOM     89  O   UNL A   1      33.695  20.731  27.067  1.00  0.00    -0.258 OA
ENDBRANCH  83  87
ENDBRANCH  80  81
ENDBRANCH  76  80
ENDBRANCH  72  74
ENDBRANCH  71  72
ENDBRANCH  70  71
ENDBRANCH  69  70
ENDBRANCH  68  69
ENDBRANCH  67  68
ENDBRANCH   1  67
TORSDOF 23
ENDMDL
MODEL 3
REMARK VINA RESULT:      -9.3      4.093      6.575
REMARK SMILES O=C(OCCOCCOCCOCCOC(=O)[C@H]1CCC[N@@H+]1Cc1ccccc1[N+](=O)[O-])c1ccc(-c2c3nc(c(-c4c(F)cccc4F)c4ccc([nH]4)c(-c4c(F)cccc4F)c4nc(c(-c5c(F)cccc5F)c5ccc2[nH]5)C=C4)C=C3)cc1
REMARK SMILES IDX 10 1 9 2 8 3 7 4 6 5 5 6 4 7 3 8 2 9 1 10 33 11 34 12 86 13
REMARK SMILES IDX 35 14 85 15 36 16 37 17 38 18 79 19 39 20 84 21 78 22 80 23
REMARK SMILES IDX 40 24 83 25 77 26 76 27 41 29 67 30 50 31 66 32 51 33 54 34
REMARK SMILES IDX 65 35 81 36 52 37 53 38 64 40 82 41 55 42 42 43 43 44 48 45
REMARK SMILES IDX 44 46 45 47 47 48 49 49 46 50 68 51 69 52 74 53 70 54 71 55
REMARK SMILES IDX 73 56 75 57 72 58 56 59 57 60 62 61 58 62 59 63 61 64 63 65
REMARK SMILES IDX 60 66 11 67 12 68 13 69 14 70 15 71 16 72 17 73 18 74 19 75
REMARK SMILES IDX 22 76 20 77 21 78 23 80 24 81 25 82 29 83 26 84 28 85 27 86
REMARK SMILES IDX 30 87 31 88 32 89
REMARK H PARENT 80 28 54 39 22 79
REMARK Flexibility Score: inf
ROOT
ATOM      1  C   UNL A   1      35.460  33.066  27.918  1.00  0.00     0.188 C 
ENDROOT
BRANCH   1   2
ATOM      2  O   UNL A   1      34.663  34.176  27.556  1.00  0.00    -0.377 OA
BRANCH   2   3
ATOM      3  C   UNL A   1      34.572  35.298  28.414  1.00  0.00     0.188 C 
BRANCH   3   4
ATOM      4  C   UNL A   1      33.308  35.410  29.238  1.00  0.00     0.188 C 
BRANCH   4   5
ATOM      5  O   UNL A   1      33.363  34.500  30.330  1.00  0.00    -0.376 OA
BRANCH   5   6
ATOM      6  C   UNL A   1      34.624  34.418  30.995  1.00  0.00     0.202 C 
BRANCH   6   7
ATOM      7  C   UNL A   1      34.880  33.082  31.694  1.00  0.00     0.261 C 
BRANCH   7   8
ATOM      8  O   UNL A   1      36.136  32.457  31.359  1.00  0.00    -0.460 OA
BRANCH   8   9
ATOM      9  C   UNL A   1      36.570  31.191  31.589  1.00  0.00     0.338 C 
ATOM     10  O   UNL A   1      35.997  30.523  32.449  1.00  0.00    -0.246 OA
BRANCH   9  11
ATOM     11  C   UNL A   1      37.723  30.560  30.880  1.00  0.00     0.060 A 
ATOM     12  C   UNL A   1      38.700  29.801  31.506  1.00  0.00     0.016 A 
ATOM     13  C   UNL A   1      37.801  30.678  29.482  1.00  0.00     0.016 A 
ATOM     14  C   UNL A   1      39.753  29.238  30.833  1.00  0.00     0.010 A 
ATOM     15  C   UNL A   1      38.859  30.096  28.770  1.00  0.00     0.010 A 
ATOM     16  C   UNL A   1      39.854  29.399  29.464  1.00  0.00    -0.014 A 
BRANCH  16  17
ATOM     17  C   UNL A   1      41.158  29.016  28.909  1.00  0.00     0.031 A 
ATOM     18  C   UNL A   1      42.270  30.010  29.051  1.00  0.00     0.074 A 
ATOM     19  C   UNL A   1      41.384  27.725  28.607  1.00  0.00     0.049 A 
ATOM     20  N   UNL A   1      43.519  29.909  28.695  1.00  0.00    -0.248 NA
ATOM     21  C   UNL A   1      41.936  31.280  29.723  1.00  0.00     0.031 C 
ATOM     22  C   UNL A   1      40.385  26.650  28.690  1.00  0.00     0.029 A 
ATOM     23  N   UNL A   1      42.532  27.080  28.246  1.00  0.00    -0.354 N 
ATOM     24  C   UNL A   1      44.108  31.108  29.072  1.00  0.00     0.074 A 
ATOM     25  C   UNL A   1      43.088  31.926  29.682  1.00  0.00     0.031 C 
ATOM     26  C   UNL A   1      40.974  25.479  28.401  1.00  0.00     0.029 A 
ATOM     27  C   UNL A   1      42.359  25.734  28.033  1.00  0.00     0.049 A 
ATOM     28  H   UNL A   1      43.400  27.535  28.148  1.00  0.00     0.167 HD
ATOM     29  C   UNL A   1      45.395  31.484  28.909  1.00  0.00     0.037 A 
ATOM     30  C   UNL A   1      43.225  24.831  27.540  1.00  0.00     0.037 A 
ATOM     31  C   UNL A   1      46.371  30.635  28.288  1.00  0.00     0.049 A 
ATOM     32  C   UNL A   1      44.608  25.324  27.210  1.00  0.00     0.074 A 
ATOM     33  C   UNL A   1      47.671  30.924  27.921  1.00  0.00     0.029 A 
ATOM     34  N   UNL A   1      46.136  29.308  27.944  1.00  0.00    -0.354 N 
ATOM     35  N   UNL A   1      45.135  26.507  27.426  1.00  0.00    -0.248 NA
ATOM     36  C   UNL A   1      45.510  24.371  26.557  1.00  0.00     0.031 C 
ATOM     37  C   UNL A   1      48.206  29.782  27.316  1.00  0.00     0.029 A 
ATOM     38  C   UNL A   1      47.261  28.765  27.357  1.00  0.00     0.049 A 
ATOM     39  H   UNL A   1      45.291  28.827  28.098  1.00  0.00     0.167 HD
ATOM     40  C   UNL A   1      46.434  26.441  26.944  1.00  0.00     0.074 A 
ATOM     41  C   UNL A   1      46.621  25.088  26.458  1.00  0.00     0.031 C 
ATOM     42  C   UNL A   1      47.387  27.405  26.894  1.00  0.00     0.037 A 
BRANCH  29  43
ATOM     43  C   UNL A   1      45.748  32.881  29.316  1.00  0.00     0.057 A 
ATOM     44  C   UNL A   1      45.612  33.972  28.448  1.00  0.00     0.134 A 
ATOM     45  C   UNL A   1      46.304  33.125  30.578  1.00  0.00     0.134 A 
ATOM     46  F   UNL A   1      45.131  33.799  27.207  1.00  0.00    -0.206 F 
ATOM     47  C   UNL A   1      46.038  35.252  28.813  1.00  0.00     0.040 A 
ATOM     48  C   UNL A   1      46.712  34.403  30.962  1.00  0.00     0.040 A 
ATOM     49  F   UNL A   1      46.484  32.120  31.448  1.00  0.00    -0.206 F 
ATOM     50  C   UNL A   1      46.586  35.471  30.075  1.00  0.00     0.006 A 
ENDBRANCH  29  43
BRANCH  30  51
ATOM     51  C   UNL A   1      42.791  23.442  27.231  1.00  0.00     0.057 A 
ATOM     52  C   UNL A   1      42.500  23.029  25.926  1.00  0.00     0.134 A 
ATOM     53  C   UNL A   1      42.604  22.500  28.254  1.00  0.00     0.134 A 
ATOM     54  F   UNL A   1      42.640  23.882  24.901  1.00  0.00    -0.206 F 
ATOM     55  C   UNL A   1      42.013  21.747  25.654  1.00  0.00     0.040 A 
ATOM     56  C   UNL A   1      42.150  21.207  27.992  1.00  0.00     0.040 A 
ATOM     57  F   UNL A   1      42.861  22.823  29.530  1.00  0.00    -0.206 F 
ATOM     58  C   UNL A   1      41.839  20.831  26.689  1.00  0.00     0.006 A 
ENDBRANCH  30  51
BRANCH  42  59
ATOM     59  C   UNL A   1      48.709  27.001  26.321  1.00  0.00     0.057 A 
ATOM     60  C   UNL A   1      49.011  27.181  24.965  1.00  0.00     0.134 A 
ATOM     61  C   UNL A   1      49.701  26.458  27.146  1.00  0.00     0.134 A 
ATOM     62  F   UNL A   1      48.093  27.683  24.125  1.00  0.00    -0.206 F 
ATOM     63  C   UNL A   1      50.246  26.803  24.443  1.00  0.00     0.040 A 
ATOM     64  C   UNL A   1      50.951  26.109  26.642  1.00  0.00     0.040 A 
ATOM     65  F   UNL A   1      49.473  26.274  28.456  1.00  0.00    -0.206 F 
ATOM     66  C   UNL A   1      51.223  26.274  25.286  1.00  0.00     0.006 A 
ENDBRANCH  42  59
ENDBRANCH  16  17
ENDBRANCH   9  11
ENDBRANCH   8   9
ENDBRANCH   7   8
ENDBRANCH   6   7
ENDBRANCH   5   6
ENDBRANCH   4   5
ENDBRANCH   3   4
ENDBRANCH   2   3
ENDBRANCH   1   2
BRANCH   1  67
ATOM     67  C   UNL A   1      34.837  31.669  28.065  1.00  0.00     0.188 C 
BRANCH  67  68
ATOM     68  O   UNL A   1      33.543  31.404  27.568  1.00  0.00    -0.376 OA
BRANCH  68  69
ATOM     69  C   UNL A   1      33.288  30.248  26.781  1.00  0.00     0.202 C 
BRANCH  69  70
ATOM     70  C   UNL A   1      33.440  28.813  27.317  1.00  0.00     0.261 C 
BRANCH  70  71
ATOM     71  O   UNL A   1      33.032  27.791  26.397  1.00  0.00    -0.459 OA
BRANCH  71  72
ATOM     72  C   UNL A   1      31.795  27.252  26.564  1.00  0.00     0.365 C 
ATOM     73  O   UNL A   1      31.057  27.518  27.513  1.00  0.00    -0.245 OA
BRANCH  72  74
ATOM     74  C   UNL A   1      31.348  26.407  25.341  1.00  0.00     0.295 C 
ATOM     75  C   UNL A   1      29.961  26.722  24.785  1.00  0.00     0.083 C 
ATOM     76  N   UNL A   1      32.234  26.668  24.193  1.00  0.00    -0.319 N 
ATOM     77  C   UNL A   1      30.184  27.828  23.778  1.00  0.00     0.068 C 
ATOM     78  C   UNL A   1      31.686  27.854  23.545  1.00  0.00     0.263 C 
ATOM     79  H   UNL A   1      33.190  26.870  24.484  1.00  0.00     0.349 HD
BRANCH  76  80
ATOM     80  C   UNL A   1      32.553  25.498  23.364  1.00  0.00     0.307 C 
BRANCH  80  81
ATOM     81  C   UNL A   1      33.707  24.593  23.769  1.00  0.00     0.084 A 
ATOM     82  C   UNL A   1      34.599  25.029  24.775  1.00  0.00     0.017 A 
ATOM     83  C   UNL A   1      33.953  23.319  23.222  1.00  0.00     0.278 A 
ATOM     84  C   UNL A   1      35.637  24.211  25.241  1.00  0.00     0.001 A 
ATOM     85  C   UNL A   1      34.964  22.477  23.717  1.00  0.00     0.086 A 
ATOM     86  C   UNL A   1      35.803  22.926  24.731  1.00  0.00     0.007 A 
BRANCH  83  87
ATOM     87  N   UNL A   1      33.208  22.822  22.073  1.00  0.00     0.063 N 
ATOM     88  O   UNL A   1      32.427  21.881  22.268  1.00  0.00    -0.258 OA
ATOM     89  O   UNL A   1      33.435  23.344  20.974  1.00  0.00    -0.258 OA
ENDBRANCH  83  87
ENDBRANCH  80  81
ENDBRANCH  76  80
ENDBRANCH  72  74
ENDBRANCH  71  72
ENDBRANCH  70  71
ENDBRANCH  69  70
ENDBRANCH  68  69
ENDBRANCH  67  68
ENDBRANCH   1  67
TORSDOF 23
ENDMDL
