MODEL 1
REMARK VINA RESULT:      -9.7      0.000      0.000
REMARK SMILES CC(C)CCOCC[N@@H+]1[C@@H](C(=O)OCCOCCOCCOCCOC(=O)c2ccc(-c3c4nc(c(-c5c(F)cccc5F)c5ccc([nH]5)c(-c5c(F)cccc5F)c5nc(c(-c6c(F)cccc6F)c6ccc3[nH]6)C=C5)C=C4)cc2)CC[C@H]2CCCC[C@H]21
REMARK SMILES IDX 17 1 16 2 15 3 14 4 13 5 11 6 12 7 10 8 9 9 89 10 82 12
REMARK SMILES IDX 84 13 88 14 83 15 85 16 87 17 86 18 8 19 7 20 6 21 5 22 4 23
REMARK SMILES IDX 2 24 1 25 3 26 18 27 19 28 20 29 21 30 22 31 23 32 24 33
REMARK SMILES IDX 25 34 26 35 27 36 28 37 29 38 81 39 30 40 80 41 31 42 32 43
REMARK SMILES IDX 33 44 74 45 34 46 79 47 73 48 75 49 35 50 78 51 72 52 71 53
REMARK SMILES IDX 36 55 62 56 45 57 61 58 46 59 49 60 60 61 76 62 47 63 48 64
REMARK SMILES IDX 59 66 77 67 50 68 37 69 38 70 43 71 39 72 40 73 42 74 44 75
REMARK SMILES IDX 41 76 63 77 64 78 69 79 65 80 66 81 68 82 70 83 67 84 51 85
REMARK SMILES IDX 52 86 57 87 53 88 54 89 56 90 58 91 55 92
REMARK H PARENT 9 11 75 54 49 65
REMARK Flexibility Score: inf
ROOT
ATOM      1  C   UNL A   1      35.842  22.288  25.272  1.00  0.00     0.188 C 
ENDROOT
BRANCH   1   2
ATOM      2  O   UNL A   1      35.373  21.444  26.301  1.00  0.00    -0.376 OA
BRANCH   2   3
ATOM      3  C   UNL A   1      34.700  21.936  27.447  1.00  0.00     0.202 C 
BRANCH   3   4
ATOM      4  C   UNL A   1      33.254  22.447  27.499  1.00  0.00     0.261 C 
BRANCH   4   5
ATOM      5  O   UNL A   1      32.671  23.023  26.323  1.00  0.00    -0.459 OA
BRANCH   5   6
ATOM      6  C   UNL A   1      31.572  23.779  26.556  1.00  0.00     0.364 C 
ATOM      7  O   UNL A   1      30.657  23.428  27.302  1.00  0.00    -0.245 OA
BRANCH   6   8
ATOM      8  C   UNL A   1      31.545  25.147  25.839  1.00  0.00     0.295 C 
ATOM      9  N   UNL A   1      32.213  25.161  24.478  1.00  0.00    -0.319 N 
ATOM     10  C   UNL A   1      31.780  26.415  23.757  1.00  0.00     0.187 C 
ATOM     11  H   UNL A   1      33.230  25.179  24.555  1.00  0.00     0.349 HD
ATOM     12  C   UNL A   1      32.037  26.357  26.634  1.00  0.00     0.078 C 
ATOM     13  C   UNL A   1      31.954  27.749  24.548  1.00  0.00     0.048 C 
ATOM     14  C   UNL A   1      32.361  26.614  22.336  1.00  0.00     0.065 C 
ATOM     15  C   UNL A   1      31.471  27.622  25.995  1.00  0.00     0.016 C 
ATOM     16  C   UNL A   1      33.371  28.325  24.574  1.00  0.00     0.010 C 
ATOM     17  C   UNL A   1      33.557  27.541  22.107  1.00  0.00     0.006 C 
ATOM     18  C   UNL A   1      34.077  28.416  23.237  1.00  0.00     0.001 C 
BRANCH   9  19
ATOM     19  C   UNL A   1      31.867  23.911  23.743  1.00  0.00     0.291 C 
BRANCH  19  20
ATOM     20  C   UNL A   1      32.993  23.125  22.989  1.00  0.00     0.221 C 
BRANCH  20  21
ATOM     21  O   UNL A   1      33.003  21.708  22.922  1.00  0.00    -0.376 OA
BRANCH  21  22
ATOM     22  C   UNL A   1      32.162  20.879  23.715  1.00  0.00     0.160 C 
BRANCH  22  23
ATOM     23  C   UNL A   1      32.726  19.834  24.695  1.00  0.00     0.031 C 
BRANCH  23  24
ATOM     24  C   UNL A   1      32.931  18.430  24.124  1.00  0.00    -0.015 C 
ATOM     25  C   UNL A   1      32.400  18.311  22.712  1.00  0.00     0.007 C 
ATOM     26  C   UNL A   1      34.385  17.961  24.131  1.00  0.00     0.007 C 
ENDBRANCH  23  24
ENDBRANCH  22  23
ENDBRANCH  21  22
ENDBRANCH  20  21
ENDBRANCH  19  20
ENDBRANCH   9  19
ENDBRANCH   6   8
ENDBRANCH   5   6
ENDBRANCH   4   5
ENDBRANCH   3   4
ENDBRANCH   2   3
ENDBRANCH   1   2
BRANCH   1  27
ATOM     27  C   UNL A   1      37.272  22.140  24.745  1.00  0.00     0.188 C 
BRANCH  27  28
ATOM     28  O   UNL A   1      38.183  21.453  25.579  1.00  0.00    -0.377 OA
BRANCH  28  29
ATOM     29  C   UNL A   1      39.130  22.187  26.342  1.00  0.00     0.188 C 
BRANCH  29  30
ATOM     30  C   UNL A   1      40.281  21.454  27.053  1.00  0.00     0.188 C 
BRANCH  30  31
ATOM     31  O   UNL A   1      41.233  20.867  26.180  1.00  0.00    -0.376 OA
BRANCH  31  32
ATOM     32  C   UNL A   1      42.150  21.708  25.494  1.00  0.00     0.202 C 
BRANCH  32  33
ATOM     33  C   UNL A   1      43.641  21.597  25.851  1.00  0.00     0.261 C 
BRANCH  33  34
ATOM     34  O   UNL A   1      44.189  22.648  26.665  1.00  0.00    -0.460 OA
BRANCH  34  35
ATOM     35  C   UNL A   1      44.409  23.853  26.098  1.00  0.00     0.338 C 
ATOM     36  O   UNL A   1      45.007  24.093  25.072  1.00  0.00    -0.246 OA
BRANCH  35  37
ATOM     37  C   UNL A   1      43.621  24.847  26.855  1.00  0.00     0.060 A 
ATOM     38  C   UNL A   1      44.005  26.194  26.810  1.00  0.00     0.016 A 
ATOM     39  C   UNL A   1      42.528  24.444  27.624  1.00  0.00     0.016 A 
ATOM     40  C   UNL A   1      43.326  27.137  27.578  1.00  0.00     0.010 A 
ATOM     41  C   UNL A   1      41.862  25.385  28.411  1.00  0.00     0.010 A 
ATOM     42  C   UNL A   1      42.288  26.725  28.423  1.00  0.00    -0.014 A 
BRANCH  42  43
ATOM     43  C   UNL A   1      41.810  27.637  29.488  1.00  0.00     0.031 A 
ATOM     44  C   UNL A   1      42.530  27.618  30.809  1.00  0.00     0.074 A 
ATOM     45  C   UNL A   1      40.781  28.476  29.288  1.00  0.00     0.049 A 
ATOM     46  N   UNL A   1      42.269  28.272  31.910  1.00  0.00    -0.248 NA
ATOM     47  C   UNL A   1      43.703  26.733  30.896  1.00  0.00     0.031 C 
ATOM     48  C   UNL A   1      40.041  28.626  28.038  1.00  0.00     0.029 A 
ATOM     49  N   UNL A   1      40.178  29.359  30.148  1.00  0.00    -0.354 N 
ATOM     50  C   UNL A   1      43.239  27.872  32.821  1.00  0.00     0.074 A 
ATOM     51  C   UNL A   1      44.071  26.895  32.156  1.00  0.00     0.031 C 
ATOM     52  C   UNL A   1      39.071  29.541  28.215  1.00  0.00     0.029 A 
ATOM     53  C   UNL A   1      39.103  30.011  29.599  1.00  0.00     0.049 A 
ATOM     54  H   UNL A   1      40.487  29.510  31.070  1.00  0.00     0.167 HD
ATOM     55  C   UNL A   1      43.424  28.289  34.096  1.00  0.00     0.037 A 
ATOM     56  C   UNL A   1      38.231  30.871  30.162  1.00  0.00     0.037 A 
ATOM     57  C   UNL A   1      42.588  29.255  34.756  1.00  0.00     0.049 A 
ATOM     58  C   UNL A   1      38.401  31.251  31.611  1.00  0.00     0.074 A 
ATOM     59  C   UNL A   1      42.693  29.751  36.042  1.00  0.00     0.029 A 
ATOM     60  N   UNL A   1      41.481  29.862  34.181  1.00  0.00    -0.354 N 
ATOM     61  N   UNL A   1      39.327  30.883  32.463  1.00  0.00    -0.248 NA
ATOM     62  C   UNL A   1      37.401  32.169  32.177  1.00  0.00     0.031 C 
ATOM     63  C   UNL A   1      41.615  30.615  36.265  1.00  0.00     0.029 A 
ATOM     64  C   UNL A   1      40.877  30.707  35.097  1.00  0.00     0.049 A 
ATOM     65  H   UNL A   1      41.171  29.714  33.258  1.00  0.00     0.167 HD
ATOM     66  C   UNL A   1      39.043  31.548  33.651  1.00  0.00     0.074 A 
ATOM     67  C   UNL A   1      37.862  32.349  33.406  1.00  0.00     0.031 C 
ATOM     68  C   UNL A   1      39.703  31.503  34.835  1.00  0.00     0.037 A 
BRANCH  55  69
ATOM     69  C   UNL A   1      44.554  27.665  34.863  1.00  0.00     0.057 A 
ATOM     70  C   UNL A   1      45.841  28.221  34.879  1.00  0.00     0.134 A 
ATOM     71  C   UNL A   1      44.351  26.489  35.597  1.00  0.00     0.134 A 
ATOM     72  F   UNL A   1      46.108  29.337  34.182  1.00  0.00    -0.206 F 
ATOM     73  C   UNL A   1      46.891  27.612  35.568  1.00  0.00     0.040 A 
ATOM     74  C   UNL A   1      45.386  25.888  36.314  1.00  0.00     0.040 A 
ATOM     75  F   UNL A   1      43.145  25.904  35.628  1.00  0.00    -0.206 F 
ATOM     76  C   UNL A   1      46.663  26.445  36.293  1.00  0.00     0.006 A 
ENDBRANCH  55  69
BRANCH  56  77
ATOM     77  C   UNL A   1      37.112  31.426  29.360  1.00  0.00     0.057 A 
ATOM     78  C   UNL A   1      37.176  32.718  28.823  1.00  0.00     0.134 A 
ATOM     79  C   UNL A   1      35.946  30.688  29.123  1.00  0.00     0.134 A 
ATOM     80  F   UNL A   1      38.255  33.484  29.038  1.00  0.00    -0.206 F 
ATOM     81  C   UNL A   1      36.118  33.259  28.091  1.00  0.00     0.040 A 
ATOM     82  C   UNL A   1      34.892  31.206  28.369  1.00  0.00     0.040 A 
ATOM     83  F   UNL A   1      35.821  29.445  29.610  1.00  0.00    -0.206 F 
ATOM     84  C   UNL A   1      34.974  32.499  27.857  1.00  0.00     0.006 A 
ENDBRANCH  56  77
BRANCH  68  85
ATOM     85  C   UNL A   1      39.192  32.377  35.945  1.00  0.00     0.057 A 
ATOM     86  C   UNL A   1      39.588  33.713  36.084  1.00  0.00     0.134 A 
ATOM     87  C   UNL A   1      38.251  31.886  36.860  1.00  0.00     0.134 A 
ATOM     88  F   UNL A   1      40.494  34.244  35.249  1.00  0.00    -0.206 F 
ATOM     89  C   UNL A   1      39.086  34.521  37.107  1.00  0.00     0.040 A 
ATOM     90  C   UNL A   1      37.719  32.691  37.868  1.00  0.00     0.040 A 
ATOM     91  F   UNL A   1      37.818  30.618  36.779  1.00  0.00    -0.206 F 
ATOM     92  C   UNL A   1      38.143  34.012  37.997  1.00  0.00     0.006 A 
ENDBRANCH  68  85
ENDBRANCH  42  43
ENDBRANCH  35  37
ENDBRANCH  34  35
ENDBRANCH  33  34
ENDBRANCH  32  33
ENDBRANCH  31  32
ENDBRANCH  30  31
ENDBRANCH  29  30
ENDBRANCH  28  29
ENDBRANCH  27  28
ENDBRANCH   1  27
TORSDOF 26
ENDMDL
MODEL 2
REMARK VINA RESULT:      -9.5      1.803      6.573
REMARK SMILES CC(C)CCOCC[N@@H+]1[C@@H](C(=O)OCCOCCOCCOCCOC(=O)c2ccc(-c3c4nc(c(-c5c(F)cccc5F)c5ccc([nH]5)c(-c5c(F)cccc5F)c5nc(c(-c6c(F)cccc6F)c6ccc3[nH]6)C=C5)C=C4)cc2)CC[C@H]2CCCC[C@H]21
REMARK SMILES IDX 17 1 16 2 15 3 14 4 13 5 11 6 12 7 10 8 9 9 89 10 82 12
REMARK SMILES IDX 84 13 88 14 83 15 85 16 87 17 86 18 8 19 7 20 6 21 5 22 4 23
REMARK SMILES IDX 2 24 1 25 3 26 18 27 19 28 20 29 21 30 22 31 23 32 24 33
REMARK SMILES IDX 25 34 26 35 27 36 28 37 29 38 81 39 30 40 80 41 31 42 32 43
REMARK SMILES IDX 33 44 74 45 34 46 79 47 73 48 75 49 35 50 78 51 72 52 71 53
REMARK SMILES IDX 36 55 62 56 45 57 61 58 46 59 49 60 60 61 76 62 47 63 48 64
REMARK SMILES IDX 59 66 77 67 50 68 37 69 38 70 43 71 39 72 40 73 42 74 44 75
REMARK SMILES IDX 41 76 63 77 64 78 69 79 65 80 66 81 68 82 70 83 67 84 51 85
REMARK SMILES IDX 52 86 57 87 53 88 54 89 56 90 58 91 55 92
REMARK H PARENT 9 11 75 54 49 65
REMARK Flexibility Score: inf
ROOT
ATOM      1  C   UNL A   1      40.393  20.190  26.089  1.00  0.00     0.188 C 
ENDROOT
BRANCH   1   2
ATOM      2  O   UNL A   1      39.147  19.650  25.704  1.00  0.00    -0.376 OA
BRANCH   2   3
ATOM      3  C   UNL A   1      38.159  20.410  25.030  1.00  0.00     0.202 C 
BRANCH   3   4
ATOM      4  C   UNL A   1      37.235  21.460  25.661  1.00  0.00     0.261 C 
BRANCH   4   5
ATOM      5  O   UNL A   1      35.885  21.575  25.193  1.00  0.00    -0.459 OA
BRANCH   5   6
ATOM      6  C   UNL A   1      35.004  22.008  26.127  1.00  0.00     0.364 C 
ATOM      7  O   UNL A   1      34.791  21.408  27.182  1.00  0.00    -0.245 OA
BRANCH   6   8
ATOM      8  C   UNL A   1      34.288  23.336  25.799  1.00  0.00     0.295 C 
ATOM      9  N   UNL A   1      33.016  23.185  24.990  1.00  0.00    -0.319 N 
ATOM     10  C   UNL A   1      32.248  24.483  25.078  1.00  0.00     0.187 C 
ATOM     11  H   UNL A   1      33.212  23.004  24.005  1.00  0.00     0.349 HD
ATOM     12  C   UNL A   1      35.136  24.444  25.171  1.00  0.00     0.078 C 
ATOM     13  C   UNL A   1      33.054  25.774  24.735  1.00  0.00     0.048 C 
ATOM     14  C   UNL A   1      30.906  24.530  24.309  1.00  0.00     0.065 C 
ATOM     15  C   UNL A   1      34.434  25.781  25.397  1.00  0.00     0.016 C 
ATOM     16  C   UNL A   1      33.246  26.060  23.244  1.00  0.00     0.010 C 
ATOM     17  C   UNL A   1      30.819  25.196  22.935  1.00  0.00     0.006 C 
ATOM     18  C   UNL A   1      32.002  25.978  22.385  1.00  0.00     0.001 C 
BRANCH   9  19
ATOM     19  C   UNL A   1      32.246  22.012  25.490  1.00  0.00     0.291 C 
BRANCH  19  20
ATOM     20  C   UNL A   1      31.924  20.829  24.514  1.00  0.00     0.221 C 
BRANCH  20  21
ATOM     21  O   UNL A   1      32.900  19.862  24.158  1.00  0.00    -0.376 OA
BRANCH  21  22
ATOM     22  C   UNL A   1      33.326  18.822  25.028  1.00  0.00     0.160 C 
BRANCH  22  23
ATOM     23  C   UNL A   1      32.691  17.420  25.008  1.00  0.00     0.031 C 
BRANCH  23  24
ATOM     24  C   UNL A   1      33.537  16.316  24.370  1.00  0.00    -0.015 C 
ATOM     25  C   UNL A   1      34.101  16.740  23.031  1.00  0.00     0.007 C 
ATOM     26  C   UNL A   1      34.691  15.830  25.244  1.00  0.00     0.007 C 
ENDBRANCH  23  24
ENDBRANCH  22  23
ENDBRANCH  21  22
ENDBRANCH  20  21
ENDBRANCH  19  20
ENDBRANCH   9  19
ENDBRANCH   6   8
ENDBRANCH   5   6
ENDBRANCH   4   5
ENDBRANCH   3   4
ENDBRANCH   2   3
ENDBRANCH   1   2
BRANCH   1  27
ATOM     27  C   UNL A   1      41.637  19.299  26.136  1.00  0.00     0.188 C 
BRANCH  27  28
ATOM     28  O   UNL A   1      42.531  19.404  25.047  1.00  0.00    -0.377 OA
BRANCH  28  29
ATOM     29  C   UNL A   1      43.931  19.324  25.275  1.00  0.00     0.188 C 
BRANCH  29  30
ATOM     30  C   UNL A   1      44.784  20.605  25.283  1.00  0.00     0.188 C 
BRANCH  30  31
ATOM     31  O   UNL A   1      44.232  21.685  24.547  1.00  0.00    -0.376 OA
BRANCH  31  32
ATOM     32  C   UNL A   1      44.004  22.922  25.205  1.00  0.00     0.202 C 
BRANCH  32  33
ATOM     33  C   UNL A   1      42.550  23.379  25.403  1.00  0.00     0.261 C 
BRANCH  33  34
ATOM     34  O   UNL A   1      42.263  24.112  26.607  1.00  0.00    -0.460 OA
BRANCH  34  35
ATOM     35  C   UNL A   1      41.015  24.051  27.116  1.00  0.00     0.338 C 
ATOM     36  O   UNL A   1      40.248  23.113  27.094  1.00  0.00    -0.246 OA
BRANCH  35  37
ATOM     37  C   UNL A   1      40.795  25.288  27.893  1.00  0.00     0.060 A 
ATOM     38  C   UNL A   1      41.869  26.165  28.091  1.00  0.00     0.016 A 
ATOM     39  C   UNL A   1      39.541  25.562  28.444  1.00  0.00     0.016 A 
ATOM     40  C   UNL A   1      41.706  27.297  28.887  1.00  0.00     0.010 A 
ATOM     41  C   UNL A   1      39.384  26.684  29.259  1.00  0.00     0.010 A 
ATOM     42  C   UNL A   1      40.477  27.530  29.517  1.00  0.00    -0.014 A 
BRANCH  42  43
ATOM     43  C   UNL A   1      40.401  28.509  30.626  1.00  0.00     0.031 A 
ATOM     44  C   UNL A   1      39.389  29.617  30.521  1.00  0.00     0.074 A 
ATOM     45  C   UNL A   1      41.189  28.410  31.709  1.00  0.00     0.049 A 
ATOM     46  N   UNL A   1      39.169  30.624  31.324  1.00  0.00    -0.248 NA
ATOM     47  C   UNL A   1      38.509  29.582  29.341  1.00  0.00     0.031 C 
ATOM     48  C   UNL A   1      42.167  27.353  31.952  1.00  0.00     0.029 A 
ATOM     49  N   UNL A   1      41.290  29.225  32.808  1.00  0.00    -0.354 N 
ATOM     50  C   UNL A   1      38.132  31.346  30.744  1.00  0.00     0.074 A 
ATOM     51  C   UNL A   1      37.792  30.682  29.506  1.00  0.00     0.031 C 
ATOM     52  C   UNL A   1      42.781  27.591  33.125  1.00  0.00     0.029 A 
ATOM     53  C   UNL A   1      42.262  28.834  33.693  1.00  0.00     0.049 A 
ATOM     54  H   UNL A   1      40.720  30.016  32.947  1.00  0.00     0.167 HD
ATOM     55  C   UNL A   1      37.515  32.458  31.206  1.00  0.00     0.037 A 
ATOM     56  C   UNL A   1      42.698  29.429  34.822  1.00  0.00     0.037 A 
ATOM     57  C   UNL A   1      37.864  33.121  32.434  1.00  0.00     0.049 A 
ATOM     58  C   UNL A   1      42.058  30.718  35.270  1.00  0.00     0.074 A 
ATOM     59  C   UNL A   1      37.297  34.250  32.997  1.00  0.00     0.029 A 
ATOM     60  N   UNL A   1      38.884  32.719  33.284  1.00  0.00    -0.354 N 
ATOM     61  N   UNL A   1      41.069  31.388  34.727  1.00  0.00    -0.248 NA
ATOM     62  C   UNL A   1      42.597  31.335  36.492  1.00  0.00     0.031 C 
ATOM     63  C   UNL A   1      38.012  34.564  34.157  1.00  0.00     0.029 A 
ATOM     64  C   UNL A   1      38.982  33.594  34.352  1.00  0.00     0.049 A 
ATOM     65  H   UNL A   1      39.454  31.927  33.147  1.00  0.00     0.167 HD
ATOM     66  C   UNL A   1      40.845  32.481  35.556  1.00  0.00     0.074 A 
ATOM     67  C   UNL A   1      41.797  32.381  36.643  1.00  0.00     0.031 C 
ATOM     68  C   UNL A   1      39.932  33.477  35.431  1.00  0.00     0.037 A 
BRANCH  55  69
ATOM     69  C   UNL A   1      36.427  33.043  30.352  1.00  0.00     0.057 A 
ATOM     70  C   UNL A   1      35.070  32.796  30.602  1.00  0.00     0.134 A 
ATOM     71  C   UNL A   1      36.742  33.866  29.263  1.00  0.00     0.134 A 
ATOM     72  F   UNL A   1      34.699  32.001  31.617  1.00  0.00    -0.206 F 
ATOM     73  C   UNL A   1      34.069  33.317  29.779  1.00  0.00     0.040 A 
ATOM     74  C   UNL A   1      35.749  34.417  28.452  1.00  0.00     0.040 A 
ATOM     75  F   UNL A   1      38.020  34.146  28.968  1.00  0.00    -0.206 F 
ATOM     76  C   UNL A   1      34.409  34.135  28.704  1.00  0.00     0.006 A 
ENDBRANCH  55  69
BRANCH  56  77
ATOM     77  C   UNL A   1      43.802  28.820  35.604  1.00  0.00     0.057 A 
ATOM     78  C   UNL A   1      45.132  29.211  35.408  1.00  0.00     0.134 A 
ATOM     79  C   UNL A   1      43.559  27.820  36.554  1.00  0.00     0.134 A 
ATOM     80  F   UNL A   1      45.432  30.145  34.494  1.00  0.00    -0.206 F 
ATOM     81  C   UNL A   1      46.180  28.624  36.119  1.00  0.00     0.040 A 
ATOM     82  C   UNL A   1      44.595  27.243  37.291  1.00  0.00     0.040 A 
ATOM     83  F   UNL A   1      42.308  27.398  36.788  1.00  0.00    -0.206 F 
ATOM     84  C   UNL A   1      45.911  27.641  37.069  1.00  0.00     0.006 A 
ENDBRANCH  56  77
BRANCH  68  85
ATOM     85  C   UNL A   1      39.884  34.513  36.518  1.00  0.00     0.057 A 
ATOM     86  C   UNL A   1      39.164  34.316  37.703  1.00  0.00     0.134 A 
ATOM     87  C   UNL A   1      40.611  35.705  36.395  1.00  0.00     0.134 A 
ATOM     88  F   UNL A   1      38.439  33.203  37.881  1.00  0.00    -0.206 F 
ATOM     89  C   UNL A   1      39.149  35.279  38.715  1.00  0.00     0.040 A 
ATOM     90  C   UNL A   1      40.628  36.660  37.411  1.00  0.00     0.040 A 
ATOM     91  F   UNL A   1      41.332  35.953  35.291  1.00  0.00    -0.206 F 
ATOM     92  C   UNL A   1      39.889  36.451  38.574  1.00  0.00     0.006 A 
ENDBRANCH  68  85
ENDBRANCH  42  43
ENDBRANCH  35  37
ENDBRANCH  34  35
ENDBRANCH  33  34
ENDBRANCH  32  33
ENDBRANCH  31  32
ENDBRANCH  30  31
ENDBRANCH  29  30
ENDBRANCH  28  29
ENDBRANCH  27  28
ENDBRANCH   1  27
TORSDOF 26
ENDMDL
MODEL 3
REMARK VINA RESULT:      -9.2      1.301      2.319
REMARK SMILES CC(C)CCOCC[N@@H+]1[C@@H](C(=O)OCCOCCOCCOCCOC(=O)c2ccc(-c3c4nc(c(-c5c(F)cccc5F)c5ccc([nH]5)c(-c5c(F)cccc5F)c5nc(c(-c6c(F)cccc6F)c6ccc3[nH]6)C=C5)C=C4)cc2)CC[C@H]2CCCC[C@H]21
REMARK SMILES IDX 17 1 16 2 15 3 14 4 13 5 11 6 12 7 10 8 9 9 89 10 82 12
REMARK SMILES IDX 84 13 88 14 83 15 85 16 87 17 86 18 8 19 7 20 6 21 5 22 4 23
REMARK SMILES IDX 2 24 1 25 3 26 18 27 19 28 20 29 21 30 22 31 23 32 24 33
REMARK SMILES IDX 25 34 26 35 27 36 28 37 29 38 81 39 30 40 80 41 31 42 32 43
REMARK SMILES IDX 33 44 74 45 34 46 79 47 73 48 75 49 35 50 78 51 72 52 71 53
REMARK SMILES IDX 36 55 62 56 45 57 61 58 46 59 49 60 60 61 76 62 47 63 48 64
REMARK SMILES IDX 59 66 77 67 50 68 37 69 38 70 43 71 39 72 40 73 42 74 44 75
REMARK SMILES IDX 41 76 63 77 64 78 69 79 65 80 66 81 68 82 70 83 67 84 51 85
REMARK SMILES IDX 52 86 57 87 53 88 54 89 56 90 58 91 55 92
REMARK H PARENT 9 11 75 54 49 65
REMARK Flexibility Score: inf
ROOT
ATOM      1  C   UNL A   1      40.089  21.258  26.164  1.00  0.00     0.188 C 
ENDROOT
BRANCH   1   2
ATOM      2  O   UNL A   1      38.871  20.764  25.651  1.00  0.00    -0.376 OA
BRANCH   2   3
ATOM      3  C   UNL A   1      37.821  21.614  25.223  1.00  0.00     0.202 C 
BRANCH   3   4
ATOM      4  C   UNL A   1      36.762  22.271  26.120  1.00  0.00     0.261 C 
BRANCH   4   5
ATOM      5  O   UNL A   1      35.376  21.991  25.888  1.00  0.00    -0.459 OA
BRANCH   5   6
ATOM      6  C   UNL A   1      34.528  22.624  26.733  1.00  0.00     0.364 C 
ATOM      7  O   UNL A   1      34.326  22.252  27.890  1.00  0.00    -0.245 OA
BRANCH   6   8
ATOM      8  C   UNL A   1      33.836  23.880  26.160  1.00  0.00     0.295 C 
ATOM      9  N   UNL A   1      32.652  23.594  25.258  1.00  0.00    -0.319 N 
ATOM     10  C   UNL A   1      31.868  24.874  25.094  1.00  0.00     0.187 C 
ATOM     11  H   UNL A   1      32.948  23.287  24.330  1.00  0.00     0.349 HD
ATOM     12  C   UNL A   1      34.733  24.913  25.473  1.00  0.00     0.078 C 
ATOM     13  C   UNL A   1      32.692  26.126  24.659  1.00  0.00     0.048 C 
ATOM     14  C   UNL A   1      30.609  24.787  24.199  1.00  0.00     0.065 C 
ATOM     15  C   UNL A   1      33.999  26.252  25.446  1.00  0.00     0.016 C 
ATOM     16  C   UNL A   1      33.029  26.214  23.169  1.00  0.00     0.010 C 
ATOM     17  C   UNL A   1      30.653  25.261  22.745  1.00  0.00     0.006 C 
ATOM     18  C   UNL A   1      31.878  25.989  22.212  1.00  0.00     0.001 C 
BRANCH   9  19
ATOM     19  C   UNL A   1      31.847  22.481  25.835  1.00  0.00     0.291 C 
BRANCH  19  20
ATOM     20  C   UNL A   1      31.796  21.102  25.092  1.00  0.00     0.221 C 
BRANCH  20  21
ATOM     21  O   UNL A   1      32.882  20.629  24.311  1.00  0.00    -0.376 OA
BRANCH  21  22
ATOM     22  C   UNL A   1      33.630  19.463  24.632  1.00  0.00     0.160 C 
BRANCH  22  23
ATOM     23  C   UNL A   1      32.984  18.221  25.272  1.00  0.00     0.031 C 
BRANCH  23  24
ATOM     24  C   UNL A   1      33.085  16.927  24.462  1.00  0.00    -0.015 C 
ATOM     25  C   UNL A   1      33.767  17.148  23.128  1.00  0.00     0.007 C 
ATOM     26  C   UNL A   1      33.806  15.792  25.187  1.00  0.00     0.007 C 
ENDBRANCH  23  24
ENDBRANCH  22  23
ENDBRANCH  21  22
ENDBRANCH  20  21
ENDBRANCH  19  20
ENDBRANCH   9  19
ENDBRANCH   6   8
ENDBRANCH   5   6
ENDBRANCH   4   5
ENDBRANCH   3   4
ENDBRANCH   2   3
ENDBRANCH   1   2
BRANCH   1  27
ATOM     27  C   UNL A   1      41.226  20.294  26.512  1.00  0.00     0.188 C 
BRANCH  27  28
ATOM     28  O   UNL A   1      41.908  19.703  25.424  1.00  0.00    -0.377 OA
BRANCH  28  29
ATOM     29  C   UNL A   1      43.176  19.097  25.633  1.00  0.00     0.188 C 
BRANCH  29  30
ATOM     30  C   UNL A   1      44.462  19.843  25.237  1.00  0.00     0.188 C 
BRANCH  30  31
ATOM     31  O   UNL A   1      44.367  20.578  24.028  1.00  0.00    -0.376 OA
BRANCH  31  32
ATOM     32  C   UNL A   1      44.628  21.974  24.047  1.00  0.00     0.202 C 
BRANCH  32  33
ATOM     33  C   UNL A   1      43.516  22.912  24.542  1.00  0.00     0.261 C 
BRANCH  33  34
ATOM     34  O   UNL A   1      43.778  23.638  25.755  1.00  0.00    -0.460 OA
BRANCH  34  35
ATOM     35  C   UNL A   1      44.505  24.774  25.682  1.00  0.00     0.338 C 
ATOM     36  O   UNL A   1      45.152  25.183  24.743  1.00  0.00    -0.246 OA
BRANCH  35  37
ATOM     37  C   UNL A   1      44.226  25.555  26.904  1.00  0.00     0.060 A 
ATOM     38  C   UNL A   1      43.501  24.955  27.942  1.00  0.00     0.016 A 
ATOM     39  C   UNL A   1      44.656  26.879  27.008  1.00  0.00     0.016 A 
ATOM     40  C   UNL A   1      43.158  25.698  29.070  1.00  0.00     0.010 A 
ATOM     41  C   UNL A   1      44.292  27.629  28.129  1.00  0.00     0.010 A 
ATOM     42  C   UNL A   1      43.505  27.052  29.141  1.00  0.00    -0.014 A 
BRANCH  42  43
ATOM     43  C   UNL A   1      42.849  27.922  30.145  1.00  0.00     0.031 A 
ATOM     44  C   UNL A   1      43.475  28.020  31.509  1.00  0.00     0.074 A 
ATOM     45  C   UNL A   1      41.742  28.624  29.853  1.00  0.00     0.049 A 
ATOM     46  N   UNL A   1      43.063  28.662  32.571  1.00  0.00    -0.248 NA
ATOM     47  C   UNL A   1      44.738  27.288  31.699  1.00  0.00     0.031 C 
ATOM     48  C   UNL A   1      41.076  28.654  28.554  1.00  0.00     0.029 A 
ATOM     49  N   UNL A   1      40.981  29.445  30.646  1.00  0.00    -0.354 N 
ATOM     50  C   UNL A   1      44.011  28.404  33.555  1.00  0.00     0.074 A 
ATOM     51  C   UNL A   1      44.998  27.521  32.975  1.00  0.00     0.031 C 
ATOM     52  C   UNL A   1      39.992  29.447  28.642  1.00  0.00     0.029 A 
ATOM     53  C   UNL A   1      39.874  29.948  30.010  1.00  0.00     0.049 A 
ATOM     54  H   UNL A   1      41.206  29.652  31.581  1.00  0.00     0.167 HD
ATOM     55  C   UNL A   1      44.058  28.868  34.825  1.00  0.00     0.037 A 
ATOM     56  C   UNL A   1      38.868  30.706  30.489  1.00  0.00     0.037 A 
ATOM     57  C   UNL A   1      43.068  29.738  35.401  1.00  0.00     0.049 A 
ATOM     58  C   UNL A   1      38.892  31.136  31.934  1.00  0.00     0.074 A 
ATOM     59  C   UNL A   1      43.024  30.272  36.676  1.00  0.00     0.029 A 
ATOM     60  N   UNL A   1      41.937  30.192  34.738  1.00  0.00    -0.354 N 
ATOM     61  N   UNL A   1      39.797  30.903  32.855  1.00  0.00    -0.248 NA
ATOM     62  C   UNL A   1      37.752  31.936  32.406  1.00  0.00     0.031 C 
ATOM     63  C   UNL A   1      41.838  31.002  36.803  1.00  0.00     0.029 A 
ATOM     64  C   UNL A   1      41.174  30.977  35.587  1.00  0.00     0.049 A 
ATOM     65  H   UNL A   1      41.710  29.987  33.801  1.00  0.00     0.167 HD
ATOM     66  C   UNL A   1      39.355  31.554  34.001  1.00  0.00     0.074 A 
ATOM     67  C   UNL A   1      38.104  32.198  33.656  1.00  0.00     0.031 C 
ATOM     68  C   UNL A   1      39.933  31.617  35.226  1.00  0.00     0.037 A 
BRANCH  55  69
ATOM     69  C   UNL A   1      45.200  28.405  35.683  1.00  0.00     0.057 A 
ATOM     70  C   UNL A   1      45.145  27.210  36.414  1.00  0.00     0.134 A 
ATOM     71  C   UNL A   1      46.372  29.166  35.780  1.00  0.00     0.134 A 
ATOM     72  F   UNL A   1      44.044  26.442  36.382  1.00  0.00    -0.206 F 
ATOM     73  C   UNL A   1      46.200  26.807  37.236  1.00  0.00     0.040 A 
ATOM     74  C   UNL A   1      47.444  28.758  36.574  1.00  0.00     0.040 A 
ATOM     75  F   UNL A   1      46.493  30.319  35.105  1.00  0.00    -0.206 F 
ATOM     76  C   UNL A   1      47.356  27.580  37.312  1.00  0.00     0.006 A 
ENDBRANCH  55  69
BRANCH  56  77
ATOM     77  C   UNL A   1      37.747  31.102  29.600  1.00  0.00     0.057 A 
ATOM     78  C   UNL A   1      37.699  32.374  29.017  1.00  0.00     0.134 A 
ATOM     79  C   UNL A   1      36.690  30.227  29.324  1.00  0.00     0.134 A 
ATOM     80  F   UNL A   1      38.668  33.266  29.265  1.00  0.00    -0.206 F 
ATOM     81  C   UNL A   1      36.635  32.766  28.202  1.00  0.00     0.040 A 
ATOM     82  C   UNL A   1      35.634  30.596  28.489  1.00  0.00     0.040 A 
ATOM     83  F   UNL A   1      36.675  28.995  29.852  1.00  0.00    -0.206 F 
ATOM     84  C   UNL A   1      35.602  31.872  27.931  1.00  0.00     0.006 A 
ENDBRANCH  56  77
BRANCH  68  85
ATOM     85  C   UNL A   1      39.246  32.446  36.274  1.00  0.00     0.057 A 
ATOM     86  C   UNL A   1      39.550  33.798  36.471  1.00  0.00     0.134 A 
ATOM     87  C   UNL A   1      38.230  31.892  37.065  1.00  0.00     0.134 A 
ATOM     88  F   UNL A   1      40.519  34.389  35.756  1.00  0.00    -0.206 F 
ATOM     89  C   UNL A   1      38.886  34.563  37.434  1.00  0.00     0.040 A 
ATOM     90  C   UNL A   1      37.539  32.652  38.008  1.00  0.00     0.040 A 
ATOM     91  F   UNL A   1      37.880  30.604  36.921  1.00  0.00    -0.206 F 
ATOM     92  C   UNL A   1      37.871  33.992  38.199  1.00  0.00     0.006 A 
ENDBRANCH  68  85
ENDBRANCH  42  43
ENDBRANCH  35  37
ENDBRANCH  34  35
ENDBRANCH  33  34
ENDBRANCH  32  33
ENDBRANCH  31  32
ENDBRANCH  30  31
ENDBRANCH  29  30
ENDBRANCH  28  29
ENDBRANCH  27  28
ENDBRANCH   1  27
TORSDOF 26
ENDMDL
