MODEL 1
REMARK VINA RESULT:     -10.3      0.000      0.000
REMARK SMILES CC[C@@](C)(NC(=O)Nc1c(C)cccc1Cl)C(=O)OCCOCCOCCOCCOC(=O)c1ccc(-c2c3nc(c(-c4c(F)cccc4F)c4ccc([nH]4)c(-c4c(F)cccc4F)c4nc(c(-c5c(F)cccc5F)c5ccc2[nH]5)C=C4)C=C3)cc1
REMARK SMILES IDX 25 1 24 2 23 3 22 4 21 5 20 6 19 7 17 8 18 9 3 10 4 11 2 12
REMARK SMILES IDX 1 13 5 14 6 15 7 17 8 18 9 20 10 21 15 22 11 23 12 24 14 25
REMARK SMILES IDX 16 26 13 27 26 28 27 29 28 30 29 31 30 32 31 33 32 34 33 35
REMARK SMILES IDX 34 36 35 37 87 38 36 39 86 40 37 41 38 42 39 43 80 44 40 45
REMARK SMILES IDX 85 46 79 47 81 48 41 49 84 50 78 51 77 52 42 54 68 55 51 56
REMARK SMILES IDX 67 57 52 58 55 59 66 60 82 61 53 62 54 63 65 65 83 66 56 67
REMARK SMILES IDX 43 68 44 69 49 70 45 71 46 72 48 73 50 74 47 75 69 76 70 77
REMARK SMILES IDX 75 78 71 79 72 80 74 81 76 82 73 83 57 84 58 85 63 86 59 87
REMARK SMILES IDX 60 88 62 89 64 90 61 91
REMARK H PARENT 5 16 8 19 81 53 55 64
REMARK Flexibility Score: inf
ROOT
ATOM      1  O   UNL A   1      33.423  30.898  26.828  1.00  0.00    -0.377 OA
ENDROOT
BRANCH   1   2
ATOM      2  C   UNL A   1      32.317  30.025  27.021  1.00  0.00     0.188 C 
BRANCH   2   3
ATOM      3  C   UNL A   1      31.842  29.362  25.693  1.00  0.00     0.188 C 
BRANCH   3   4
ATOM      4  O   UNL A   1      32.650  28.193  25.434  1.00  0.00    -0.376 OA
BRANCH   4   5
ATOM      5  C   UNL A   1      33.025  27.760  24.124  1.00  0.00     0.202 C 
BRANCH   5   6
ATOM      6  C   UNL A   1      31.734  27.285  23.169  1.00  0.00     0.261 C 
BRANCH   6   7
ATOM      7  O   UNL A   1      31.123  25.811  23.219  1.00  0.00    -0.462 OA
BRANCH   7   8
ATOM      8  C   UNL A   1      31.307  24.410  23.047  1.00  0.00     0.331 C 
ATOM      9  O   UNL A   1      30.392  23.586  23.091  1.00  0.00    -0.249 OA
BRANCH   8  10
ATOM     10  C   UNL A   1      32.918  23.893  22.806  1.00  0.00     0.136 C 
ATOM     11  C   UNL A   1      33.672  25.067  22.147  1.00  0.00     0.047 C 
BRANCH  10  12
ATOM     12  C   UNL A   1      34.109  23.125  23.558  1.00  0.00     0.037 C 
ATOM     13  C   UNL A   1      35.586  23.286  23.276  1.00  0.00     0.007 C 
ENDBRANCH  10  12
BRANCH  10  14
ATOM     14  N   UNL A   1      32.488  22.844  21.944  1.00  0.00    -0.322 N 
ATOM     15  C   UNL A   1      32.200  21.638  22.513  1.00  0.00     0.320 C 
ATOM     16  H   UNL A   1      32.402  22.985  20.973  1.00  0.00     0.166 HD
ATOM     17  O   UNL A   1      31.777  20.760  21.762  1.00  0.00    -0.248 OA
ATOM     18  N   UNL A   1      32.397  21.425  23.886  1.00  0.00    -0.306 N 
ATOM     19  H   UNL A   1      32.349  20.453  24.029  1.00  0.00     0.171 HD
BRANCH  18  20
ATOM     20  C   UNL A   1      32.655  22.054  25.254  1.00  0.00     0.064 A 
ATOM     21  C   UNL A   1      32.017  23.052  26.153  1.00  0.00    -0.026 A 
ATOM     22  C   UNL A   1      33.676  21.297  25.894  1.00  0.00     0.064 A 
ATOM     23  C   UNL A   1      30.758  23.949  26.226  1.00  0.00     0.046 C 
ATOM     24  C   UNL A   1      32.516  23.192  27.487  1.00  0.00     0.005 A 
ATOM     25  C   UNL A   1      33.922  21.314  27.269  1.00  0.00     0.023 A 
ATOM     26  Cl  UNL A   1      34.850  20.407  24.967  1.00  0.00    -0.082 Cl
ATOM     27  C   UNL A   1      33.356  22.275  28.068  1.00  0.00     0.002 A 
ENDBRANCH  18  20
ENDBRANCH  10  14
ENDBRANCH   8  10
ENDBRANCH   7   8
ENDBRANCH   6   7
ENDBRANCH   5   6
ENDBRANCH   4   5
ENDBRANCH   3   4
ENDBRANCH   2   3
ENDBRANCH   1   2
BRANCH   1  28
ATOM     28  C   UNL A   1      33.645  31.812  27.908  1.00  0.00     0.188 C 
BRANCH  28  29
ATOM     29  C   UNL A   1      32.954  33.159  27.699  1.00  0.00     0.188 C 
BRANCH  29  30
ATOM     30  O   UNL A   1      32.763  33.992  28.837  1.00  0.00    -0.376 OA
BRANCH  30  31
ATOM     31  C   UNL A   1      33.887  34.734  29.288  1.00  0.00     0.202 C 
BRANCH  31  32
ATOM     32  C   UNL A   1      34.630  34.232  30.544  1.00  0.00     0.261 C 
BRANCH  32  33
ATOM     33  O   UNL A   1      34.399  32.869  30.945  1.00  0.00    -0.460 OA
BRANCH  33  34
ATOM     34  C   UNL A   1      35.137  32.417  31.988  1.00  0.00     0.338 C 
ATOM     35  O   UNL A   1      34.985  32.661  33.163  1.00  0.00    -0.246 OA
BRANCH  34  36
ATOM     36  C   UNL A   1      36.155  31.468  31.476  1.00  0.00     0.060 A 
ATOM     37  C   UNL A   1      37.086  30.906  32.361  1.00  0.00     0.016 A 
ATOM     38  C   UNL A   1      36.268  31.248  30.104  1.00  0.00     0.016 A 
ATOM     39  C   UNL A   1      38.150  30.148  31.878  1.00  0.00     0.010 A 
ATOM     40  C   UNL A   1      37.361  30.526  29.614  1.00  0.00     0.010 A 
ATOM     41  C   UNL A   1      38.327  30.012  30.498  1.00  0.00    -0.014 A 
BRANCH  41  42
ATOM     42  C   UNL A   1      39.641  29.562  29.983  1.00  0.00     0.031 A 
ATOM     43  C   UNL A   1      40.766  30.561  29.946  1.00  0.00     0.074 A 
ATOM     44  C   UNL A   1      39.846  28.291  29.596  1.00  0.00     0.049 A 
ATOM     45  N   UNL A   1      41.965  30.445  29.439  1.00  0.00    -0.248 NA
ATOM     46  C   UNL A   1      40.499  31.868  30.572  1.00  0.00     0.031 C 
ATOM     47  C   UNL A   1      38.862  27.215  29.665  1.00  0.00     0.029 A 
ATOM     48  N   UNL A   1      40.958  27.699  29.051  1.00  0.00    -0.354 N 
ATOM     49  C   UNL A   1      42.586  31.670  29.661  1.00  0.00     0.074 A 
ATOM     50  C   UNL A   1      41.629  32.517  30.337  1.00  0.00     0.031 C 
ATOM     51  C   UNL A   1      39.405  26.096  29.155  1.00  0.00     0.029 A 
ATOM     52  C   UNL A   1      40.756  26.393  28.682  1.00  0.00     0.049 A 
ATOM     53  H   UNL A   1      41.817  28.166  28.938  1.00  0.00     0.167 HD
ATOM     54  C   UNL A   1      43.840  32.051  29.327  1.00  0.00     0.037 A 
ATOM     55  C   UNL A   1      41.559  25.552  28.001  1.00  0.00     0.037 A 
ATOM     56  C   UNL A   1      44.788  31.199  28.660  1.00  0.00     0.049 A 
ATOM     57  C   UNL A   1      42.918  26.031  27.555  1.00  0.00     0.074 A 
ATOM     58  C   UNL A   1      46.087  31.486  28.280  1.00  0.00     0.029 A 
ATOM     59  N   UNL A   1      44.534  29.893  28.269  1.00  0.00    -0.354 N 
ATOM     60  N   UNL A   1      43.497  27.191  27.759  1.00  0.00    -0.248 NA
ATOM     61  C   UNL A   1      43.734  25.084  26.783  1.00  0.00     0.031 C 
ATOM     62  C   UNL A   1      46.600  30.372  27.608  1.00  0.00     0.029 A 
ATOM     63  C   UNL A   1      45.643  29.370  27.627  1.00  0.00     0.049 A 
ATOM     64  H   UNL A   1      43.690  29.411  28.425  1.00  0.00     0.167 HD
ATOM     65  C   UNL A   1      44.753  27.100  27.170  1.00  0.00     0.074 A 
ATOM     66  C   UNL A   1      44.857  25.768  26.614  1.00  0.00     0.031 C 
ATOM     67  C   UNL A   1      45.733  28.034  27.094  1.00  0.00     0.037 A 
BRANCH  54  68
ATOM     68  C   UNL A   1      44.246  33.463  29.639  1.00  0.00     0.057 A 
ATOM     69  C   UNL A   1      43.960  34.529  28.777  1.00  0.00     0.134 A 
ATOM     70  C   UNL A   1      44.899  33.762  30.843  1.00  0.00     0.134 A 
ATOM     71  F   UNL A   1      43.352  34.310  27.601  1.00  0.00    -0.206 F 
ATOM     72  C   UNL A   1      44.324  35.840  29.094  1.00  0.00     0.040 A 
ATOM     73  C   UNL A   1      45.242  35.071  31.182  1.00  0.00     0.040 A 
ATOM     74  F   UNL A   1      45.201  32.788  31.714  1.00  0.00    -0.206 F 
ATOM     75  C   UNL A   1      44.958  36.115  30.303  1.00  0.00     0.006 A 
ENDBRANCH  54  68
BRANCH  55  76
ATOM     76  C   UNL A   1      41.090  24.186  27.649  1.00  0.00     0.057 A 
ATOM     77  C   UNL A   1      40.127  23.979  26.654  1.00  0.00     0.134 A 
ATOM     78  C   UNL A   1      41.563  23.056  28.330  1.00  0.00     0.134 A 
ATOM     79  F   UNL A   1      39.615  25.021  25.984  1.00  0.00    -0.206 F 
ATOM     80  C   UNL A   1      39.634  22.704  26.367  1.00  0.00     0.040 A 
ATOM     81  C   UNL A   1      41.101  21.773  28.032  1.00  0.00     0.040 A 
ATOM     82  F   UNL A   1      42.483  23.183  29.297  1.00  0.00    -0.206 F 
ATOM     83  C   UNL A   1      40.125  21.597  27.054  1.00  0.00     0.006 A 
ENDBRANCH  55  76
BRANCH  67  84
ATOM     84  C   UNL A   1      47.022  27.633  26.435  1.00  0.00     0.057 A 
ATOM     85  C   UNL A   1      48.090  27.088  27.157  1.00  0.00     0.134 A 
ATOM     86  C   UNL A   1      47.176  27.755  25.047  1.00  0.00     0.134 A 
ATOM     87  F   UNL A   1      48.012  26.953  28.490  1.00  0.00    -0.206 F 
ATOM     88  C   UNL A   1      49.275  26.704  26.528  1.00  0.00     0.040 A 
ATOM     89  C   UNL A   1      48.345  27.346  24.402  1.00  0.00     0.040 A 
ATOM     90  F   UNL A   1      46.188  28.257  24.292  1.00  0.00    -0.206 F 
ATOM     91  C   UNL A   1      49.402  26.826  25.146  1.00  0.00     0.006 A 
ENDBRANCH  67  84
ENDBRANCH  41  42
ENDBRANCH  34  36
ENDBRANCH  33  34
ENDBRANCH  32  33
ENDBRANCH  31  32
ENDBRANCH  30  31
ENDBRANCH  29  30
ENDBRANCH  28  29
ENDBRANCH   1  28
TORSDOF 23
ENDMDL
MODEL 2
REMARK VINA RESULT:      -9.8      1.488      6.373
REMARK SMILES CC[C@@](C)(NC(=O)Nc1c(C)cccc1Cl)C(=O)OCCOCCOCCOCCOC(=O)c1ccc(-c2c3nc(c(-c4c(F)cccc4F)c4ccc([nH]4)c(-c4c(F)cccc4F)c4nc(c(-c5c(F)cccc5F)c5ccc2[nH]5)C=C4)C=C3)cc1
REMARK SMILES IDX 25 1 24 2 23 3 22 4 21 5 20 6 19 7 17 8 18 9 3 10 4 11 2 12
REMARK SMILES IDX 1 13 5 14 6 15 7 17 8 18 9 20 10 21 15 22 11 23 12 24 14 25
REMARK SMILES IDX 16 26 13 27 26 28 27 29 28 30 29 31 30 32 31 33 32 34 33 35
REMARK SMILES IDX 34 36 35 37 87 38 36 39 86 40 37 41 38 42 39 43 80 44 40 45
REMARK SMILES IDX 85 46 79 47 81 48 41 49 84 50 78 51 77 52 42 54 68 55 51 56
REMARK SMILES IDX 67 57 52 58 55 59 66 60 82 61 53 62 54 63 65 65 83 66 56 67
REMARK SMILES IDX 43 68 44 69 49 70 45 71 46 72 48 73 50 74 47 75 69 76 70 77
REMARK SMILES IDX 75 78 71 79 72 80 74 81 76 82 73 83 57 84 58 85 63 86 59 87
REMARK SMILES IDX 60 88 62 89 64 90 61 91
REMARK H PARENT 5 16 8 19 81 53 55 64
REMARK Flexibility Score: inf
ROOT
ATOM      1  O   UNL A   1      34.939  33.397  28.534  1.00  0.00    -0.377 OA
ENDROOT
BRANCH   1   2
ATOM      2  C   UNL A   1      34.647  32.042  28.852  1.00  0.00     0.188 C 
BRANCH   2   3
ATOM      3  C   UNL A   1      34.932  31.076  27.662  1.00  0.00     0.188 C 
BRANCH   3   4
ATOM      4  O   UNL A   1      33.872  30.098  27.584  1.00  0.00    -0.376 OA
BRANCH   4   5
ATOM      5  C   UNL A   1      33.157  29.796  26.383  1.00  0.00     0.202 C 
BRANCH   5   6
ATOM      6  C   UNL A   1      33.548  28.310  25.716  1.00  0.00     0.261 C 
BRANCH   6   7
ATOM      7  O   UNL A   1      33.599  28.061  24.140  1.00  0.00    -0.462 OA
BRANCH   7   8
ATOM      8  C   UNL A   1      33.587  27.145  23.050  1.00  0.00     0.331 C 
ATOM      9  O   UNL A   1      33.963  27.427  21.911  1.00  0.00    -0.249 OA
BRANCH   8  10
ATOM     10  C   UNL A   1      32.969  25.588  23.391  1.00  0.00     0.136 C 
ATOM     11  C   UNL A   1      34.010  24.878  24.281  1.00  0.00     0.047 C 
BRANCH  10  12
ATOM     12  C   UNL A   1      31.613  24.851  23.827  1.00  0.00     0.037 C 
ATOM     13  C   UNL A   1      30.467  25.479  24.588  1.00  0.00     0.007 C 
ENDBRANCH  10  12
BRANCH  10  14
ATOM     14  N   UNL A   1      32.971  25.248  22.008  1.00  0.00    -0.322 N 
ATOM     15  C   UNL A   1      33.356  23.983  21.670  1.00  0.00     0.320 C 
ATOM     16  H   UNL A   1      32.705  25.902  21.322  1.00  0.00     0.166 HD
ATOM     17  O   UNL A   1      33.298  23.688  20.477  1.00  0.00    -0.248 OA
ATOM     18  N   UNL A   1      33.805  23.083  22.649  1.00  0.00    -0.306 N 
ATOM     19  H   UNL A   1      34.235  22.339  22.169  1.00  0.00     0.171 HD
BRANCH  18  20
ATOM     20  C   UNL A   1      33.914  22.761  24.138  1.00  0.00     0.064 A 
ATOM     21  C   UNL A   1      33.007  22.442  25.272  1.00  0.00    -0.026 A 
ATOM     22  C   UNL A   1      35.283  22.502  24.426  1.00  0.00     0.064 A 
ATOM     23  C   UNL A   1      31.503  22.221  25.563  1.00  0.00     0.046 C 
ATOM     24  C   UNL A   1      33.580  21.992  26.504  1.00  0.00     0.005 A 
ATOM     25  C   UNL A   1      35.732  21.817  25.559  1.00  0.00     0.023 A 
ATOM     26  Cl  UNL A   1      36.553  23.196  23.459  1.00  0.00    -0.082 Cl
ATOM     27  C   UNL A   1      34.883  21.576  26.610  1.00  0.00     0.002 A 
ENDBRANCH  18  20
ENDBRANCH  10  14
ENDBRANCH   8  10
ENDBRANCH   7   8
ENDBRANCH   6   7
ENDBRANCH   5   6
ENDBRANCH   4   5
ENDBRANCH   3   4
ENDBRANCH   2   3
ENDBRANCH   1   2
BRANCH   1  28
ATOM     28  C   UNL A   1      35.174  34.230  29.675  1.00  0.00     0.188 C 
BRANCH  28  29
ATOM     29  C   UNL A   1      33.889  34.814  30.260  1.00  0.00     0.188 C 
BRANCH  29  30
ATOM     30  O   UNL A   1      33.411  34.272  31.486  1.00  0.00    -0.376 OA
BRANCH  30  31
ATOM     31  C   UNL A   1      34.241  34.428  32.628  1.00  0.00     0.202 C 
BRANCH  31  32
ATOM     32  C   UNL A   1      34.980  33.184  33.162  1.00  0.00     0.261 C 
BRANCH  32  33
ATOM     33  O   UNL A   1      36.375  33.054  32.834  1.00  0.00    -0.460 OA
BRANCH  33  34
ATOM     34  C   UNL A   1      37.079  32.145  33.551  1.00  0.00     0.338 C 
ATOM     35  O   UNL A   1      37.026  31.941  34.743  1.00  0.00    -0.246 OA
BRANCH  34  36
ATOM     36  C   UNL A   1      37.901  31.336  32.620  1.00  0.00     0.060 A 
ATOM     37  C   UNL A   1      38.992  30.606  33.114  1.00  0.00     0.016 A 
ATOM     38  C   UNL A   1      37.672  31.415  31.247  1.00  0.00     0.016 A 
ATOM     39  C   UNL A   1      39.875  29.977  32.239  1.00  0.00     0.010 A 
ATOM     40  C   UNL A   1      38.583  30.823  30.366  1.00  0.00     0.010 A 
ATOM     41  C   UNL A   1      39.709  30.140  30.861  1.00  0.00    -0.014 A 
BRANCH  41  42
ATOM     42  C   UNL A   1      40.840  29.821  29.958  1.00  0.00     0.031 A 
ATOM     43  C   UNL A   1      40.885  28.450  29.339  1.00  0.00     0.074 A 
ATOM     44  C   UNL A   1      41.781  30.733  29.661  1.00  0.00     0.049 A 
ATOM     45  N   UNL A   1      41.820  27.895  28.614  1.00  0.00    -0.248 NA
ATOM     46  C   UNL A   1      39.711  27.591  29.569  1.00  0.00     0.031 C 
ATOM     47  C   UNL A   1      41.798  32.117  30.129  1.00  0.00     0.029 A 
ATOM     48  N   UNL A   1      42.917  30.619  28.899  1.00  0.00    -0.354 N 
ATOM     49  C   UNL A   1      41.359  26.615  28.323  1.00  0.00     0.074 A 
ATOM     50  C   UNL A   1      40.068  26.472  28.958  1.00  0.00     0.031 C 
ATOM     51  C   UNL A   1      42.908  32.718  29.666  1.00  0.00     0.029 A 
ATOM     52  C   UNL A   1      43.698  31.747  28.910  1.00  0.00     0.049 A 
ATOM     53  H   UNL A   1      43.148  29.807  28.393  1.00  0.00     0.167 HD
ATOM     54  C   UNL A   1      41.962  25.649  27.594  1.00  0.00     0.037 A 
ATOM     55  C   UNL A   1      44.929  31.953  28.403  1.00  0.00     0.037 A 
ATOM     56  C   UNL A   1      43.244  25.803  26.960  1.00  0.00     0.049 A 
ATOM     57  C   UNL A   1      45.622  30.828  27.675  1.00  0.00     0.074 A 
ATOM     58  C   UNL A   1      43.943  24.886  26.194  1.00  0.00     0.029 A 
ATOM     59  N   UNL A   1      44.022  26.949  27.025  1.00  0.00    -0.354 N 
ATOM     60  N   UNL A   1      45.188  29.619  27.410  1.00  0.00    -0.248 NA
ATOM     61  C   UNL A   1      46.979  31.098  27.177  1.00  0.00     0.031 C 
ATOM     62  C   UNL A   1      45.169  25.458  25.842  1.00  0.00     0.029 A 
ATOM     63  C   UNL A   1      45.207  26.753  26.334  1.00  0.00     0.049 A 
ATOM     64  H   UNL A   1      43.770  27.778  27.491  1.00  0.00     0.167 HD
ATOM     65  C   UNL A   1      46.201  28.997  26.689  1.00  0.00     0.074 A 
ATOM     66  C   UNL A   1      47.265  29.968  26.546  1.00  0.00     0.031 C 
ATOM     67  C   UNL A   1      46.249  27.738  26.190  1.00  0.00     0.037 A 
BRANCH  54  68
ATOM     68  C   UNL A   1      41.264  24.325  27.477  1.00  0.00     0.057 A 
ATOM     69  C   UNL A   1      40.176  24.128  26.617  1.00  0.00     0.134 A 
ATOM     70  C   UNL A   1      41.717  23.218  28.209  1.00  0.00     0.134 A 
ATOM     71  F   UNL A   1      39.681  25.148  25.901  1.00  0.00    -0.206 F 
ATOM     72  C   UNL A   1      39.553  22.883  26.502  1.00  0.00     0.040 A 
ATOM     73  C   UNL A   1      41.121  21.964  28.081  1.00  0.00     0.040 A 
ATOM     74  F   UNL A   1      42.756  23.337  29.048  1.00  0.00    -0.206 F 
ATOM     75  C   UNL A   1      40.031  21.794  27.229  1.00  0.00     0.006 A 
ENDBRANCH  54  68
BRANCH  55  76
ATOM     76  C   UNL A   1      45.617  33.256  28.603  1.00  0.00     0.057 A 
ATOM     77  C   UNL A   1      46.431  33.487  29.718  1.00  0.00     0.134 A 
ATOM     78  C   UNL A   1      45.440  34.317  27.706  1.00  0.00     0.134 A 
ATOM     79  F   UNL A   1      46.620  32.520  30.628  1.00  0.00    -0.206 F 
ATOM     80  C   UNL A   1      47.024  34.730  29.946  1.00  0.00     0.040 A 
ATOM     81  C   UNL A   1      46.051  35.556  27.905  1.00  0.00     0.040 A 
ATOM     82  F   UNL A   1      44.669  34.165  26.619  1.00  0.00    -0.206 F 
ATOM     83  C   UNL A   1      46.838  35.768  29.035  1.00  0.00     0.006 A 
ENDBRANCH  55  76
BRANCH  67  84
ATOM     84  C   UNL A   1      47.465  27.353  25.398  1.00  0.00     0.057 A 
ATOM     85  C   UNL A   1      47.571  27.607  24.025  1.00  0.00     0.134 A 
ATOM     86  C   UNL A   1      48.564  26.757  26.031  1.00  0.00     0.134 A 
ATOM     87  F   UNL A   1      46.551  28.165  23.355  1.00  0.00    -0.206 F 
ATOM     88  C   UNL A   1      48.715  27.259  23.305  1.00  0.00     0.040 A 
ATOM     89  C   UNL A   1      49.726  26.433  25.328  1.00  0.00     0.040 A 
ATOM     90  F   UNL A   1      48.536  26.497  27.346  1.00  0.00    -0.206 F 
ATOM     91  C   UNL A   1      49.800  26.677  23.959  1.00  0.00     0.006 A 
ENDBRANCH  67  84
ENDBRANCH  41  42
ENDBRANCH  34  36
ENDBRANCH  33  34
ENDBRANCH  32  33
ENDBRANCH  31  32
ENDBRANCH  30  31
ENDBRANCH  29  30
ENDBRANCH  28  29
ENDBRANCH   1  28
TORSDOF 23
ENDMDL
MODEL 3
REMARK VINA RESULT:      -9.3      2.061      6.615
REMARK SMILES CC[C@@](C)(NC(=O)Nc1c(C)cccc1Cl)C(=O)OCCOCCOCCOCCOC(=O)c1ccc(-c2c3nc(c(-c4c(F)cccc4F)c4ccc([nH]4)c(-c4c(F)cccc4F)c4nc(c(-c5c(F)cccc5F)c5ccc2[nH]5)C=C4)C=C3)cc1
REMARK SMILES IDX 25 1 24 2 23 3 22 4 21 5 20 6 19 7 17 8 18 9 3 10 4 11 2 12
REMARK SMILES IDX 1 13 5 14 6 15 7 17 8 18 9 20 10 21 15 22 11 23 12 24 14 25
REMARK SMILES IDX 16 26 13 27 26 28 27 29 28 30 29 31 30 32 31 33 32 34 33 35
REMARK SMILES IDX 34 36 35 37 87 38 36 39 86 40 37 41 38 42 39 43 80 44 40 45
REMARK SMILES IDX 85 46 79 47 81 48 41 49 84 50 78 51 77 52 42 54 68 55 51 56
REMARK SMILES IDX 67 57 52 58 55 59 66 60 82 61 53 62 54 63 65 65 83 66 56 67
REMARK SMILES IDX 43 68 44 69 49 70 45 71 46 72 48 73 50 74 47 75 69 76 70 77
REMARK SMILES IDX 75 78 71 79 72 80 74 81 76 82 73 83 57 84 58 85 63 86 59 87
REMARK SMILES IDX 60 88 62 89 64 90 61 91
REMARK H PARENT 5 16 8 19 81 53 55 64
REMARK Flexibility Score: inf
ROOT
ATOM      1  O   UNL A   1      34.258  33.048  28.333  1.00  0.00    -0.377 OA
ENDROOT
BRANCH   1   2
ATOM      2  C   UNL A   1      34.343  31.784  27.686  1.00  0.00     0.188 C 
BRANCH   2   3
ATOM      3  C   UNL A   1      32.968  31.308  27.127  1.00  0.00     0.188 C 
BRANCH   3   4
ATOM      4  O   UNL A   1      32.691  29.981  27.625  1.00  0.00    -0.376 OA
BRANCH   4   5
ATOM      5  C   UNL A   1      32.018  28.972  26.867  1.00  0.00     0.202 C 
BRANCH   5   6
ATOM      6  C   UNL A   1      32.521  27.413  27.214  1.00  0.00     0.261 C 
BRANCH   6   7
ATOM      7  O   UNL A   1      32.980  26.384  26.083  1.00  0.00    -0.462 OA
BRANCH   7   8
ATOM      8  C   UNL A   1      33.477  26.162  24.768  1.00  0.00     0.331 C 
ATOM      9  O   UNL A   1      33.416  26.995  23.860  1.00  0.00    -0.249 OA
BRANCH   8  10
ATOM     10  C   UNL A   1      34.152  24.620  24.475  1.00  0.00     0.136 C 
ATOM     11  C   UNL A   1      35.464  24.545  25.285  1.00  0.00     0.047 C 
BRANCH  10  12
ATOM     12  C   UNL A   1      33.739  23.073  24.382  1.00  0.00     0.037 C 
ATOM     13  C   UNL A   1      34.693  21.906  24.254  1.00  0.00     0.007 C 
ENDBRANCH  10  12
BRANCH  10  14
ATOM     14  N   UNL A   1      34.275  24.900  23.085  1.00  0.00    -0.322 N 
ATOM     15  C   UNL A   1      33.169  24.726  22.305  1.00  0.00     0.320 C 
ATOM     16  H   UNL A   1      35.128  25.208  22.700  1.00  0.00     0.166 HD
ATOM     17  O   UNL A   1      33.277  25.026  21.117  1.00  0.00    -0.248 OA
ATOM     18  N   UNL A   1      31.980  24.216  22.850  1.00  0.00    -0.306 N 
ATOM     19  H   UNL A   1      31.409  23.963  22.089  1.00  0.00     0.171 HD
BRANCH  18  20
ATOM     20  C   UNL A   1      31.191  23.883  24.115  1.00  0.00     0.064 A 
ATOM     21  C   UNL A   1      31.105  22.783  25.110  1.00  0.00    -0.026 A 
ATOM     22  C   UNL A   1      30.520  25.068  24.531  1.00  0.00     0.064 A 
ATOM     23  C   UNL A   1      31.772  21.425  25.439  1.00  0.00     0.046 C 
ATOM     24  C   UNL A   1      30.337  22.990  26.300  1.00  0.00     0.005 A 
ATOM     25  C   UNL A   1      30.018  25.275  25.818  1.00  0.00     0.023 A 
ATOM     26  Cl  UNL A   1      30.097  26.310  23.388  1.00  0.00    -0.082 Cl
ATOM     27  C   UNL A   1      29.908  24.230  26.701  1.00  0.00     0.002 A 
ENDBRANCH  18  20
ENDBRANCH  10  14
ENDBRANCH   8  10
ENDBRANCH   7   8
ENDBRANCH   6   7
ENDBRANCH   5   6
ENDBRANCH   4   5
ENDBRANCH   3   4
ENDBRANCH   2   3
ENDBRANCH   1   2
BRANCH   1  28
ATOM     28  C   UNL A   1      34.772  33.059  29.670  1.00  0.00     0.188 C 
BRANCH  28  29
ATOM     29  C   UNL A   1      34.260  34.240  30.494  1.00  0.00     0.188 C 
BRANCH  29  30
ATOM     30  O   UNL A   1      34.665  34.325  31.856  1.00  0.00    -0.376 OA
BRANCH  30  31
ATOM     31  C   UNL A   1      36.058  34.246  32.120  1.00  0.00     0.202 C 
BRANCH  31  32
ATOM     32  C   UNL A   1      36.619  32.913  32.658  1.00  0.00     0.261 C 
BRANCH  32  33
ATOM     33  O   UNL A   1      37.355  32.088  31.736  1.00  0.00    -0.460 OA
BRANCH  33  34
ATOM     34  C   UNL A   1      36.953  30.798  31.632  1.00  0.00     0.338 C 
ATOM     35  O   UNL A   1      35.903  30.318  31.995  1.00  0.00    -0.246 OA
BRANCH  34  36
ATOM     36  C   UNL A   1      37.992  30.033  30.903  1.00  0.00     0.060 A 
ATOM     37  C   UNL A   1      38.903  29.242  31.620  1.00  0.00     0.016 A 
ATOM     38  C   UNL A   1      38.146  30.210  29.529  1.00  0.00     0.016 A 
ATOM     39  C   UNL A   1      39.986  28.651  30.973  1.00  0.00     0.010 A 
ATOM     40  C   UNL A   1      39.257  29.655  28.887  1.00  0.00     0.010 A 
ATOM     41  C   UNL A   1      40.202  28.911  29.617  1.00  0.00    -0.014 A 
BRANCH  41  42
ATOM     42  C   UNL A   1      41.533  28.624  29.034  1.00  0.00     0.031 A 
ATOM     43  C   UNL A   1      41.798  27.231  28.529  1.00  0.00     0.074 A 
ATOM     44  C   UNL A   1      42.470  29.580  28.916  1.00  0.00     0.049 A 
ATOM     45  N   UNL A   1      42.909  26.704  28.085  1.00  0.00    -0.248 NA
ATOM     46  C   UNL A   1      40.649  26.309  28.522  1.00  0.00     0.031 C 
ATOM     47  C   UNL A   1      42.302  30.982  29.290  1.00  0.00     0.029 A 
ATOM     48  N   UNL A   1      43.761  29.503  28.458  1.00  0.00    -0.354 N 
ATOM     49  C   UNL A   1      42.598  25.385  27.770  1.00  0.00     0.074 A 
ATOM     50  C   UNL A   1      41.201  25.188  28.084  1.00  0.00     0.031 C 
ATOM     51  C   UNL A   1      43.459  31.631  29.071  1.00  0.00     0.029 A 
ATOM     52  C   UNL A   1      44.458  30.679  28.587  1.00  0.00     0.049 A 
ATOM     53  H   UNL A   1      44.150  28.685  28.072  1.00  0.00     0.167 HD
ATOM     54  C   UNL A   1      43.409  24.426  27.267  1.00  0.00     0.037 A 
ATOM     55  C   UNL A   1      45.763  30.940  28.379  1.00  0.00     0.037 A 
ATOM     56  C   UNL A   1      44.798  24.633  26.951  1.00  0.00     0.049 A 
ATOM     57  C   UNL A   1      46.669  29.830  27.908  1.00  0.00     0.074 A 
ATOM     58  C   UNL A   1      45.708  23.729  26.432  1.00  0.00     0.029 A 
ATOM     59  N   UNL A   1      45.477  25.829  27.131  1.00  0.00    -0.354 N 
ATOM     60  N   UNL A   1      46.375  28.584  27.621  1.00  0.00    -0.248 NA
ATOM     61  C   UNL A   1      48.090  30.162  27.735  1.00  0.00     0.031 C 
ATOM     62  C   UNL A   1      46.952  24.361  26.351  1.00  0.00     0.029 A 
ATOM     63  C   UNL A   1      46.802  25.677  26.758  1.00  0.00     0.049 A 
ATOM     64  H   UNL A   1      45.076  26.660  27.472  1.00  0.00     0.167 HD
ATOM     65  C   UNL A   1      47.563  27.996  27.204  1.00  0.00     0.074 A 
ATOM     66  C   UNL A   1      48.579  29.025  27.262  1.00  0.00     0.031 C 
ATOM     67  C   UNL A   1      47.796  26.720  26.808  1.00  0.00     0.037 A 
BRANCH  54  68
ATOM     68  C   UNL A   1      42.829  23.056  27.067  1.00  0.00     0.057 A 
ATOM     69  C   UNL A   1      42.504  22.562  25.798  1.00  0.00     0.134 A 
ATOM     70  C   UNL A   1      42.633  22.203  28.162  1.00  0.00     0.134 A 
ATOM     71  F   UNL A   1      42.652  23.331  24.709  1.00  0.00    -0.206 F 
ATOM     72  C   UNL A   1      41.988  21.274  25.627  1.00  0.00     0.040 A 
ATOM     73  C   UNL A   1      42.145  20.907  28.001  1.00  0.00     0.040 A 
ATOM     74  F   UNL A   1      42.927  22.613  29.405  1.00  0.00    -0.206 F 
ATOM     75  C   UNL A   1      41.816  20.440  26.729  1.00  0.00     0.006 A 
ENDBRANCH  54  68
BRANCH  55  76
ATOM     76  C   UNL A   1      46.313  32.293  28.659  1.00  0.00     0.057 A 
ATOM     77  C   UNL A   1      46.797  32.635  29.927  1.00  0.00     0.134 A 
ATOM     78  C   UNL A   1      46.329  33.289  27.674  1.00  0.00     0.134 A 
ATOM     79  F   UNL A   1      46.785  31.734  30.919  1.00  0.00    -0.206 F 
ATOM     80  C   UNL A   1      47.251  33.924  30.213  1.00  0.00     0.040 A 
ATOM     81  C   UNL A   1      46.808  34.573  27.938  1.00  0.00     0.040 A 
ATOM     82  F   UNL A   1      45.876  33.030  26.439  1.00  0.00    -0.206 F 
ATOM     83  C   UNL A   1      47.262  34.896  29.215  1.00  0.00     0.006 A 
ENDBRANCH  55  76
BRANCH  67  84
ATOM     84  C   UNL A   1      49.187  26.378  26.356  1.00  0.00     0.057 A 
ATOM     85  C   UNL A   1      50.101  25.724  27.191  1.00  0.00     0.134 A 
ATOM     86  C   UNL A   1      49.600  26.671  25.050  1.00  0.00     0.134 A 
ATOM     87  F   UNL A   1      49.773  25.424  28.457  1.00  0.00    -0.206 F 
ATOM     88  C   UNL A   1      51.385  25.397  26.751  1.00  0.00     0.040 A 
ATOM     89  C   UNL A   1      50.870  26.321  24.588  1.00  0.00     0.040 A 
ATOM     90  F   UNL A   1      48.770  27.285  24.193  1.00  0.00    -0.206 F 
ATOM     91  C   UNL A   1      51.769  25.689  25.444  1.00  0.00     0.006 A 
ENDBRANCH  67  84
ENDBRANCH  41  42
ENDBRANCH  34  36
ENDBRANCH  33  34
ENDBRANCH  32  33
ENDBRANCH  31  32
ENDBRANCH  30  31
ENDBRANCH  29  30
ENDBRANCH  28  29
ENDBRANCH   1  28
TORSDOF 23
ENDMDL
