MODEL 1
REMARK VINA RESULT:      -9.6      0.000      0.000
REMARK SMILES CC(C)(C)OC(=O)N[C@@H](C(=O)OCCOCCOCCOCCOC(=O)c1ccc(-c2c3nc(c(-c4c(F)cccc4F)c4ccc([nH]4)c(-c4c(F)cccc4F)c4nc(c(-c5c(F)cccc5F)c5ccc2[nH]5)C=C4)C=C3)cc1)[C@H](O)c1ccccc1F
REMARK SMILES IDX 17 1 16 2 15 3 14 4 13 5 12 6 10 7 11 8 9 9 8 10 6 11 7 12
REMARK SMILES IDX 5 14 2 15 1 16 3 17 4 18 81 19 83 20 84 21 88 22 85 23 87 24
REMARK SMILES IDX 89 25 86 26 82 27 18 29 19 30 20 31 21 32 22 33 23 34 24 35
REMARK SMILES IDX 25 36 26 37 27 38 28 39 80 40 29 41 79 42 30 43 31 44 32 45
REMARK SMILES IDX 73 46 33 47 78 48 72 49 74 50 34 51 77 52 71 53 70 54 35 56
REMARK SMILES IDX 61 57 44 58 60 59 45 60 48 61 59 62 75 63 46 64 47 65 58 67
REMARK SMILES IDX 76 68 49 69 36 70 37 71 42 72 38 73 39 74 41 75 43 76 40 77
REMARK SMILES IDX 62 78 63 79 68 80 64 81 65 82 67 83 69 84 66 85 50 86 51 87
REMARK SMILES IDX 56 88 52 89 53 90 55 91 57 92 54 93
REMARK H PARENT 8 13 82 28 74 55 48 66
REMARK Flexibility Score: inf
ROOT
ATOM      1  C   UNL A   1      32.784  26.497  21.626  1.00  0.00     0.188 C 
ENDROOT
BRANCH   1   2
ATOM      2  C   UNL A   1      32.359  25.198  22.336  1.00  0.00     0.188 C 
BRANCH   2   3
ATOM      3  O   UNL A   1      33.328  24.293  22.843  1.00  0.00    -0.376 OA
BRANCH   3   4
ATOM      4  C   UNL A   1      33.292  22.940  22.424  1.00  0.00     0.202 C 
BRANCH   4   5
ATOM      5  C   UNL A   1      32.096  22.032  22.786  1.00  0.00     0.261 C 
BRANCH   5   6
ATOM      6  O   UNL A   1      32.373  20.855  23.575  1.00  0.00    -0.462 OA
BRANCH   6   7
ATOM      7  C   UNL A   1      32.121  20.920  24.912  1.00  0.00     0.331 C 
ATOM      8  O   UNL A   1      31.169  21.524  25.394  1.00  0.00    -0.250 OA
BRANCH   7   9
ATOM      9  C   UNL A   1      33.157  20.166  25.784  1.00  0.00     0.228 C 
BRANCH   9  10
ATOM     10  N   UNL A   1      32.762  18.892  26.404  1.00  0.00    -0.305 N 
ATOM     11  C   UNL A   1      32.736  17.638  25.888  1.00  0.00     0.408 C 
ATOM     12  O   UNL A   1      32.422  16.696  26.603  1.00  0.00    -0.225 OA
ATOM     13  H   UNL A   1      32.471  18.960  27.342  1.00  0.00     0.168 HD
BRANCH  11  14
ATOM     14  O   UNL A   1      33.128  17.567  24.599  1.00  0.00    -0.444 OA
BRANCH  14  15
ATOM     15  C   UNL A   1      34.446  17.043  24.286  1.00  0.00     0.106 C 
ATOM     16  C   UNL A   1      34.343  16.593  22.822  1.00  0.00     0.056 C 
ATOM     17  C   UNL A   1      34.811  15.829  25.149  1.00  0.00     0.056 C 
ATOM     18  C   UNL A   1      35.514  18.144  24.381  1.00  0.00     0.056 C 
ENDBRANCH  14  15
ENDBRANCH  11  14
ENDBRANCH   9  10
BRANCH   9  19
ATOM     19  C   UNL A   1      33.782  21.149  26.833  1.00  0.00     0.181 C 
BRANCH  19  20
ATOM     20  C   UNL A   1      34.384  22.461  26.350  1.00  0.00     0.019 A 
ATOM     21  C   UNL A   1      33.698  23.690  26.396  1.00  0.00     0.009 A 
ATOM     22  C   UNL A   1      35.697  22.481  25.856  1.00  0.00     0.129 A 
ATOM     23  C   UNL A   1      34.281  24.865  25.900  1.00  0.00     0.001 A 
ATOM     24  C   UNL A   1      36.292  23.651  25.380  1.00  0.00     0.039 A 
ATOM     25  F   UNL A   1      36.414  21.350  25.826  1.00  0.00    -0.207 F 
ATOM     26  C   UNL A   1      35.578  24.845  25.389  1.00  0.00     0.003 A 
ENDBRANCH  19  20
BRANCH  19  27
ATOM     27  O   UNL A   1      32.775  21.477  27.806  1.00  0.00    -0.386 OA
ATOM     28  H   UNL A   1      32.020  21.894  27.363  1.00  0.00     0.211 HD
ENDBRANCH  19  27
ENDBRANCH   9  19
ENDBRANCH   7   9
ENDBRANCH   6   7
ENDBRANCH   5   6
ENDBRANCH   4   5
ENDBRANCH   3   4
ENDBRANCH   2   3
ENDBRANCH   1   2
BRANCH   1  29
ATOM     29  O   UNL A   1      32.707  27.655  22.431  1.00  0.00    -0.377 OA
BRANCH  29  30
ATOM     30  C   UNL A   1      33.819  27.838  23.290  1.00  0.00     0.188 C 
BRANCH  30  31
ATOM     31  C   UNL A   1      33.490  28.367  24.699  1.00  0.00     0.188 C 
BRANCH  31  32
ATOM     32  O   UNL A   1      32.870  29.652  24.692  1.00  0.00    -0.376 OA
BRANCH  32  33
ATOM     33  C   UNL A   1      31.727  29.882  25.500  1.00  0.00     0.202 C 
BRANCH  33  34
ATOM     34  C   UNL A   1      31.733  31.133  26.394  1.00  0.00     0.261 C 
BRANCH  34  35
ATOM     35  O   UNL A   1      32.667  31.133  27.483  1.00  0.00    -0.460 OA
BRANCH  35  36
ATOM     36  C   UNL A   1      33.498  32.188  27.611  1.00  0.00     0.338 C 
ATOM     37  O   UNL A   1      33.206  33.370  27.540  1.00  0.00    -0.246 OA
BRANCH  36  38
ATOM     38  C   UNL A   1      34.793  31.667  28.097  1.00  0.00     0.060 A 
ATOM     39  C   UNL A   1      34.958  30.280  28.213  1.00  0.00     0.016 A 
ATOM     40  C   UNL A   1      35.854  32.532  28.370  1.00  0.00     0.016 A 
ATOM     41  C   UNL A   1      36.182  29.753  28.618  1.00  0.00     0.010 A 
ATOM     42  C   UNL A   1      37.070  32.007  28.814  1.00  0.00     0.010 A 
ATOM     43  C   UNL A   1      37.226  30.619  28.967  1.00  0.00    -0.014 A 
BRANCH  43  44
ATOM     44  C   UNL A   1      38.383  30.088  29.722  1.00  0.00     0.031 A 
ATOM     45  C   UNL A   1      38.571  30.570  31.133  1.00  0.00     0.074 A 
ATOM     46  C   UNL A   1      39.226  29.191  29.185  1.00  0.00     0.049 A 
ATOM     47  N   UNL A   1      39.531  30.310  31.980  1.00  0.00    -0.248 NA
ATOM     48  C   UNL A   1      37.531  31.472  31.657  1.00  0.00     0.031 C 
ATOM     49  C   UNL A   1      39.112  28.613  27.848  1.00  0.00     0.029 A 
ATOM     50  N   UNL A   1      40.358  28.617  29.708  1.00  0.00    -0.354 N 
ATOM     51  C   UNL A   1      39.216  31.022  33.130  1.00  0.00     0.074 A 
ATOM     52  C   UNL A   1      37.994  31.746  32.866  1.00  0.00     0.031 C 
ATOM     53  C   UNL A   1      40.148  27.778  27.648  1.00  0.00     0.029 A 
ATOM     54  C   UNL A   1      41.013  27.793  28.827  1.00  0.00     0.049 A 
ATOM     55  H   UNL A   1      40.670  28.780  30.628  1.00  0.00     0.167 HD
ATOM     56  C   UNL A   1      39.886  31.066  34.305  1.00  0.00     0.037 A 
ATOM     57  C   UNL A   1      42.191  27.153  28.953  1.00  0.00     0.037 A 
ATOM     58  C   UNL A   1      41.106  30.348  34.557  1.00  0.00     0.049 A 
ATOM     59  C   UNL A   1      42.965  27.283  30.242  1.00  0.00     0.074 A 
ATOM     60  C   UNL A   1      41.859  30.313  35.716  1.00  0.00     0.029 A 
ATOM     61  N   UNL A   1      41.756  29.549  33.629  1.00  0.00    -0.354 N 
ATOM     62  N   UNL A   1      42.653  27.941  31.333  1.00  0.00    -0.248 NA
ATOM     63  C   UNL A   1      44.254  26.579  30.317  1.00  0.00     0.031 C 
ATOM     64  C   UNL A   1      42.999  29.541  35.469  1.00  0.00     0.029 A 
ATOM     65  C   UNL A   1      42.921  29.040  34.179  1.00  0.00     0.049 A 
ATOM     66  H   UNL A   1      41.438  29.370  32.714  1.00  0.00     0.167 HD
ATOM     67  C   UNL A   1      43.687  27.706  32.232  1.00  0.00     0.074 A 
ATOM     68  C   UNL A   1      44.630  26.835  31.562  1.00  0.00     0.031 C 
ATOM     69  C   UNL A   1      43.841  28.165  33.498  1.00  0.00     0.037 A 
BRANCH  56  70
ATOM     70  C   UNL A   1      39.332  31.948  35.385  1.00  0.00     0.057 A 
ATOM     71  C   UNL A   1      38.439  31.470  36.352  1.00  0.00     0.134 A 
ATOM     72  C   UNL A   1      39.718  33.292  35.468  1.00  0.00     0.134 A 
ATOM     73  F   UNL A   1      38.013  30.198  36.317  1.00  0.00    -0.206 F 
ATOM     74  C   UNL A   1      37.932  32.303  37.352  1.00  0.00     0.040 A 
ATOM     75  C   UNL A   1      39.241  34.127  36.479  1.00  0.00     0.040 A 
ATOM     76  F   UNL A   1      40.569  33.814  34.572  1.00  0.00    -0.206 F 
ATOM     77  C   UNL A   1      38.341  33.634  37.421  1.00  0.00     0.006 A 
ENDBRANCH  56  70
BRANCH  57  78
ATOM     78  C   UNL A   1      42.732  26.352  27.823  1.00  0.00     0.057 A 
ATOM     79  C   UNL A   1      43.433  26.953  26.772  1.00  0.00     0.134 A 
ATOM     80  C   UNL A   1      42.535  24.966  27.755  1.00  0.00     0.134 A 
ATOM     81  F   UNL A   1      43.633  28.280  26.765  1.00  0.00    -0.206 F 
ATOM     82  C   UNL A   1      43.902  26.212  25.686  1.00  0.00     0.040 A 
ATOM     83  C   UNL A   1      43.023  24.209  26.689  1.00  0.00     0.040 A 
ATOM     84  F   UNL A   1      41.868  24.327  28.727  1.00  0.00    -0.206 F 
ATOM     85  C   UNL A   1      43.702  24.833  25.645  1.00  0.00     0.006 A 
ENDBRANCH  57  78
BRANCH  69  86
ATOM     86  C   UNL A   1      45.048  27.702  34.264  1.00  0.00     0.057 A 
ATOM     87  C   UNL A   1      46.260  28.402  34.237  1.00  0.00     0.134 A 
ATOM     88  C   UNL A   1      44.973  26.571  35.088  1.00  0.00     0.134 A 
ATOM     89  F   UNL A   1      46.402  29.488  33.464  1.00  0.00    -0.206 F 
ATOM     90  C   UNL A   1      47.361  27.981  34.987  1.00  0.00     0.040 A 
ATOM     91  C   UNL A   1      46.056  26.159  35.864  1.00  0.00     0.040 A 
ATOM     92  F   UNL A   1      43.837  25.861  35.170  1.00  0.00    -0.206 F 
ATOM     93  C   UNL A   1      47.257  26.861  35.811  1.00  0.00     0.006 A 
ENDBRANCH  69  86
ENDBRANCH  43  44
ENDBRANCH  36  38
ENDBRANCH  35  36
ENDBRANCH  34  35
ENDBRANCH  33  34
ENDBRANCH  32  33
ENDBRANCH  31  32
ENDBRANCH  30  31
ENDBRANCH  29  30
ENDBRANCH   1  29
TORSDOF 26
ENDMDL
MODEL 2
REMARK VINA RESULT:      -9.5      4.413      8.561
REMARK SMILES CC(C)(C)OC(=O)N[C@@H](C(=O)OCCOCCOCCOCCOC(=O)c1ccc(-c2c3nc(c(-c4c(F)cccc4F)c4ccc([nH]4)c(-c4c(F)cccc4F)c4nc(c(-c5c(F)cccc5F)c5ccc2[nH]5)C=C4)C=C3)cc1)[C@H](O)c1ccccc1F
REMARK SMILES IDX 17 1 16 2 15 3 14 4 13 5 12 6 10 7 11 8 9 9 8 10 6 11 7 12
REMARK SMILES IDX 5 14 2 15 1 16 3 17 4 18 81 19 83 20 84 21 88 22 85 23 87 24
REMARK SMILES IDX 89 25 86 26 82 27 18 29 19 30 20 31 21 32 22 33 23 34 24 35
REMARK SMILES IDX 25 36 26 37 27 38 28 39 80 40 29 41 79 42 30 43 31 44 32 45
REMARK SMILES IDX 73 46 33 47 78 48 72 49 74 50 34 51 77 52 71 53 70 54 35 56
REMARK SMILES IDX 61 57 44 58 60 59 45 60 48 61 59 62 75 63 46 64 47 65 58 67
REMARK SMILES IDX 76 68 49 69 36 70 37 71 42 72 38 73 39 74 41 75 43 76 40 77
REMARK SMILES IDX 62 78 63 79 68 80 64 81 65 82 67 83 69 84 66 85 50 86 51 87
REMARK SMILES IDX 56 88 52 89 53 90 55 91 57 92 54 93
REMARK H PARENT 8 13 82 28 74 55 48 66
REMARK Flexibility Score: inf
ROOT
ATOM      1  C   UNL A   1      33.355  20.988  23.975  1.00  0.00     0.188 C 
ENDROOT
BRANCH   1   2
ATOM      2  C   UNL A   1      32.191  20.876  24.977  1.00  0.00     0.188 C 
BRANCH   2   3
ATOM      3  O   UNL A   1      32.192  21.625  26.183  1.00  0.00    -0.376 OA
BRANCH   3   4
ATOM      4  C   UNL A   1      31.181  22.596  26.391  1.00  0.00     0.202 C 
BRANCH   4   5
ATOM      5  C   UNL A   1      30.795  23.588  25.273  1.00  0.00     0.261 C 
BRANCH   5   6
ATOM      6  O   UNL A   1      31.847  24.412  24.726  1.00  0.00    -0.462 OA
BRANCH   6   7
ATOM      7  C   UNL A   1      31.482  25.433  23.903  1.00  0.00     0.331 C 
ATOM      8  O   UNL A   1      31.600  25.397  22.682  1.00  0.00    -0.250 OA
BRANCH   7   9
ATOM      9  C   UNL A   1      30.907  26.666  24.647  1.00  0.00     0.228 C 
BRANCH   9  10
ATOM     10  N   UNL A   1      31.033  26.728  26.111  1.00  0.00    -0.305 N 
ATOM     11  C   UNL A   1      31.371  27.763  26.918  1.00  0.00     0.408 C 
ATOM     12  O   UNL A   1      31.364  27.613  28.132  1.00  0.00    -0.225 OA
ATOM     13  H   UNL A   1      30.843  25.883  26.579  1.00  0.00     0.168 HD
BRANCH  11  14
ATOM     14  O   UNL A   1      31.640  28.908  26.257  1.00  0.00    -0.444 OA
BRANCH  14  15
ATOM     15  C   UNL A   1      33.024  29.304  26.057  1.00  0.00     0.106 C 
ATOM     16  C   UNL A   1      33.078  30.765  26.524  1.00  0.00     0.056 C 
ATOM     17  C   UNL A   1      33.438  29.245  24.581  1.00  0.00     0.056 C 
ATOM     18  C   UNL A   1      33.968  28.476  26.941  1.00  0.00     0.056 C 
ENDBRANCH  14  15
ENDBRANCH  11  14
ENDBRANCH   9  10
BRANCH   9  19
ATOM     19  C   UNL A   1      29.432  26.923  24.184  1.00  0.00     0.181 C 
BRANCH  19  20
ATOM     20  C   UNL A   1      29.137  28.112  23.280  1.00  0.00     0.019 A 
ATOM     21  C   UNL A   1      30.121  28.759  22.508  1.00  0.00     0.009 A 
ATOM     22  C   UNL A   1      27.822  28.589  23.168  1.00  0.00     0.129 A 
ATOM     23  C   UNL A   1      29.807  29.877  21.722  1.00  0.00     0.001 A 
ATOM     24  C   UNL A   1      27.498  29.688  22.371  1.00  0.00     0.039 A 
ATOM     25  F   UNL A   1      26.836  27.988  23.847  1.00  0.00    -0.207 F 
ATOM     26  C   UNL A   1      28.495  30.344  21.656  1.00  0.00     0.003 A 
ENDBRANCH  19  20
BRANCH  19  27
ATOM     27  O   UNL A   1      28.954  25.747  23.508  1.00  0.00    -0.386 OA
ATOM     28  H   UNL A   1      28.134  25.956  23.035  1.00  0.00     0.211 HD
ENDBRANCH  19  27
ENDBRANCH   9  19
ENDBRANCH   7   9
ENDBRANCH   6   7
ENDBRANCH   5   6
ENDBRANCH   4   5
ENDBRANCH   3   4
ENDBRANCH   2   3
ENDBRANCH   1   2
BRANCH   1  29
ATOM     29  O   UNL A   1      33.961  22.263  23.924  1.00  0.00    -0.377 OA
BRANCH  29  30
ATOM     30  C   UNL A   1      35.363  22.246  24.124  1.00  0.00     0.188 C 
BRANCH  30  31
ATOM     31  C   UNL A   1      35.890  21.121  25.036  1.00  0.00     0.188 C 
BRANCH  31  32
ATOM     32  O   UNL A   1      36.881  21.560  25.962  1.00  0.00    -0.376 OA
BRANCH  32  33
ATOM     33  C   UNL A   1      38.108  22.083  25.479  1.00  0.00     0.202 C 
BRANCH  33  34
ATOM     34  C   UNL A   1      39.400  21.602  26.162  1.00  0.00     0.261 C 
BRANCH  34  35
ATOM     35  O   UNL A   1      39.735  20.219  25.986  1.00  0.00    -0.460 OA
BRANCH  35  36
ATOM     36  C   UNL A   1      41.019  19.846  26.168  1.00  0.00     0.338 C 
ATOM     37  O   UNL A   1      41.521  18.768  25.895  1.00  0.00    -0.246 OA
BRANCH  36  38
ATOM     38  C   UNL A   1      41.777  21.060  26.535  1.00  0.00     0.060 A 
ATOM     39  C   UNL A   1      41.955  21.357  27.894  1.00  0.00     0.016 A 
ATOM     40  C   UNL A   1      42.364  21.861  25.552  1.00  0.00     0.016 A 
ATOM     41  C   UNL A   1      42.708  22.465  28.275  1.00  0.00     0.010 A 
ATOM     42  C   UNL A   1      43.086  22.994  25.933  1.00  0.00     0.010 A 
ATOM     43  C   UNL A   1      43.234  23.315  27.293  1.00  0.00    -0.014 A 
BRANCH  43  44
ATOM     44  C   UNL A   1      43.718  24.657  27.684  1.00  0.00     0.031 A 
ATOM     45  C   UNL A   1      42.691  25.676  28.088  1.00  0.00     0.074 A 
ATOM     46  C   UNL A   1      45.028  24.959  27.703  1.00  0.00     0.049 A 
ATOM     47  N   UNL A   1      42.846  26.932  28.411  1.00  0.00    -0.248 NA
ATOM     48  C   UNL A   1      41.294  25.209  28.133  1.00  0.00     0.031 C 
ATOM     49  C   UNL A   1      46.115  24.037  27.383  1.00  0.00     0.029 A 
ATOM     50  N   UNL A   1      45.659  26.141  27.998  1.00  0.00    -0.354 N 
ATOM     51  C   UNL A   1      41.569  27.407  28.685  1.00  0.00     0.074 A 
ATOM     52  C   UNL A   1      40.649  26.315  28.466  1.00  0.00     0.031 C 
ATOM     53  C   UNL A   1      47.284  24.697  27.481  1.00  0.00     0.029 A 
ATOM     54  C   UNL A   1      47.021  26.092  27.834  1.00  0.00     0.049 A 
ATOM     55  H   UNL A   1      45.181  26.947  28.300  1.00  0.00     0.167 HD
ATOM     56  C   UNL A   1      41.199  28.644  29.088  1.00  0.00     0.037 A 
ATOM     57  C   UNL A   1      47.941  27.071  27.929  1.00  0.00     0.037 A 
ATOM     58  C   UNL A   1      42.121  29.728  29.296  1.00  0.00     0.049 A 
ATOM     59  C   UNL A   1      47.495  28.464  28.297  1.00  0.00     0.074 A 
ATOM     60  C   UNL A   1      41.852  31.017  29.716  1.00  0.00     0.029 A 
ATOM     61  N   UNL A   1      43.490  29.648  29.088  1.00  0.00    -0.354 N 
ATOM     62  N   UNL A   1      46.290  28.904  28.575  1.00  0.00    -0.248 NA
ATOM     63  C   UNL A   1      48.538  29.499  28.366  1.00  0.00     0.031 C 
ATOM     64  C   UNL A   1      43.051  31.737  29.702  1.00  0.00     0.029 A 
ATOM     65  C   UNL A   1      44.077  30.876  29.340  1.00  0.00     0.049 A 
ATOM     66  H   UNL A   1      43.973  28.839  28.803  1.00  0.00     0.167 HD
ATOM     67  C   UNL A   1      46.434  30.252  28.882  1.00  0.00     0.074 A 
ATOM     68  C   UNL A   1      47.845  30.556  28.766  1.00  0.00     0.031 C 
ATOM     69  C   UNL A   1      45.486  31.156  29.231  1.00  0.00     0.037 A 
BRANCH  56  70
ATOM     70  C   UNL A   1      39.734  28.897  29.288  1.00  0.00     0.057 A 
ATOM     71  C   UNL A   1      38.884  29.234  28.227  1.00  0.00     0.134 A 
ATOM     72  C   UNL A   1      39.163  28.779  30.562  1.00  0.00     0.134 A 
ATOM     73  F   UNL A   1      39.370  29.384  26.985  1.00  0.00    -0.206 F 
ATOM     74  C   UNL A   1      37.521  29.466  28.429  1.00  0.00     0.040 A 
ATOM     75  C   UNL A   1      37.799  28.979  30.771  1.00  0.00     0.040 A 
ATOM     76  F   UNL A   1      39.921  28.460  31.621  1.00  0.00    -0.206 F 
ATOM     77  C   UNL A   1      36.975  29.330  29.704  1.00  0.00     0.006 A 
ENDBRANCH  56  70
BRANCH  57  78
ATOM     78  C   UNL A   1      49.372  26.784  27.646  1.00  0.00     0.057 A 
ATOM     79  C   UNL A   1      50.260  26.428  28.666  1.00  0.00     0.134 A 
ATOM     80  C   UNL A   1      49.891  26.888  26.349  1.00  0.00     0.134 A 
ATOM     81  F   UNL A   1      49.831  26.337  29.934  1.00  0.00    -0.206 F 
ATOM     82  C   UNL A   1      51.615  26.203  28.413  1.00  0.00     0.040 A 
ATOM     83  C   UNL A   1      51.237  26.638  26.076  1.00  0.00     0.040 A 
ATOM     84  F   UNL A   1      49.095  27.229  25.325  1.00  0.00    -0.206 F 
ATOM     85  C   UNL A   1      52.105  26.303  27.112  1.00  0.00     0.006 A 
ENDBRANCH  57  78
BRANCH  69  86
ATOM     86  C   UNL A   1      45.941  32.550  29.560  1.00  0.00     0.057 A 
ATOM     87  C   UNL A   1      46.343  32.915  30.850  1.00  0.00     0.134 A 
ATOM     88  C   UNL A   1      46.034  33.521  28.555  1.00  0.00     0.134 A 
ATOM     89  F   UNL A   1      46.271  32.036  31.861  1.00  0.00    -0.206 F 
ATOM     90  C   UNL A   1      46.802  34.204  31.133  1.00  0.00     0.040 A 
ATOM     91  C   UNL A   1      46.520  34.802  28.818  1.00  0.00     0.040 A 
ATOM     92  F   UNL A   1      45.678  33.233  27.293  1.00  0.00    -0.206 F 
ATOM     93  C   UNL A   1      46.900  35.148  30.112  1.00  0.00     0.006 A 
ENDBRANCH  69  86
ENDBRANCH  43  44
ENDBRANCH  36  38
ENDBRANCH  35  36
ENDBRANCH  34  35
ENDBRANCH  33  34
ENDBRANCH  32  33
ENDBRANCH  31  32
ENDBRANCH  30  31
ENDBRANCH  29  30
ENDBRANCH   1  29
TORSDOF 26
ENDMDL
MODEL 3
REMARK VINA RESULT:      -9.3      1.489      2.135
REMARK SMILES CC(C)(C)OC(=O)N[C@@H](C(=O)OCCOCCOCCOCCOC(=O)c1ccc(-c2c3nc(c(-c4c(F)cccc4F)c4ccc([nH]4)c(-c4c(F)cccc4F)c4nc(c(-c5c(F)cccc5F)c5ccc2[nH]5)C=C4)C=C3)cc1)[C@H](O)c1ccccc1F
REMARK SMILES IDX 17 1 16 2 15 3 14 4 13 5 12 6 10 7 11 8 9 9 8 10 6 11 7 12
REMARK SMILES IDX 5 14 2 15 1 16 3 17 4 18 81 19 83 20 84 21 88 22 85 23 87 24
REMARK SMILES IDX 89 25 86 26 82 27 18 29 19 30 20 31 21 32 22 33 23 34 24 35
REMARK SMILES IDX 25 36 26 37 27 38 28 39 80 40 29 41 79 42 30 43 31 44 32 45
REMARK SMILES IDX 73 46 33 47 78 48 72 49 74 50 34 51 77 52 71 53 70 54 35 56
REMARK SMILES IDX 61 57 44 58 60 59 45 60 48 61 59 62 75 63 46 64 47 65 58 67
REMARK SMILES IDX 76 68 49 69 36 70 37 71 42 72 38 73 39 74 41 75 43 76 40 77
REMARK SMILES IDX 62 78 63 79 68 80 64 81 65 82 67 83 69 84 66 85 50 86 51 87
REMARK SMILES IDX 56 88 52 89 53 90 55 91 57 92 54 93
REMARK H PARENT 8 13 82 28 74 55 48 66
REMARK Flexibility Score: inf
ROOT
ATOM      1  C   UNL A   1      32.792  27.153  22.117  1.00  0.00     0.188 C 
ENDROOT
BRANCH   1   2
ATOM      2  C   UNL A   1      31.553  26.265  21.897  1.00  0.00     0.188 C 
BRANCH   2   3
ATOM      3  O   UNL A   1      31.488  24.955  22.441  1.00  0.00    -0.376 OA
BRANCH   3   4
ATOM      4  C   UNL A   1      32.504  24.529  23.332  1.00  0.00     0.202 C 
BRANCH   4   5
ATOM      5  C   UNL A   1      33.758  23.795  22.808  1.00  0.00     0.261 C 
BRANCH   5   6
ATOM      6  O   UNL A   1      34.949  23.857  23.621  1.00  0.00    -0.462 OA
BRANCH   6   7
ATOM      7  C   UNL A   1      35.958  22.991  23.325  1.00  0.00     0.331 C 
ATOM      8  O   UNL A   1      36.778  23.184  22.434  1.00  0.00    -0.250 OA
BRANCH   7   9
ATOM      9  C   UNL A   1      35.977  21.721  24.214  1.00  0.00     0.228 C 
BRANCH   9  10
ATOM     10  N   UNL A   1      35.065  21.654  25.366  1.00  0.00    -0.305 N 
ATOM     11  C   UNL A   1      34.351  20.611  25.858  1.00  0.00     0.408 C 
ATOM     12  O   UNL A   1      33.686  20.758  26.874  1.00  0.00    -0.225 OA
ATOM     13  H   UNL A   1      34.954  22.499  25.858  1.00  0.00     0.168 HD
BRANCH  11  14
ATOM     14  O   UNL A   1      34.507  19.464  25.164  1.00  0.00    -0.444 OA
BRANCH  14  15
ATOM     15  C   UNL A   1      33.334  18.798  24.622  1.00  0.00     0.106 C 
ATOM     16  C   UNL A   1      32.473  19.935  24.056  1.00  0.00     0.056 C 
ATOM     17  C   UNL A   1      32.531  18.064  25.703  1.00  0.00     0.056 C 
ATOM     18  C   UNL A   1      33.718  17.859  23.469  1.00  0.00     0.056 C 
ENDBRANCH  14  15
ENDBRANCH  11  14
ENDBRANCH   9  10
BRANCH   9  19
ATOM     19  C   UNL A   1      37.452  21.385  24.626  1.00  0.00     0.181 C 
BRANCH  19  20
ATOM     20  C   UNL A   1      38.168  22.292  25.617  1.00  0.00     0.019 A 
ATOM     21  C   UNL A   1      37.688  23.562  25.990  1.00  0.00     0.009 A 
ATOM     22  C   UNL A   1      39.353  21.853  26.228  1.00  0.00     0.129 A 
ATOM     23  C   UNL A   1      38.406  24.377  26.877  1.00  0.00     0.001 A 
ATOM     24  C   UNL A   1      40.062  22.650  27.127  1.00  0.00     0.039 A 
ATOM     25  F   UNL A   1      39.836  20.637  25.943  1.00  0.00    -0.207 F 
ATOM     26  C   UNL A   1      39.596  23.922  27.443  1.00  0.00     0.003 A 
ENDBRANCH  19  20
BRANCH  19  27
ATOM     27  O   UNL A   1      37.481  20.055  25.170  1.00  0.00    -0.386 OA
ATOM     28  H   UNL A   1      38.154  19.531  24.709  1.00  0.00     0.211 HD
ENDBRANCH  19  27
ENDBRANCH   9  19
ENDBRANCH   7   9
ENDBRANCH   6   7
ENDBRANCH   5   6
ENDBRANCH   4   5
ENDBRANCH   3   4
ENDBRANCH   2   3
ENDBRANCH   1   2
BRANCH   1  29
ATOM     29  O   UNL A   1      32.540  28.338  22.844  1.00  0.00    -0.377 OA
BRANCH  29  30
ATOM     30  C   UNL A   1      31.443  28.247  23.736  1.00  0.00     0.188 C 
BRANCH  30  31
ATOM     31  C   UNL A   1      30.441  29.416  23.677  1.00  0.00     0.188 C 
BRANCH  31  32
ATOM     32  O   UNL A   1      30.628  30.376  24.715  1.00  0.00    -0.376 OA
BRANCH  32  33
ATOM     33  C   UNL A   1      31.491  30.074  25.800  1.00  0.00     0.202 C 
BRANCH  33  34
ATOM     34  C   UNL A   1      32.053  31.256  26.607  1.00  0.00     0.261 C 
BRANCH  34  35
ATOM     35  O   UNL A   1      33.242  30.999  27.367  1.00  0.00    -0.460 OA
BRANCH  35  36
ATOM     36  C   UNL A   1      34.015  32.048  27.718  1.00  0.00     0.338 C 
ATOM     37  O   UNL A   1      33.687  33.221  27.771  1.00  0.00    -0.246 OA
BRANCH  36  38
ATOM     38  C   UNL A   1      35.273  31.498  28.263  1.00  0.00     0.060 A 
ATOM     39  C   UNL A   1      35.329  30.134  28.581  1.00  0.00     0.016 A 
ATOM     40  C   UNL A   1      36.407  32.303  28.396  1.00  0.00     0.016 A 
ATOM     41  C   UNL A   1      36.515  29.573  29.048  1.00  0.00     0.010 A 
ATOM     42  C   UNL A   1      37.585  31.750  28.901  1.00  0.00     0.010 A 
ATOM     43  C   UNL A   1      37.633  30.391  29.256  1.00  0.00    -0.014 A 
BRANCH  43  44
ATOM     44  C   UNL A   1      38.759  29.883  30.071  1.00  0.00     0.031 A 
ATOM     45  C   UNL A   1      38.883  30.393  31.478  1.00  0.00     0.074 A 
ATOM     46  C   UNL A   1      39.629  28.980  29.589  1.00  0.00     0.049 A 
ATOM     47  N   UNL A   1      39.807  30.156  32.371  1.00  0.00    -0.248 NA
ATOM     48  C   UNL A   1      37.816  31.299  31.939  1.00  0.00     0.031 C 
ATOM     49  C   UNL A   1      39.576  28.375  28.260  1.00  0.00     0.029 A 
ATOM     50  N   UNL A   1      40.741  28.425  30.171  1.00  0.00    -0.354 N 
ATOM     51  C   UNL A   1      39.439  30.889  33.492  1.00  0.00     0.074 A 
ATOM     52  C   UNL A   1      38.225  31.600  33.161  1.00  0.00     0.031 C 
ATOM     53  C   UNL A   1      40.625  27.544  28.121  1.00  0.00     0.029 A 
ATOM     54  C   UNL A   1      41.438  27.588  29.335  1.00  0.00     0.049 A 
ATOM     55  H   UNL A   1      41.012  28.608  31.100  1.00  0.00     0.167 HD
ATOM     56  C   UNL A   1      40.058  30.960  34.693  1.00  0.00     0.037 A 
ATOM     57  C   UNL A   1      42.613  26.957  29.525  1.00  0.00     0.037 A 
ATOM     58  C   UNL A   1      41.270  30.255  35.012  1.00  0.00     0.049 A 
ATOM     59  C   UNL A   1      43.330  27.118  30.843  1.00  0.00     0.074 A 
ATOM     60  C   UNL A   1      41.972  30.248  36.203  1.00  0.00     0.029 A 
ATOM     61  N   UNL A   1      41.963  29.443  34.129  1.00  0.00    -0.354 N 
ATOM     62  N   UNL A   1      42.968  27.795  31.906  1.00  0.00    -0.248 NA
ATOM     63  C   UNL A   1      44.618  26.425  30.987  1.00  0.00     0.031 C 
ATOM     64  C   UNL A   1      43.126  29.479  36.021  1.00  0.00     0.029 A 
ATOM     65  C   UNL A   1      43.106  28.952  34.738  1.00  0.00     0.049 A 
ATOM     66  H   UNL A   1      41.686  29.244  33.205  1.00  0.00     0.167 HD
ATOM     67  C   UNL A   1      43.963  27.585  32.853  1.00  0.00     0.074 A 
ATOM     68  C   UNL A   1      44.939  26.707  32.242  1.00  0.00     0.031 C 
ATOM     69  C   UNL A   1      44.060  28.070  34.115  1.00  0.00     0.037 A 
BRANCH  56  70
ATOM     70  C   UNL A   1      39.453  31.860  35.731  1.00  0.00     0.057 A 
ATOM     71  C   UNL A   1      38.457  31.418  36.611  1.00  0.00     0.134 A 
ATOM     72  C   UNL A   1      39.892  33.184  35.862  1.00  0.00     0.134 A 
ATOM     73  F   UNL A   1      37.977  30.167  36.525  1.00  0.00    -0.206 F 
ATOM     74  C   UNL A   1      37.904  32.267  37.572  1.00  0.00     0.040 A 
ATOM     75  C   UNL A   1      39.367  34.032  36.837  1.00  0.00     0.040 A 
ATOM     76  F   UNL A   1      40.842  33.671  35.050  1.00  0.00    -0.206 F 
ATOM     77  C   UNL A   1      38.366  33.576  37.692  1.00  0.00     0.006 A 
ENDBRANCH  56  70
BRANCH  57  78
ATOM     78  C   UNL A   1      43.207  26.138  28.436  1.00  0.00     0.057 A 
ATOM     79  C   UNL A   1      43.921  26.726  27.386  1.00  0.00     0.134 A 
ATOM     80  C   UNL A   1      43.048  24.746  28.404  1.00  0.00     0.134 A 
ATOM     81  F   UNL A   1      44.086  28.057  27.344  1.00  0.00    -0.206 F 
ATOM     82  C   UNL A   1      44.440  25.966  26.336  1.00  0.00     0.040 A 
ATOM     83  C   UNL A   1      43.586  23.971  27.376  1.00  0.00     0.040 A 
ATOM     84  F   UNL A   1      42.371  24.119  29.377  1.00  0.00    -0.206 F 
ATOM     85  C   UNL A   1      44.278  24.582  26.333  1.00  0.00     0.006 A 
ENDBRANCH  57  78
BRANCH  69  86
ATOM     86  C   UNL A   1      45.235  27.630  34.942  1.00  0.00     0.057 A 
ATOM     87  C   UNL A   1      46.425  28.366  34.995  1.00  0.00     0.134 A 
ATOM     88  C   UNL A   1      45.149  26.482  35.741  1.00  0.00     0.134 A 
ATOM     89  F   UNL A   1      46.576  29.470  34.249  1.00  0.00    -0.206 F 
ATOM     90  C   UNL A   1      47.494  27.966  35.800  1.00  0.00     0.040 A 
ATOM     91  C   UNL A   1      46.199  26.089  36.572  1.00  0.00     0.040 A 
ATOM     92  F   UNL A   1      44.033  25.738  35.747  1.00  0.00    -0.206 F 
ATOM     93  C   UNL A   1      47.379  26.829  36.598  1.00  0.00     0.006 A 
ENDBRANCH  69  86
ENDBRANCH  43  44
ENDBRANCH  36  38
ENDBRANCH  35  36
ENDBRANCH  34  35
ENDBRANCH  33  34
ENDBRANCH  32  33
ENDBRANCH  31  32
ENDBRANCH  30  31
ENDBRANCH  29  30
ENDBRANCH   1  29
TORSDOF 26
ENDMDL
