MODEL 1
REMARK VINA RESULT:     -10.6      0.000      0.000
REMARK SMILES O=C(CCc1cccnc1)Nc1cccc(F)c1C(=O)OCCOCCOCCOCCOC(=O)c1ccc(-c2c3nc(c(-c4c(F)cccc4F)c4ccc([nH]4)c(-c4c(F)cccc4F)c4nc(c(-c5c(F)cccc5F)c5ccc2[nH]5)C=C4)C=C3)cc1
REMARK SMILES IDX 26 1 25 2 24 3 23 4 22 5 21 6 19 7 20 8 18 9 12 10 13 11
REMARK SMILES IDX 14 12 16 13 15 14 17 15 11 16 1 17 2 18 3 20 4 21 5 22 6 23
REMARK SMILES IDX 10 24 7 25 9 26 8 27 27 28 28 29 29 30 30 31 31 32 32 33
REMARK SMILES IDX 33 34 34 35 35 36 36 37 37 38 89 39 38 40 88 41 39 42 40 43
REMARK SMILES IDX 41 44 82 45 42 46 87 47 81 48 83 49 43 50 86 51 80 52 79 53
REMARK SMILES IDX 44 55 70 56 53 57 69 58 54 59 57 60 68 61 84 62 55 63 56 64
REMARK SMILES IDX 67 66 85 67 58 68 45 69 46 70 51 71 47 72 48 73 50 74 52 75
REMARK SMILES IDX 49 76 71 77 72 78 77 79 73 80 74 81 76 82 78 83 75 84 59 85
REMARK SMILES IDX 60 86 65 87 61 88 62 89 64 90 66 91 63 92
REMARK H PARENT 11 19 83 54 57 65
REMARK Flexibility Score: inf
ROOT
ATOM      1  C   UNL A   1      38.990  22.152  26.280  1.00  0.00     0.188 C 
ENDROOT
BRANCH   1   2
ATOM      2  C   UNL A   1      38.787  23.667  26.513  1.00  0.00     0.188 C 
BRANCH   2   3
ATOM      3  O   UNL A   1      37.505  24.128  26.110  1.00  0.00    -0.376 OA
BRANCH   3   4
ATOM      4  C   UNL A   1      36.819  23.427  25.091  1.00  0.00     0.202 C 
BRANCH   4   5
ATOM      5  C   UNL A   1      35.301  23.549  25.159  1.00  0.00     0.261 C 
BRANCH   5   6
ATOM      6  O   UNL A   1      34.791  24.761  24.585  1.00  0.00    -0.460 OA
BRANCH   6   7
ATOM      7  C   UNL A   1      34.037  24.677  23.465  1.00  0.00     0.343 C 
ATOM      8  O   UNL A   1      34.335  24.103  22.431  1.00  0.00    -0.246 OA
BRANCH   7   9
ATOM      9  C   UNL A   1      32.685  25.201  23.764  1.00  0.00     0.119 A 
ATOM     10  C   UNL A   1      31.541  24.379  23.674  1.00  0.00     0.058 A 
ATOM     11  C   UNL A   1      30.294  24.948  23.990  1.00  0.00     0.027 A 
ATOM     12  C   UNL A   1      30.179  26.279  24.402  1.00  0.00     0.005 A 
ATOM     13  C   UNL A   1      32.550  26.541  24.157  1.00  0.00     0.139 A 
ATOM     14  C   UNL A   1      31.312  27.077  24.490  1.00  0.00     0.040 A 
ATOM     15  F   UNL A   1      33.613  27.357  24.231  1.00  0.00    -0.206 F 
BRANCH  10  16
ATOM     16  N   UNL A   1      31.630  22.985  23.382  1.00  0.00    -0.325 N 
ATOM     17  O   UNL A   1      31.917  22.168  25.520  1.00  0.00    -0.275 OA
ATOM     18  C   UNL A   1      31.966  22.008  24.301  1.00  0.00     0.224 C 
ATOM     19  H   UNL A   1      31.439  22.698  22.460  1.00  0.00     0.169 HD
BRANCH  18  20
ATOM     20  C   UNL A   1      32.519  20.705  23.741  1.00  0.00     0.105 C 
BRANCH  20  21
ATOM     21  C   UNL A   1      33.780  20.145  24.393  1.00  0.00     0.047 C 
BRANCH  21  22
ATOM     22  C   UNL A   1      33.686  18.669  24.674  1.00  0.00    -0.029 A 
ATOM     23  C   UNL A   1      34.721  17.786  24.346  1.00  0.00     0.007 A 
ATOM     24  C   UNL A   1      32.557  18.127  25.266  1.00  0.00     0.114 A 
ATOM     25  C   UNL A   1      34.557  16.417  24.541  1.00  0.00     0.020 A 
ATOM     26  N   UNL A   1      32.383  16.806  25.479  1.00  0.00    -0.264 NA
ATOM     27  C   UNL A   1      33.367  15.975  25.085  1.00  0.00     0.111 A 
ENDBRANCH  21  22
ENDBRANCH  20  21
ENDBRANCH  18  20
ENDBRANCH  10  16
ENDBRANCH   7   9
ENDBRANCH   6   7
ENDBRANCH   5   6
ENDBRANCH   4   5
ENDBRANCH   3   4
ENDBRANCH   2   3
ENDBRANCH   1   2
BRANCH   1  28
ATOM     28  O   UNL A   1      40.213  21.493  26.612  1.00  0.00    -0.377 OA
BRANCH  28  29
ATOM     29  C   UNL A   1      40.406  20.164  26.148  1.00  0.00     0.188 C 
BRANCH  29  30
ATOM     30  C   UNL A   1      41.834  19.629  26.384  1.00  0.00     0.188 C 
BRANCH  30  31
ATOM     31  O   UNL A   1      42.767  20.093  25.419  1.00  0.00    -0.376 OA
BRANCH  31  32
ATOM     32  C   UNL A   1      43.641  21.159  25.744  1.00  0.00     0.202 C 
BRANCH  32  33
ATOM     33  C   UNL A   1      44.131  22.160  24.684  1.00  0.00     0.261 C 
BRANCH  33  34
ATOM     34  O   UNL A   1      43.580  23.480  24.715  1.00  0.00    -0.460 OA
BRANCH  34  35
ATOM     35  C   UNL A   1      44.381  24.498  25.088  1.00  0.00     0.338 C 
ATOM     36  O   UNL A   1      45.451  24.813  24.598  1.00  0.00    -0.246 OA
BRANCH  35  37
ATOM     37  C   UNL A   1      43.611  25.312  26.056  1.00  0.00     0.060 A 
ATOM     38  C   UNL A   1      43.905  26.679  26.169  1.00  0.00     0.016 A 
ATOM     39  C   UNL A   1      42.554  24.754  26.784  1.00  0.00     0.016 A 
ATOM     40  C   UNL A   1      43.166  27.480  27.037  1.00  0.00     0.010 A 
ATOM     41  C   UNL A   1      41.830  25.553  27.673  1.00  0.00     0.010 A 
ATOM     42  C   UNL A   1      42.160  26.910  27.828  1.00  0.00    -0.014 A 
BRANCH  42  43
ATOM     43  C   UNL A   1      41.629  27.681  28.975  1.00  0.00     0.031 A 
ATOM     44  C   UNL A   1      42.360  27.578  30.285  1.00  0.00     0.074 A 
ATOM     45  C   UNL A   1      40.568  28.495  28.848  1.00  0.00     0.049 A 
ATOM     46  N   UNL A   1      42.112  28.169  31.425  1.00  0.00    -0.248 NA
ATOM     47  C   UNL A   1      43.534  26.688  30.311  1.00  0.00     0.031 C 
ATOM     48  C   UNL A   1      39.805  28.709  27.620  1.00  0.00     0.029 A 
ATOM     49  N   UNL A   1      39.954  29.302  29.774  1.00  0.00    -0.354 N 
ATOM     50  C   UNL A   1      43.101  27.730  32.295  1.00  0.00     0.074 A 
ATOM     51  C   UNL A   1      43.929  26.793  31.570  1.00  0.00     0.031 C 
ATOM     52  C   UNL A   1      38.823  29.594  27.868  1.00  0.00     0.029 A 
ATOM     53  C   UNL A   1      38.875  29.989  29.276  1.00  0.00     0.049 A 
ATOM     54  H   UNL A   1      40.259  29.382  30.706  1.00  0.00     0.167 HD
ATOM     55  C   UNL A   1      43.312  28.091  33.582  1.00  0.00     0.037 A 
ATOM     56  C   UNL A   1      38.024  30.833  29.891  1.00  0.00     0.037 A 
ATOM     57  C   UNL A   1      42.484  29.019  34.304  1.00  0.00     0.049 A 
ATOM     58  C   UNL A   1      38.232  31.159  31.348  1.00  0.00     0.074 A 
ATOM     59  C   UNL A   1      42.617  29.453  35.610  1.00  0.00     0.029 A 
ATOM     60  N   UNL A   1      41.366  29.650  33.781  1.00  0.00    -0.354 N 
ATOM     61  N   UNL A   1      39.181  30.754  32.160  1.00  0.00    -0.248 NA
ATOM     62  C   UNL A   1      37.255  32.062  31.974  1.00  0.00     0.031 C 
ATOM     63  C   UNL A   1      41.547  30.306  35.895  1.00  0.00     0.029 A 
ATOM     64  C   UNL A   1      40.783  30.451  34.748  1.00  0.00     0.049 A 
ATOM     65  H   UNL A   1      41.035  29.546  32.859  1.00  0.00     0.167 HD
ATOM     66  C   UNL A   1      38.927  31.368  33.381  1.00  0.00     0.074 A 
ATOM     67  C   UNL A   1      37.749  32.190  33.197  1.00  0.00     0.031 C 
ATOM     68  C   UNL A   1      39.605  31.260  34.550  1.00  0.00     0.037 A 
BRANCH  55  69
ATOM     69  C   UNL A   1      44.475  27.472  34.297  1.00  0.00     0.057 A 
ATOM     70  C   UNL A   1      45.733  28.086  34.279  1.00  0.00     0.134 A 
ATOM     71  C   UNL A   1      44.365  26.242  34.958  1.00  0.00     0.134 A 
ATOM     72  F   UNL A   1      45.905  29.267  33.667  1.00  0.00    -0.206 F 
ATOM     73  C   UNL A   1      46.846  27.489  34.873  1.00  0.00     0.040 A 
ATOM     74  C   UNL A   1      45.464  25.647  35.578  1.00  0.00     0.040 A 
ATOM     75  F   UNL A   1      43.183  25.612  35.030  1.00  0.00    -0.206 F 
ATOM     76  C   UNL A   1      46.712  26.265  35.527  1.00  0.00     0.006 A 
ENDBRANCH  55  69
BRANCH  56  77
ATOM     77  C   UNL A   1      36.898  31.437  29.132  1.00  0.00     0.057 A 
ATOM     78  C   UNL A   1      35.726  30.717  28.870  1.00  0.00     0.134 A 
ATOM     79  C   UNL A   1      36.966  32.752  28.654  1.00  0.00     0.134 A 
ATOM     80  F   UNL A   1      35.595  29.455  29.304  1.00  0.00    -0.206 F 
ATOM     81  C   UNL A   1      34.670  31.273  28.145  1.00  0.00     0.040 A 
ATOM     82  C   UNL A   1      35.907  33.330  27.950  1.00  0.00     0.040 A 
ATOM     83  F   UNL A   1      38.049  33.502  28.896  1.00  0.00    -0.206 F 
ATOM     84  C   UNL A   1      34.758  32.587  27.687  1.00  0.00     0.006 A 
ENDBRANCH  56  77
BRANCH  68  85
ATOM     85  C   UNL A   1      39.103  32.055  35.722  1.00  0.00     0.057 A 
ATOM     86  C   UNL A   1      39.481  33.394  35.892  1.00  0.00     0.134 A 
ATOM     87  C   UNL A   1      38.295  31.482  36.711  1.00  0.00     0.134 A 
ATOM     88  F   UNL A   1      40.267  34.002  34.991  1.00  0.00    -0.206 F 
ATOM     89  C   UNL A   1      39.077  34.131  37.006  1.00  0.00     0.040 A 
ATOM     90  C   UNL A   1      37.859  32.219  37.814  1.00  0.00     0.040 A 
ATOM     91  F   UNL A   1      37.892  30.207  36.606  1.00  0.00    -0.206 F 
ATOM     92  C   UNL A   1      38.257  33.545  37.967  1.00  0.00     0.006 A 
ENDBRANCH  68  85
ENDBRANCH  42  43
ENDBRANCH  35  37
ENDBRANCH  34  35
ENDBRANCH  33  34
ENDBRANCH  32  33
ENDBRANCH  31  32
ENDBRANCH  30  31
ENDBRANCH  29  30
ENDBRANCH  28  29
ENDBRANCH   1  28
TORSDOF 24
ENDMDL
MODEL 2
REMARK VINA RESULT:     -10.2      4.983     10.020
REMARK SMILES O=C(CCc1cccnc1)Nc1cccc(F)c1C(=O)OCCOCCOCCOCCOC(=O)c1ccc(-c2c3nc(c(-c4c(F)cccc4F)c4ccc([nH]4)c(-c4c(F)cccc4F)c4nc(c(-c5c(F)cccc5F)c5ccc2[nH]5)C=C4)C=C3)cc1
REMARK SMILES IDX 26 1 25 2 24 3 23 4 22 5 21 6 19 7 20 8 18 9 12 10 13 11
REMARK SMILES IDX 14 12 16 13 15 14 17 15 11 16 1 17 2 18 3 20 4 21 5 22 6 23
REMARK SMILES IDX 10 24 7 25 9 26 8 27 27 28 28 29 29 30 30 31 31 32 32 33
REMARK SMILES IDX 33 34 34 35 35 36 36 37 37 38 89 39 38 40 88 41 39 42 40 43
REMARK SMILES IDX 41 44 82 45 42 46 87 47 81 48 83 49 43 50 86 51 80 52 79 53
REMARK SMILES IDX 44 55 70 56 53 57 69 58 54 59 57 60 68 61 84 62 55 63 56 64
REMARK SMILES IDX 67 66 85 67 58 68 45 69 46 70 51 71 47 72 48 73 50 74 52 75
REMARK SMILES IDX 49 76 71 77 72 78 77 79 73 80 74 81 76 82 78 83 75 84 59 85
REMARK SMILES IDX 60 86 65 87 61 88 62 89 64 90 66 91 63 92
REMARK H PARENT 11 19 83 54 57 65
REMARK Flexibility Score: inf
ROOT
ATOM      1  C   UNL A   1      34.641  33.186  27.989  1.00  0.00     0.188 C 
ENDROOT
BRANCH   1   2
ATOM      2  C   UNL A   1      35.134  31.729  27.833  1.00  0.00     0.188 C 
BRANCH   2   3
ATOM      3  O   UNL A   1      34.095  30.770  27.968  1.00  0.00    -0.376 OA
BRANCH   3   4
ATOM      4  C   UNL A   1      33.051  30.757  27.013  1.00  0.00     0.202 C 
BRANCH   4   5
ATOM      5  C   UNL A   1      32.475  29.374  26.733  1.00  0.00     0.261 C 
BRANCH   5   6
ATOM      6  O   UNL A   1      31.336  29.386  25.861  1.00  0.00    -0.460 OA
BRANCH   6   7
ATOM      7  C   UNL A   1      31.543  29.500  24.529  1.00  0.00     0.343 C 
ATOM      8  O   UNL A   1      32.571  29.230  23.930  1.00  0.00    -0.246 OA
BRANCH   7   9
ATOM      9  C   UNL A   1      30.249  29.790  23.872  1.00  0.00     0.119 A 
ATOM     10  C   UNL A   1      29.650  28.866  22.988  1.00  0.00     0.058 A 
ATOM     11  C   UNL A   1      28.411  29.209  22.416  1.00  0.00     0.027 A 
ATOM     12  C   UNL A   1      27.774  30.417  22.720  1.00  0.00     0.005 A 
ATOM     13  C   UNL A   1      29.607  31.006  24.149  1.00  0.00     0.139 A 
ATOM     14  C   UNL A   1      28.371  31.315  23.593  1.00  0.00     0.040 A 
ATOM     15  F   UNL A   1      30.159  31.916  24.965  1.00  0.00    -0.206 F 
BRANCH  10  16
ATOM     16  N   UNL A   1      30.205  27.573  22.752  1.00  0.00    -0.325 N 
ATOM     17  O   UNL A   1      28.942  26.341  24.238  1.00  0.00    -0.275 OA
ATOM     18  C   UNL A   1      29.921  26.446  23.500  1.00  0.00     0.224 C 
ATOM     19  H   UNL A   1      30.836  27.476  22.002  1.00  0.00     0.169 HD
BRANCH  18  20
ATOM     20  C   UNL A   1      30.950  25.325  23.464  1.00  0.00     0.105 C 
BRANCH  20  21
ATOM     21  C   UNL A   1      32.304  25.641  22.836  1.00  0.00     0.047 C 
BRANCH  21  22
ATOM     22  C   UNL A   1      33.428  24.840  23.436  1.00  0.00    -0.029 A 
ATOM     23  C   UNL A   1      34.040  25.210  24.639  1.00  0.00     0.007 A 
ATOM     24  C   UNL A   1      33.906  23.701  22.808  1.00  0.00     0.114 A 
ATOM     25  C   UNL A   1      35.135  24.492  25.114  1.00  0.00     0.020 A 
ATOM     26  N   UNL A   1      34.955  22.981  23.258  1.00  0.00    -0.264 NA
ATOM     27  C   UNL A   1      35.569  23.406  24.380  1.00  0.00     0.111 A 
ENDBRANCH  21  22
ENDBRANCH  20  21
ENDBRANCH  18  20
ENDBRANCH  10  16
ENDBRANCH   7   9
ENDBRANCH   6   7
ENDBRANCH   5   6
ENDBRANCH   4   5
ENDBRANCH   3   4
ENDBRANCH   2   3
ENDBRANCH   1   2
BRANCH   1  28
ATOM     28  O   UNL A   1      34.088  33.670  29.214  1.00  0.00    -0.377 OA
BRANCH  28  29
ATOM     29  C   UNL A   1      33.913  35.072  29.364  1.00  0.00     0.188 C 
BRANCH  29  30
ATOM     30  C   UNL A   1      32.922  35.454  30.484  1.00  0.00     0.188 C 
BRANCH  30  31
ATOM     31  O   UNL A   1      33.549  36.096  31.584  1.00  0.00    -0.376 OA
BRANCH  31  32
ATOM     32  C   UNL A   1      34.030  35.321  32.667  1.00  0.00     0.202 C 
BRANCH  32  33
ATOM     33  C   UNL A   1      35.509  34.914  32.781  1.00  0.00     0.261 C 
BRANCH  33  34
ATOM     34  O   UNL A   1      35.907  33.687  32.161  1.00  0.00    -0.460 OA
BRANCH  34  35
ATOM     35  C   UNL A   1      36.376  32.698  32.947  1.00  0.00     0.338 C 
ATOM     36  O   UNL A   1      35.954  32.359  34.039  1.00  0.00    -0.246 OA
BRANCH  35  37
ATOM     37  C   UNL A   1      37.354  31.937  32.136  1.00  0.00     0.060 A 
ATOM     38  C   UNL A   1      38.355  31.211  32.796  1.00  0.00     0.016 A 
ATOM     39  C   UNL A   1      37.235  31.871  30.743  1.00  0.00     0.016 A 
ATOM     40  C   UNL A   1      39.261  30.448  32.062  1.00  0.00     0.010 A 
ATOM     41  C   UNL A   1      38.160  31.127  30.006  1.00  0.00     0.010 A 
ATOM     42  C   UNL A   1      39.197  30.444  30.662  1.00  0.00    -0.014 A 
BRANCH  42  43
ATOM     43  C   UNL A   1      40.352  29.924  29.894  1.00  0.00     0.031 A 
ATOM     44  C   UNL A   1      41.514  30.851  29.667  1.00  0.00     0.074 A 
ATOM     45  C   UNL A   1      40.398  28.653  29.462  1.00  0.00     0.049 A 
ATOM     46  N   UNL A   1      42.646  30.629  29.051  1.00  0.00    -0.248 NA
ATOM     47  C   UNL A   1      41.382  32.212  30.213  1.00  0.00     0.031 C 
ATOM     48  C   UNL A   1      39.351  27.652  29.659  1.00  0.00     0.029 A 
ATOM     49  N   UNL A   1      41.379  27.987  28.771  1.00  0.00    -0.354 N 
ATOM     50  C   UNL A   1      43.359  31.817  29.145  1.00  0.00     0.074 A 
ATOM     51  C   UNL A   1      42.522  32.770  29.838  1.00  0.00     0.031 C 
ATOM     52  C   UNL A   1      39.748  26.494  29.102  1.00  0.00     0.029 A 
ATOM     53  C   UNL A   1      41.063  26.680  28.489  1.00  0.00     0.049 A 
ATOM     54  H   UNL A   1      42.228  28.405  28.503  1.00  0.00     0.167 HD
ATOM     55  C   UNL A   1      44.611  32.084  28.707  1.00  0.00     0.037 A 
ATOM     56  C   UNL A   1      41.757  25.748  27.808  1.00  0.00     0.037 A 
ATOM     57  C   UNL A   1      45.441  31.137  28.013  1.00  0.00     0.049 A 
ATOM     58  C   UNL A   1      43.118  26.094  27.259  1.00  0.00     0.074 A 
ATOM     59  C   UNL A   1      46.726  31.311  27.532  1.00  0.00     0.029 A 
ATOM     60  N   UNL A   1      45.063  29.841  27.696  1.00  0.00    -0.354 N 
ATOM     61  N   UNL A   1      43.794  27.214  27.368  1.00  0.00    -0.248 NA
ATOM     62  C   UNL A   1      43.815  25.046  26.499  1.00  0.00     0.031 C 
ATOM     63  C   UNL A   1      47.106  30.136  26.876  1.00  0.00     0.029 A 
ATOM     64  C   UNL A   1      46.082  29.211  27.001  1.00  0.00     0.049 A 
ATOM     65  H   UNL A   1      44.200  29.429  27.930  1.00  0.00     0.167 HD
ATOM     66  C   UNL A   1      44.999  26.999  26.710  1.00  0.00     0.074 A 
ATOM     67  C   UNL A   1      44.971  25.634  26.225  1.00  0.00     0.031 C 
ATOM     68  C   UNL A   1      46.036  27.853  26.521  1.00  0.00     0.037 A 
BRANCH  55  69
ATOM     69  C   UNL A   1      45.156  33.459  28.954  1.00  0.00     0.057 A 
ATOM     70  C   UNL A   1      46.043  33.696  30.011  1.00  0.00     0.134 A 
ATOM     71  C   UNL A   1      44.763  34.558  28.180  1.00  0.00     0.134 A 
ATOM     72  F   UNL A   1      46.462  32.686  30.788  1.00  0.00    -0.206 F 
ATOM     73  C   UNL A   1      46.502  34.981  30.305  1.00  0.00     0.040 A 
ATOM     74  C   UNL A   1      45.235  35.844  28.447  1.00  0.00     0.040 A 
ATOM     75  F   UNL A   1      43.932  34.395  27.140  1.00  0.00    -0.206 F 
ATOM     76  C   UNL A   1      46.099  36.060  29.520  1.00  0.00     0.006 A 
ENDBRANCH  55  69
BRANCH  56  77
ATOM     77  C   UNL A   1      41.181  24.393  27.608  1.00  0.00     0.057 A 
ATOM     78  C   UNL A   1      41.648  23.288  28.330  1.00  0.00     0.134 A 
ATOM     79  C   UNL A   1      40.144  24.171  26.693  1.00  0.00     0.134 A 
ATOM     80  F   UNL A   1      42.636  23.433  29.226  1.00  0.00    -0.206 F 
ATOM     81  C   UNL A   1      41.121  22.010  28.137  1.00  0.00     0.040 A 
ATOM     82  C   UNL A   1      39.589  22.903  26.509  1.00  0.00     0.040 A 
ATOM     83  F   UNL A   1      39.634  25.193  25.991  1.00  0.00    -0.206 F 
ATOM     84  C   UNL A   1      40.084  21.816  27.226  1.00  0.00     0.006 A 
ENDBRANCH  56  77
BRANCH  68  85
ATOM     85  C   UNL A   1      47.231  27.340  25.770  1.00  0.00     0.057 A 
ATOM     86  C   UNL A   1      48.280  26.701  26.446  1.00  0.00     0.134 A 
ATOM     87  C   UNL A   1      47.373  27.528  24.389  1.00  0.00     0.134 A 
ATOM     88  F   UNL A   1      48.218  26.502  27.771  1.00  0.00    -0.206 F 
ATOM     89  C   UNL A   1      49.428  26.275  25.776  1.00  0.00     0.040 A 
ATOM     90  C   UNL A   1      48.502  27.077  23.704  1.00  0.00     0.040 A 
ATOM     91  F   UNL A   1      46.403  28.126  23.682  1.00  0.00    -0.206 F 
ATOM     92  C   UNL A   1      49.537  26.455  24.399  1.00  0.00     0.006 A 
ENDBRANCH  68  85
ENDBRANCH  42  43
ENDBRANCH  35  37
ENDBRANCH  34  35
ENDBRANCH  33  34
ENDBRANCH  32  33
ENDBRANCH  31  32
ENDBRANCH  30  31
ENDBRANCH  29  30
ENDBRANCH  28  29
ENDBRANCH   1  28
TORSDOF 24
ENDMDL
MODEL 3
REMARK VINA RESULT:     -10.1      4.696     10.263
REMARK SMILES O=C(CCc1cccnc1)Nc1cccc(F)c1C(=O)OCCOCCOCCOCCOC(=O)c1ccc(-c2c3nc(c(-c4c(F)cccc4F)c4ccc([nH]4)c(-c4c(F)cccc4F)c4nc(c(-c5c(F)cccc5F)c5ccc2[nH]5)C=C4)C=C3)cc1
REMARK SMILES IDX 26 1 25 2 24 3 23 4 22 5 21 6 19 7 20 8 18 9 12 10 13 11
REMARK SMILES IDX 14 12 16 13 15 14 17 15 11 16 1 17 2 18 3 20 4 21 5 22 6 23
REMARK SMILES IDX 10 24 7 25 9 26 8 27 27 28 28 29 29 30 30 31 31 32 32 33
REMARK SMILES IDX 33 34 34 35 35 36 36 37 37 38 89 39 38 40 88 41 39 42 40 43
REMARK SMILES IDX 41 44 82 45 42 46 87 47 81 48 83 49 43 50 86 51 80 52 79 53
REMARK SMILES IDX 44 55 70 56 53 57 69 58 54 59 57 60 68 61 84 62 55 63 56 64
REMARK SMILES IDX 67 66 85 67 58 68 45 69 46 70 51 71 47 72 48 73 50 74 52 75
REMARK SMILES IDX 49 76 71 77 72 78 77 79 73 80 74 81 76 82 78 83 75 84 59 85
REMARK SMILES IDX 60 86 65 87 61 88 62 89 64 90 66 91 63 92
REMARK H PARENT 11 19 83 54 57 65
REMARK Flexibility Score: inf
ROOT
ATOM      1  C   UNL A   1      31.567  31.916  26.812  1.00  0.00     0.188 C 
ENDROOT
BRANCH   1   2
ATOM      2  C   UNL A   1      32.287  30.555  26.668  1.00  0.00     0.188 C 
BRANCH   2   3
ATOM      3  O   UNL A   1      31.454  29.447  26.977  1.00  0.00    -0.376 OA
BRANCH   3   4
ATOM      4  C   UNL A   1      32.050  28.268  27.484  1.00  0.00     0.202 C 
BRANCH   4   5
ATOM      5  C   UNL A   1      33.056  27.619  26.542  1.00  0.00     0.261 C 
BRANCH   5   6
ATOM      6  O   UNL A   1      32.469  26.694  25.616  1.00  0.00    -0.460 OA
BRANCH   6   7
ATOM      7  C   UNL A   1      32.278  25.415  26.013  1.00  0.00     0.343 C 
ATOM      8  O   UNL A   1      31.456  25.023  26.824  1.00  0.00    -0.246 OA
BRANCH   7   9
ATOM      9  C   UNL A   1      33.074  24.524  25.140  1.00  0.00     0.119 A 
ATOM     10  C   UNL A   1      32.842  24.457  23.749  1.00  0.00     0.058 A 
ATOM     11  C   UNL A   1      33.652  23.597  22.985  1.00  0.00     0.027 A 
ATOM     12  C   UNL A   1      34.672  22.840  23.571  1.00  0.00     0.005 A 
ATOM     13  C   UNL A   1      34.087  23.741  25.714  1.00  0.00     0.139 A 
ATOM     14  C   UNL A   1      34.893  22.917  24.939  1.00  0.00     0.040 A 
ATOM     15  F   UNL A   1      34.320  23.763  27.036  1.00  0.00    -0.206 F 
BRANCH  10  16
ATOM     16  N   UNL A   1      31.898  25.306  23.097  1.00  0.00    -0.325 N 
ATOM     17  O   UNL A   1      33.352  26.657  21.922  1.00  0.00    -0.275 OA
ATOM     18  C   UNL A   1      32.226  26.431  22.363  1.00  0.00     0.224 C 
ATOM     19  H   UNL A   1      30.944  25.074  23.174  1.00  0.00     0.169 HD
BRANCH  18  20
ATOM     20  C   UNL A   1      31.135  27.478  22.194  1.00  0.00     0.105 C 
BRANCH  20  21
ATOM     21  C   UNL A   1      29.951  27.414  23.155  1.00  0.00     0.047 C 
BRANCH  21  22
ATOM     22  C   UNL A   1      29.186  28.708  23.227  1.00  0.00    -0.029 A 
ATOM     23  C   UNL A   1      29.818  29.927  23.500  1.00  0.00     0.007 A 
ATOM     24  C   UNL A   1      27.815  28.738  23.031  1.00  0.00     0.114 A 
ATOM     25  C   UNL A   1      29.062  31.087  23.646  1.00  0.00     0.020 A 
ATOM     26  N   UNL A   1      27.064  29.852  23.152  1.00  0.00    -0.264 NA
ATOM     27  C   UNL A   1      27.693  30.995  23.488  1.00  0.00     0.111 A 
ENDBRANCH  21  22
ENDBRANCH  20  21
ENDBRANCH  18  20
ENDBRANCH  10  16
ENDBRANCH   7   9
ENDBRANCH   6   7
ENDBRANCH   5   6
ENDBRANCH   4   5
ENDBRANCH   3   4
ENDBRANCH   2   3
ENDBRANCH   1   2
BRANCH   1  28
ATOM     28  O   UNL A   1      32.246  33.086  27.271  1.00  0.00    -0.377 OA
BRANCH  28  29
ATOM     29  C   UNL A   1      33.535  32.930  27.849  1.00  0.00     0.188 C 
BRANCH  29  30
ATOM     30  C   UNL A   1      34.258  34.268  28.113  1.00  0.00     0.188 C 
BRANCH  30  31
ATOM     31  O   UNL A   1      34.943  34.291  29.357  1.00  0.00    -0.376 OA
BRANCH  31  32
ATOM     32  C   UNL A   1      34.206  34.405  30.560  1.00  0.00     0.202 C 
BRANCH  32  33
ATOM     33  C   UNL A   1      34.624  33.663  31.842  1.00  0.00     0.261 C 
BRANCH  33  34
ATOM     34  O   UNL A   1      35.996  33.751  32.241  1.00  0.00    -0.460 OA
BRANCH  34  35
ATOM     35  C   UNL A   1      36.497  32.775  33.022  1.00  0.00     0.338 C 
ATOM     36  O   UNL A   1      36.106  32.438  34.126  1.00  0.00    -0.246 OA
BRANCH  35  37
ATOM     37  C   UNL A   1      37.467  32.023  32.194  1.00  0.00     0.060 A 
ATOM     38  C   UNL A   1      38.436  31.239  32.837  1.00  0.00     0.016 A 
ATOM     39  C   UNL A   1      37.370  32.022  30.798  1.00  0.00     0.016 A 
ATOM     40  C   UNL A   1      39.332  30.483  32.084  1.00  0.00     0.010 A 
ATOM     41  C   UNL A   1      38.287  31.284  30.043  1.00  0.00     0.010 A 
ATOM     42  C   UNL A   1      39.292  30.543  30.685  1.00  0.00    -0.014 A 
BRANCH  42  43
ATOM     43  C   UNL A   1      40.445  30.024  29.914  1.00  0.00     0.031 A 
ATOM     44  C   UNL A   1      41.601  30.955  29.674  1.00  0.00     0.074 A 
ATOM     45  C   UNL A   1      40.495  28.751  29.489  1.00  0.00     0.049 A 
ATOM     46  N   UNL A   1      42.731  30.735  29.052  1.00  0.00    -0.248 NA
ATOM     47  C   UNL A   1      41.466  32.319  30.212  1.00  0.00     0.031 C 
ATOM     48  C   UNL A   1      39.455  27.746  29.698  1.00  0.00     0.029 A 
ATOM     49  N   UNL A   1      41.475  28.085  28.796  1.00  0.00    -0.354 N 
ATOM     50  C   UNL A   1      43.439  31.927  29.134  1.00  0.00     0.074 A 
ATOM     51  C   UNL A   1      42.601  32.880  29.826  1.00  0.00     0.031 C 
ATOM     52  C   UNL A   1      39.854  26.586  29.146  1.00  0.00     0.029 A 
ATOM     53  C   UNL A   1      41.165  26.775  28.524  1.00  0.00     0.049 A 
ATOM     54  H   UNL A   1      42.321  28.506  28.520  1.00  0.00     0.167 HD
ATOM     55  C   UNL A   1      44.686  32.198  28.687  1.00  0.00     0.037 A 
ATOM     56  C   UNL A   1      41.859  25.842  27.844  1.00  0.00     0.037 A 
ATOM     57  C   UNL A   1      45.517  31.251  27.994  1.00  0.00     0.049 A 
ATOM     58  C   UNL A   1      43.215  26.192  27.285  1.00  0.00     0.074 A 
ATOM     59  C   UNL A   1      46.798  31.428  27.504  1.00  0.00     0.029 A 
ATOM     60  N   UNL A   1      45.144  29.951  27.688  1.00  0.00    -0.354 N 
ATOM     61  N   UNL A   1      43.886  27.316  27.383  1.00  0.00    -0.248 NA
ATOM     62  C   UNL A   1      43.912  25.143  26.528  1.00  0.00     0.031 C 
ATOM     63  C   UNL A   1      47.180  30.251  26.854  1.00  0.00     0.029 A 
ATOM     64  C   UNL A   1      46.162  29.322  26.990  1.00  0.00     0.049 A 
ATOM     65  H   UNL A   1      44.284  29.536  27.929  1.00  0.00     0.167 HD
ATOM     66  C   UNL A   1      45.088  27.102  26.719  1.00  0.00     0.074 A 
ATOM     67  C   UNL A   1      45.064  25.734  26.243  1.00  0.00     0.031 C 
ATOM     68  C   UNL A   1      46.119  27.960  26.518  1.00  0.00     0.037 A 
BRANCH  55  69
ATOM     69  C   UNL A   1      45.226  33.577  28.922  1.00  0.00     0.057 A 
ATOM     70  C   UNL A   1      45.027  34.591  27.977  1.00  0.00     0.134 A 
ATOM     71  C   UNL A   1      45.988  33.889  30.055  1.00  0.00     0.134 A 
ATOM     72  F   UNL A   1      44.304  34.360  26.872  1.00  0.00    -0.206 F 
ATOM     73  C   UNL A   1      45.585  35.860  28.140  1.00  0.00     0.040 A 
ATOM     74  C   UNL A   1      46.530  35.161  30.242  1.00  0.00     0.040 A 
ATOM     75  F   UNL A   1      46.197  32.968  31.008  1.00  0.00    -0.206 F 
ATOM     76  C   UNL A   1      46.338  36.148  29.277  1.00  0.00     0.006 A 
ENDBRANCH  55  69
BRANCH  56  77
ATOM     77  C   UNL A   1      41.289  24.483  27.656  1.00  0.00     0.057 A 
ATOM     78  C   UNL A   1      40.267  24.242  26.730  1.00  0.00     0.134 A 
ATOM     79  C   UNL A   1      41.757  23.390  28.396  1.00  0.00     0.134 A 
ATOM     80  F   UNL A   1      39.777  25.245  25.986  1.00  0.00    -0.206 F 
ATOM     81  C   UNL A   1      39.717  22.971  26.559  1.00  0.00     0.040 A 
ATOM     82  C   UNL A   1      41.234  22.107  28.217  1.00  0.00     0.040 A 
ATOM     83  F   UNL A   1      42.753  23.549  29.279  1.00  0.00    -0.206 F 
ATOM     84  C   UNL A   1      40.205  21.897  27.302  1.00  0.00     0.006 A 
ENDBRANCH  56  77
BRANCH  68  85
ATOM     85  C   UNL A   1      47.313  27.449  25.763  1.00  0.00     0.057 A 
ATOM     86  C   UNL A   1      47.404  27.613  24.374  1.00  0.00     0.134 A 
ATOM     87  C   UNL A   1      48.343  26.746  26.399  1.00  0.00     0.134 A 
ATOM     88  F   UNL A   1      46.445  28.262  23.698  1.00  0.00    -0.206 F 
ATOM     89  C   UNL A   1      48.474  27.089  23.646  1.00  0.00     0.040 A 
ATOM     90  C   UNL A   1      49.434  26.245  25.685  1.00  0.00     0.040 A 
ATOM     91  F   UNL A   1      48.321  26.560  27.727  1.00  0.00    -0.206 F 
ATOM     92  C   UNL A   1      49.497  26.410  24.304  1.00  0.00     0.006 A 
ENDBRANCH  68  85
ENDBRANCH  42  43
ENDBRANCH  35  37
ENDBRANCH  34  35
ENDBRANCH  33  34
ENDBRANCH  32  33
ENDBRANCH  31  32
ENDBRANCH  30  31
ENDBRANCH  29  30
ENDBRANCH  28  29
ENDBRANCH   1  28
TORSDOF 24
ENDMDL
