MODEL 1
REMARK VINA RESULT:     -10.5      0.000      0.000
REMARK SMILES O=C(COc1ccccc1/C=C1/SC(=O)N(c2ccc(F)cc2)C1=O)OCCOCCOCCOCCOC(=O)c1ccc(-c2c3nc(c(-c4c(F)cccc4F)c4ccc([nH]4)c(-c4c(F)cccc4F)c4nc(c(-c5c(F)cccc5F)c5ccc2[nH]5)C=C4)C=C3)cc1
REMARK SMILES IDX 31 1 30 2 29 3 28 4 27 5 26 6 2 7 1 8 3 9 4 10 5 11 6 12
REMARK SMILES IDX 10 13 7 14 9 15 8 16 11 17 12 18 13 19 24 20 14 21 16 22
REMARK SMILES IDX 25 23 15 24 17 25 18 26 23 27 19 28 22 29 20 30 21 31 32 32
REMARK SMILES IDX 33 33 34 34 35 35 36 36 37 37 38 38 39 39 40 40 41 41 42 42
REMARK SMILES IDX 94 43 43 44 93 45 44 46 45 47 46 48 87 49 47 50 92 51 86 52
REMARK SMILES IDX 88 53 48 54 91 55 85 56 84 57 49 59 75 60 58 61 74 62 59 63
REMARK SMILES IDX 62 64 73 65 89 66 60 67 61 68 72 70 90 71 63 72 50 73 51 74
REMARK SMILES IDX 56 75 52 76 53 77 55 78 57 79 54 80 76 81 77 82 82 83 78 84
REMARK SMILES IDX 79 85 81 86 83 87 80 88 64 89 65 90 70 91 66 92 67 93 69 94
REMARK SMILES IDX 71 95 68 96
REMARK H PARENT 88 58 62 69
REMARK Flexibility Score: inf
ROOT
ATOM      1  C   UNL A   1      31.154  29.680  24.748  1.00  0.00     0.188 C 
ENDROOT
BRANCH   1   2
ATOM      2  C   UNL A   1      30.597  29.012  23.465  1.00  0.00     0.188 C 
BRANCH   2   3
ATOM      3  O   UNL A   1      31.499  28.570  22.464  1.00  0.00    -0.376 OA
BRANCH   3   4
ATOM      4  C   UNL A   1      32.784  28.018  22.609  1.00  0.00     0.202 C 
BRANCH   4   5
ATOM      5  C   UNL A   1      33.364  27.044  21.600  1.00  0.00     0.261 C 
BRANCH   5   6
ATOM      6  O   UNL A   1      33.756  25.765  22.110  1.00  0.00    -0.461 OA
BRANCH   6   7
ATOM      7  C   UNL A   1      33.009  24.636  22.072  1.00  0.00     0.344 C 
ATOM      8  O   UNL A   1      33.388  23.658  21.432  1.00  0.00    -0.248 OA
BRANCH   7   9
ATOM      9  C   UNL A   1      31.723  24.642  22.844  1.00  0.00     0.351 C 
BRANCH   9  10
ATOM     10  O   UNL A   1      31.913  25.408  24.030  1.00  0.00    -0.481 OA
BRANCH  10  11
ATOM     11  C   UNL A   1      31.599  24.662  25.131  1.00  0.00     0.127 A 
ATOM     12  C   UNL A   1      30.303  24.882  25.604  1.00  0.00     0.047 A 
ATOM     13  C   UNL A   1      32.469  23.736  25.742  1.00  0.00     0.018 A 
ATOM     14  C   UNL A   1      29.817  24.117  26.651  1.00  0.00     0.004 A 
ATOM     15  C   UNL A   1      31.947  22.961  26.781  1.00  0.00     0.012 A 
ATOM     16  C   UNL A   1      30.632  23.146  27.226  1.00  0.00     0.001 A 
BRANCH  13  17
ATOM     17  C   UNL A   1      33.864  23.451  25.340  1.00  0.00     0.033 C 
ATOM     18  C   UNL A   1      34.385  22.283  24.929  1.00  0.00     0.084 C 
ATOM     19  S   UNL A   1      36.077  22.020  24.698  1.00  0.00    -0.022 SA
ATOM     20  C   UNL A   1      33.665  20.993  24.770  1.00  0.00     0.272 C 
ATOM     21  C   UNL A   1      35.901  20.276  24.896  1.00  0.00     0.298 C 
ATOM     22  N   UNL A   1      34.569  19.932  24.803  1.00  0.00    -0.236 N 
ATOM     23  O   UNL A   1      32.446  20.928  24.701  1.00  0.00    -0.268 OA
ATOM     24  O   UNL A   1      36.868  19.553  25.087  1.00  0.00    -0.260 OA
BRANCH  22  25
ATOM     25  C   UNL A   1      34.100  18.584  24.868  1.00  0.00     0.053 A 
ATOM     26  C   UNL A   1      34.547  17.643  23.924  1.00  0.00     0.030 A 
ATOM     27  C   UNL A   1      33.135  18.177  25.805  1.00  0.00     0.030 A 
ATOM     28  C   UNL A   1      34.005  16.359  23.870  1.00  0.00     0.041 A 
ATOM     29  C   UNL A   1      32.572  16.896  25.732  1.00  0.00     0.041 A 
ATOM     30  C   UNL A   1      33.006  16.004  24.759  1.00  0.00     0.123 A 
ATOM     31  F   UNL A   1      32.446  14.791  24.672  1.00  0.00    -0.207 F 
ENDBRANCH  22  25
ENDBRANCH  13  17
ENDBRANCH  10  11
ENDBRANCH   9  10
ENDBRANCH   7   9
ENDBRANCH   6   7
ENDBRANCH   5   6
ENDBRANCH   4   5
ENDBRANCH   3   4
ENDBRANCH   2   3
ENDBRANCH   1   2
BRANCH   1  32
ATOM     32  O   UNL A   1      31.737  28.858  25.751  1.00  0.00    -0.377 OA
BRANCH  32  33
ATOM     33  C   UNL A   1      32.061  29.504  26.970  1.00  0.00     0.188 C 
BRANCH  33  34
ATOM     34  C   UNL A   1      33.293  30.415  26.850  1.00  0.00     0.188 C 
BRANCH  34  35
ATOM     35  O   UNL A   1      33.616  31.096  28.050  1.00  0.00    -0.376 OA
BRANCH  35  36
ATOM     36  C   UNL A   1      34.532  32.178  27.999  1.00  0.00     0.202 C 
BRANCH  36  37
ATOM     37  C   UNL A   1      35.030  32.840  29.300  1.00  0.00     0.261 C 
BRANCH  37  38
ATOM     38  O   UNL A   1      36.348  32.482  29.748  1.00  0.00    -0.460 OA
BRANCH  38  39
ATOM     39  C   UNL A   1      36.459  31.498  30.665  1.00  0.00     0.338 C 
ATOM     40  O   UNL A   1      35.759  31.303  31.633  1.00  0.00    -0.246 OA
BRANCH  39  41
ATOM     41  C   UNL A   1      37.461  30.534  30.154  1.00  0.00     0.060 A 
ATOM     42  C   UNL A   1      38.198  29.782  31.081  1.00  0.00     0.016 A 
ATOM     43  C   UNL A   1      37.678  30.385  28.783  1.00  0.00     0.016 A 
ATOM     44  C   UNL A   1      39.200  28.925  30.644  1.00  0.00     0.010 A 
ATOM     45  C   UNL A   1      38.714  29.559  28.344  1.00  0.00     0.010 A 
ATOM     46  C   UNL A   1      39.515  28.880  29.282  1.00  0.00    -0.014 A 
BRANCH  46  47
ATOM     47  C   UNL A   1      40.871  28.429  28.905  1.00  0.00     0.031 A 
ATOM     48  C   UNL A   1      41.983  29.439  29.014  1.00  0.00     0.074 A 
ATOM     49  C   UNL A   1      41.127  27.159  28.556  1.00  0.00     0.049 A 
ATOM     50  N   UNL A   1      43.260  29.309  28.762  1.00  0.00    -0.248 NA
ATOM     51  C   UNL A   1      41.598  30.785  29.475  1.00  0.00     0.031 C 
ATOM     52  C   UNL A   1      40.140  26.083  28.481  1.00  0.00     0.029 A 
ATOM     53  N   UNL A   1      42.310  26.562  28.205  1.00  0.00    -0.354 N 
ATOM     54  C   UNL A   1      43.820  30.556  29.018  1.00  0.00     0.074 A 
ATOM     55  C   UNL A   1      42.746  31.437  29.413  1.00  0.00     0.031 C 
ATOM     56  C   UNL A   1      40.764  24.952  28.104  1.00  0.00     0.029 A 
ATOM     57  C   UNL A   1      42.182  25.235  27.884  1.00  0.00     0.049 A 
ATOM     58  H   UNL A   1      43.169  27.042  28.186  1.00  0.00     0.167 HD
ATOM     59  C   UNL A   1      45.116  30.933  28.938  1.00  0.00     0.037 A 
ATOM     60  C   UNL A   1      43.110  24.361  27.450  1.00  0.00     0.037 A 
ATOM     61  C   UNL A   1      46.179  30.048  28.544  1.00  0.00     0.049 A 
ATOM     62  C   UNL A   1      44.537  24.824  27.295  1.00  0.00     0.074 A 
ATOM     63  C   UNL A   1      47.530  30.317  28.437  1.00  0.00     0.029 A 
ATOM     64  N   UNL A   1      46.001  28.721  28.180  1.00  0.00    -0.354 N 
ATOM     65  N   UNL A   1      45.064  25.997  27.552  1.00  0.00    -0.248 NA
ATOM     66  C   UNL A   1      45.500  23.832  26.796  1.00  0.00     0.031 C 
ATOM     67  C   UNL A   1      48.164  29.171  27.947  1.00  0.00     0.029 A 
ATOM     68  C   UNL A   1      47.217  28.165  27.822  1.00  0.00     0.049 A 
ATOM     69  H   UNL A   1      45.139  28.246  28.176  1.00  0.00     0.167 HD
ATOM     70  C   UNL A   1      46.425  25.871  27.294  1.00  0.00     0.074 A 
ATOM     71  C   UNL A   1      46.639  24.505  26.862  1.00  0.00     0.031 C 
ATOM     72  C   UNL A   1      47.411  26.797  27.410  1.00  0.00     0.037 A 
BRANCH  59  73
ATOM     73  C   UNL A   1      45.435  32.370  29.233  1.00  0.00     0.057 A 
ATOM     74  C   UNL A   1      45.695  32.832  30.530  1.00  0.00     0.134 A 
ATOM     75  C   UNL A   1      45.471  33.311  28.197  1.00  0.00     0.134 A 
ATOM     76  F   UNL A   1      45.654  31.988  31.574  1.00  0.00    -0.206 F 
ATOM     77  C   UNL A   1      45.946  34.180  30.790  1.00  0.00     0.040 A 
ATOM     78  C   UNL A   1      45.753  34.657  28.438  1.00  0.00     0.040 A 
ATOM     79  F   UNL A   1      45.229  32.940  26.930  1.00  0.00    -0.206 F 
ATOM     80  C   UNL A   1      45.982  35.096  29.741  1.00  0.00     0.006 A 
ENDBRANCH  59  73
BRANCH  60  81
ATOM     81  C   UNL A   1      42.729  22.960  27.139  1.00  0.00     0.057 A 
ATOM     82  C   UNL A   1      42.552  22.532  25.818  1.00  0.00     0.134 A 
ATOM     83  C   UNL A   1      42.503  22.022  28.155  1.00  0.00     0.134 A 
ATOM     84  F   UNL A   1      42.729  23.389  24.802  1.00  0.00    -0.206 F 
ATOM     85  C   UNL A   1      42.148  21.230  25.517  1.00  0.00     0.040 A 
ATOM     86  C   UNL A   1      42.126  20.709  27.868  1.00  0.00     0.040 A 
ATOM     87  F   UNL A   1      42.654  22.367  29.442  1.00  0.00    -0.206 F 
ATOM     88  C   UNL A   1      41.939  20.312  26.545  1.00  0.00     0.006 A 
ENDBRANCH  60  81
BRANCH  72  89
ATOM     89  C   UNL A   1      48.818  26.344  27.139  1.00  0.00     0.057 A 
ATOM     90  C   UNL A   1      49.615  25.738  28.118  1.00  0.00     0.134 A 
ATOM     91  C   UNL A   1      49.369  26.491  25.858  1.00  0.00     0.134 A 
ATOM     92  F   UNL A   1      49.152  25.572  29.366  1.00  0.00    -0.206 F 
ATOM     93  C   UNL A   1      50.922  25.333  27.845  1.00  0.00     0.040 A 
ATOM     94  C   UNL A   1      50.662  26.057  25.564  1.00  0.00     0.040 A 
ATOM     95  F   UNL A   1      48.656  27.048  24.867  1.00  0.00    -0.206 F 
ATOM     96  C   UNL A   1      51.447  25.486  26.562  1.00  0.00     0.006 A 
ENDBRANCH  72  89
ENDBRANCH  46  47
ENDBRANCH  39  41
ENDBRANCH  38  39
ENDBRANCH  37  38
ENDBRANCH  36  37
ENDBRANCH  35  36
ENDBRANCH  34  35
ENDBRANCH  33  34
ENDBRANCH  32  33
ENDBRANCH   1  32
TORSDOF 24
ENDMDL
MODEL 2
REMARK VINA RESULT:     -10.0      5.147     10.477
REMARK SMILES O=C(COc1ccccc1/C=C1/SC(=O)N(c2ccc(F)cc2)C1=O)OCCOCCOCCOCCOC(=O)c1ccc(-c2c3nc(c(-c4c(F)cccc4F)c4ccc([nH]4)c(-c4c(F)cccc4F)c4nc(c(-c5c(F)cccc5F)c5ccc2[nH]5)C=C4)C=C3)cc1
REMARK SMILES IDX 31 1 30 2 29 3 28 4 27 5 26 6 2 7 1 8 3 9 4 10 5 11 6 12
REMARK SMILES IDX 10 13 7 14 9 15 8 16 11 17 12 18 13 19 24 20 14 21 16 22
REMARK SMILES IDX 25 23 15 24 17 25 18 26 23 27 19 28 22 29 20 30 21 31 32 32
REMARK SMILES IDX 33 33 34 34 35 35 36 36 37 37 38 38 39 39 40 40 41 41 42 42
REMARK SMILES IDX 94 43 43 44 93 45 44 46 45 47 46 48 87 49 47 50 92 51 86 52
REMARK SMILES IDX 88 53 48 54 91 55 85 56 84 57 49 59 75 60 58 61 74 62 59 63
REMARK SMILES IDX 62 64 73 65 89 66 60 67 61 68 72 70 90 71 63 72 50 73 51 74
REMARK SMILES IDX 56 75 52 76 53 77 55 78 57 79 54 80 76 81 77 82 82 83 78 84
REMARK SMILES IDX 79 85 81 86 83 87 80 88 64 89 65 90 70 91 66 92 67 93 69 94
REMARK SMILES IDX 71 95 68 96
REMARK H PARENT 88 58 62 69
REMARK Flexibility Score: inf
ROOT
ATOM      1  C   UNL A   1      35.076  19.952  24.656  1.00  0.00     0.188 C 
ENDROOT
BRANCH   1   2
ATOM      2  C   UNL A   1      33.702  19.247  24.790  1.00  0.00     0.188 C 
BRANCH   2   3
ATOM      3  O   UNL A   1      32.571  19.799  24.135  1.00  0.00    -0.376 OA
BRANCH   3   4
ATOM      4  C   UNL A   1      32.154  19.642  22.801  1.00  0.00     0.202 C 
BRANCH   4   5
ATOM      5  C   UNL A   1      31.872  20.827  21.897  1.00  0.00     0.261 C 
BRANCH   5   6
ATOM      6  O   UNL A   1      32.095  22.122  22.466  1.00  0.00    -0.461 OA
BRANCH   6   7
ATOM      7  C   UNL A   1      33.168  22.915  22.229  1.00  0.00     0.344 C 
ATOM      8  O   UNL A   1      33.278  23.511  21.162  1.00  0.00    -0.248 OA
BRANCH   7   9
ATOM      9  C   UNL A   1      34.188  23.026  23.322  1.00  0.00     0.351 C 
BRANCH   9  10
ATOM     10  O   UNL A   1      33.859  24.149  24.134  1.00  0.00    -0.481 OA
BRANCH  10  11
ATOM     11  C   UNL A   1      32.922  23.803  25.067  1.00  0.00     0.127 A 
ATOM     12  C   UNL A   1      33.404  22.929  26.045  1.00  0.00     0.047 A 
ATOM     13  C   UNL A   1      31.596  24.281  25.081  1.00  0.00     0.018 A 
ATOM     14  C   UNL A   1      32.591  22.579  27.110  1.00  0.00     0.004 A 
ATOM     15  C   UNL A   1      30.804  23.931  26.178  1.00  0.00     0.012 A 
ATOM     16  C   UNL A   1      31.299  23.094  27.185  1.00  0.00     0.001 A 
BRANCH  13  17
ATOM     17  C   UNL A   1      30.980  25.181  24.080  1.00  0.00     0.033 C 
ATOM     18  C   UNL A   1      31.153  26.506  23.942  1.00  0.00     0.084 C 
ATOM     19  S   UNL A   1      30.210  27.486  22.876  1.00  0.00    -0.022 SA
ATOM     20  C   UNL A   1      32.023  27.383  24.769  1.00  0.00     0.272 C 
ATOM     21  C   UNL A   1      30.552  28.945  23.807  1.00  0.00     0.298 C 
ATOM     22  N   UNL A   1      31.600  28.707  24.671  1.00  0.00    -0.236 N 
ATOM     23  O   UNL A   1      32.919  26.939  25.473  1.00  0.00    -0.268 OA
ATOM     24  O   UNL A   1      29.906  29.971  23.648  1.00  0.00    -0.260 OA
BRANCH  22  25
ATOM     25  C   UNL A   1      32.153  29.709  25.527  1.00  0.00     0.053 A 
ATOM     26  C   UNL A   1      33.441  29.536  26.062  1.00  0.00     0.030 A 
ATOM     27  C   UNL A   1      31.416  30.838  25.924  1.00  0.00     0.030 A 
ATOM     28  C   UNL A   1      33.956  30.420  27.011  1.00  0.00     0.041 A 
ATOM     29  C   UNL A   1      31.923  31.710  26.896  1.00  0.00     0.041 A 
ATOM     30  C   UNL A   1      33.183  31.486  27.437  1.00  0.00     0.123 A 
ATOM     31  F   UNL A   1      33.653  32.303  28.387  1.00  0.00    -0.207 F 
ENDBRANCH  22  25
ENDBRANCH  13  17
ENDBRANCH  10  11
ENDBRANCH   9  10
ENDBRANCH   7   9
ENDBRANCH   6   7
ENDBRANCH   5   6
ENDBRANCH   4   5
ENDBRANCH   3   4
ENDBRANCH   2   3
ENDBRANCH   1   2
BRANCH   1  32
ATOM     32  O   UNL A   1      36.251  19.231  25.004  1.00  0.00    -0.377 OA
BRANCH  32  33
ATOM     33  C   UNL A   1      37.467  19.956  24.928  1.00  0.00     0.188 C 
BRANCH  33  34
ATOM     34  C   UNL A   1      37.260  21.421  24.513  1.00  0.00     0.188 C 
BRANCH  34  35
ATOM     35  O   UNL A   1      37.481  22.346  25.564  1.00  0.00    -0.376 OA
BRANCH  35  36
ATOM     36  C   UNL A   1      38.782  22.457  26.118  1.00  0.00     0.202 C 
BRANCH  36  37
ATOM     37  C   UNL A   1      39.315  23.826  26.589  1.00  0.00     0.261 C 
BRANCH  37  38
ATOM     38  O   UNL A   1      40.735  24.033  26.509  1.00  0.00    -0.460 OA
BRANCH  38  39
ATOM     39  C   UNL A   1      41.176  25.247  26.118  1.00  0.00     0.338 C 
ATOM     40  O   UNL A   1      41.834  25.517  25.138  1.00  0.00    -0.246 OA
BRANCH  39  41
ATOM     41  C   UNL A   1      40.511  26.253  26.978  1.00  0.00     0.060 A 
ATOM     42  C   UNL A   1      40.784  27.611  26.752  1.00  0.00     0.016 A 
ATOM     43  C   UNL A   1      39.644  25.862  27.999  1.00  0.00     0.016 A 
ATOM     44  C   UNL A   1      40.242  28.580  27.586  1.00  0.00     0.010 A 
ATOM     45  C   UNL A   1      39.133  26.830  28.866  1.00  0.00     0.010 A 
ATOM     46  C   UNL A   1      39.486  28.181  28.695  1.00  0.00    -0.014 A 
BRANCH  46  47
ATOM     47  C   UNL A   1      39.392  29.119  29.834  1.00  0.00     0.031 A 
ATOM     48  C   UNL A   1      40.390  28.946  30.948  1.00  0.00     0.074 A 
ATOM     49  C   UNL A   1      38.512  30.132  29.849  1.00  0.00     0.049 A 
ATOM     50  N   UNL A   1      40.541  29.632  32.051  1.00  0.00    -0.248 NA
ATOM     51  C   UNL A   1      41.356  27.843  30.792  1.00  0.00     0.031 C 
ATOM     52  C   UNL A   1      37.545  30.434  28.796  1.00  0.00     0.029 A 
ATOM     53  N   UNL A   1      38.301  31.102  30.794  1.00  0.00    -0.354 N 
ATOM     54  C   UNL A   1      41.602  29.033  32.721  1.00  0.00     0.074 A 
ATOM     55  C   UNL A   1      42.039  27.912  31.922  1.00  0.00     0.031 C 
ATOM     56  C   UNL A   1      36.839  31.521  29.157  1.00  0.00     0.029 A 
ATOM     57  C   UNL A   1      37.287  31.968  30.476  1.00  0.00     0.049 A 
ATOM     58  H   UNL A   1      38.829  31.169  31.623  1.00  0.00     0.167 HD
ATOM     59  C   UNL A   1      42.170  29.389  33.895  1.00  0.00     0.037 A 
ATOM     60  C   UNL A   1      36.778  32.994  31.184  1.00  0.00     0.037 A 
ATOM     61  C   UNL A   1      41.729  30.507  34.685  1.00  0.00     0.049 A 
ATOM     62  C   UNL A   1      37.376  33.326  32.527  1.00  0.00     0.074 A 
ATOM     63  C   UNL A   1      42.234  30.968  35.886  1.00  0.00     0.029 A 
ATOM     64  N   UNL A   1      40.665  31.333  34.351  1.00  0.00    -0.354 N 
ATOM     65  N   UNL A   1      38.387  32.769  33.150  1.00  0.00    -0.248 NA
ATOM     66  C   UNL A   1      36.763  34.442  33.263  1.00  0.00     0.031 C 
ATOM     67  C   UNL A   1      41.436  32.035  36.312  1.00  0.00     0.029 A 
ATOM     68  C   UNL A   1      40.482  32.286  35.337  1.00  0.00     0.049 A 
ATOM     69  H   UNL A   1      40.122  31.253  33.534  1.00  0.00     0.167 HD
ATOM     70  C   UNL A   1      38.563  33.493  34.324  1.00  0.00     0.074 A 
ATOM     71  C   UNL A   1      37.554  34.532  34.323  1.00  0.00     0.031 C 
ATOM     72  C   UNL A   1      39.480  33.323  35.309  1.00  0.00     0.037 A 
BRANCH  59  73
ATOM     73  C   UNL A   1      43.286  28.527  34.411  1.00  0.00     0.057 A 
ATOM     74  C   UNL A   1      43.059  27.420  35.240  1.00  0.00     0.134 A 
ATOM     75  C   UNL A   1      44.614  28.819  34.078  1.00  0.00     0.134 A 
ATOM     76  F   UNL A   1      41.812  27.097  35.618  1.00  0.00    -0.206 F 
ATOM     77  C   UNL A   1      44.114  26.657  35.745  1.00  0.00     0.040 A 
ATOM     78  C   UNL A   1      45.675  28.045  34.549  1.00  0.00     0.040 A 
ATOM     79  F   UNL A   1      44.905  29.866  33.289  1.00  0.00    -0.206 F 
ATOM     80  C   UNL A   1      45.426  26.965  35.394  1.00  0.00     0.006 A 
ENDBRANCH  59  73
BRANCH  60  81
ATOM     81  C   UNL A   1      35.648  33.789  30.639  1.00  0.00     0.057 A 
ATOM     82  C   UNL A   1      35.795  34.559  29.479  1.00  0.00     0.134 A 
ATOM     83  C   UNL A   1      34.402  33.822  31.278  1.00  0.00     0.134 A 
ATOM     84  F   UNL A   1      36.971  34.589  28.834  1.00  0.00    -0.206 F 
ATOM     85  C   UNL A   1      34.754  35.347  28.985  1.00  0.00     0.040 A 
ATOM     86  C   UNL A   1      33.343  34.583  30.780  1.00  0.00     0.040 A 
ATOM     87  F   UNL A   1      34.195  33.108  32.394  1.00  0.00    -0.206 F 
ATOM     88  C   UNL A   1      33.521  35.355  29.634  1.00  0.00     0.006 A 
ENDBRANCH  60  81
BRANCH  72  89
ATOM     89  C   UNL A   1      39.482  34.324  36.430  1.00  0.00     0.057 A 
ATOM     90  C   UNL A   1      40.041  35.601  36.298  1.00  0.00     0.134 A 
ATOM     91  C   UNL A   1      38.880  34.007  37.657  1.00  0.00     0.134 A 
ATOM     92  F   UNL A   1      40.638  35.966  35.153  1.00  0.00    -0.206 F 
ATOM     93  C   UNL A   1      40.038  36.511  37.356  1.00  0.00     0.040 A 
ATOM     94  C   UNL A   1      38.840  34.922  38.709  1.00  0.00     0.040 A 
ATOM     95  F   UNL A   1      38.310  32.807  37.849  1.00  0.00    -0.206 F 
ATOM     96  C   UNL A   1      39.430  36.174  38.564  1.00  0.00     0.006 A 
ENDBRANCH  72  89
ENDBRANCH  46  47
ENDBRANCH  39  41
ENDBRANCH  38  39
ENDBRANCH  37  38
ENDBRANCH  36  37
ENDBRANCH  35  36
ENDBRANCH  34  35
ENDBRANCH  33  34
ENDBRANCH  32  33
ENDBRANCH   1  32
TORSDOF 24
ENDMDL
MODEL 3
REMARK VINA RESULT:      -9.6      4.375      7.955
REMARK SMILES O=C(COc1ccccc1/C=C1/SC(=O)N(c2ccc(F)cc2)C1=O)OCCOCCOCCOCCOC(=O)c1ccc(-c2c3nc(c(-c4c(F)cccc4F)c4ccc([nH]4)c(-c4c(F)cccc4F)c4nc(c(-c5c(F)cccc5F)c5ccc2[nH]5)C=C4)C=C3)cc1
REMARK SMILES IDX 31 1 30 2 29 3 28 4 27 5 26 6 2 7 1 8 3 9 4 10 5 11 6 12
REMARK SMILES IDX 10 13 7 14 9 15 8 16 11 17 12 18 13 19 24 20 14 21 16 22
REMARK SMILES IDX 25 23 15 24 17 25 18 26 23 27 19 28 22 29 20 30 21 31 32 32
REMARK SMILES IDX 33 33 34 34 35 35 36 36 37 37 38 38 39 39 40 40 41 41 42 42
REMARK SMILES IDX 94 43 43 44 93 45 44 46 45 47 46 48 87 49 47 50 92 51 86 52
REMARK SMILES IDX 88 53 48 54 91 55 85 56 84 57 49 59 75 60 58 61 74 62 59 63
REMARK SMILES IDX 62 64 73 65 89 66 60 67 61 68 72 70 90 71 63 72 50 73 51 74
REMARK SMILES IDX 56 75 52 76 53 77 55 78 57 79 54 80 76 81 77 82 82 83 78 84
REMARK SMILES IDX 79 85 81 86 83 87 80 88 64 89 65 90 70 91 66 92 67 93 69 94
REMARK SMILES IDX 71 95 68 96
REMARK H PARENT 88 58 62 69
REMARK Flexibility Score: inf
ROOT
ATOM      1  C   UNL A   1      31.776  28.823  22.728  1.00  0.00     0.188 C 
ENDROOT
BRANCH   1   2
ATOM      2  C   UNL A   1      30.681  27.735  22.871  1.00  0.00     0.188 C 
BRANCH   2   3
ATOM      3  O   UNL A   1      30.766  26.556  22.086  1.00  0.00    -0.376 OA
BRANCH   3   4
ATOM      4  C   UNL A   1      31.463  26.339  20.884  1.00  0.00     0.202 C 
BRANCH   4   5
ATOM      5  C   UNL A   1      32.527  25.265  20.750  1.00  0.00     0.261 C 
BRANCH   5   6
ATOM      6  O   UNL A   1      33.728  25.469  21.502  1.00  0.00    -0.461 OA
BRANCH   6   7
ATOM      7  C   UNL A   1      34.005  24.924  22.711  1.00  0.00     0.344 C 
ATOM      8  O   UNL A   1      34.680  23.902  22.794  1.00  0.00    -0.248 OA
BRANCH   7   9
ATOM      9  C   UNL A   1      33.458  25.628  23.917  1.00  0.00     0.351 C 
BRANCH   9  10
ATOM     10  O   UNL A   1      34.362  25.434  25.001  1.00  0.00    -0.481 OA
BRANCH  10  11
ATOM     11  C   UNL A   1      33.828  24.570  25.915  1.00  0.00     0.127 A 
ATOM     12  C   UNL A   1      32.579  24.969  26.398  1.00  0.00     0.047 A 
ATOM     13  C   UNL A   1      34.443  23.373  26.336  1.00  0.00     0.018 A 
ATOM     14  C   UNL A   1      31.876  24.135  27.251  1.00  0.00     0.004 A 
ATOM     15  C   UNL A   1      33.704  22.539  27.180  1.00  0.00     0.012 A 
ATOM     16  C   UNL A   1      32.431  22.914  27.627  1.00  0.00     0.001 A 
BRANCH  13  17
ATOM     17  C   UNL A   1      35.771  22.876  25.911  1.00  0.00     0.033 C 
ATOM     18  C   UNL A   1      36.068  21.703  25.328  1.00  0.00     0.084 C 
ATOM     19  S   UNL A   1      37.683  21.142  25.080  1.00  0.00    -0.022 SA
ATOM     20  C   UNL A   1      35.115  20.623  24.961  1.00  0.00     0.272 C 
ATOM     21  C   UNL A   1      37.157  19.460  25.001  1.00  0.00     0.298 C 
ATOM     22  N   UNL A   1      35.789  19.410  24.839  1.00  0.00    -0.236 N 
ATOM     23  O   UNL A   1      33.911  20.817  24.869  1.00  0.00    -0.268 OA
ATOM     24  O   UNL A   1      37.954  18.536  25.088  1.00  0.00    -0.260 OA
BRANCH  22  25
ATOM     25  C   UNL A   1      35.061  18.190  24.687  1.00  0.00     0.053 A 
ATOM     26  C   UNL A   1      33.799  18.202  24.070  1.00  0.00     0.030 A 
ATOM     27  C   UNL A   1      35.532  16.973  25.211  1.00  0.00     0.030 A 
ATOM     28  C   UNL A   1      33.000  17.059  24.032  1.00  0.00     0.041 A 
ATOM     29  C   UNL A   1      34.718  15.833  25.195  1.00  0.00     0.041 A 
ATOM     30  C   UNL A   1      33.457  15.890  24.616  1.00  0.00     0.123 A 
ATOM     31  F   UNL A   1      32.670  14.808  24.629  1.00  0.00    -0.207 F 
ENDBRANCH  22  25
ENDBRANCH  13  17
ENDBRANCH  10  11
ENDBRANCH   9  10
ENDBRANCH   7   9
ENDBRANCH   6   7
ENDBRANCH   5   6
ENDBRANCH   4   5
ENDBRANCH   3   4
ENDBRANCH   2   3
ENDBRANCH   1   2
BRANCH   1  32
ATOM     32  O   UNL A   1      32.996  28.662  23.439  1.00  0.00    -0.377 OA
BRANCH  32  33
ATOM     33  C   UNL A   1      33.086  29.345  24.678  1.00  0.00     0.188 C 
BRANCH  33  34
ATOM     34  C   UNL A   1      31.745  29.950  25.121  1.00  0.00     0.188 C 
BRANCH  34  35
ATOM     35  O   UNL A   1      31.872  30.940  26.127  1.00  0.00    -0.376 OA
BRANCH  35  36
ATOM     36  C   UNL A   1      32.639  30.646  27.285  1.00  0.00     0.202 C 
BRANCH  36  37
ATOM     37  C   UNL A   1      33.828  31.544  27.682  1.00  0.00     0.261 C 
BRANCH  37  38
ATOM     38  O   UNL A   1      33.772  32.919  27.265  1.00  0.00    -0.460 OA
BRANCH  38  39
ATOM     39  C   UNL A   1      33.513  33.853  28.203  1.00  0.00     0.338 C 
ATOM     40  O   UNL A   1      32.529  34.550  28.305  1.00  0.00    -0.246 OA
BRANCH  39  41
ATOM     41  C   UNL A   1      34.553  33.723  29.250  1.00  0.00     0.060 A 
ATOM     42  C   UNL A   1      35.876  34.065  28.924  1.00  0.00     0.016 A 
ATOM     43  C   UNL A   1      34.232  33.260  30.527  1.00  0.00     0.016 A 
ATOM     44  C   UNL A   1      36.891  33.883  29.854  1.00  0.00     0.010 A 
ATOM     45  C   UNL A   1      35.257  33.035  31.447  1.00  0.00     0.010 A 
ATOM     46  C   UNL A   1      36.593  33.287  31.084  1.00  0.00    -0.014 A 
BRANCH  46  47
ATOM     47  C   UNL A   1      37.693  32.612  31.805  1.00  0.00     0.031 A 
ATOM     48  C   UNL A   1      38.362  31.457  31.107  1.00  0.00     0.074 A 
ATOM     49  C   UNL A   1      38.138  33.049  32.993  1.00  0.00     0.049 A 
ATOM     50  N   UNL A   1      39.353  30.701  31.501  1.00  0.00    -0.248 NA
ATOM     51  C   UNL A   1      37.836  31.109  29.774  1.00  0.00     0.031 C 
ATOM     52  C   UNL A   1      37.610  34.196  33.729  1.00  0.00     0.029 A 
ATOM     53  N   UNL A   1      39.150  32.572  33.785  1.00  0.00    -0.354 N 
ATOM     54  C   UNL A   1      39.554  29.784  30.475  1.00  0.00     0.074 A 
ATOM     55  C   UNL A   1      38.567  30.054  29.456  1.00  0.00     0.031 C 
ATOM     56  C   UNL A   1      38.307  34.333  34.872  1.00  0.00     0.029 A 
ATOM     57  C   UNL A   1      39.305  33.267  34.957  1.00  0.00     0.049 A 
ATOM     58  H   UNL A   1      39.712  31.803  33.534  1.00  0.00     0.167 HD
ATOM     59  C   UNL A   1      40.485  28.808  30.385  1.00  0.00     0.037 A 
ATOM     60  C   UNL A   1      40.151  33.049  35.981  1.00  0.00     0.037 A 
ATOM     61  C   UNL A   1      41.465  28.546  31.404  1.00  0.00     0.049 A 
ATOM     62  C   UNL A   1      41.130  31.906  35.893  1.00  0.00     0.074 A 
ATOM     63  C   UNL A   1      42.463  27.590  31.416  1.00  0.00     0.029 A 
ATOM     64  N   UNL A   1      41.559  29.243  32.600  1.00  0.00    -0.354 N 
ATOM     65  N   UNL A   1      41.328  31.052  34.916  1.00  0.00    -0.248 NA
ATOM     66  C   UNL A   1      42.013  31.703  37.051  1.00  0.00     0.031 C 
ATOM     67  C   UNL A   1      43.121  27.665  32.647  1.00  0.00     0.029 A 
ATOM     68  C   UNL A   1      42.583  28.720  33.370  1.00  0.00     0.049 A 
ATOM     69  H   UNL A   1      40.983  29.997  32.862  1.00  0.00     0.167 HD
ATOM     70  C   UNL A   1      42.385  30.244  35.320  1.00  0.00     0.074 A 
ATOM     71  C   UNL A   1      42.787  30.714  36.630  1.00  0.00     0.031 C 
ATOM     72  C   UNL A   1      42.978  29.213  34.666  1.00  0.00     0.037 A 
BRANCH  59  73
ATOM     73  C   UNL A   1      40.444  27.927  29.169  1.00  0.00     0.057 A 
ATOM     74  C   UNL A   1      39.653  26.772  29.105  1.00  0.00     0.134 A 
ATOM     75  C   UNL A   1      41.220  28.237  28.046  1.00  0.00     0.134 A 
ATOM     76  F   UNL A   1      38.902  26.402  30.154  1.00  0.00    -0.206 F 
ATOM     77  C   UNL A   1      39.661  25.941  27.983  1.00  0.00     0.040 A 
ATOM     78  C   UNL A   1      41.212  27.434  26.905  1.00  0.00     0.040 A 
ATOM     79  F   UNL A   1      42.003  29.328  28.038  1.00  0.00    -0.206 F 
ATOM     80  C   UNL A   1      40.438  26.276  26.876  1.00  0.00     0.006 A 
ENDBRANCH  59  73
BRANCH  60  81
ATOM     81  C   UNL A   1      40.121  33.932  37.175  1.00  0.00     0.057 A 
ATOM     82  C   UNL A   1      40.946  35.059  37.264  1.00  0.00     0.134 A 
ATOM     83  C   UNL A   1      39.289  33.656  38.267  1.00  0.00     0.134 A 
ATOM     84  F   UNL A   1      41.783  35.364  36.261  1.00  0.00    -0.206 F 
ATOM     85  C   UNL A   1      40.961  35.869  38.402  1.00  0.00     0.040 A 
ATOM     86  C   UNL A   1      39.272  34.472  39.399  1.00  0.00     0.040 A 
ATOM     87  F   UNL A   1      38.475  32.590  38.246  1.00  0.00    -0.206 F 
ATOM     88  C   UNL A   1      40.117  35.578  39.472  1.00  0.00     0.006 A 
ENDBRANCH  60  81
BRANCH  72  89
ATOM     89  C   UNL A   1      44.169  28.573  35.322  1.00  0.00     0.057 A 
ATOM     90  C   UNL A   1      44.049  27.513  36.228  1.00  0.00     0.134 A 
ATOM     91  C   UNL A   1      45.464  29.012  35.010  1.00  0.00     0.134 A 
ATOM     92  F   UNL A   1      42.839  27.049  36.576  1.00  0.00    -0.206 F 
ATOM     93  C   UNL A   1      45.169  26.939  36.831  1.00  0.00     0.040 A 
ATOM     94  C   UNL A   1      46.593  28.422  35.579  1.00  0.00     0.040 A 
ATOM     95  F   UNL A   1      45.654  30.013  34.136  1.00  0.00    -0.206 F 
ATOM     96  C   UNL A   1      46.447  27.390  36.501  1.00  0.00     0.006 A 
ENDBRANCH  72  89
ENDBRANCH  46  47
ENDBRANCH  39  41
ENDBRANCH  38  39
ENDBRANCH  37  38
ENDBRANCH  36  37
ENDBRANCH  35  36
ENDBRANCH  34  35
ENDBRANCH  33  34
ENDBRANCH  32  33
ENDBRANCH   1  32
TORSDOF 24
ENDMDL
