MODEL 1
REMARK VINA RESULT:     -10.4      0.000      0.000
REMARK SMILES C[C@@H]1CN(C(=O)N2CC(CC(=O)OCCOCCOCCOCCOC(=O)c3ccc(-c4c5nc(c(-c6c(F)cccc6F)c6ccc([nH]6)c(-c6c(F)cccc6F)c6nc(c(-c7c(F)cccc7F)c7ccc4[nH]7)C=C6)C=C5)cc3)C2)C[C@H]1C
REMARK SMILES IDX 20 1 19 2 18 3 17 4 16 5 15 6 14 7 13 8 11 9 12 10 10 11
REMARK SMILES IDX 9 12 1 13 2 14 3 15 84 16 4 17 83 18 85 19 5 20 6 21 7 22
REMARK SMILES IDX 8 23 82 24 21 25 22 26 23 27 24 28 25 29 26 30 27 31 28 32
REMARK SMILES IDX 29 33 81 34 30 35 80 36 31 37 32 38 33 39 74 40 34 41 79 42
REMARK SMILES IDX 73 43 75 44 35 45 78 46 72 47 71 48 36 50 62 51 45 52 61 53
REMARK SMILES IDX 46 54 49 55 60 56 76 57 47 58 48 59 59 61 77 62 50 63 37 64
REMARK SMILES IDX 38 65 43 66 39 67 40 68 42 69 44 70 41 71 63 72 64 73 69 74
REMARK SMILES IDX 65 75 66 76 68 77 70 78 67 79 51 80 52 81 57 82 53 83 54 84
REMARK SMILES IDX 56 85 58 86 55 87
REMARK H PARENT 75 49 49 60
REMARK Flexibility Score: inf
ROOT
ATOM      1  C   UNL A   1      37.825  21.643  25.611  1.00  0.00     0.188 C 
ENDROOT
BRANCH   1   2
ATOM      2  O   UNL A   1      37.407  22.185  24.364  1.00  0.00    -0.377 OA
BRANCH   2   3
ATOM      3  C   UNL A   1      36.771  23.446  24.363  1.00  0.00     0.188 C 
BRANCH   3   4
ATOM      4  C   UNL A   1      36.280  23.947  25.724  1.00  0.00     0.188 C 
BRANCH   4   5
ATOM      5  O   UNL A   1      34.903  23.892  26.039  1.00  0.00    -0.376 OA
BRANCH   5   6
ATOM      6  C   UNL A   1      34.404  22.895  26.918  1.00  0.00     0.202 C 
BRANCH   6   7
ATOM      7  C   UNL A   1      34.234  21.414  26.517  1.00  0.00     0.261 C 
BRANCH   7   8
ATOM      8  O   UNL A   1      32.892  20.898  26.372  1.00  0.00    -0.463 OA
BRANCH   8   9
ATOM      9  C   UNL A   1      32.581  20.388  25.160  1.00  0.00     0.306 C 
ATOM     10  O   UNL A   1      31.981  19.328  24.995  1.00  0.00    -0.252 OA
BRANCH   9  11
ATOM     11  C   UNL A   1      33.062  21.185  23.974  1.00  0.00     0.130 C 
BRANCH  11  12
ATOM     12  C   UNL A   1      32.305  22.404  23.466  1.00  0.00     0.039 C 
ATOM     13  C   UNL A   1      32.880  28.023  27.200  1.00  0.00     0.010 C 
ATOM     14  C   UNL A   1      31.764  27.792  26.190  1.00  0.00     0.010 C 
ATOM     15  C   UNL A   1      31.825  26.381  25.602  1.00  0.00     0.125 C 
ATOM     16  C   UNL A   1      31.867  28.703  24.953  1.00  0.00     0.010 C 
ATOM     17  N   UNL A   1      31.483  26.529  24.198  1.00  0.00    -0.324 N 
ATOM     18  C   UNL A   1      31.121  27.900  23.887  1.00  0.00     0.125 C 
ATOM     19  C   UNL A   1      31.289  30.090  25.177  1.00  0.00     0.010 C 
ATOM     20  C   UNL A   1      31.844  25.628  23.217  1.00  0.00     0.320 C 
ATOM     21  O   UNL A   1      31.799  25.893  22.018  1.00  0.00    -0.248 OA
ATOM     22  N   UNL A   1      32.372  24.453  23.690  1.00  0.00    -0.324 N 
ATOM     23  C   UNL A   1      33.231  23.527  22.982  1.00  0.00     0.127 C 
ATOM     24  C   UNL A   1      31.684  23.409  24.449  1.00  0.00     0.127 C 
ENDBRANCH  11  12
ENDBRANCH   9  11
ENDBRANCH   8   9
ENDBRANCH   7   8
ENDBRANCH   6   7
ENDBRANCH   5   6
ENDBRANCH   4   5
ENDBRANCH   3   4
ENDBRANCH   2   3
ENDBRANCH   1   2
BRANCH   1  25
ATOM     25  C   UNL A   1      39.279  21.838  26.080  1.00  0.00     0.188 C 
BRANCH  25  26
ATOM     26  O   UNL A   1      40.053  20.647  26.119  1.00  0.00    -0.376 OA
BRANCH  26  27
ATOM     27  C   UNL A   1      41.343  20.685  26.713  1.00  0.00     0.202 C 
BRANCH  27  28
ATOM     28  C   UNL A   1      42.516  21.211  25.867  1.00  0.00     0.261 C 
BRANCH  28  29
ATOM     29  O   UNL A   1      42.347  22.500  25.257  1.00  0.00    -0.460 OA
BRANCH  29  30
ATOM     30  C   UNL A   1      43.319  23.424  25.416  1.00  0.00     0.338 C 
ATOM     31  O   UNL A   1      44.404  23.457  24.882  1.00  0.00    -0.246 OA
BRANCH  30  32
ATOM     32  C   UNL A   1      42.749  24.519  26.234  1.00  0.00     0.060 A 
ATOM     33  C   UNL A   1      43.342  25.788  26.184  1.00  0.00     0.016 A 
ATOM     34  C   UNL A   1      41.634  24.288  27.042  1.00  0.00     0.016 A 
ATOM     35  C   UNL A   1      42.842  26.824  26.976  1.00  0.00     0.010 A 
ATOM     36  C   UNL A   1      41.151  25.319  27.850  1.00  0.00     0.010 A 
ATOM     37  C   UNL A   1      41.773  26.581  27.847  1.00  0.00    -0.014 A 
BRANCH  37  38
ATOM     38  C   UNL A   1      41.435  27.553  28.914  1.00  0.00     0.031 A 
ATOM     39  C   UNL A   1      42.234  27.506  30.188  1.00  0.00     0.074 A 
ATOM     40  C   UNL A   1      40.431  28.438  28.776  1.00  0.00     0.049 A 
ATOM     41  N   UNL A   1      42.046  28.143  31.314  1.00  0.00    -0.248 NA
ATOM     42  C   UNL A   1      43.400  26.606  30.191  1.00  0.00     0.031 C 
ATOM     43  C   UNL A   1      39.623  28.623  27.574  1.00  0.00     0.029 A 
ATOM     44  N   UNL A   1      39.910  29.334  29.676  1.00  0.00    -0.354 N 
ATOM     45  C   UNL A   1      43.052  27.704  32.165  1.00  0.00     0.074 A 
ATOM     46  C   UNL A   1      43.839  26.736  31.434  1.00  0.00     0.031 C 
ATOM     47  C   UNL A   1      38.692  29.563  27.818  1.00  0.00     0.029 A 
ATOM     48  C   UNL A   1      38.810  30.010  29.205  1.00  0.00     0.049 A 
ATOM     49  H   UNL A   1      40.288  29.479  30.574  1.00  0.00     0.167 HD
ATOM     50  C   UNL A   1      43.296  28.073  33.444  1.00  0.00     0.037 A 
ATOM     51  C   UNL A   1      37.978  30.861  29.837  1.00  0.00     0.037 A 
ATOM     52  C   UNL A   1      42.514  29.040  34.166  1.00  0.00     0.049 A 
ATOM     53  C   UNL A   1      38.219  31.191  31.290  1.00  0.00     0.074 A 
ATOM     54  C   UNL A   1      42.697  29.503  35.456  1.00  0.00     0.029 A 
ATOM     55  N   UNL A   1      41.394  29.682  33.661  1.00  0.00    -0.354 N 
ATOM     56  N   UNL A   1      39.183  30.788  32.083  1.00  0.00    -0.248 NA
ATOM     57  C   UNL A   1      37.251  32.089  31.939  1.00  0.00     0.031 C 
ATOM     58  C   UNL A   1      41.648  30.378  35.756  1.00  0.00     0.029 A 
ATOM     59  C   UNL A   1      40.854  30.513  34.628  1.00  0.00     0.049 A 
ATOM     60  H   UNL A   1      41.036  29.565  32.752  1.00  0.00     0.167 HD
ATOM     61  C   UNL A   1      38.964  31.417  33.304  1.00  0.00     0.074 A 
ATOM     62  C   UNL A   1      37.775  32.228  33.148  1.00  0.00     0.031 C 
ATOM     63  C   UNL A   1      39.685  31.336  34.450  1.00  0.00     0.037 A 
BRANCH  50  64
ATOM     64  C   UNL A   1      44.430  27.398  34.160  1.00  0.00     0.057 A 
ATOM     65  C   UNL A   1      45.716  27.951  34.208  1.00  0.00     0.134 A 
ATOM     66  C   UNL A   1      44.217  26.194  34.843  1.00  0.00     0.134 A 
ATOM     67  F   UNL A   1      45.992  29.093  33.562  1.00  0.00    -0.206 F 
ATOM     68  C   UNL A   1      46.755  27.318  34.895  1.00  0.00     0.040 A 
ATOM     69  C   UNL A   1      45.240  25.568  35.556  1.00  0.00     0.040 A 
ATOM     70  F   UNL A   1      43.008  25.613  34.838  1.00  0.00    -0.206 F 
ATOM     71  C   UNL A   1      46.515  26.128  35.578  1.00  0.00     0.006 A 
ENDBRANCH  50  64
BRANCH  51  72
ATOM     72  C   UNL A   1      36.819  31.455  29.119  1.00  0.00     0.057 A 
ATOM     73  C   UNL A   1      35.685  30.689  28.818  1.00  0.00     0.134 A 
ATOM     74  C   UNL A   1      36.832  32.783  28.674  1.00  0.00     0.134 A 
ATOM     75  F   UNL A   1      35.621  29.403  29.193  1.00  0.00    -0.206 F 
ATOM     76  C   UNL A   1      34.621  31.213  28.081  1.00  0.00     0.040 A 
ATOM     77  C   UNL A   1      35.763  33.328  27.962  1.00  0.00     0.040 A 
ATOM     78  F   UNL A   1      37.887  33.573  28.927  1.00  0.00    -0.206 F 
ATOM     79  C   UNL A   1      34.656  32.539  27.655  1.00  0.00     0.006 A 
ENDBRANCH  51  72
BRANCH  63  80
ATOM     80  C   UNL A   1      39.257  32.188  35.610  1.00  0.00     0.057 A 
ATOM     81  C   UNL A   1      38.450  31.696  36.641  1.00  0.00     0.134 A 
ATOM     82  C   UNL A   1      39.728  33.505  35.729  1.00  0.00     0.134 A 
ATOM     83  F   UNL A   1      37.957  30.449  36.584  1.00  0.00    -0.206 F 
ATOM     84  C   UNL A   1      38.113  32.485  37.743  1.00  0.00     0.040 A 
ATOM     85  C   UNL A   1      39.424  34.292  36.840  1.00  0.00     0.040 A 
ATOM     86  F   UNL A   1      40.517  34.034  34.782  1.00  0.00    -0.206 F 
ATOM     87  C   UNL A   1      38.609  33.784  37.849  1.00  0.00     0.006 A 
ENDBRANCH  63  80
ENDBRANCH  37  38
ENDBRANCH  30  32
ENDBRANCH  29  30
ENDBRANCH  28  29
ENDBRANCH  27  28
ENDBRANCH  26  27
ENDBRANCH  25  26
ENDBRANCH   1  25
TORSDOF 21
ENDMDL
MODEL 2
REMARK VINA RESULT:     -10.3      1.375      2.243
REMARK SMILES C[C@@H]1CN(C(=O)N2CC(CC(=O)OCCOCCOCCOCCOC(=O)c3ccc(-c4c5nc(c(-c6c(F)cccc6F)c6ccc([nH]6)c(-c6c(F)cccc6F)c6nc(c(-c7c(F)cccc7F)c7ccc4[nH]7)C=C6)C=C5)cc3)C2)C[C@H]1C
REMARK SMILES IDX 20 1 19 2 18 3 17 4 16 5 15 6 14 7 13 8 11 9 12 10 10 11
REMARK SMILES IDX 9 12 1 13 2 14 3 15 84 16 4 17 83 18 85 19 5 20 6 21 7 22
REMARK SMILES IDX 8 23 82 24 21 25 22 26 23 27 24 28 25 29 26 30 27 31 28 32
REMARK SMILES IDX 29 33 81 34 30 35 80 36 31 37 32 38 33 39 74 40 34 41 79 42
REMARK SMILES IDX 73 43 75 44 35 45 78 46 72 47 71 48 36 50 62 51 45 52 61 53
REMARK SMILES IDX 46 54 49 55 60 56 76 57 47 58 48 59 59 61 77 62 50 63 37 64
REMARK SMILES IDX 38 65 43 66 39 67 40 68 42 69 44 70 41 71 63 72 64 73 69 74
REMARK SMILES IDX 65 75 66 76 68 77 70 78 67 79 51 80 52 81 57 82 53 83 54 84
REMARK SMILES IDX 56 85 58 86 55 87
REMARK H PARENT 75 49 49 60
REMARK Flexibility Score: inf
ROOT
ATOM      1  C   UNL A   1      38.127  21.459  25.434  1.00  0.00     0.188 C 
ENDROOT
BRANCH   1   2
ATOM      2  O   UNL A   1      37.442  22.645  25.050  1.00  0.00    -0.377 OA
BRANCH   2   3
ATOM      3  C   UNL A   1      36.102  22.808  25.465  1.00  0.00     0.188 C 
BRANCH   3   4
ATOM      4  C   UNL A   1      35.219  21.562  25.371  1.00  0.00     0.188 C 
BRANCH   4   5
ATOM      5  O   UNL A   1      34.318  21.418  24.291  1.00  0.00    -0.376 OA
BRANCH   5   6
ATOM      6  C   UNL A   1      32.978  21.008  24.520  1.00  0.00     0.202 C 
BRANCH   6   7
ATOM      7  C   UNL A   1      32.049  21.671  25.558  1.00  0.00     0.261 C 
BRANCH   7   8
ATOM      8  O   UNL A   1      31.592  23.017  25.301  1.00  0.00    -0.463 OA
BRANCH   8   9
ATOM      9  C   UNL A   1      31.815  23.917  26.286  1.00  0.00     0.306 C 
ATOM     10  O   UNL A   1      31.067  24.082  27.246  1.00  0.00    -0.252 OA
BRANCH   9  11
ATOM     11  C   UNL A   1      33.045  24.773  26.120  1.00  0.00     0.130 C 
BRANCH  11  12
ATOM     12  C   UNL A   1      32.979  26.160  25.496  1.00  0.00     0.039 C 
ATOM     13  C   UNL A   1      26.851  28.222  23.483  1.00  0.00     0.010 C 
ATOM     14  C   UNL A   1      28.153  28.835  22.986  1.00  0.00     0.010 C 
ATOM     15  C   UNL A   1      29.369  28.073  23.516  1.00  0.00     0.125 C 
ATOM     16  C   UNL A   1      28.380  30.272  23.492  1.00  0.00     0.010 C 
ATOM     17  N   UNL A   1      30.363  29.088  23.819  1.00  0.00    -0.324 N 
ATOM     18  C   UNL A   1      29.902  30.409  23.432  1.00  0.00     0.125 C 
ATOM     19  C   UNL A   1      27.647  31.321  22.672  1.00  0.00     0.010 C 
ATOM     20  C   UNL A   1      31.400  28.910  24.713  1.00  0.00     0.320 C 
ATOM     21  O   UNL A   1      32.056  29.844  25.169  1.00  0.00    -0.248 OA
ATOM     22  N   UNL A   1      31.563  27.618  25.144  1.00  0.00    -0.324 N 
ATOM     23  C   UNL A   1      32.215  27.171  26.358  1.00  0.00     0.127 C 
ATOM     24  C   UNL A   1      31.993  26.462  24.356  1.00  0.00     0.127 C 
ENDBRANCH  11  12
ENDBRANCH   9  11
ENDBRANCH   8   9
ENDBRANCH   7   8
ENDBRANCH   6   7
ENDBRANCH   5   6
ENDBRANCH   4   5
ENDBRANCH   3   4
ENDBRANCH   2   3
ENDBRANCH   1   2
BRANCH   1  25
ATOM     25  C   UNL A   1      39.431  21.560  26.249  1.00  0.00     0.188 C 
BRANCH  25  26
ATOM     26  O   UNL A   1      40.586  21.074  25.579  1.00  0.00    -0.376 OA
BRANCH  26  27
ATOM     27  C   UNL A   1      41.688  20.620  26.352  1.00  0.00     0.202 C 
BRANCH  27  28
ATOM     28  C   UNL A   1      43.102  21.044  25.918  1.00  0.00     0.261 C 
BRANCH  28  29
ATOM     29  O   UNL A   1      43.602  22.278  26.458  1.00  0.00    -0.460 OA
BRANCH  29  30
ATOM     30  C   UNL A   1      43.566  23.384  25.684  1.00  0.00     0.338 C 
ATOM     31  O   UNL A   1      43.837  23.476  24.509  1.00  0.00    -0.246 OA
BRANCH  30  32
ATOM     32  C   UNL A   1      42.946  24.459  26.492  1.00  0.00     0.060 A 
ATOM     33  C   UNL A   1      43.416  25.773  26.356  1.00  0.00     0.016 A 
ATOM     34  C   UNL A   1      41.905  24.166  27.375  1.00  0.00     0.016 A 
ATOM     35  C   UNL A   1      42.870  26.795  27.136  1.00  0.00     0.010 A 
ATOM     36  C   UNL A   1      41.377  25.185  28.171  1.00  0.00     0.010 A 
ATOM     37  C   UNL A   1      41.880  26.496  28.080  1.00  0.00    -0.014 A 
BRANCH  37  38
ATOM     38  C   UNL A   1      41.516  27.481  29.127  1.00  0.00     0.031 A 
ATOM     39  C   UNL A   1      42.281  27.446  30.422  1.00  0.00     0.074 A 
ATOM     40  C   UNL A   1      40.518  28.365  28.952  1.00  0.00     0.049 A 
ATOM     41  N   UNL A   1      42.065  28.096  31.535  1.00  0.00    -0.248 NA
ATOM     42  C   UNL A   1      43.445  26.544  30.465  1.00  0.00     0.031 C 
ATOM     43  C   UNL A   1      39.742  28.539  27.728  1.00  0.00     0.029 A 
ATOM     44  N   UNL A   1      39.975  29.273  29.829  1.00  0.00    -0.354 N 
ATOM     45  C   UNL A   1      43.048  27.665  32.418  1.00  0.00     0.074 A 
ATOM     46  C   UNL A   1      43.851  26.686  31.717  1.00  0.00     0.031 C 
ATOM     47  C   UNL A   1      38.807  29.483  27.937  1.00  0.00     0.029 A 
ATOM     48  C   UNL A   1      38.889  29.945  29.321  1.00  0.00     0.049 A 
ATOM     49  H   UNL A   1      40.330  29.427  30.734  1.00  0.00     0.167 HD
ATOM     50  C   UNL A   1      43.259  28.047  33.698  1.00  0.00     0.037 A 
ATOM     51  C   UNL A   1      38.043  30.805  29.922  1.00  0.00     0.037 A 
ATOM     52  C   UNL A   1      42.461  29.023  34.388  1.00  0.00     0.049 A 
ATOM     53  C   UNL A   1      38.247  31.151  31.377  1.00  0.00     0.074 A 
ATOM     54  C   UNL A   1      42.610  29.501  35.678  1.00  0.00     0.029 A 
ATOM     55  N   UNL A   1      41.355  29.663  33.847  1.00  0.00    -0.354 N 
ATOM     56  N   UNL A   1      39.189  30.755  32.199  1.00  0.00    -0.248 NA
ATOM     57  C   UNL A   1      37.265  32.058  31.991  1.00  0.00     0.031 C 
ATOM     58  C   UNL A   1      41.556  30.381  35.940  1.00  0.00     0.029 A 
ATOM     59  C   UNL A   1      40.792  30.505  34.790  1.00  0.00     0.049 A 
ATOM     60  H   UNL A   1      41.021  29.536  32.930  1.00  0.00     0.167 HD
ATOM     61  C   UNL A   1      38.939  31.398  33.407  1.00  0.00     0.074 A 
ATOM     62  C   UNL A   1      37.757  32.209  33.212  1.00  0.00     0.031 C 
ATOM     63  C   UNL A   1      39.630  31.328  34.572  1.00  0.00     0.037 A 
BRANCH  50  64
ATOM     64  C   UNL A   1      44.372  27.378  34.451  1.00  0.00     0.057 A 
ATOM     65  C   UNL A   1      45.656  27.932  34.532  1.00  0.00     0.134 A 
ATOM     66  C   UNL A   1      44.140  26.178  35.135  1.00  0.00     0.134 A 
ATOM     67  F   UNL A   1      45.949  29.070  33.886  1.00  0.00    -0.206 F 
ATOM     68  C   UNL A   1      46.675  27.305  35.253  1.00  0.00     0.040 A 
ATOM     69  C   UNL A   1      45.142  25.558  35.882  1.00  0.00     0.040 A 
ATOM     70  F   UNL A   1      42.932  25.596  35.099  1.00  0.00    -0.206 F 
ATOM     71  C   UNL A   1      46.416  26.119  35.937  1.00  0.00     0.006 A 
ENDBRANCH  50  64
BRANCH  51  72
ATOM     72  C   UNL A   1      36.904  31.393  29.168  1.00  0.00     0.057 A 
ATOM     73  C   UNL A   1      35.788  30.620  28.824  1.00  0.00     0.134 A 
ATOM     74  C   UNL A   1      36.923  32.723  28.730  1.00  0.00     0.134 A 
ATOM     75  F   UNL A   1      35.722  29.332  29.190  1.00  0.00    -0.206 F 
ATOM     76  C   UNL A   1      34.746  31.139  28.054  1.00  0.00     0.040 A 
ATOM     77  C   UNL A   1      35.874  33.264  27.984  1.00  0.00     0.040 A 
ATOM     78  F   UNL A   1      37.961  33.520  29.022  1.00  0.00    -0.206 F 
ATOM     79  C   UNL A   1      34.785  32.467  27.635  1.00  0.00     0.006 A 
ENDBRANCH  51  72
BRANCH  63  80
ATOM     80  C   UNL A   1      39.174  32.194  35.712  1.00  0.00     0.057 A 
ATOM     81  C   UNL A   1      39.573  33.529  35.841  1.00  0.00     0.134 A 
ATOM     82  C   UNL A   1      38.259  31.699  36.653  1.00  0.00     0.134 A 
ATOM     83  F   UNL A   1      40.454  34.063  34.981  1.00  0.00    -0.206 F 
ATOM     84  C   UNL A   1      39.090  34.338  36.872  1.00  0.00     0.040 A 
ATOM     85  C   UNL A   1      37.747  32.505  37.669  1.00  0.00     0.040 A 
ATOM     86  F   UNL A   1      37.827  30.431  36.579  1.00  0.00    -0.206 F 
ATOM     87  C   UNL A   1      38.166  33.828  37.783  1.00  0.00     0.006 A 
ENDBRANCH  63  80
ENDBRANCH  37  38
ENDBRANCH  30  32
ENDBRANCH  29  30
ENDBRANCH  28  29
ENDBRANCH  27  28
ENDBRANCH  26  27
ENDBRANCH  25  26
ENDBRANCH   1  25
TORSDOF 21
ENDMDL
MODEL 3
REMARK VINA RESULT:      -9.9      4.474      9.791
REMARK SMILES C[C@@H]1CN(C(=O)N2CC(CC(=O)OCCOCCOCCOCCOC(=O)c3ccc(-c4c5nc(c(-c6c(F)cccc6F)c6ccc([nH]6)c(-c6c(F)cccc6F)c6nc(c(-c7c(F)cccc7F)c7ccc4[nH]7)C=C6)C=C5)cc3)C2)C[C@H]1C
REMARK SMILES IDX 20 1 19 2 18 3 17 4 16 5 15 6 14 7 13 8 11 9 12 10 10 11
REMARK SMILES IDX 9 12 1 13 2 14 3 15 84 16 4 17 83 18 85 19 5 20 6 21 7 22
REMARK SMILES IDX 8 23 82 24 21 25 22 26 23 27 24 28 25 29 26 30 27 31 28 32
REMARK SMILES IDX 29 33 81 34 30 35 80 36 31 37 32 38 33 39 74 40 34 41 79 42
REMARK SMILES IDX 73 43 75 44 35 45 78 46 72 47 71 48 36 50 62 51 45 52 61 53
REMARK SMILES IDX 46 54 49 55 60 56 76 57 47 58 48 59 59 61 77 62 50 63 37 64
REMARK SMILES IDX 38 65 43 66 39 67 40 68 42 69 44 70 41 71 63 72 64 73 69 74
REMARK SMILES IDX 65 75 66 76 68 77 70 78 67 79 51 80 52 81 57 82 53 83 54 84
REMARK SMILES IDX 56 85 58 86 55 87
REMARK H PARENT 75 49 49 60
REMARK Flexibility Score: inf
ROOT
ATOM      1  C   UNL A   1      33.154  31.116  27.419  1.00  0.00     0.188 C 
ENDROOT
BRANCH   1   2
ATOM      2  O   UNL A   1      33.048  29.959  26.599  1.00  0.00    -0.377 OA
BRANCH   2   3
ATOM      3  C   UNL A   1      32.811  28.715  27.225  1.00  0.00     0.188 C 
BRANCH   3   4
ATOM      4  C   UNL A   1      31.436  28.092  26.972  1.00  0.00     0.188 C 
BRANCH   4   5
ATOM      5  O   UNL A   1      31.299  26.686  26.918  1.00  0.00    -0.376 OA
BRANCH   5   6
ATOM      6  C   UNL A   1      30.953  26.041  25.702  1.00  0.00     0.202 C 
BRANCH   6   7
ATOM      7  C   UNL A   1      31.457  26.504  24.318  1.00  0.00     0.261 C 
BRANCH   7   8
ATOM      8  O   UNL A   1      31.843  25.494  23.361  1.00  0.00    -0.463 OA
BRANCH   8   9
ATOM      9  C   UNL A   1      33.168  25.386  23.114  1.00  0.00     0.306 C 
ATOM     10  O   UNL A   1      33.649  25.281  21.989  1.00  0.00    -0.252 OA
BRANCH   9  11
ATOM     11  C   UNL A   1      34.057  25.352  24.331  1.00  0.00     0.130 C 
BRANCH  11  12
ATOM     12  C   UNL A   1      34.472  24.042  24.986  1.00  0.00     0.039 C 
ATOM     13  C   UNL A   1      32.147  18.395  22.060  1.00  0.00     0.010 C 
ATOM     14  C   UNL A   1      32.663  18.453  23.492  1.00  0.00     0.010 C 
ATOM     15  C   UNL A   1      32.993  19.887  23.910  1.00  0.00     0.125 C 
ATOM     16  C   UNL A   1      33.994  17.704  23.689  1.00  0.00     0.010 C 
ATOM     17  N   UNL A   1      34.200  19.790  24.713  1.00  0.00    -0.324 N 
ATOM     18  C   UNL A   1      34.592  18.407  24.908  1.00  0.00     0.125 C 
ATOM     19  C   UNL A   1      33.820  16.207  23.879  1.00  0.00     0.010 C 
ATOM     20  C   UNL A   1      35.081  20.834  24.910  1.00  0.00     0.320 C 
ATOM     21  O   UNL A   1      36.219  20.674  25.345  1.00  0.00    -0.248 OA
ATOM     22  N   UNL A   1      34.628  22.052  24.469  1.00  0.00    -0.324 N 
ATOM     23  C   UNL A   1      35.422  23.211  24.116  1.00  0.00     0.127 C 
ATOM     24  C   UNL A   1      33.517  22.838  25.007  1.00  0.00     0.127 C 
ENDBRANCH  11  12
ENDBRANCH   9  11
ENDBRANCH   8   9
ENDBRANCH   7   8
ENDBRANCH   6   7
ENDBRANCH   5   6
ENDBRANCH   4   5
ENDBRANCH   3   4
ENDBRANCH   2   3
ENDBRANCH   1   2
BRANCH   1  25
ATOM     25  C   UNL A   1      34.543  31.700  27.740  1.00  0.00     0.188 C 
BRANCH  25  26
ATOM     26  O   UNL A   1      34.583  33.118  27.823  1.00  0.00    -0.376 OA
BRANCH  26  27
ATOM     27  C   UNL A   1      33.718  33.778  28.736  1.00  0.00     0.202 C 
BRANCH  27  28
ATOM     28  C   UNL A   1      34.193  33.956  30.188  1.00  0.00     0.261 C 
BRANCH  28  29
ATOM     29  O   UNL A   1      35.572  33.657  30.458  1.00  0.00    -0.460 OA
BRANCH  29  30
ATOM     30  C   UNL A   1      35.865  32.814  31.472  1.00  0.00     0.338 C 
ATOM     31  O   UNL A   1      35.276  32.683  32.520  1.00  0.00    -0.246 OA
BRANCH  30  32
ATOM     32  C   UNL A   1      36.947  31.922  30.996  1.00  0.00     0.060 A 
ATOM     33  C   UNL A   1      37.830  31.361  31.930  1.00  0.00     0.016 A 
ATOM     34  C   UNL A   1      37.084  31.643  29.635  1.00  0.00     0.016 A 
ATOM     35  C   UNL A   1      38.880  30.548  31.498  1.00  0.00     0.010 A 
ATOM     36  C   UNL A   1      38.148  30.849  29.203  1.00  0.00     0.010 A 
ATOM     37  C   UNL A   1      39.071  30.326  30.129  1.00  0.00    -0.014 A 
BRANCH  37  38
ATOM     38  C   UNL A   1      40.340  29.744  29.629  1.00  0.00     0.031 A 
ATOM     39  C   UNL A   1      41.513  30.667  29.447  1.00  0.00     0.074 A 
ATOM     40  C   UNL A   1      40.447  28.440  29.318  1.00  0.00     0.049 A 
ATOM     41  N   UNL A   1      42.677  30.437  28.897  1.00  0.00    -0.248 NA
ATOM     42  C   UNL A   1      41.344  32.041  29.949  1.00  0.00     0.031 C 
ATOM     43  C   UNL A   1      39.405  27.434  29.503  1.00  0.00     0.029 A 
ATOM     44  N   UNL A   1      41.491  27.747  28.755  1.00  0.00    -0.354 N 
ATOM     45  C   UNL A   1      43.366  31.641  28.963  1.00  0.00     0.074 A 
ATOM     46  C   UNL A   1      42.488  32.603  29.591  1.00  0.00     0.031 C 
ATOM     47  C   UNL A   1      39.856  26.253  29.043  1.00  0.00     0.029 A 
ATOM     48  C   UNL A   1      41.197  26.431  28.489  1.00  0.00     0.049 A 
ATOM     49  H   UNL A   1      42.366  28.154  28.560  1.00  0.00     0.167 HD
ATOM     50  C   UNL A   1      44.619  31.921  28.534  1.00  0.00     0.037 A 
ATOM     51  C   UNL A   1      41.918  25.495  27.841  1.00  0.00     0.037 A 
ATOM     52  C   UNL A   1      45.490  30.960  27.913  1.00  0.00     0.049 A 
ATOM     53  C   UNL A   1      43.278  25.854  27.295  1.00  0.00     0.074 A 
ATOM     54  C   UNL A   1      46.788  31.137  27.468  1.00  0.00     0.029 A 
ATOM     55  N   UNL A   1      45.146  29.645  27.640  1.00  0.00    -0.354 N 
ATOM     56  N   UNL A   1      43.932  26.988  27.378  1.00  0.00    -0.248 NA
ATOM     57  C   UNL A   1      43.998  24.805  26.556  1.00  0.00     0.031 C 
ATOM     58  C   UNL A   1      47.206  29.947  26.867  1.00  0.00     0.029 A 
ATOM     59  C   UNL A   1      46.195  29.008  27.000  1.00  0.00     0.049 A 
ATOM     60  H   UNL A   1      44.284  29.227  27.866  1.00  0.00     0.167 HD
ATOM     61  C   UNL A   1      45.153  26.774  26.746  1.00  0.00     0.074 A 
ATOM     62  C   UNL A   1      45.149  25.403  26.284  1.00  0.00     0.031 C 
ATOM     63  C   UNL A   1      46.187  27.634  26.569  1.00  0.00     0.037 A 
BRANCH  50  64
ATOM     64  C   UNL A   1      45.107  33.332  28.682  1.00  0.00     0.057 A 
ATOM     65  C   UNL A   1      45.835  33.756  29.801  1.00  0.00     0.134 A 
ATOM     66  C   UNL A   1      44.876  34.270  27.667  1.00  0.00     0.134 A 
ATOM     67  F   UNL A   1      46.077  32.913  30.816  1.00  0.00    -0.206 F 
ATOM     68  C   UNL A   1      46.298  35.069  29.914  1.00  0.00     0.040 A 
ATOM     69  C   UNL A   1      45.359  35.576  27.756  1.00  0.00     0.040 A 
ATOM     70  F   UNL A   1      44.187  33.928  26.568  1.00  0.00    -0.206 F 
ATOM     71  C   UNL A   1      46.068  35.980  28.885  1.00  0.00     0.006 A 
ENDBRANCH  50  64
BRANCH  51  72
ATOM     72  C   UNL A   1      41.373  24.125  27.645  1.00  0.00     0.057 A 
ATOM     73  C   UNL A   1      41.871  23.037  28.373  1.00  0.00     0.134 A 
ATOM     74  C   UNL A   1      40.378  23.860  26.696  1.00  0.00     0.134 A 
ATOM     75  F   UNL A   1      42.842  23.220  29.279  1.00  0.00    -0.206 F 
ATOM     76  C   UNL A   1      41.419  21.736  28.148  1.00  0.00     0.040 A 
ATOM     77  C   UNL A   1      39.896  22.568  26.481  1.00  0.00     0.040 A 
ATOM     78  F   UNL A   1      39.857  24.855  25.962  1.00  0.00    -0.206 F 
ATOM     79  C   UNL A   1      40.424  21.499  27.202  1.00  0.00     0.006 A 
ENDBRANCH  51  72
BRANCH  63  80
ATOM     80  C   UNL A   1      47.429  27.110  25.907  1.00  0.00     0.057 A 
ATOM     81  C   UNL A   1      47.657  27.247  24.533  1.00  0.00     0.134 A 
ATOM     82  C   UNL A   1      48.446  26.526  26.676  1.00  0.00     0.134 A 
ATOM     83  F   UNL A   1      46.721  27.788  23.738  1.00  0.00    -0.206 F 
ATOM     84  C   UNL A   1      48.846  26.810  23.944  1.00  0.00     0.040 A 
ATOM     85  C   UNL A   1      49.650  26.112  26.104  1.00  0.00     0.040 A 
ATOM     86  F   UNL A   1      48.297  26.376  28.000  1.00  0.00    -0.206 F 
ATOM     87  C   UNL A   1      49.850  26.250  24.733  1.00  0.00     0.006 A 
ENDBRANCH  63  80
ENDBRANCH  37  38
ENDBRANCH  30  32
ENDBRANCH  29  30
ENDBRANCH  28  29
ENDBRANCH  27  28
ENDBRANCH  26  27
ENDBRANCH  25  26
ENDBRANCH   1  25
TORSDOF 21
ENDMDL
