MODEL 1
REMARK VINA RESULT:     -11.6      0.000      0.000
REMARK SMILES O=C(Cc1c(C(=O)c2cc3c(cn2)CCCC3)[nH]c2cc(Cl)ccc12)OCCOCCOCCOCCOC(=O)c1ccc(-c2c3nc(c(-c4c(F)cccc4F)c4ccc([nH]4)c(-c4c(F)cccc4F)c4nc(c(-c5c(F)cccc5F)c5ccc2[nH]5)C=C4)C=C3)cc1
REMARK SMILES IDX 31 1 30 2 29 3 28 4 27 5 26 6 2 7 1 8 3 9 4 10 5 11 25 12
REMARK SMILES IDX 18 13 19 14 24 15 20 17 23 18 21 19 22 20 6 21 7 22 8 23
REMARK SMILES IDX 9 24 13 25 10 26 12 27 11 28 17 29 14 30 16 31 15 32 32 33
REMARK SMILES IDX 33 34 34 35 35 36 36 37 37 38 38 39 39 40 40 41 41 42 42 43
REMARK SMILES IDX 94 44 43 45 93 46 44 47 45 48 46 49 87 50 47 51 92 52 86 53
REMARK SMILES IDX 88 54 48 55 91 56 85 57 84 58 49 60 75 61 58 62 74 63 59 64
REMARK SMILES IDX 62 65 73 66 89 67 60 68 61 69 72 71 90 72 63 73 50 74 51 75
REMARK SMILES IDX 56 76 52 77 53 78 55 79 57 80 54 81 76 82 77 83 82 84 78 85
REMARK SMILES IDX 79 86 81 87 83 88 80 89 64 90 65 91 70 92 66 93 67 94 69 95
REMARK SMILES IDX 71 96 68 97
REMARK H PARENT 18 16 88 59 62 70
REMARK Flexibility Score: inf
ROOT
ATOM      1  C   UNL A   1      40.717  21.336  27.260  1.00  0.00     0.188 C 
ENDROOT
BRANCH   1   2
ATOM      2  C   UNL A   1      39.901  22.346  26.458  1.00  0.00     0.188 C 
BRANCH   2   3
ATOM      3  O   UNL A   1      39.448  23.477  27.195  1.00  0.00    -0.376 OA
BRANCH   3   4
ATOM      4  C   UNL A   1      38.297  24.130  26.689  1.00  0.00     0.202 C 
BRANCH   4   5
ATOM      5  C   UNL A   1      37.553  23.180  25.766  1.00  0.00     0.261 C 
BRANCH   5   6
ATOM      6  O   UNL A   1      36.596  23.877  24.949  1.00  0.00    -0.463 OA
BRANCH   6   7
ATOM      7  C   UNL A   1      35.260  23.938  25.165  1.00  0.00     0.310 C 
ATOM      8  O   UNL A   1      34.561  24.549  24.354  1.00  0.00    -0.252 OA
BRANCH   7   9
ATOM      9  C   UNL A   1      34.625  23.279  26.377  1.00  0.00     0.161 C 
BRANCH   9  10
ATOM     10  C   UNL A   1      33.647  22.201  26.042  1.00  0.00     0.000 A 
ATOM     11  C   UNL A   1      32.256  22.234  26.161  1.00  0.00     0.093 A 
ATOM     12  C   UNL A   1      34.013  20.943  25.484  1.00  0.00     0.004 A 
ATOM     13  N   UNL A   1      31.802  20.998  25.748  1.00  0.00    -0.351 N 
ATOM     14  C   UNL A   1      32.847  20.202  25.330  1.00  0.00     0.048 A 
ATOM     15  C   UNL A   1      35.245  20.382  25.086  1.00  0.00     0.012 A 
ATOM     16  H   UNL A   1      30.859  20.720  25.752  1.00  0.00     0.167 HD
ATOM     17  C   UNL A   1      32.854  18.903  24.807  1.00  0.00     0.047 A 
ATOM     18  C   UNL A   1      35.270  19.094  24.549  1.00  0.00     0.021 A 
ATOM     19  C   UNL A   1      34.089  18.371  24.419  1.00  0.00     0.043 A 
ATOM     20  Cl  UNL A   1      34.149  16.782  23.756  1.00  0.00    -0.084 Cl
BRANCH  11  21
ATOM     21  C   UNL A   1      31.407  23.357  26.568  1.00  0.00     0.227 C 
ATOM     22  O   UNL A   1      30.698  23.302  27.570  1.00  0.00    -0.285 OA
BRANCH  21  23
ATOM     23  C   UNL A   1      31.378  24.617  25.751  1.00  0.00     0.113 A 
ATOM     24  C   UNL A   1      31.804  25.839  26.269  1.00  0.00     0.036 A 
ATOM     25  N   UNL A   1      30.945  24.474  24.474  1.00  0.00    -0.252 NA
ATOM     26  C   UNL A   1      31.749  26.979  25.453  1.00  0.00    -0.041 A 
ATOM     27  C   UNL A   1      30.905  25.581  23.703  1.00  0.00     0.115 A 
ATOM     28  C   UNL A   1      31.256  26.851  24.145  1.00  0.00    -0.026 A 
ATOM     29  C   UNL A   1      32.157  28.321  26.010  1.00  0.00     0.036 C 
ATOM     30  C   UNL A   1      31.140  28.028  23.216  1.00  0.00     0.037 C 
ATOM     31  C   UNL A   1      32.235  29.437  24.964  1.00  0.00     0.005 C 
ATOM     32  C   UNL A   1      31.076  29.351  23.979  1.00  0.00     0.005 C 
ENDBRANCH  21  23
ENDBRANCH  11  21
ENDBRANCH   9  10
ENDBRANCH   7   9
ENDBRANCH   6   7
ENDBRANCH   5   6
ENDBRANCH   4   5
ENDBRANCH   3   4
ENDBRANCH   2   3
ENDBRANCH   1   2
BRANCH   1  33
ATOM     33  O   UNL A   1      40.946  20.045  26.705  1.00  0.00    -0.377 OA
BRANCH  33  34
ATOM     34  C   UNL A   1      42.196  19.409  26.923  1.00  0.00     0.188 C 
BRANCH  34  35
ATOM     35  C   UNL A   1      42.966  18.797  25.747  1.00  0.00     0.188 C 
BRANCH  35  36
ATOM     36  O   UNL A   1      43.463  19.740  24.802  1.00  0.00    -0.376 OA
BRANCH  36  37
ATOM     37  C   UNL A   1      44.251  20.784  25.367  1.00  0.00     0.202 C 
BRANCH  37  38
ATOM     38  C   UNL A   1      43.996  22.125  24.677  1.00  0.00     0.261 C 
BRANCH  38  39
ATOM     39  O   UNL A   1      43.532  23.172  25.543  1.00  0.00    -0.460 OA
BRANCH  39  40
ATOM     40  C   UNL A   1      44.158  24.373  25.483  1.00  0.00     0.338 C 
ATOM     41  O   UNL A   1      44.965  24.735  24.660  1.00  0.00    -0.246 OA
BRANCH  40  42
ATOM     42  C   UNL A   1      43.557  25.246  26.529  1.00  0.00     0.060 A 
ATOM     43  C   UNL A   1      42.589  24.758  27.411  1.00  0.00     0.016 A 
ATOM     44  C   UNL A   1      43.907  26.603  26.553  1.00  0.00     0.016 A 
ATOM     45  C   UNL A   1      41.961  25.625  28.309  1.00  0.00     0.010 A 
ATOM     46  C   UNL A   1      43.254  27.478  27.428  1.00  0.00     0.010 A 
ATOM     47  C   UNL A   1      42.287  26.989  28.321  1.00  0.00    -0.014 A 
BRANCH  47  48
ATOM     48  C   UNL A   1      41.777  27.849  29.414  1.00  0.00     0.031 A 
ATOM     49  C   UNL A   1      40.569  28.722  29.270  1.00  0.00     0.074 A 
ATOM     50  C   UNL A   1      42.445  27.805  30.581  1.00  0.00     0.049 A 
ATOM     51  N   UNL A   1      39.974  29.451  30.181  1.00  0.00    -0.248 NA
ATOM     52  C   UNL A   1      39.949  28.792  27.940  1.00  0.00     0.031 C 
ATOM     53  C   UNL A   1      43.637  26.993  30.831  1.00  0.00     0.029 A 
ATOM     54  N   UNL A   1      42.220  28.449  31.768  1.00  0.00    -0.354 N 
ATOM     55  C   UNL A   1      38.894  30.051  29.549  1.00  0.00     0.074 A 
ATOM     56  C   UNL A   1      38.940  29.630  28.162  1.00  0.00     0.031 C 
ATOM     57  C   UNL A   1      44.040  27.187  32.095  1.00  0.00     0.029 A 
ATOM     58  C   UNL A   1      43.141  28.139  32.736  1.00  0.00     0.049 A 
ATOM     59  H   UNL A   1      41.471  29.072  31.913  1.00  0.00     0.167 HD
ATOM     60  C   UNL A   1      37.949  30.863  30.086  1.00  0.00     0.037 A 
ATOM     61  C   UNL A   1      43.251  28.572  34.004  1.00  0.00     0.037 A 
ATOM     62  C   UNL A   1      37.922  31.292  31.465  1.00  0.00     0.049 A 
ATOM     63  C   UNL A   1      42.223  29.515  34.551  1.00  0.00     0.074 A 
ATOM     64  C   UNL A   1      36.973  32.071  32.111  1.00  0.00     0.029 A 
ATOM     65  N   UNL A   1      38.897  30.998  32.409  1.00  0.00    -0.354 N 
ATOM     66  N   UNL A   1      41.158  30.007  33.966  1.00  0.00    -0.248 NA
ATOM     67  C   UNL A   1      42.406  29.953  35.940  1.00  0.00     0.031 C 
ATOM     68  C   UNL A   1      37.400  32.289  33.427  1.00  0.00     0.029 A 
ATOM     69  C   UNL A   1      38.591  31.610  33.617  1.00  0.00     0.049 A 
ATOM     70  H   UNL A   1      39.689  30.438  32.245  1.00  0.00     0.167 HD
ATOM     71  C   UNL A   1      40.531  30.793  34.922  1.00  0.00     0.074 A 
ATOM     72  C   UNL A   1      41.328  30.699  36.130  1.00  0.00     0.031 C 
ATOM     73  C   UNL A   1      39.396  31.525  34.809  1.00  0.00     0.037 A 
BRANCH  60  74
ATOM     74  C   UNL A   1      36.850  31.351  29.184  1.00  0.00     0.057 A 
ATOM     75  C   UNL A   1      36.820  32.678  28.737  1.00  0.00     0.134 A 
ATOM     76  C   UNL A   1      35.774  30.527  28.827  1.00  0.00     0.134 A 
ATOM     77  F   UNL A   1      37.811  33.526  29.054  1.00  0.00    -0.206 F 
ATOM     78  C   UNL A   1      35.760  33.169  27.973  1.00  0.00     0.040 A 
ATOM     79  C   UNL A   1      34.718  31.000  28.045  1.00  0.00     0.040 A 
ATOM     80  F   UNL A   1      35.739  29.245  29.223  1.00  0.00    -0.206 F 
ATOM     81  C   UNL A   1      34.706  32.329  27.622  1.00  0.00     0.006 A 
ENDBRANCH  60  74
BRANCH  61  82
ATOM     82  C   UNL A   1      44.369  28.090  34.846  1.00  0.00     0.057 A 
ATOM     83  C   UNL A   1      45.583  28.783  34.905  1.00  0.00     0.134 A 
ATOM     84  C   UNL A   1      44.250  26.919  35.600  1.00  0.00     0.134 A 
ATOM     85  F   UNL A   1      45.758  29.906  34.193  1.00  0.00    -0.206 F 
ATOM     86  C   UNL A   1      46.644  28.325  35.685  1.00  0.00     0.040 A 
ATOM     87  C   UNL A   1      45.295  26.463  36.403  1.00  0.00     0.040 A 
ATOM     88  F   UNL A   1      43.104  26.222  35.590  1.00  0.00    -0.206 F 
ATOM     89  C   UNL A   1      46.498  27.165  36.442  1.00  0.00     0.006 A 
ENDBRANCH  61  82
BRANCH  73  90
ATOM     90  C   UNL A   1      38.949  32.269  36.033  1.00  0.00     0.057 A 
ATOM     91  C   UNL A   1      39.309  33.609  36.230  1.00  0.00     0.134 A 
ATOM     92  C   UNL A   1      38.153  31.663  37.015  1.00  0.00     0.134 A 
ATOM     93  F   UNL A   1      40.071  34.248  35.331  1.00  0.00    -0.206 F 
ATOM     94  C   UNL A   1      38.891  34.319  37.357  1.00  0.00     0.040 A 
ATOM     95  C   UNL A   1      37.708  32.370  38.133  1.00  0.00     0.040 A 
ATOM     96  F   UNL A   1      37.757  30.389  36.875  1.00  0.00    -0.206 F 
ATOM     97  C   UNL A   1      38.081  33.701  38.308  1.00  0.00     0.006 A 
ENDBRANCH  73  90
ENDBRANCH  47  48
ENDBRANCH  40  42
ENDBRANCH  39  40
ENDBRANCH  38  39
ENDBRANCH  37  38
ENDBRANCH  36  37
ENDBRANCH  35  36
ENDBRANCH  34  35
ENDBRANCH  33  34
ENDBRANCH   1  33
TORSDOF 23
ENDMDL
MODEL 2
REMARK VINA RESULT:     -10.9      1.725      3.983
REMARK SMILES O=C(Cc1c(C(=O)c2cc3c(cn2)CCCC3)[nH]c2cc(Cl)ccc12)OCCOCCOCCOCCOC(=O)c1ccc(-c2c3nc(c(-c4c(F)cccc4F)c4ccc([nH]4)c(-c4c(F)cccc4F)c4nc(c(-c5c(F)cccc5F)c5ccc2[nH]5)C=C4)C=C3)cc1
REMARK SMILES IDX 31 1 30 2 29 3 28 4 27 5 26 6 2 7 1 8 3 9 4 10 5 11 25 12
REMARK SMILES IDX 18 13 19 14 24 15 20 17 23 18 21 19 22 20 6 21 7 22 8 23
REMARK SMILES IDX 9 24 13 25 10 26 12 27 11 28 17 29 14 30 16 31 15 32 32 33
REMARK SMILES IDX 33 34 34 35 35 36 36 37 37 38 38 39 39 40 40 41 41 42 42 43
REMARK SMILES IDX 94 44 43 45 93 46 44 47 45 48 46 49 87 50 47 51 92 52 86 53
REMARK SMILES IDX 88 54 48 55 91 56 85 57 84 58 49 60 75 61 58 62 74 63 59 64
REMARK SMILES IDX 62 65 73 66 89 67 60 68 61 69 72 71 90 72 63 73 50 74 51 75
REMARK SMILES IDX 56 76 52 77 53 78 55 79 57 80 54 81 76 82 77 83 82 84 78 85
REMARK SMILES IDX 79 86 81 87 83 88 80 89 64 90 65 91 70 92 66 93 67 94 69 95
REMARK SMILES IDX 71 96 68 97
REMARK H PARENT 18 16 88 59 62 70
REMARK Flexibility Score: inf
ROOT
ATOM      1  C   UNL A   1      40.741  20.955  26.718  1.00  0.00     0.188 C 
ENDROOT
BRANCH   1   2
ATOM      2  C   UNL A   1      39.937  22.253  26.678  1.00  0.00     0.188 C 
BRANCH   2   3
ATOM      3  O   UNL A   1      39.058  22.384  25.565  1.00  0.00    -0.376 OA
BRANCH   3   4
ATOM      4  C   UNL A   1      37.867  21.620  25.619  1.00  0.00     0.202 C 
BRANCH   4   5
ATOM      5  C   UNL A   1      37.106  21.795  24.316  1.00  0.00     0.261 C 
BRANCH   5   6
ATOM      6  O   UNL A   1      35.760  22.248  24.547  1.00  0.00    -0.463 OA
BRANCH   6   7
ATOM      7  C   UNL A   1      35.233  23.423  24.126  1.00  0.00     0.310 C 
ATOM      8  O   UNL A   1      35.115  23.612  22.913  1.00  0.00    -0.252 OA
BRANCH   7   9
ATOM      9  C   UNL A   1      34.798  24.493  25.113  1.00  0.00     0.161 C 
BRANCH   9  10
ATOM     10  C   UNL A   1      33.342  24.820  25.054  1.00  0.00     0.000 A 
ATOM     11  C   UNL A   1      32.265  24.022  25.446  1.00  0.00     0.093 A 
ATOM     12  C   UNL A   1      32.827  26.071  24.611  1.00  0.00     0.004 A 
ATOM     13  N   UNL A   1      31.125  24.752  25.178  1.00  0.00    -0.351 N 
ATOM     14  C   UNL A   1      31.440  25.996  24.677  1.00  0.00     0.048 A 
ATOM     15  C   UNL A   1      33.433  27.266  24.169  1.00  0.00     0.012 A 
ATOM     16  H   UNL A   1      30.207  24.428  25.325  1.00  0.00     0.167 HD
ATOM     17  C   UNL A   1      30.618  27.066  24.302  1.00  0.00     0.047 A 
ATOM     18  C   UNL A   1      32.631  28.348  23.805  1.00  0.00     0.021 A 
ATOM     19  C   UNL A   1      31.246  28.241  23.869  1.00  0.00     0.043 A 
ATOM     20  Cl  UNL A   1      30.279  29.591  23.412  1.00  0.00    -0.084 Cl
BRANCH  11  21
ATOM     21  C   UNL A   1      32.297  22.702  26.082  1.00  0.00     0.227 C 
ATOM     22  O   UNL A   1      32.259  22.571  27.303  1.00  0.00    -0.285 OA
BRANCH  21  23
ATOM     23  C   UNL A   1      32.388  21.461  25.241  1.00  0.00     0.113 A 
ATOM     24  C   UNL A   1      32.728  20.225  25.789  1.00  0.00     0.036 A 
ATOM     25  N   UNL A   1      32.085  21.623  23.928  1.00  0.00    -0.252 NA
ATOM     26  C   UNL A   1      32.798  19.105  24.946  1.00  0.00    -0.041 A 
ATOM     27  C   UNL A   1      32.153  20.533  23.136  1.00  0.00     0.115 A 
ATOM     28  C   UNL A   1      32.534  19.271  23.578  1.00  0.00    -0.026 A 
ATOM     29  C   UNL A   1      33.213  17.767  25.509  1.00  0.00     0.036 C 
ATOM     30  C   UNL A   1      32.613  18.127  22.604  1.00  0.00     0.037 C 
ATOM     31  C   UNL A   1      33.059  16.600  24.530  1.00  0.00     0.005 C 
ATOM     32  C   UNL A   1      33.498  16.996  23.126  1.00  0.00     0.005 C 
ENDBRANCH  21  23
ENDBRANCH  11  21
ENDBRANCH   9  10
ENDBRANCH   7   9
ENDBRANCH   6   7
ENDBRANCH   5   6
ENDBRANCH   4   5
ENDBRANCH   3   4
ENDBRANCH   2   3
ENDBRANCH   1   2
BRANCH   1  33
ATOM     33  O   UNL A   1      41.779  20.763  25.764  1.00  0.00    -0.377 OA
BRANCH  33  34
ATOM     34  C   UNL A   1      42.709  19.709  25.955  1.00  0.00     0.188 C 
BRANCH  34  35
ATOM     35  C   UNL A   1      43.898  19.546  25.000  1.00  0.00     0.188 C 
BRANCH  35  36
ATOM     36  O   UNL A   1      44.399  20.763  24.456  1.00  0.00    -0.376 OA
BRANCH  36  37
ATOM     37  C   UNL A   1      45.631  21.200  25.024  1.00  0.00     0.202 C 
BRANCH  37  38
ATOM     38  C   UNL A   1      45.666  22.720  25.197  1.00  0.00     0.261 C 
BRANCH  38  39
ATOM     39  O   UNL A   1      44.714  23.244  26.136  1.00  0.00    -0.460 OA
BRANCH  39  40
ATOM     40  C   UNL A   1      43.673  23.965  25.654  1.00  0.00     0.338 C 
ATOM     41  O   UNL A   1      43.102  23.807  24.601  1.00  0.00    -0.246 OA
BRANCH  40  42
ATOM     42  C   UNL A   1      43.239  24.901  26.727  1.00  0.00     0.060 A 
ATOM     43  C   UNL A   1      43.742  26.204  26.798  1.00  0.00     0.016 A 
ATOM     44  C   UNL A   1      42.385  24.424  27.731  1.00  0.00     0.016 A 
ATOM     45  C   UNL A   1      43.405  27.025  27.877  1.00  0.00     0.010 A 
ATOM     46  C   UNL A   1      42.074  25.234  28.827  1.00  0.00     0.010 A 
ATOM     47  C   UNL A   1      42.572  26.545  28.899  1.00  0.00    -0.014 A 
BRANCH  47  48
ATOM     48  C   UNL A   1      42.050  27.488  29.915  1.00  0.00     0.031 A 
ATOM     49  C   UNL A   1      40.861  28.367  29.678  1.00  0.00     0.074 A 
ATOM     50  C   UNL A   1      42.687  27.516  31.099  1.00  0.00     0.049 A 
ATOM     51  N   UNL A   1      40.257  29.169  30.519  1.00  0.00    -0.248 NA
ATOM     52  C   UNL A   1      40.276  28.352  28.330  1.00  0.00     0.031 C 
ATOM     53  C   UNL A   1      43.858  26.706  31.437  1.00  0.00     0.029 A 
ATOM     54  N   UNL A   1      42.444  28.246  32.232  1.00  0.00    -0.354 N 
ATOM     55  C   UNL A   1      39.203  29.738  29.818  1.00  0.00     0.074 A 
ATOM     56  C   UNL A   1      39.277  29.219  28.466  1.00  0.00     0.031 C 
ATOM     57  C   UNL A   1      44.233  26.982  32.694  1.00  0.00     0.029 A 
ATOM     58  C   UNL A   1      43.334  27.992  33.243  1.00  0.00     0.049 A 
ATOM     59  H   UNL A   1      41.703  28.890  32.312  1.00  0.00     0.167 HD
ATOM     60  C   UNL A   1      38.259  30.602  30.271  1.00  0.00     0.037 A 
ATOM     61  C   UNL A   1      43.420  28.512  34.479  1.00  0.00     0.037 A 
ATOM     62  C   UNL A   1      38.206  31.128  31.615  1.00  0.00     0.049 A 
ATOM     63  C   UNL A   1      42.396  29.508  34.931  1.00  0.00     0.074 A 
ATOM     64  C   UNL A   1      37.255  31.965  32.179  1.00  0.00     0.029 A 
ATOM     65  N   UNL A   1      39.151  30.887  32.603  1.00  0.00    -0.354 N 
ATOM     66  N   UNL A   1      41.355  29.974  34.285  1.00  0.00    -0.248 NA
ATOM     67  C   UNL A   1      42.552  30.041  36.290  1.00  0.00     0.031 C 
ATOM     68  C   UNL A   1      37.652  32.270  33.487  1.00  0.00     0.029 A 
ATOM     69  C   UNL A   1      38.826  31.587  33.756  1.00  0.00     0.049 A 
ATOM     70  H   UNL A   1      39.938  30.304  32.500  1.00  0.00     0.167 HD
ATOM     71  C   UNL A   1      40.718  30.835  35.167  1.00  0.00     0.074 A 
ATOM     72  C   UNL A   1      41.482  30.815  36.398  1.00  0.00     0.031 C 
ATOM     73  C   UNL A   1      39.599  31.575  34.972  1.00  0.00     0.037 A 
BRANCH  60  74
ATOM     74  C   UNL A   1      37.192  31.041  29.308  1.00  0.00     0.057 A 
ATOM     75  C   UNL A   1      37.189  32.338  28.778  1.00  0.00     0.134 A 
ATOM     76  C   UNL A   1      36.118  30.206  28.972  1.00  0.00     0.134 A 
ATOM     77  F   UNL A   1      38.180  33.195  29.070  1.00  0.00    -0.206 F 
ATOM     78  C   UNL A   1      36.157  32.789  27.954  1.00  0.00     0.040 A 
ATOM     79  C   UNL A   1      35.090  30.638  28.131  1.00  0.00     0.040 A 
ATOM     80  F   UNL A   1      36.058  28.952  29.447  1.00  0.00    -0.206 F 
ATOM     81  C   UNL A   1      35.104  31.938  27.626  1.00  0.00     0.006 A 
ENDBRANCH  60  74
BRANCH  61  82
ATOM     82  C   UNL A   1      44.508  28.073  35.382  1.00  0.00     0.057 A 
ATOM     83  C   UNL A   1      45.700  28.801  35.489  1.00  0.00     0.134 A 
ATOM     84  C   UNL A   1      44.384  26.912  36.150  1.00  0.00     0.134 A 
ATOM     85  F   UNL A   1      45.879  29.916  34.767  1.00  0.00    -0.206 F 
ATOM     86  C   UNL A   1      46.733  28.384  36.327  1.00  0.00     0.040 A 
ATOM     87  C   UNL A   1      45.400  26.496  37.009  1.00  0.00     0.040 A 
ATOM     88  F   UNL A   1      43.258  26.184  36.095  1.00  0.00    -0.206 F 
ATOM     89  C   UNL A   1      46.581  27.232  37.095  1.00  0.00     0.006 A 
ENDBRANCH  61  82
BRANCH  73  90
ATOM     90  C   UNL A   1      39.135  32.411  36.129  1.00  0.00     0.057 A 
ATOM     91  C   UNL A   1      38.243  31.893  37.077  1.00  0.00     0.134 A 
ATOM     92  C   UNL A   1      39.577  33.729  36.311  1.00  0.00     0.134 A 
ATOM     93  F   UNL A   1      37.779  30.639  36.961  1.00  0.00    -0.206 F 
ATOM     94  C   UNL A   1      37.811  32.652  38.165  1.00  0.00     0.040 A 
ATOM     95  C   UNL A   1      39.172  34.490  37.409  1.00  0.00     0.040 A 
ATOM     96  F   UNL A   1      40.447  34.277  35.450  1.00  0.00    -0.206 F 
ATOM     97  C   UNL A   1      38.283  33.952  38.337  1.00  0.00     0.006 A 
ENDBRANCH  73  90
ENDBRANCH  47  48
ENDBRANCH  40  42
ENDBRANCH  39  40
ENDBRANCH  38  39
ENDBRANCH  37  38
ENDBRANCH  36  37
ENDBRANCH  35  36
ENDBRANCH  34  35
ENDBRANCH  33  34
ENDBRANCH   1  33
TORSDOF 23
ENDMDL
MODEL 3
REMARK VINA RESULT:     -10.2      6.952     10.981
REMARK SMILES O=C(Cc1c(C(=O)c2cc3c(cn2)CCCC3)[nH]c2cc(Cl)ccc12)OCCOCCOCCOCCOC(=O)c1ccc(-c2c3nc(c(-c4c(F)cccc4F)c4ccc([nH]4)c(-c4c(F)cccc4F)c4nc(c(-c5c(F)cccc5F)c5ccc2[nH]5)C=C4)C=C3)cc1
REMARK SMILES IDX 31 1 30 2 29 3 28 4 27 5 26 6 2 7 1 8 3 9 4 10 5 11 25 12
REMARK SMILES IDX 18 13 19 14 24 15 20 17 23 18 21 19 22 20 6 21 7 22 8 23
REMARK SMILES IDX 9 24 13 25 10 26 12 27 11 28 17 29 14 30 16 31 15 32 32 33
REMARK SMILES IDX 33 34 34 35 35 36 36 37 37 38 38 39 39 40 40 41 41 42 42 43
REMARK SMILES IDX 94 44 43 45 93 46 44 47 45 48 46 49 87 50 47 51 92 52 86 53
REMARK SMILES IDX 88 54 48 55 91 56 85 57 84 58 49 60 75 61 58 62 74 63 59 64
REMARK SMILES IDX 62 65 73 66 89 67 60 68 61 69 72 71 90 72 63 73 50 74 51 75
REMARK SMILES IDX 56 76 52 77 53 78 55 79 57 80 54 81 76 82 77 83 82 84 78 85
REMARK SMILES IDX 79 86 81 87 83 88 80 89 64 90 65 91 70 92 66 93 67 94 69 95
REMARK SMILES IDX 71 96 68 97
REMARK H PARENT 18 16 88 59 62 70
REMARK Flexibility Score: inf
ROOT
ATOM      1  C   UNL A   1      40.531  21.266  27.194  1.00  0.00     0.188 C 
ENDROOT
BRANCH   1   2
ATOM      2  C   UNL A   1      39.734  22.526  26.864  1.00  0.00     0.188 C 
BRANCH   2   3
ATOM      3  O   UNL A   1      38.994  22.470  25.648  1.00  0.00    -0.376 OA
BRANCH   3   4
ATOM      4  C   UNL A   1      37.943  21.522  25.602  1.00  0.00     0.202 C 
BRANCH   4   5
ATOM      5  C   UNL A   1      37.206  21.662  24.281  1.00  0.00     0.261 C 
BRANCH   5   6
ATOM      6  O   UNL A   1      35.865  22.150  24.473  1.00  0.00    -0.463 OA
BRANCH   6   7
ATOM      7  C   UNL A   1      35.423  23.396  24.179  1.00  0.00     0.310 C 
ATOM      8  O   UNL A   1      35.300  23.711  22.994  1.00  0.00    -0.252 OA
BRANCH   7   9
ATOM      9  C   UNL A   1      35.087  24.393  25.274  1.00  0.00     0.161 C 
BRANCH   9  10
ATOM     10  C   UNL A   1      33.638  24.748  25.353  1.00  0.00     0.000 A 
ATOM     11  C   UNL A   1      32.582  23.955  25.807  1.00  0.00     0.093 A 
ATOM     12  C   UNL A   1      33.114  26.023  24.999  1.00  0.00     0.004 A 
ATOM     13  N   UNL A   1      31.439  24.714  25.665  1.00  0.00    -0.351 N 
ATOM     14  C   UNL A   1      31.736  25.970  25.182  1.00  0.00     0.048 A 
ATOM     15  C   UNL A   1      33.704  27.223  24.550  1.00  0.00     0.012 A 
ATOM     16  H   UNL A   1      30.531  24.401  25.878  1.00  0.00     0.167 HD
ATOM     17  C   UNL A   1      30.907  27.067  24.917  1.00  0.00     0.047 A 
ATOM     18  C   UNL A   1      32.896  28.331  24.294  1.00  0.00     0.021 A 
ATOM     19  C   UNL A   1      31.520  28.246  24.473  1.00  0.00     0.043 A 
ATOM     20  Cl  UNL A   1      30.545  29.629  24.148  1.00  0.00    -0.084 Cl
BRANCH  11  21
ATOM     21  C   UNL A   1      32.642  22.612  26.391  1.00  0.00     0.227 C 
ATOM     22  O   UNL A   1      32.711  22.437  27.606  1.00  0.00    -0.285 OA
BRANCH  21  23
ATOM     23  C   UNL A   1      32.629  21.401  25.503  1.00  0.00     0.113 A 
ATOM     24  C   UNL A   1      32.886  20.124  25.998  1.00  0.00     0.036 A 
ATOM     25  N   UNL A   1      32.316  21.635  24.204  1.00  0.00    -0.252 NA
ATOM     26  C   UNL A   1      32.861  19.035  25.112  1.00  0.00    -0.041 A 
ATOM     27  C   UNL A   1      32.291  20.574  23.370  1.00  0.00     0.115 A 
ATOM     28  C   UNL A   1      32.587  19.272  23.757  1.00  0.00    -0.026 A 
ATOM     29  C   UNL A   1      33.187  17.650  25.617  1.00  0.00     0.036 C 
ATOM     30  C   UNL A   1      32.566  18.164  22.740  1.00  0.00     0.037 C 
ATOM     31  C   UNL A   1      32.931  16.536  24.599  1.00  0.00     0.005 C 
ATOM     32  C   UNL A   1      33.375  16.953  23.202  1.00  0.00     0.005 C 
ENDBRANCH  21  23
ENDBRANCH  11  21
ENDBRANCH   9  10
ENDBRANCH   7   9
ENDBRANCH   6   7
ENDBRANCH   5   6
ENDBRANCH   4   5
ENDBRANCH   3   4
ENDBRANCH   2   3
ENDBRANCH   1   2
BRANCH   1  33
ATOM     33  O   UNL A   1      41.314  20.662  26.170  1.00  0.00    -0.377 OA
BRANCH  33  34
ATOM     34  C   UNL A   1      42.268  19.673  26.521  1.00  0.00     0.188 C 
BRANCH  34  35
ATOM     35  C   UNL A   1      43.276  19.170  25.480  1.00  0.00     0.188 C 
BRANCH  35  36
ATOM     36  O   UNL A   1      43.912  20.193  24.720  1.00  0.00    -0.376 OA
BRANCH  36  37
ATOM     37  C   UNL A   1      45.320  20.286  24.917  1.00  0.00     0.202 C 
BRANCH  37  38
ATOM     38  C   UNL A   1      45.760  21.725  25.192  1.00  0.00     0.261 C 
BRANCH  38  39
ATOM     39  O   UNL A   1      45.236  22.296  26.401  1.00  0.00    -0.460 OA
BRANCH  39  40
ATOM     40  C   UNL A   1      44.357  23.322  26.293  1.00  0.00     0.338 C 
ATOM     41  O   UNL A   1      43.150  23.253  26.298  1.00  0.00    -0.246 OA
BRANCH  40  42
ATOM     42  C   UNL A   1      45.138  24.589  26.326  1.00  0.00     0.060 A 
ATOM     43  C   UNL A   1      45.714  25.055  27.512  1.00  0.00     0.016 A 
ATOM     44  C   UNL A   1      45.205  25.367  25.161  1.00  0.00     0.016 A 
ATOM     45  C   UNL A   1      46.345  26.301  27.540  1.00  0.00     0.010 A 
ATOM     46  C   UNL A   1      45.807  26.629  25.198  1.00  0.00     0.010 A 
ATOM     47  C   UNL A   1      46.393  27.096  26.385  1.00  0.00    -0.014 A 
BRANCH  47  48
ATOM     48  C   UNL A   1      47.247  28.307  26.371  1.00  0.00     0.031 A 
ATOM     49  C   UNL A   1      48.736  28.252  26.222  1.00  0.00     0.074 A 
ATOM     50  C   UNL A   1      46.620  29.492  26.482  1.00  0.00     0.049 A 
ATOM     51  N   UNL A   1      49.582  29.246  26.107  1.00  0.00    -0.248 NA
ATOM     52  C   UNL A   1      49.359  26.922  26.202  1.00  0.00     0.031 C 
ATOM     53  C   UNL A   1      45.174  29.661  26.637  1.00  0.00     0.029 A 
ATOM     54  N   UNL A   1      47.112  30.770  26.481  1.00  0.00    -0.354 N 
ATOM     55  C   UNL A   1      50.837  28.669  25.975  1.00  0.00     0.074 A 
ATOM     56  C   UNL A   1      50.644  27.234  26.067  1.00  0.00     0.031 C 
ATOM     57  C   UNL A   1      44.894  30.969  26.715  1.00  0.00     0.029 A 
ATOM     58  C   UNL A   1      46.138  31.725  26.624  1.00  0.00     0.049 A 
ATOM     59  H   UNL A   1      48.068  30.982  26.386  1.00  0.00     0.167 HD
ATOM     60  C   UNL A   1      52.031  29.283  25.783  1.00  0.00     0.037 A 
ATOM     61  C   UNL A   1      46.233  33.064  26.675  1.00  0.00     0.037 A 
ATOM     62  C   UNL A   1      52.216  30.715  25.713  1.00  0.00     0.049 A 
ATOM     63  C   UNL A   1      47.575  33.713  26.518  1.00  0.00     0.074 A 
ATOM     64  C   UNL A   1      53.380  31.426  25.465  1.00  0.00     0.029 A 
ATOM     65  N   UNL A   1      51.215  31.656  25.909  1.00  0.00    -0.354 N 
ATOM     66  N   UNL A   1      48.743  33.157  26.309  1.00  0.00    -0.248 NA
ATOM     67  C   UNL A   1      47.609  35.179  26.591  1.00  0.00     0.031 C 
ATOM     68  C   UNL A   1      53.094  32.793  25.563  1.00  0.00     0.029 A 
ATOM     69  C   UNL A   1      51.743  32.937  25.825  1.00  0.00     0.049 A 
ATOM     70  H   UNL A   1      50.269  31.446  26.082  1.00  0.00     0.167 HD
ATOM     71  C   UNL A   1      49.647  34.203  26.201  1.00  0.00     0.074 A 
ATOM     72  C   UNL A   1      48.888  35.429  26.352  1.00  0.00     0.031 C 
ATOM     73  C   UNL A   1      50.985  34.152  25.993  1.00  0.00     0.037 A 
BRANCH  60  74
ATOM     74  C   UNL A   1      53.249  28.416  25.630  1.00  0.00     0.057 A 
ATOM     75  C   UNL A   1      54.040  28.082  26.737  1.00  0.00     0.134 A 
ATOM     76  C   UNL A   1      53.687  27.982  24.371  1.00  0.00     0.134 A 
ATOM     77  F   UNL A   1      53.687  28.477  27.970  1.00  0.00    -0.206 F 
ATOM     78  C   UNL A   1      55.222  27.353  26.599  1.00  0.00     0.040 A 
ATOM     79  C   UNL A   1      54.857  27.234  24.222  1.00  0.00     0.040 A 
ATOM     80  F   UNL A   1      52.979  28.269  23.269  1.00  0.00    -0.206 F 
ATOM     81  C   UNL A   1      55.633  26.924  25.338  1.00  0.00     0.006 A 
ENDBRANCH  60  74
BRANCH  61  82
ATOM     82  C   UNL A   1      45.010  33.877  26.860  1.00  0.00     0.057 A 
ATOM     83  C   UNL A   1      44.254  34.311  25.765  1.00  0.00     0.134 A 
ATOM     84  C   UNL A   1      44.577  34.247  28.137  1.00  0.00     0.134 A 
ATOM     85  F   UNL A   1      44.629  33.996  24.516  1.00  0.00    -0.206 F 
ATOM     86  C   UNL A   1      43.110  35.089  25.933  1.00  0.00     0.040 A 
ATOM     87  C   UNL A   1      43.421  35.006  28.321  1.00  0.00     0.040 A 
ATOM     88  F   UNL A   1      45.256  33.848  29.222  1.00  0.00    -0.206 F 
ATOM     89  C   UNL A   1      42.687  35.432  27.215  1.00  0.00     0.006 A 
ENDBRANCH  61  82
BRANCH  73  90
ATOM     90  C   UNL A   1      51.704  35.466  25.905  1.00  0.00     0.057 A 
ATOM     91  C   UNL A   1      51.897  36.098  24.670  1.00  0.00     0.134 A 
ATOM     92  C   UNL A   1      52.199  36.113  27.045  1.00  0.00     0.134 A 
ATOM     93  F   UNL A   1      51.450  35.532  23.539  1.00  0.00    -0.206 F 
ATOM     94  C   UNL A   1      52.552  37.326  24.572  1.00  0.00     0.040 A 
ATOM     95  C   UNL A   1      52.834  37.354  26.963  1.00  0.00     0.040 A 
ATOM     96  F   UNL A   1      52.029  35.571  28.261  1.00  0.00    -0.206 F 
ATOM     97  C   UNL A   1      53.015  37.962  25.722  1.00  0.00     0.006 A 
ENDBRANCH  73  90
ENDBRANCH  47  48
ENDBRANCH  40  42
ENDBRANCH  39  40
ENDBRANCH  38  39
ENDBRANCH  37  38
ENDBRANCH  36  37
ENDBRANCH  35  36
ENDBRANCH  34  35
ENDBRANCH  33  34
ENDBRANCH   1  33
TORSDOF 23
ENDMDL
