MODEL 1
REMARK VINA RESULT:     -10.9      0.000      0.000
REMARK SMILES Cc1ccc(-c2cc(Cl)cc3c2O[C@@H](C(F)(F)F)C(C(=O)OCCOCCOCCOCCOC(=O)c2ccc(-c4c5nc(c(-c6c(F)cccc6F)c6ccc([nH]6)c(-c6c(F)cccc6F)c6nc(c(-c7c(F)cccc7F)c7ccc4[nH]7)C=C6)C=C5)cc2)=C3)cc1
REMARK SMILES IDX 29 1 28 2 27 3 26 4 25 5 24 6 23 7 22 8 20 9 21 10 19 11
REMARK SMILES IDX 6 12 7 13 12 14 8 15 11 16 13 17 9 18 10 19 91 20 14 21 5 22
REMARK SMILES IDX 1 23 2 24 3 25 93 26 4 27 92 28 15 29 16 30 17 31 18 32
REMARK SMILES IDX 30 33 31 34 32 35 33 36 34 37 35 38 36 39 37 40 38 41 90 42
REMARK SMILES IDX 39 43 89 44 40 45 41 46 42 47 83 48 43 49 88 50 82 51 84 52
REMARK SMILES IDX 44 53 87 54 81 55 80 56 45 58 71 59 54 60 70 61 55 62 58 63
REMARK SMILES IDX 69 64 85 65 56 66 57 67 68 69 86 70 59 71 46 72 47 73 52 74
REMARK SMILES IDX 48 75 49 76 51 77 53 78 50 79 72 80 73 81 78 82 74 83 75 84
REMARK SMILES IDX 77 85 79 86 76 87 60 88 61 89 66 90 62 91 63 92 65 93 67 94
REMARK SMILES IDX 64 95
REMARK H PARENT 84 57 58 68
REMARK Flexibility Score: inf
ROOT
ATOM      1  C   UNL A   1      40.015  20.330  25.768  1.00  0.00     0.188 C 
ENDROOT
BRANCH   1   2
ATOM      2  O   UNL A   1      38.961  21.173  26.201  1.00  0.00    -0.377 OA
BRANCH   2   3
ATOM      3  C   UNL A   1      38.058  21.485  25.156  1.00  0.00     0.188 C 
BRANCH   3   4
ATOM      4  C   UNL A   1      36.594  21.517  25.545  1.00  0.00     0.188 C 
BRANCH   4   5
ATOM      5  O   UNL A   1      36.013  22.411  26.481  1.00  0.00    -0.376 OA
BRANCH   5   6
ATOM      6  C   UNL A   1      35.971  23.785  26.050  1.00  0.00     0.202 C 
BRANCH   6   7
ATOM      7  C   UNL A   1      34.887  24.585  25.222  1.00  0.00     0.261 C 
BRANCH   7   8
ATOM      8  O   UNL A   1      34.713  24.323  23.825  1.00  0.00    -0.460 OA
BRANCH   8   9
ATOM      9  C   UNL A   1      33.749  25.035  23.153  1.00  0.00     0.338 C 
ATOM     10  O   UNL A   1      33.732  26.247  22.950  1.00  0.00    -0.246 OA
BRANCH   9  11
ATOM     11  C   UNL A   1      32.889  24.057  22.343  1.00  0.00     0.087 C 
ATOM     12  C   UNL A   1      30.762  25.810  25.239  1.00  0.00     0.026 A 
ATOM     13  C   UNL A   1      30.348  24.969  26.293  1.00  0.00     0.033 A 
ATOM     14  C   UNL A   1      31.082  25.123  24.001  1.00  0.00     0.135 A 
ATOM     15  C   UNL A   1      30.364  23.577  26.202  1.00  0.00     0.042 A 
ATOM     16  C   UNL A   1      31.304  23.714  24.023  1.00  0.00     0.019 A 
ATOM     17  O   UNL A   1      31.291  25.711  22.735  1.00  0.00    -0.475 OA
ATOM     18  Cl  UNL A   1      29.917  22.644  27.572  1.00  0.00    -0.084 Cl
ATOM     19  C   UNL A   1      30.870  22.941  25.082  1.00  0.00     0.032 A 
ATOM     20  C   UNL A   1      32.198  23.091  22.991  1.00  0.00     0.027 C 
ATOM     21  C   UNL A   1      31.877  24.879  21.612  1.00  0.00     0.316 C 
BRANCH  12  22
ATOM     22  C   UNL A   1      31.145  27.187  25.804  1.00  0.00    -0.015 A 
ATOM     23  C   UNL A   1      32.624  31.201  26.971  1.00  0.00     0.044 C 
ATOM     24  C   UNL A   1      32.162  29.816  26.588  1.00  0.00    -0.051 A 
ATOM     25  C   UNL A   1      32.003  28.779  27.512  1.00  0.00     0.004 A 
ATOM     26  C   UNL A   1      31.871  29.517  25.266  1.00  0.00     0.004 A 
ATOM     27  C   UNL A   1      31.519  27.489  27.127  1.00  0.00     0.009 A 
ATOM     28  C   UNL A   1      31.399  28.245  24.885  1.00  0.00     0.009 A 
ENDBRANCH  12  22
BRANCH  21  29
ATOM     29  C   UNL A   1      32.541  25.432  20.288  1.00  0.00     0.430 C 
ATOM     30  F   UNL A   1      33.396  24.472  19.811  1.00  0.00    -0.167 F 
ATOM     31  F   UNL A   1      31.652  25.636  19.291  1.00  0.00    -0.167 F 
ATOM     32  F   UNL A   1      33.308  26.533  20.393  1.00  0.00    -0.167 F 
ENDBRANCH  21  29
ENDBRANCH   9  11
ENDBRANCH   8   9
ENDBRANCH   7   8
ENDBRANCH   6   7
ENDBRANCH   5   6
ENDBRANCH   4   5
ENDBRANCH   3   4
ENDBRANCH   2   3
ENDBRANCH   1   2
BRANCH   1  33
ATOM     33  C   UNL A   1      40.911  19.872  26.883  1.00  0.00     0.188 C 
BRANCH  33  34
ATOM     34  O   UNL A   1      42.235  19.900  26.356  1.00  0.00    -0.376 OA
BRANCH  34  35
ATOM     35  C   UNL A   1      42.737  18.640  25.948  1.00  0.00     0.202 C 
BRANCH  35  36
ATOM     36  C   UNL A   1      43.944  18.784  25.014  1.00  0.00     0.261 C 
BRANCH  36  37
ATOM     37  O   UNL A   1      44.991  19.478  25.738  1.00  0.00    -0.460 OA
BRANCH  37  38
ATOM     38  C   UNL A   1      45.850  20.237  24.997  1.00  0.00     0.338 C 
ATOM     39  O   UNL A   1      46.972  19.897  24.658  1.00  0.00    -0.246 OA
BRANCH  38  40
ATOM     40  C   UNL A   1      45.363  21.658  24.919  1.00  0.00     0.060 A 
ATOM     41  C   UNL A   1      46.134  22.643  24.273  1.00  0.00     0.016 A 
ATOM     42  C   UNL A   1      44.303  22.071  25.717  1.00  0.00     0.016 A 
ATOM     43  C   UNL A   1      45.934  24.019  24.545  1.00  0.00     0.010 A 
ATOM     44  C   UNL A   1      44.135  23.426  26.000  1.00  0.00     0.010 A 
ATOM     45  C   UNL A   1      44.975  24.426  25.477  1.00  0.00    -0.014 A 
BRANCH  45  46
ATOM     46  C   UNL A   1      44.893  25.781  26.119  1.00  0.00     0.031 A 
ATOM     47  C   UNL A   1      43.568  26.516  26.154  1.00  0.00     0.074 A 
ATOM     48  C   UNL A   1      45.879  26.148  26.992  1.00  0.00     0.049 A 
ATOM     49  N   UNL A   1      43.294  27.550  26.877  1.00  0.00    -0.248 NA
ATOM     50  C   UNL A   1      42.399  26.114  25.380  1.00  0.00     0.031 C 
ATOM     51  C   UNL A   1      45.760  27.040  28.160  1.00  0.00     0.029 A 
ATOM     52  N   UNL A   1      47.181  25.662  27.153  1.00  0.00    -0.354 N 
ATOM     53  C   UNL A   1      41.921  27.770  26.918  1.00  0.00     0.074 A 
ATOM     54  C   UNL A   1      41.425  26.874  25.905  1.00  0.00     0.031 C 
ATOM     55  C   UNL A   1      46.895  27.074  28.871  1.00  0.00     0.029 A 
ATOM     56  C   UNL A   1      47.894  26.538  28.001  1.00  0.00     0.049 A 
ATOM     57  H   UNL A   1      47.542  24.844  26.743  1.00  0.00     0.167 HD
ATOM     58  C   UNL A   1      41.404  28.611  27.884  1.00  0.00     0.037 A 
ATOM     59  C   UNL A   1      48.889  27.309  27.485  1.00  0.00     0.037 A 
ATOM     60  C   UNL A   1      42.503  29.324  28.584  1.00  0.00     0.049 A 
ATOM     61  C   UNL A   1      48.399  28.762  27.404  1.00  0.00     0.074 A 
ATOM     62  C   UNL A   1      42.879  29.525  29.901  1.00  0.00     0.029 A 
ATOM     63  N   UNL A   1      43.567  29.834  27.835  1.00  0.00    -0.354 N 
ATOM     64  N   UNL A   1      47.124  29.093  27.309  1.00  0.00    -0.248 NA
ATOM     65  C   UNL A   1      49.220  29.934  27.698  1.00  0.00     0.031 C 
ATOM     66  C   UNL A   1      44.246  29.929  29.932  1.00  0.00     0.029 A 
ATOM     67  C   UNL A   1      44.650  30.159  28.625  1.00  0.00     0.049 A 
ATOM     68  H   UNL A   1      43.546  29.948  26.858  1.00  0.00     0.167 HD
ATOM     69  C   UNL A   1      46.933  30.384  27.726  1.00  0.00     0.074 A 
ATOM     70  C   UNL A   1      48.287  30.896  27.863  1.00  0.00     0.031 C 
ATOM     71  C   UNL A   1      45.732  30.956  28.068  1.00  0.00     0.037 A 
BRANCH  58  72
ATOM     72  C   UNL A   1      39.936  28.642  28.407  1.00  0.00     0.057 A 
ATOM     73  C   UNL A   1      38.912  29.333  27.713  1.00  0.00     0.134 A 
ATOM     74  C   UNL A   1      39.476  28.120  29.629  1.00  0.00     0.134 A 
ATOM     75  F   UNL A   1      39.037  29.668  26.424  1.00  0.00    -0.206 F 
ATOM     76  C   UNL A   1      37.659  29.668  28.270  1.00  0.00     0.040 A 
ATOM     77  C   UNL A   1      38.214  28.423  30.195  1.00  0.00     0.040 A 
ATOM     78  F   UNL A   1      40.215  27.288  30.364  1.00  0.00    -0.206 F 
ATOM     79  C   UNL A   1      37.317  29.245  29.538  1.00  0.00     0.006 A 
ENDBRANCH  58  72
BRANCH  59  80
ATOM     80  C   UNL A   1      49.818  26.402  26.723  1.00  0.00     0.057 A 
ATOM     81  C   UNL A   1      49.911  26.716  25.338  1.00  0.00     0.134 A 
ATOM     82  C   UNL A   1      50.998  25.916  27.308  1.00  0.00     0.134 A 
ATOM     83  F   UNL A   1      48.829  27.180  24.688  1.00  0.00    -0.206 F 
ATOM     84  C   UNL A   1      51.136  26.783  24.657  1.00  0.00     0.040 A 
ATOM     85  C   UNL A   1      52.230  25.955  26.619  1.00  0.00     0.040 A 
ATOM     86  F   UNL A   1      51.029  25.604  28.611  1.00  0.00    -0.206 F 
ATOM     87  C   UNL A   1      52.311  26.447  25.316  1.00  0.00     0.006 A 
ENDBRANCH  59  80
BRANCH  71  88
ATOM     88  C   UNL A   1      45.375  32.410  27.826  1.00  0.00     0.057 A 
ATOM     89  C   UNL A   1      44.887  32.853  26.597  1.00  0.00     0.134 A 
ATOM     90  C   UNL A   1      45.190  33.315  28.909  1.00  0.00     0.134 A 
ATOM     91  F   UNL A   1      44.937  32.085  25.501  1.00  0.00    -0.206 F 
ATOM     92  C   UNL A   1      44.248  34.089  26.455  1.00  0.00     0.040 A 
ATOM     93  C   UNL A   1      44.488  34.512  28.791  1.00  0.00     0.040 A 
ATOM     94  F   UNL A   1      45.627  33.064  30.150  1.00  0.00    -0.206 F 
ATOM     95  C   UNL A   1      44.016  34.906  27.555  1.00  0.00     0.006 A 
ENDBRANCH  71  88
ENDBRANCH  45  46
ENDBRANCH  38  40
ENDBRANCH  37  38
ENDBRANCH  36  37
ENDBRANCH  35  36
ENDBRANCH  34  35
ENDBRANCH  33  34
ENDBRANCH   1  33
TORSDOF 22
ENDMDL
MODEL 2
REMARK VINA RESULT:     -10.8      1.848      2.457
REMARK SMILES Cc1ccc(-c2cc(Cl)cc3c2O[C@@H](C(F)(F)F)C(C(=O)OCCOCCOCCOCCOC(=O)c2ccc(-c4c5nc(c(-c6c(F)cccc6F)c6ccc([nH]6)c(-c6c(F)cccc6F)c6nc(c(-c7c(F)cccc7F)c7ccc4[nH]7)C=C6)C=C5)cc2)=C3)cc1
REMARK SMILES IDX 29 1 28 2 27 3 26 4 25 5 24 6 23 7 22 8 20 9 21 10 19 11
REMARK SMILES IDX 6 12 7 13 12 14 8 15 11 16 13 17 9 18 10 19 91 20 14 21 5 22
REMARK SMILES IDX 1 23 2 24 3 25 93 26 4 27 92 28 15 29 16 30 17 31 18 32
REMARK SMILES IDX 30 33 31 34 32 35 33 36 34 37 35 38 36 39 37 40 38 41 90 42
REMARK SMILES IDX 39 43 89 44 40 45 41 46 42 47 83 48 43 49 88 50 82 51 84 52
REMARK SMILES IDX 44 53 87 54 81 55 80 56 45 58 71 59 54 60 70 61 55 62 58 63
REMARK SMILES IDX 69 64 85 65 56 66 57 67 68 69 86 70 59 71 46 72 47 73 52 74
REMARK SMILES IDX 48 75 49 76 51 77 53 78 50 79 72 80 73 81 78 82 74 83 75 84
REMARK SMILES IDX 77 85 79 86 76 87 60 88 61 89 66 90 62 91 63 92 65 93 67 94
REMARK SMILES IDX 64 95
REMARK H PARENT 84 57 58 68
REMARK Flexibility Score: inf
ROOT
ATOM      1  C   UNL A   1      39.080  21.499  25.603  1.00  0.00     0.188 C 
ENDROOT
BRANCH   1   2
ATOM      2  O   UNL A   1      37.960  22.057  26.268  1.00  0.00    -0.377 OA
BRANCH   2   3
ATOM      3  C   UNL A   1      37.731  23.405  25.897  1.00  0.00     0.188 C 
BRANCH   3   4
ATOM      4  C   UNL A   1      36.280  23.788  25.692  1.00  0.00     0.188 C 
BRANCH   4   5
ATOM      5  O   UNL A   1      35.171  22.918  25.851  1.00  0.00    -0.376 OA
BRANCH   5   6
ATOM      6  C   UNL A   1      34.178  23.377  26.788  1.00  0.00     0.202 C 
BRANCH   6   7
ATOM      7  C   UNL A   1      32.817  24.153  26.568  1.00  0.00     0.261 C 
BRANCH   7   8
ATOM      8  O   UNL A   1      32.420  24.547  25.250  1.00  0.00    -0.460 OA
BRANCH   8   9
ATOM      9  C   UNL A   1      31.120  24.953  25.065  1.00  0.00     0.338 C 
ATOM     10  O   UNL A   1      30.455  25.666  25.814  1.00  0.00    -0.246 OA
BRANCH   9  11
ATOM     11  C   UNL A   1      30.734  24.721  23.599  1.00  0.00     0.087 C 
ATOM     12  C   UNL A   1      31.808  28.519  24.236  1.00  0.00     0.026 A 
ATOM     13  C   UNL A   1      30.776  29.475  24.135  1.00  0.00     0.033 A 
ATOM     14  C   UNL A   1      31.549  27.268  23.548  1.00  0.00     0.135 A 
ATOM     15  C   UNL A   1      29.548  29.203  23.531  1.00  0.00     0.042 A 
ATOM     16  C   UNL A   1      30.215  26.953  23.151  1.00  0.00     0.019 A 
ATOM     17  O   UNL A   1      32.477  26.239  23.284  1.00  0.00    -0.475 OA
ATOM     18  Cl  UNL A   1      28.329  30.412  23.532  1.00  0.00    -0.084 Cl
ATOM     19  C   UNL A   1      29.249  27.935  23.065  1.00  0.00     0.032 A 
ATOM     20  C   UNL A   1      29.801  25.517  23.027  1.00  0.00     0.027 C 
ATOM     21  C   UNL A   1      31.983  24.893  22.795  1.00  0.00     0.316 C 
BRANCH  12  22
ATOM     22  C   UNL A   1      32.757  28.911  25.381  1.00  0.00    -0.015 A 
ATOM     23  C   UNL A   1      35.403  30.605  28.509  1.00  0.00     0.044 C 
ATOM     24  C   UNL A   1      34.536  30.038  27.412  1.00  0.00    -0.051 A 
ATOM     25  C   UNL A   1      34.894  28.919  26.653  1.00  0.00     0.004 A 
ATOM     26  C   UNL A   1      33.317  30.625  27.111  1.00  0.00     0.004 A 
ATOM     27  C   UNL A   1      34.031  28.376  25.650  1.00  0.00     0.009 A 
ATOM     28  C   UNL A   1      32.467  30.093  26.120  1.00  0.00     0.009 A 
ENDBRANCH  12  22
BRANCH  21  29
ATOM     29  C   UNL A   1      32.790  23.533  22.825  1.00  0.00     0.430 C 
ATOM     30  F   UNL A   1      33.017  23.147  21.529  1.00  0.00    -0.167 F 
ATOM     31  F   UNL A   1      34.018  23.653  23.375  1.00  0.00    -0.167 F 
ATOM     32  F   UNL A   1      32.187  22.468  23.385  1.00  0.00    -0.167 F 
ENDBRANCH  21  29
ENDBRANCH   9  11
ENDBRANCH   8   9
ENDBRANCH   7   8
ENDBRANCH   6   7
ENDBRANCH   5   6
ENDBRANCH   4   5
ENDBRANCH   3   4
ENDBRANCH   2   3
ENDBRANCH   1   2
BRANCH   1  33
ATOM     33  C   UNL A   1      40.155  21.023  26.538  1.00  0.00     0.188 C 
BRANCH  33  34
ATOM     34  O   UNL A   1      41.269  20.690  25.714  1.00  0.00    -0.376 OA
BRANCH  34  35
ATOM     35  C   UNL A   1      41.979  19.533  26.118  1.00  0.00     0.202 C 
BRANCH  35  36
ATOM     36  C   UNL A   1      43.206  19.281  25.233  1.00  0.00     0.261 C 
BRANCH  36  37
ATOM     37  O   UNL A   1      44.326  20.004  25.802  1.00  0.00    -0.460 OA
BRANCH  37  38
ATOM     38  C   UNL A   1      44.793  21.071  25.091  1.00  0.00     0.338 C 
ATOM     39  O   UNL A   1      45.807  21.070  24.411  1.00  0.00    -0.246 OA
BRANCH  38  40
ATOM     40  C   UNL A   1      44.078  22.330  25.498  1.00  0.00     0.060 A 
ATOM     41  C   UNL A   1      43.799  23.332  24.548  1.00  0.00     0.016 A 
ATOM     42  C   UNL A   1      43.942  22.643  26.844  1.00  0.00     0.016 A 
ATOM     43  C   UNL A   1      43.534  24.664  24.952  1.00  0.00     0.010 A 
ATOM     44  C   UNL A   1      43.709  23.963  27.229  1.00  0.00     0.010 A 
ATOM     45  C   UNL A   1      43.561  25.013  26.305  1.00  0.00    -0.014 A 
BRANCH  45  46
ATOM     46  C   UNL A   1      43.652  26.410  26.850  1.00  0.00     0.031 A 
ATOM     47  C   UNL A   1      42.384  27.201  27.105  1.00  0.00     0.074 A 
ATOM     48  C   UNL A   1      44.809  26.792  27.470  1.00  0.00     0.049 A 
ATOM     49  N   UNL A   1      42.296  28.290  27.792  1.00  0.00    -0.248 NA
ATOM     50  C   UNL A   1      41.068  26.797  26.622  1.00  0.00     0.031 C 
ATOM     51  C   UNL A   1      44.962  27.764  28.569  1.00  0.00     0.029 A 
ATOM     52  N   UNL A   1      46.102  26.265  27.392  1.00  0.00    -0.354 N 
ATOM     53  C   UNL A   1      40.969  28.569  28.101  1.00  0.00     0.074 A 
ATOM     54  C   UNL A   1      40.247  27.630  27.281  1.00  0.00     0.031 C 
ATOM     55  C   UNL A   1      46.221  27.797  29.025  1.00  0.00     0.029 A 
ATOM     56  C   UNL A   1      47.001  27.164  28.008  1.00  0.00     0.049 A 
ATOM     57  H   UNL A   1      46.346  25.407  26.977  1.00  0.00     0.167 HD
ATOM     58  C   UNL A   1      40.688  29.492  29.089  1.00  0.00     0.037 A 
ATOM     59  C   UNL A   1      47.886  27.857  27.242  1.00  0.00     0.037 A 
ATOM     60  C   UNL A   1      41.929  30.204  29.493  1.00  0.00     0.049 A 
ATOM     61  C   UNL A   1      47.429  29.321  27.158  1.00  0.00     0.074 A 
ATOM     62  C   UNL A   1      42.578  30.474  30.684  1.00  0.00     0.029 A 
ATOM     63  N   UNL A   1      42.825  30.619  28.504  1.00  0.00    -0.354 N 
ATOM     64  N   UNL A   1      46.172  29.698  27.306  1.00  0.00    -0.248 NA
ATOM     65  C   UNL A   1      48.324  30.475  27.189  1.00  0.00     0.031 C 
ATOM     66  C   UNL A   1      43.932  30.823  30.401  1.00  0.00     0.029 A 
ATOM     67  C   UNL A   1      44.059  30.949  29.025  1.00  0.00     0.049 A 
ATOM     68  H   UNL A   1      42.603  30.669  27.546  1.00  0.00     0.167 HD
ATOM     69  C   UNL A   1      46.107  31.020  27.659  1.00  0.00     0.074 A 
ATOM     70  C   UNL A   1      47.473  31.483  27.475  1.00  0.00     0.031 C 
ATOM     71  C   UNL A   1      45.020  31.663  28.201  1.00  0.00     0.037 A 
BRANCH  58  72
ATOM     72  C   UNL A   1      39.365  29.619  29.902  1.00  0.00     0.057 A 
ATOM     73  C   UNL A   1      38.785  30.880  30.191  1.00  0.00     0.134 A 
ATOM     74  C   UNL A   1      38.666  28.570  30.526  1.00  0.00     0.134 A 
ATOM     75  F   UNL A   1      39.104  31.977  29.495  1.00  0.00    -0.206 F 
ATOM     76  C   UNL A   1      37.787  31.092  31.166  1.00  0.00     0.040 A 
ATOM     77  C   UNL A   1      37.646  28.760  31.489  1.00  0.00     0.040 A 
ATOM     78  F   UNL A   1      38.927  27.290  30.256  1.00  0.00    -0.206 F 
ATOM     79  C   UNL A   1      37.237  30.029  31.853  1.00  0.00     0.006 A 
ENDBRANCH  58  72
BRANCH  59  80
ATOM     80  C   UNL A   1      48.609  26.864  26.372  1.00  0.00     0.057 A 
ATOM     81  C   UNL A   1      48.398  27.068  24.979  1.00  0.00     0.134 A 
ATOM     82  C   UNL A   1      49.882  26.386  26.722  1.00  0.00     0.134 A 
ATOM     83  F   UNL A   1      47.207  27.516  24.546  1.00  0.00    -0.206 F 
ATOM     84  C   UNL A   1      49.443  27.043  24.043  1.00  0.00     0.040 A 
ATOM     85  C   UNL A   1      50.932  26.331  25.779  1.00  0.00     0.040 A 
ATOM     86  F   UNL A   1      50.196  26.174  28.008  1.00  0.00    -0.206 F 
ATOM     87  C   UNL A   1      50.729  26.720  24.454  1.00  0.00     0.006 A 
ENDBRANCH  59  80
BRANCH  71  88
ATOM     88  C   UNL A   1      44.660  33.111  27.933  1.00  0.00     0.057 A 
ATOM     89  C   UNL A   1      44.135  33.525  26.708  1.00  0.00     0.134 A 
ATOM     90  C   UNL A   1      44.510  34.044  28.997  1.00  0.00     0.134 A 
ATOM     91  F   UNL A   1      44.150  32.729  25.631  1.00  0.00    -0.206 F 
ATOM     92  C   UNL A   1      43.495  34.759  26.554  1.00  0.00     0.040 A 
ATOM     93  C   UNL A   1      43.809  35.240  28.871  1.00  0.00     0.040 A 
ATOM     94  F   UNL A   1      44.985  33.824  30.230  1.00  0.00    -0.206 F 
ATOM     95  C   UNL A   1      43.300  35.604  27.640  1.00  0.00     0.006 A 
ENDBRANCH  71  88
ENDBRANCH  45  46
ENDBRANCH  38  40
ENDBRANCH  37  38
ENDBRANCH  36  37
ENDBRANCH  35  36
ENDBRANCH  34  35
ENDBRANCH  33  34
ENDBRANCH   1  33
TORSDOF 22
ENDMDL
MODEL 3
REMARK VINA RESULT:     -10.4      5.257     10.323
REMARK SMILES Cc1ccc(-c2cc(Cl)cc3c2O[C@@H](C(F)(F)F)C(C(=O)OCCOCCOCCOCCOC(=O)c2ccc(-c4c5nc(c(-c6c(F)cccc6F)c6ccc([nH]6)c(-c6c(F)cccc6F)c6nc(c(-c7c(F)cccc7F)c7ccc4[nH]7)C=C6)C=C5)cc2)=C3)cc1
REMARK SMILES IDX 29 1 28 2 27 3 26 4 25 5 24 6 23 7 22 8 20 9 21 10 19 11
REMARK SMILES IDX 6 12 7 13 12 14 8 15 11 16 13 17 9 18 10 19 91 20 14 21 5 22
REMARK SMILES IDX 1 23 2 24 3 25 93 26 4 27 92 28 15 29 16 30 17 31 18 32
REMARK SMILES IDX 30 33 31 34 32 35 33 36 34 37 35 38 36 39 37 40 38 41 90 42
REMARK SMILES IDX 39 43 89 44 40 45 41 46 42 47 83 48 43 49 88 50 82 51 84 52
REMARK SMILES IDX 44 53 87 54 81 55 80 56 45 58 71 59 54 60 70 61 55 62 58 63
REMARK SMILES IDX 69 64 85 65 56 66 57 67 68 69 86 70 59 71 46 72 47 73 52 74
REMARK SMILES IDX 48 75 49 76 51 77 53 78 50 79 72 80 73 81 78 82 74 83 75 84
REMARK SMILES IDX 77 85 79 86 76 87 60 88 61 89 66 90 62 91 63 92 65 93 67 94
REMARK SMILES IDX 64 95
REMARK H PARENT 84 57 58 68
REMARK Flexibility Score: inf
ROOT
ATOM      1  C   UNL A   1      43.441  18.800  25.018  1.00  0.00     0.188 C 
ENDROOT
BRANCH   1   2
ATOM      2  O   UNL A   1      44.189  19.686  24.204  1.00  0.00    -0.377 OA
BRANCH   2   3
ATOM      3  C   UNL A   1      44.341  20.963  24.798  1.00  0.00     0.188 C 
BRANCH   3   4
ATOM      4  C   UNL A   1      45.744  21.306  25.256  1.00  0.00     0.188 C 
BRANCH   4   5
ATOM      5  O   UNL A   1      46.108  22.463  25.993  1.00  0.00    -0.376 OA
BRANCH   5   6
ATOM      6  C   UNL A   1      46.054  23.692  25.244  1.00  0.00     0.202 C 
BRANCH   6   7
ATOM      7  C   UNL A   1      45.272  25.041  25.510  1.00  0.00     0.261 C 
BRANCH   7   8
ATOM      8  O   UNL A   1      45.920  26.125  26.186  1.00  0.00    -0.460 OA
BRANCH   8   9
ATOM      9  C   UNL A   1      47.272  26.283  25.999  1.00  0.00     0.338 C 
ATOM     10  O   UNL A   1      48.166  25.550  26.415  1.00  0.00    -0.246 OA
BRANCH   9  11
ATOM     11  C   UNL A   1      47.498  27.288  24.863  1.00  0.00     0.087 C 
ATOM     12  C   UNL A   1      47.773  29.052  28.440  1.00  0.00     0.026 A 
ATOM     13  C   UNL A   1      46.745  29.964  28.758  1.00  0.00     0.033 A 
ATOM     14  C   UNL A   1      47.950  28.800  27.022  1.00  0.00     0.135 A 
ATOM     15  C   UNL A   1      45.878  30.491  27.799  1.00  0.00     0.042 A 
ATOM     16  C   UNL A   1      46.913  29.170  26.114  1.00  0.00     0.019 A 
ATOM     17  O   UNL A   1      49.029  28.131  26.408  1.00  0.00    -0.475 OA
ATOM     18  Cl  UNL A   1      44.608  31.531  28.302  1.00  0.00    -0.084 Cl
ATOM     19  C   UNL A   1      45.936  30.075  26.481  1.00  0.00     0.032 A 
ATOM     20  C   UNL A   1      46.757  28.420  24.825  1.00  0.00     0.027 C 
ATOM     21  C   UNL A   1      48.926  27.723  24.953  1.00  0.00     0.316 C 
BRANCH  12  22
ATOM     22  C   UNL A   1      48.165  28.266  29.702  1.00  0.00    -0.015 A 
ATOM     23  C   UNL A   1      48.917  25.580  33.149  1.00  0.00     0.044 C 
ATOM     24  C   UNL A   1      48.619  26.505  31.995  1.00  0.00    -0.051 A 
ATOM     25  C   UNL A   1      48.423  27.881  32.147  1.00  0.00     0.004 A 
ATOM     26  C   UNL A   1      48.526  26.006  30.705  1.00  0.00     0.004 A 
ATOM     27  C   UNL A   1      48.187  28.741  31.027  1.00  0.00     0.009 A 
ATOM     28  C   UNL A   1      48.290  26.851  29.602  1.00  0.00     0.009 A 
ENDBRANCH  12  22
BRANCH  21  29
ATOM     29  C   UNL A   1      49.824  26.649  24.217  1.00  0.00     0.430 C 
ATOM     30  F   UNL A   1      49.053  26.036  23.262  1.00  0.00    -0.167 F 
ATOM     31  F   UNL A   1      50.856  27.194  23.537  1.00  0.00    -0.167 F 
ATOM     32  F   UNL A   1      50.303  25.632  24.956  1.00  0.00    -0.167 F 
ENDBRANCH  21  29
ENDBRANCH   9  11
ENDBRANCH   8   9
ENDBRANCH   7   8
ENDBRANCH   6   7
ENDBRANCH   5   6
ENDBRANCH   4   5
ENDBRANCH   3   4
ENDBRANCH   2   3
ENDBRANCH   1   2
BRANCH   1  33
ATOM     33  C   UNL A   1      42.594  19.501  26.043  1.00  0.00     0.188 C 
BRANCH  33  34
ATOM     34  O   UNL A   1      41.245  19.326  25.620  1.00  0.00    -0.376 OA
BRANCH  34  35
ATOM     35  C   UNL A   1      40.279  19.946  26.449  1.00  0.00     0.202 C 
BRANCH  35  36
ATOM     36  C   UNL A   1      39.680  21.194  25.790  1.00  0.00     0.261 C 
BRANCH  36  37
ATOM     37  O   UNL A   1      39.391  22.157  26.834  1.00  0.00    -0.460 OA
BRANCH  37  38
ATOM     38  C   UNL A   1      40.457  22.822  27.368  1.00  0.00     0.338 C 
ATOM     39  O   UNL A   1      41.418  22.290  27.903  1.00  0.00    -0.246 OA
BRANCH  38  40
ATOM     40  C   UNL A   1      40.153  24.289  27.496  1.00  0.00     0.060 A 
ATOM     41  C   UNL A   1      40.913  25.240  26.787  1.00  0.00     0.016 A 
ATOM     42  C   UNL A   1      39.324  24.738  28.516  1.00  0.00     0.016 A 
ATOM     43  C   UNL A   1      40.948  26.596  27.197  1.00  0.00     0.010 A 
ATOM     44  C   UNL A   1      39.390  26.068  28.929  1.00  0.00     0.010 A 
ATOM     45  C   UNL A   1      40.241  27.013  28.328  1.00  0.00    -0.014 A 
BRANCH  45  46
ATOM     46  C   UNL A   1      40.457  28.298  29.075  1.00  0.00     0.031 A 
ATOM     47  C   UNL A   1      39.516  29.465  28.850  1.00  0.00     0.074 A 
ATOM     48  C   UNL A   1      41.223  28.271  30.207  1.00  0.00     0.049 A 
ATOM     49  N   UNL A   1      39.427  30.520  29.589  1.00  0.00    -0.248 NA
ATOM     50  C   UNL A   1      38.547  29.524  27.761  1.00  0.00     0.031 C 
ATOM     51  C   UNL A   1      41.099  29.133  31.397  1.00  0.00     0.029 A 
ATOM     52  N   UNL A   1      42.175  27.343  30.643  1.00  0.00    -0.354 N 
ATOM     53  C   UNL A   1      38.263  31.224  29.300  1.00  0.00     0.074 A 
ATOM     54  C   UNL A   1      37.791  30.581  28.100  1.00  0.00     0.031 C 
ATOM     55  C   UNL A   1      41.927  28.744  32.376  1.00  0.00     0.029 A 
ATOM     56  C   UNL A   1      42.879  27.890  31.738  1.00  0.00     0.049 A 
ATOM     57  H   UNL A   1      42.328  26.454  30.250  1.00  0.00     0.167 HD
ATOM     58  C   UNL A   1      37.821  32.185  30.188  1.00  0.00     0.037 A 
ATOM     59  C   UNL A   1      44.182  28.251  31.584  1.00  0.00     0.037 A 
ATOM     60  C   UNL A   1      38.856  32.441  31.223  1.00  0.00     0.049 A 
ATOM     61  C   UNL A   1      44.270  29.783  31.542  1.00  0.00     0.074 A 
ATOM     62  C   UNL A   1      38.893  32.477  32.606  1.00  0.00     0.029 A 
ATOM     63  N   UNL A   1      40.195  32.537  30.835  1.00  0.00    -0.354 N 
ATOM     64  N   UNL A   1      43.270  30.557  31.161  1.00  0.00    -0.248 NA
ATOM     65  C   UNL A   1      45.328  30.573  32.167  1.00  0.00     0.031 C 
ATOM     66  C   UNL A   1      40.249  32.355  33.032  1.00  0.00     0.029 A 
ATOM     67  C   UNL A   1      41.056  32.436  31.907  1.00  0.00     0.049 A 
ATOM     68  H   UNL A   1      40.490  32.661  29.904  1.00  0.00     0.167 HD
ATOM     69  C   UNL A   1      43.429  31.824  31.656  1.00  0.00     0.074 A 
ATOM     70  C   UNL A   1      44.780  31.807  32.194  1.00  0.00     0.031 C 
ATOM     71  C   UNL A   1      42.456  32.791  31.740  1.00  0.00     0.037 A 
BRANCH  58  72
ATOM     72  C   UNL A   1      36.372  32.742  30.317  1.00  0.00     0.057 A 
ATOM     73  C   UNL A   1      35.789  33.546  29.304  1.00  0.00     0.134 A 
ATOM     74  C   UNL A   1      35.532  32.631  31.439  1.00  0.00     0.134 A 
ATOM     75  F   UNL A   1      36.271  33.565  28.057  1.00  0.00    -0.206 F 
ATOM     76  C   UNL A   1      34.631  34.333  29.480  1.00  0.00     0.040 A 
ATOM     77  C   UNL A   1      34.353  33.393  31.626  1.00  0.00     0.040 A 
ATOM     78  F   UNL A   1      35.796  31.787  32.437  1.00  0.00    -0.206 F 
ATOM     79  C   UNL A   1      33.925  34.290  30.665  1.00  0.00     0.006 A 
ENDBRANCH  58  72
BRANCH  59  80
ATOM     80  C   UNL A   1      44.912  27.076  30.990  1.00  0.00     0.057 A 
ATOM     81  C   UNL A   1      45.074  25.990  31.895  1.00  0.00     0.134 A 
ATOM     82  C   UNL A   1      44.730  26.715  29.646  1.00  0.00     0.134 A 
ATOM     83  F   UNL A   1      45.262  26.237  33.203  1.00  0.00    -0.206 F 
ATOM     84  C   UNL A   1      44.821  24.658  31.533  1.00  0.00     0.040 A 
ATOM     85  C   UNL A   1      44.504  25.372  29.270  1.00  0.00     0.040 A 
ATOM     86  F   UNL A   1      44.552  27.657  28.709  1.00  0.00    -0.206 F 
ATOM     87  C   UNL A   1      44.486  24.352  30.221  1.00  0.00     0.006 A 
ENDBRANCH  59  80
BRANCH  71  88
ATOM     88  C   UNL A   1      42.709  34.277  31.579  1.00  0.00     0.057 A 
ATOM     89  C   UNL A   1      42.968  35.103  32.673  1.00  0.00     0.134 A 
ATOM     90  C   UNL A   1      43.034  34.837  30.311  1.00  0.00     0.134 A 
ATOM     91  F   UNL A   1      42.768  34.688  33.930  1.00  0.00    -0.206 F 
ATOM     92  C   UNL A   1      43.525  36.378  32.525  1.00  0.00     0.040 A 
ATOM     93  C   UNL A   1      43.657  36.074  30.161  1.00  0.00     0.040 A 
ATOM     94  F   UNL A   1      42.818  34.197  29.155  1.00  0.00    -0.206 F 
ATOM     95  C   UNL A   1      43.902  36.853  31.274  1.00  0.00     0.006 A 
ENDBRANCH  71  88
ENDBRANCH  45  46
ENDBRANCH  38  40
ENDBRANCH  37  38
ENDBRANCH  36  37
ENDBRANCH  35  36
ENDBRANCH  34  35
ENDBRANCH  33  34
ENDBRANCH   1  33
TORSDOF 22
ENDMDL
