MODEL 1
REMARK VINA RESULT:      -9.8      0.000      0.000
REMARK SMILES CC(=O)N[C@@H](C)C(=O)N1CCC[C@H]1C(=O)OCCOCCOCCOCCOC(=O)c1ccc(-c2c3nc(c(-c4c(F)cccc4F)c4ccc([nH]4)c(-c4c(F)cccc4F)c4nc(c(-c5c(F)cccc5F)c5ccc2[nH]5)C=C4)C=C3)cc1
REMARK SMILES IDX 21 1 20 2 19 3 18 4 17 5 16 6 14 7 15 8 13 9 9 10 10 11
REMARK SMILES IDX 11 12 12 13 7 14 8 15 5 16 6 17 4 18 1 19 2 20 3 21 22 23
REMARK SMILES IDX 23 24 24 25 25 26 26 27 27 28 28 29 29 30 30 31 31 32 32 33
REMARK SMILES IDX 84 34 33 35 83 36 34 37 35 38 36 39 77 40 37 41 82 42 76 43
REMARK SMILES IDX 78 44 38 45 81 46 75 47 74 48 39 50 65 51 48 52 64 53 49 54
REMARK SMILES IDX 52 55 63 56 79 57 50 58 51 59 62 61 80 62 53 63 40 64 41 65
REMARK SMILES IDX 46 66 42 67 43 68 45 69 47 70 44 71 66 72 67 73 72 74 68 75
REMARK SMILES IDX 69 76 71 77 73 78 70 79 54 80 55 81 60 82 56 83 57 84 59 85
REMARK SMILES IDX 61 86 58 87
REMARK H PARENT 4 22 78 49 52 60
REMARK Flexibility Score: inf
ROOT
ATOM      1  C   UNL A   1      31.831  29.093  23.135  1.00  0.00     0.188 C 
ENDROOT
BRANCH   1   2
ATOM      2  C   UNL A   1      30.515  28.342  23.390  1.00  0.00     0.188 C 
BRANCH   2   3
ATOM      3  O   UNL A   1      30.709  26.931  23.452  1.00  0.00    -0.376 OA
BRANCH   3   4
ATOM      4  C   UNL A   1      30.688  26.318  24.735  1.00  0.00     0.202 C 
BRANCH   4   5
ATOM      5  C   UNL A   1      30.566  24.788  24.752  1.00  0.00     0.261 C 
BRANCH   5   6
ATOM      6  O   UNL A   1      31.809  24.098  24.975  1.00  0.00    -0.462 OA
BRANCH   6   7
ATOM      7  C   UNL A   1      32.243  23.961  26.252  1.00  0.00     0.328 C 
ATOM      8  O   UNL A   1      31.504  24.126  27.212  1.00  0.00    -0.250 OA
BRANCH   7   9
ATOM      9  C   UNL A   1      33.744  23.530  26.318  1.00  0.00     0.195 C 
ATOM     10  N   UNL A   1      34.133  22.249  25.692  1.00  0.00    -0.327 N 
ATOM     11  C   UNL A   1      35.236  22.399  24.764  1.00  0.00     0.120 C 
ATOM     12  C   UNL A   1      35.821  23.772  25.018  1.00  0.00     0.024 C 
ATOM     13  C   UNL A   1      34.761  24.556  25.782  1.00  0.00     0.039 C 
BRANCH  10  14
ATOM     14  C   UNL A   1      33.640  21.068  26.210  1.00  0.00     0.245 C 
ATOM     15  O   UNL A   1      33.661  20.855  27.425  1.00  0.00    -0.272 OA
BRANCH  14  16
ATOM     16  C   UNL A   1      33.306  19.882  25.278  1.00  0.00     0.168 C 
ATOM     17  C   UNL A   1      32.276  20.356  24.250  1.00  0.00     0.041 C 
BRANCH  16  18
ATOM     18  N   UNL A   1      32.903  18.619  25.885  1.00  0.00    -0.345 N 
ATOM     19  C   UNL A   1      33.900  17.186  24.134  1.00  0.00     0.114 C 
ATOM     20  C   UNL A   1      33.107  17.360  25.399  1.00  0.00     0.217 C 
ATOM     21  O   UNL A   1      32.632  16.403  26.009  1.00  0.00    -0.275 OA
ATOM     22  H   UNL A   1      32.428  18.682  26.745  1.00  0.00     0.164 HD
ENDBRANCH  16  18
ENDBRANCH  14  16
ENDBRANCH  10  14
ENDBRANCH   7   9
ENDBRANCH   6   7
ENDBRANCH   5   6
ENDBRANCH   4   5
ENDBRANCH   3   4
ENDBRANCH   2   3
ENDBRANCH   1   2
BRANCH   1  23
ATOM     23  O   UNL A   1      32.749  29.208  24.204  1.00  0.00    -0.377 OA
BRANCH  23  24
ATOM     24  C   UNL A   1      32.167  29.264  25.491  1.00  0.00     0.188 C 
BRANCH  24  25
ATOM     25  C   UNL A   1      32.336  30.633  26.173  1.00  0.00     0.188 C 
BRANCH  25  26
ATOM     26  O   UNL A   1      31.287  31.592  26.237  1.00  0.00    -0.376 OA
BRANCH  26  27
ATOM     27  C   UNL A   1      31.531  32.963  26.497  1.00  0.00     0.202 C 
BRANCH  27  28
ATOM     28  C   UNL A   1      32.715  33.411  27.376  1.00  0.00     0.261 C 
BRANCH  28  29
ATOM     29  O   UNL A   1      32.457  34.409  28.369  1.00  0.00    -0.460 OA
BRANCH  29  30
ATOM     30  C   UNL A   1      33.532  35.092  28.820  1.00  0.00     0.338 C 
ATOM     31  O   UNL A   1      33.620  36.291  29.025  1.00  0.00    -0.246 OA
BRANCH  30  32
ATOM     32  C   UNL A   1      34.580  34.114  29.185  1.00  0.00     0.060 A 
ATOM     33  C   UNL A   1      34.340  33.238  30.252  1.00  0.00     0.016 A 
ATOM     34  C   UNL A   1      35.777  34.042  28.468  1.00  0.00     0.016 A 
ATOM     35  C   UNL A   1      35.296  32.289  30.609  1.00  0.00     0.010 A 
ATOM     36  C   UNL A   1      36.753  33.119  28.852  1.00  0.00     0.010 A 
ATOM     37  C   UNL A   1      36.524  32.254  29.937  1.00  0.00    -0.014 A 
BRANCH  37  38
ATOM     38  C   UNL A   1      37.638  31.457  30.501  1.00  0.00     0.031 A 
ATOM     39  C   UNL A   1      38.017  31.689  31.936  1.00  0.00     0.074 A 
ATOM     40  C   UNL A   1      38.285  30.535  29.766  1.00  0.00     0.049 A 
ATOM     41  N   UNL A   1      38.981  31.153  32.638  1.00  0.00    -0.248 NA
ATOM     42  C   UNL A   1      37.197  32.661  32.681  1.00  0.00     0.031 C 
ATOM     43  C   UNL A   1      37.975  30.183  28.381  1.00  0.00     0.029 A 
ATOM     44  N   UNL A   1      39.349  29.730  30.088  1.00  0.00    -0.354 N 
ATOM     45  C   UNL A   1      38.889  31.726  33.900  1.00  0.00     0.074 A 
ATOM     46  C   UNL A   1      37.790  32.664  33.865  1.00  0.00     0.031 C 
ATOM     47  C   UNL A   1      38.842  29.241  27.968  1.00  0.00     0.029 A 
ATOM     48  C   UNL A   1      39.786  28.950  29.047  1.00  0.00     0.049 A 
ATOM     49  H   UNL A   1      39.760  29.714  30.983  1.00  0.00     0.167 HD
ATOM     50  C   UNL A   1      39.654  31.489  34.991  1.00  0.00     0.037 A 
ATOM     51  C   UNL A   1      40.843  28.117  28.971  1.00  0.00     0.037 A 
ATOM     52  C   UNL A   1      40.743  30.552  35.025  1.00  0.00     0.049 A 
ATOM     53  C   UNL A   1      41.732  27.941  30.178  1.00  0.00     0.074 A 
ATOM     54  C   UNL A   1      41.553  30.214  36.094  1.00  0.00     0.029 A 
ATOM     55  N   UNL A   1      41.184  29.815  33.938  1.00  0.00    -0.354 N 
ATOM     56  N   UNL A   1      41.613  28.454  31.379  1.00  0.00    -0.248 NA
ATOM     57  C   UNL A   1      42.908  27.072  30.014  1.00  0.00     0.031 C 
ATOM     58  C   UNL A   1      42.522  29.315  35.640  1.00  0.00     0.029 A 
ATOM     59  C   UNL A   1      42.280  29.051  34.301  1.00  0.00     0.049 A 
ATOM     60  H   UNL A   1      40.777  29.832  33.041  1.00  0.00     0.167 HD
ATOM     61  C   UNL A   1      42.675  27.945  32.119  1.00  0.00     0.074 A 
ATOM     62  C   UNL A   1      43.420  27.074  31.237  1.00  0.00     0.031 C 
ATOM     63  C   UNL A   1      43.004  28.179  33.413  1.00  0.00     0.037 A 
BRANCH  50  64
ATOM     64  C   UNL A   1      39.361  32.279  36.230  1.00  0.00     0.057 A 
ATOM     65  C   UNL A   1      38.360  31.902  37.133  1.00  0.00     0.134 A 
ATOM     66  C   UNL A   1      40.131  33.406  36.548  1.00  0.00     0.134 A 
ATOM     67  F   UNL A   1      37.578  30.843  36.877  1.00  0.00    -0.206 F 
ATOM     68  C   UNL A   1      38.129  32.623  38.306  1.00  0.00     0.040 A 
ATOM     69  C   UNL A   1      39.925  34.119  37.729  1.00  0.00     0.040 A 
ATOM     70  F   UNL A   1      41.106  33.819  35.725  1.00  0.00    -0.206 F 
ATOM     71  C   UNL A   1      38.919  33.729  38.610  1.00  0.00     0.006 A 
ENDBRANCH  50  64
BRANCH  51  72
ATOM     72  C   UNL A   1      41.155  27.400  27.707  1.00  0.00     0.057 A 
ATOM     73  C   UNL A   1      40.750  26.074  27.507  1.00  0.00     0.134 A 
ATOM     74  C   UNL A   1      41.920  27.998  26.698  1.00  0.00     0.134 A 
ATOM     75  F   UNL A   1      40.039  25.436  28.448  1.00  0.00    -0.206 F 
ATOM     76  C   UNL A   1      41.117  25.361  26.364  1.00  0.00     0.040 A 
ATOM     77  C   UNL A   1      42.271  27.306  25.539  1.00  0.00     0.040 A 
ATOM     78  F   UNL A   1      42.343  29.264  26.828  1.00  0.00    -0.206 F 
ATOM     79  C   UNL A   1      41.879  25.978  25.374  1.00  0.00     0.006 A 
ENDBRANCH  51  72
BRANCH  63  80
ATOM     80  C   UNL A   1      44.198  27.456  33.965  1.00  0.00     0.057 A 
ATOM     81  C   UNL A   1      44.099  26.167  34.505  1.00  0.00     0.134 A 
ATOM     82  C   UNL A   1      45.472  28.036  33.908  1.00  0.00     0.134 A 
ATOM     83  F   UNL A   1      42.907  25.559  34.600  1.00  0.00    -0.206 F 
ATOM     84  C   UNL A   1      45.221  25.491  34.988  1.00  0.00     0.040 A 
ATOM     85  C   UNL A   1      46.604  27.359  34.361  1.00  0.00     0.040 A 
ATOM     86  F   UNL A   1      45.639  29.264  33.392  1.00  0.00    -0.206 F 
ATOM     87  C   UNL A   1      46.480  26.085  34.909  1.00  0.00     0.006 A 
ENDBRANCH  63  80
ENDBRANCH  37  38
ENDBRANCH  30  32
ENDBRANCH  29  30
ENDBRANCH  28  29
ENDBRANCH  27  28
ENDBRANCH  26  27
ENDBRANCH  25  26
ENDBRANCH  24  25
ENDBRANCH  23  24
ENDBRANCH   1  23
TORSDOF 23
ENDMDL
MODEL 2
REMARK VINA RESULT:      -9.8      4.161      8.062
REMARK SMILES CC(=O)N[C@@H](C)C(=O)N1CCC[C@H]1C(=O)OCCOCCOCCOCCOC(=O)c1ccc(-c2c3nc(c(-c4c(F)cccc4F)c4ccc([nH]4)c(-c4c(F)cccc4F)c4nc(c(-c5c(F)cccc5F)c5ccc2[nH]5)C=C4)C=C3)cc1
REMARK SMILES IDX 21 1 20 2 19 3 18 4 17 5 16 6 14 7 15 8 13 9 9 10 10 11
REMARK SMILES IDX 11 12 12 13 7 14 8 15 5 16 6 17 4 18 1 19 2 20 3 21 22 23
REMARK SMILES IDX 23 24 24 25 25 26 26 27 27 28 28 29 29 30 30 31 31 32 32 33
REMARK SMILES IDX 84 34 33 35 83 36 34 37 35 38 36 39 77 40 37 41 82 42 76 43
REMARK SMILES IDX 78 44 38 45 81 46 75 47 74 48 39 50 65 51 48 52 64 53 49 54
REMARK SMILES IDX 52 55 63 56 79 57 50 58 51 59 62 61 80 62 53 63 40 64 41 65
REMARK SMILES IDX 46 66 42 67 43 68 45 69 47 70 44 71 66 72 67 73 72 74 68 75
REMARK SMILES IDX 69 76 71 77 73 78 70 79 54 80 55 81 60 82 56 83 57 84 59 85
REMARK SMILES IDX 61 86 58 87
REMARK H PARENT 4 22 78 49 52 60
REMARK Flexibility Score: inf
ROOT
ATOM      1  C   UNL A   1      34.294  31.728  28.233  1.00  0.00     0.188 C 
ENDROOT
BRANCH   1   2
ATOM      2  C   UNL A   1      34.271  30.375  27.506  1.00  0.00     0.188 C 
BRANCH   2   3
ATOM      3  O   UNL A   1      32.946  29.976  27.164  1.00  0.00    -0.376 OA
BRANCH   3   4
ATOM      4  C   UNL A   1      32.668  29.715  25.794  1.00  0.00     0.202 C 
BRANCH   4   5
ATOM      5  C   UNL A   1      31.814  28.473  25.502  1.00  0.00     0.261 C 
BRANCH   5   6
ATOM      6  O   UNL A   1      32.550  27.236  25.504  1.00  0.00    -0.462 OA
BRANCH   6   7
ATOM      7  C   UNL A   1      32.079  26.212  24.750  1.00  0.00     0.328 C 
ATOM      8  O   UNL A   1      31.059  25.605  25.043  1.00  0.00    -0.250 OA
BRANCH   7   9
ATOM      9  C   UNL A   1      32.958  25.964  23.482  1.00  0.00     0.195 C 
ATOM     10  N   UNL A   1      33.233  24.567  23.083  1.00  0.00    -0.327 N 
ATOM     11  C   UNL A   1      32.900  24.313  21.695  1.00  0.00     0.120 C 
ATOM     12  C   UNL A   1      32.698  25.667  21.052  1.00  0.00     0.024 C 
ATOM     13  C   UNL A   1      32.483  26.657  22.191  1.00  0.00     0.039 C 
BRANCH  10  14
ATOM     14  C   UNL A   1      33.985  23.763  23.917  1.00  0.00     0.245 C 
ATOM     15  O   UNL A   1      35.217  23.815  23.900  1.00  0.00    -0.272 OA
BRANCH  14  16
ATOM     16  C   UNL A   1      33.325  22.596  24.684  1.00  0.00     0.168 C 
ATOM     17  C   UNL A   1      32.884  21.542  23.666  1.00  0.00     0.041 C 
BRANCH  16  18
ATOM     18  N   UNL A   1      32.252  22.904  25.622  1.00  0.00    -0.345 N 
ATOM     19  C   UNL A   1      33.615  22.576  27.658  1.00  0.00     0.114 C 
ATOM     20  C   UNL A   1      32.305  22.877  26.985  1.00  0.00     0.217 C 
ATOM     21  O   UNL A   1      31.277  23.097  27.624  1.00  0.00    -0.275 OA
ATOM     22  H   UNL A   1      31.389  23.162  25.225  1.00  0.00     0.164 HD
ENDBRANCH  16  18
ENDBRANCH  14  16
ENDBRANCH  10  14
ENDBRANCH   7   9
ENDBRANCH   6   7
ENDBRANCH   5   6
ENDBRANCH   4   5
ENDBRANCH   3   4
ENDBRANCH   2   3
ENDBRANCH   1   2
BRANCH   1  23
ATOM     23  O   UNL A   1      34.930  32.818  27.594  1.00  0.00    -0.377 OA
BRANCH  23  24
ATOM     24  C   UNL A   1      35.017  33.998  28.367  1.00  0.00     0.188 C 
BRANCH  24  25
ATOM     25  C   UNL A   1      35.310  33.729  29.853  1.00  0.00     0.188 C 
BRANCH  25  26
ATOM     26  O   UNL A   1      34.615  34.391  30.903  1.00  0.00    -0.376 OA
BRANCH  26  27
ATOM     27  C   UNL A   1      34.288  33.742  32.120  1.00  0.00     0.202 C 
BRANCH  27  28
ATOM     28  C   UNL A   1      35.385  33.262  33.089  1.00  0.00     0.261 C 
BRANCH  28  29
ATOM     29  O   UNL A   1      35.893  31.937  32.903  1.00  0.00    -0.460 OA
BRANCH  29  30
ATOM     30  C   UNL A   1      37.034  31.639  33.564  1.00  0.00     0.338 C 
ATOM     31  O   UNL A   1      37.229  31.674  34.767  1.00  0.00    -0.246 OA
BRANCH  30  32
ATOM     32  C   UNL A   1      38.004  31.097  32.587  1.00  0.00     0.060 A 
ATOM     33  C   UNL A   1      39.146  30.441  33.066  1.00  0.00     0.016 A 
ATOM     34  C   UNL A   1      37.780  31.212  31.213  1.00  0.00     0.016 A 
ATOM     35  C   UNL A   1      40.069  29.899  32.174  1.00  0.00     0.010 A 
ATOM     36  C   UNL A   1      38.727  30.706  30.318  1.00  0.00     0.010 A 
ATOM     37  C   UNL A   1      39.884  30.066  30.797  1.00  0.00    -0.014 A 
BRANCH  37  38
ATOM     38  C   UNL A   1      40.999  29.755  29.871  1.00  0.00     0.031 A 
ATOM     39  C   UNL A   1      41.043  28.386  29.253  1.00  0.00     0.074 A 
ATOM     40  C   UNL A   1      41.937  30.669  29.570  1.00  0.00     0.049 A 
ATOM     41  N   UNL A   1      41.936  27.863  28.456  1.00  0.00    -0.248 NA
ATOM     42  C   UNL A   1      39.925  27.483  29.582  1.00  0.00     0.031 C 
ATOM     43  C   UNL A   1      41.974  32.044  30.064  1.00  0.00     0.029 A 
ATOM     44  N   UNL A   1      43.052  30.567  28.775  1.00  0.00    -0.354 N 
ATOM     45  C   UNL A   1      41.496  26.571  28.195  1.00  0.00     0.074 A 
ATOM     46  C   UNL A   1      40.267  26.381  28.932  1.00  0.00     0.031 C 
ATOM     47  C   UNL A   1      43.066  32.655  29.571  1.00  0.00     0.029 A 
ATOM     48  C   UNL A   1      43.821  31.704  28.756  1.00  0.00     0.049 A 
ATOM     49  H   UNL A   1      43.278  29.755  28.266  1.00  0.00     0.167 HD
ATOM     50  C   UNL A   1      42.066  25.630  27.409  1.00  0.00     0.037 A 
ATOM     51  C   UNL A   1      45.011  31.936  28.166  1.00  0.00     0.037 A 
ATOM     52  C   UNL A   1      43.285  25.822  26.673  1.00  0.00     0.049 A 
ATOM     53  C   UNL A   1      45.667  30.835  27.369  1.00  0.00     0.074 A 
ATOM     54  C   UNL A   1      43.922  24.940  25.819  1.00  0.00     0.029 A 
ATOM     55  N   UNL A   1      44.060  26.971  26.715  1.00  0.00    -0.354 N 
ATOM     56  N   UNL A   1      45.224  29.633  27.093  1.00  0.00    -0.248 NA
ATOM     57  C   UNL A   1      46.996  31.125  26.806  1.00  0.00     0.031 C 
ATOM     58  C   UNL A   1      45.113  25.533  25.389  1.00  0.00     0.029 A 
ATOM     59  C   UNL A   1      45.189  26.805  25.932  1.00  0.00     0.049 A 
ATOM     60  H   UNL A   1      43.838  27.783  27.225  1.00  0.00     0.167 HD
ATOM     61  C   UNL A   1      46.199  29.038  26.300  1.00  0.00     0.074 A 
ATOM     62  C   UNL A   1      47.252  30.015  26.129  1.00  0.00     0.031 C 
ATOM     63  C   UNL A   1      46.222  27.794  25.762  1.00  0.00     0.037 A 
BRANCH  50  64
ATOM     64  C   UNL A   1      41.396  24.292  27.329  1.00  0.00     0.057 A 
ATOM     65  C   UNL A   1      41.857  23.185  28.050  1.00  0.00     0.134 A 
ATOM     66  C   UNL A   1      40.239  24.125  26.555  1.00  0.00     0.134 A 
ATOM     67  F   UNL A   1      42.969  23.275  28.796  1.00  0.00    -0.206 F 
ATOM     68  C   UNL A   1      41.197  21.956  28.000  1.00  0.00     0.040 A 
ATOM     69  C   UNL A   1      39.558  22.909  26.515  1.00  0.00     0.040 A 
ATOM     70  F   UNL A   1      39.746  25.147  25.839  1.00  0.00    -0.206 F 
ATOM     71  C   UNL A   1      40.039  21.819  27.238  1.00  0.00     0.006 A 
ENDBRANCH  50  64
BRANCH  51  72
ATOM     72  C   UNL A   1      45.691  33.249  28.321  1.00  0.00     0.057 A 
ATOM     73  C   UNL A   1      46.561  33.493  29.390  1.00  0.00     0.134 A 
ATOM     74  C   UNL A   1      45.436  34.310  27.444  1.00  0.00     0.134 A 
ATOM     75  F   UNL A   1      46.824  32.526  30.281  1.00  0.00    -0.206 F 
ATOM     76  C   UNL A   1      47.132  34.751  29.598  1.00  0.00     0.040 A 
ATOM     77  C   UNL A   1      46.020  35.565  27.624  1.00  0.00     0.040 A 
ATOM     78  F   UNL A   1      44.609  34.145  26.401  1.00  0.00    -0.206 F 
ATOM     79  C   UNL A   1      46.863  35.791  28.711  1.00  0.00     0.006 A 
ENDBRANCH  51  72
BRANCH  63  80
ATOM     80  C   UNL A   1      47.401  27.430  24.908  1.00  0.00     0.057 A 
ATOM     81  C   UNL A   1      47.463  27.764  23.548  1.00  0.00     0.134 A 
ATOM     82  C   UNL A   1      48.513  26.784  25.465  1.00  0.00     0.134 A 
ATOM     83  F   UNL A   1      46.428  28.373  22.951  1.00  0.00    -0.206 F 
ATOM     84  C   UNL A   1      48.578  27.449  22.770  1.00  0.00     0.040 A 
ATOM     85  C   UNL A   1      49.644  26.489  24.704  1.00  0.00     0.040 A 
ATOM     86  F   UNL A   1      48.525  26.446  26.764  1.00  0.00    -0.206 F 
ATOM     87  C   UNL A   1      49.676  26.816  23.350  1.00  0.00     0.006 A 
ENDBRANCH  63  80
ENDBRANCH  37  38
ENDBRANCH  30  32
ENDBRANCH  29  30
ENDBRANCH  28  29
ENDBRANCH  27  28
ENDBRANCH  26  27
ENDBRANCH  25  26
ENDBRANCH  24  25
ENDBRANCH  23  24
ENDBRANCH   1  23
TORSDOF 23
ENDMDL
MODEL 3
REMARK VINA RESULT:      -9.7      3.850      6.389
REMARK SMILES CC(=O)N[C@@H](C)C(=O)N1CCC[C@H]1C(=O)OCCOCCOCCOCCOC(=O)c1ccc(-c2c3nc(c(-c4c(F)cccc4F)c4ccc([nH]4)c(-c4c(F)cccc4F)c4nc(c(-c5c(F)cccc5F)c5ccc2[nH]5)C=C4)C=C3)cc1
REMARK SMILES IDX 21 1 20 2 19 3 18 4 17 5 16 6 14 7 15 8 13 9 9 10 10 11
REMARK SMILES IDX 11 12 12 13 7 14 8 15 5 16 6 17 4 18 1 19 2 20 3 21 22 23
REMARK SMILES IDX 23 24 24 25 25 26 26 27 27 28 28 29 29 30 30 31 31 32 32 33
REMARK SMILES IDX 84 34 33 35 83 36 34 37 35 38 36 39 77 40 37 41 82 42 76 43
REMARK SMILES IDX 78 44 38 45 81 46 75 47 74 48 39 50 65 51 48 52 64 53 49 54
REMARK SMILES IDX 52 55 63 56 79 57 50 58 51 59 62 61 80 62 53 63 40 64 41 65
REMARK SMILES IDX 46 66 42 67 43 68 45 69 47 70 44 71 66 72 67 73 72 74 68 75
REMARK SMILES IDX 69 76 71 77 73 78 70 79 54 80 55 81 60 82 56 83 57 84 59 85
REMARK SMILES IDX 61 86 58 87
REMARK H PARENT 4 22 78 49 52 60
REMARK Flexibility Score: inf
ROOT
ATOM      1  C   UNL A   1      34.237  30.960  27.058  1.00  0.00     0.188 C 
ENDROOT
BRANCH   1   2
ATOM      2  C   UNL A   1      32.987  30.072  26.959  1.00  0.00     0.188 C 
BRANCH   2   3
ATOM      3  O   UNL A   1      33.276  28.708  27.255  1.00  0.00    -0.376 OA
BRANCH   3   4
ATOM      4  C   UNL A   1      33.056  27.749  26.227  1.00  0.00     0.202 C 
BRANCH   4   5
ATOM      5  C   UNL A   1      33.533  28.142  24.822  1.00  0.00     0.261 C 
BRANCH   5   6
ATOM      6  O   UNL A   1      34.043  27.046  24.042  1.00  0.00    -0.462 OA
BRANCH   6   7
ATOM      7  C   UNL A   1      33.495  26.821  22.823  1.00  0.00     0.328 C 
ATOM      8  O   UNL A   1      33.823  27.462  21.834  1.00  0.00    -0.250 OA
BRANCH   7   9
ATOM      9  C   UNL A   1      32.468  25.643  22.849  1.00  0.00     0.195 C 
ATOM     10  N   UNL A   1      32.733  24.504  23.754  1.00  0.00    -0.327 N 
ATOM     11  C   UNL A   1      31.604  24.209  24.615  1.00  0.00     0.120 C 
ATOM     12  C   UNL A   1      30.425  24.967  24.046  1.00  0.00     0.024 C 
ATOM     13  C   UNL A   1      31.004  26.036  23.126  1.00  0.00     0.039 C 
BRANCH  10  14
ATOM     14  C   UNL A   1      33.835  23.705  23.528  1.00  0.00     0.245 C 
ATOM     15  O   UNL A   1      34.122  23.336  22.386  1.00  0.00    -0.272 OA
BRANCH  14  16
ATOM     16  C   UNL A   1      34.570  23.030  24.707  1.00  0.00     0.168 C 
ATOM     17  C   UNL A   1      35.789  23.884  25.063  1.00  0.00     0.041 C 
BRANCH  16  18
ATOM     18  N   UNL A   1      34.930  21.623  24.583  1.00  0.00    -0.345 N 
ATOM     19  C   UNL A   1      32.665  20.756  25.063  1.00  0.00     0.114 C 
ATOM     20  C   UNL A   1      34.123  20.539  24.769  1.00  0.00     0.217 C 
ATOM     21  O   UNL A   1      34.613  19.413  24.694  1.00  0.00    -0.275 OA
ATOM     22  H   UNL A   1      35.864  21.434  24.336  1.00  0.00     0.164 HD
ENDBRANCH  16  18
ENDBRANCH  14  16
ENDBRANCH  10  14
ENDBRANCH   7   9
ENDBRANCH   6   7
ENDBRANCH   5   6
ENDBRANCH   4   5
ENDBRANCH   3   4
ENDBRANCH   2   3
ENDBRANCH   1   2
BRANCH   1  23
ATOM     23  O   UNL A   1      34.411  31.738  28.225  1.00  0.00    -0.377 OA
BRANCH  23  24
ATOM     24  C   UNL A   1      35.342  32.795  28.107  1.00  0.00     0.188 C 
BRANCH  24  25
ATOM     25  C   UNL A   1      35.201  33.852  29.216  1.00  0.00     0.188 C 
BRANCH  25  26
ATOM     26  O   UNL A   1      33.963  34.124  29.863  1.00  0.00    -0.376 OA
BRANCH  26  27
ATOM     27  C   UNL A   1      33.896  34.589  31.199  1.00  0.00     0.202 C 
BRANCH  27  28
ATOM     28  C   UNL A   1      34.903  34.113  32.263  1.00  0.00     0.261 C 
BRANCH  28  29
ATOM     29  O   UNL A   1      35.197  32.713  32.311  1.00  0.00    -0.460 OA
BRANCH  29  30
ATOM     30  C   UNL A   1      36.171  32.338  33.169  1.00  0.00     0.338 C 
ATOM     31  O   UNL A   1      36.187  32.466  34.381  1.00  0.00    -0.246 OA
BRANCH  30  32
ATOM     32  C   UNL A   1      37.191  31.583  32.407  1.00  0.00     0.060 A 
ATOM     33  C   UNL A   1      38.299  31.068  33.093  1.00  0.00     0.016 A 
ATOM     34  C   UNL A   1      37.045  31.363  31.035  1.00  0.00     0.016 A 
ATOM     35  C   UNL A   1      39.267  30.334  32.411  1.00  0.00     0.010 A 
ATOM     36  C   UNL A   1      38.037  30.662  30.343  1.00  0.00     0.010 A 
ATOM     37  C   UNL A   1      39.161  30.164  31.026  1.00  0.00    -0.014 A 
BRANCH  37  38
ATOM     38  C   UNL A   1      40.323  29.646  30.266  1.00  0.00     0.031 A 
ATOM     39  C   UNL A   1      41.493  30.564  30.054  1.00  0.00     0.074 A 
ATOM     40  C   UNL A   1      40.349  28.387  29.794  1.00  0.00     0.049 A 
ATOM     41  N   UNL A   1      42.599  30.360  29.387  1.00  0.00    -0.248 NA
ATOM     42  C   UNL A   1      41.403  31.895  30.679  1.00  0.00     0.031 C 
ATOM     43  C   UNL A   1      39.299  27.388  29.980  1.00  0.00     0.029 A 
ATOM     44  N   UNL A   1      41.302  27.740  29.049  1.00  0.00    -0.354 N 
ATOM     45  C   UNL A   1      43.330  31.535  29.504  1.00  0.00     0.074 A 
ATOM     46  C   UNL A   1      42.538  32.456  30.288  1.00  0.00     0.031 C 
ATOM     47  C   UNL A   1      39.661  26.255  29.351  1.00  0.00     0.029 A 
ATOM     48  C   UNL A   1      40.949  26.462  28.692  1.00  0.00     0.049 A 
ATOM     49  H   UNL A   1      42.159  28.153  28.793  1.00  0.00     0.167 HD
ATOM     50  C   UNL A   1      44.554  31.820  29.002  1.00  0.00     0.037 A 
ATOM     51  C   UNL A   1      41.586  25.574  27.902  1.00  0.00     0.037 A 
ATOM     52  C   UNL A   1      45.342  30.902  28.226  1.00  0.00     0.049 A 
ATOM     53  C   UNL A   1      42.909  25.954  27.282  1.00  0.00     0.074 A 
ATOM     54  C   UNL A   1      46.610  31.085  27.705  1.00  0.00     0.029 A 
ATOM     55  N   UNL A   1      44.931  29.634  27.847  1.00  0.00    -0.354 N 
ATOM     56  N   UNL A   1      43.612  27.050  27.433  1.00  0.00    -0.248 NA
ATOM     57  C   UNL A   1      43.523  24.971  26.376  1.00  0.00     0.031 C 
ATOM     58  C   UNL A   1      46.944  29.949  26.962  1.00  0.00     0.029 A 
ATOM     59  C   UNL A   1      45.906  29.037  27.066  1.00  0.00     0.049 A 
ATOM     60  H   UNL A   1      44.073  29.219  28.097  1.00  0.00     0.167 HD
ATOM     61  C   UNL A   1      44.762  26.875  26.671  1.00  0.00     0.074 A 
ATOM     62  C   UNL A   1      44.669  25.563  26.069  1.00  0.00     0.031 C 
ATOM     63  C   UNL A   1      45.802  27.725  26.485  1.00  0.00     0.037 A 
BRANCH  50  64
ATOM     64  C   UNL A   1      45.104  33.191  29.248  1.00  0.00     0.057 A 
ATOM     65  C   UNL A   1      44.875  34.254  28.365  1.00  0.00     0.134 A 
ATOM     66  C   UNL A   1      45.833  33.462  30.414  1.00  0.00     0.134 A 
ATOM     67  F   UNL A   1      44.200  34.055  27.223  1.00  0.00    -0.206 F 
ATOM     68  C   UNL A   1      45.358  35.537  28.629  1.00  0.00     0.040 A 
ATOM     69  C   UNL A   1      46.300  34.745  30.699  1.00  0.00     0.040 A 
ATOM     70  F   UNL A   1      46.088  32.488  31.299  1.00  0.00    -0.206 F 
ATOM     71  C   UNL A   1      46.065  35.787  29.804  1.00  0.00     0.006 A 
ENDBRANCH  50  64
BRANCH  51  72
ATOM     72  C   UNL A   1      40.985  24.246  27.615  1.00  0.00     0.057 A 
ATOM     73  C   UNL A   1      41.460  23.085  28.235  1.00  0.00     0.134 A 
ATOM     74  C   UNL A   1      39.966  24.096  26.665  1.00  0.00     0.134 A 
ATOM     75  F   UNL A   1      42.454  23.158  29.133  1.00  0.00    -0.206 F 
ATOM     76  C   UNL A   1      40.966  21.821  27.904  1.00  0.00     0.040 A 
ATOM     77  C   UNL A   1      39.444  22.843  26.344  1.00  0.00     0.040 A 
ATOM     78  F   UNL A   1      39.467  25.167  26.031  1.00  0.00    -0.206 F 
ATOM     79  C   UNL A   1      39.953  21.698  26.956  1.00  0.00     0.006 A 
ENDBRANCH  51  72
BRANCH  63  80
ATOM     80  C   UNL A   1      46.939  27.249  25.628  1.00  0.00     0.057 A 
ATOM     81  C   UNL A   1      47.111  27.696  24.311  1.00  0.00     0.134 A 
ATOM     82  C   UNL A   1      47.904  26.373  26.144  1.00  0.00     0.134 A 
ATOM     83  F   UNL A   1      46.218  28.526  23.752  1.00  0.00    -0.206 F 
ATOM     84  C   UNL A   1      48.189  27.271  23.533  1.00  0.00     0.040 A 
ATOM     85  C   UNL A   1      49.001  25.964  25.385  1.00  0.00     0.040 A 
ATOM     86  F   UNL A   1      47.805  25.917  27.402  1.00  0.00    -0.206 F 
ATOM     87  C   UNL A   1      49.143  26.409  24.073  1.00  0.00     0.006 A 
ENDBRANCH  63  80
ENDBRANCH  37  38
ENDBRANCH  30  32
ENDBRANCH  29  30
ENDBRANCH  28  29
ENDBRANCH  27  28
ENDBRANCH  26  27
ENDBRANCH  25  26
ENDBRANCH  24  25
ENDBRANCH  23  24
ENDBRANCH   1  23
TORSDOF 23
ENDMDL
