MODEL 1
REMARK VINA RESULT:     -10.0      0.000      0.000
REMARK SMILES Cc1ccc2oc(CCCC(=O)OCCOCCOCCOCCOC(=O)c3ccc(-c4c5nc(c(-c6c(F)cccc6F)c6ccc([nH]6)c(-c6c(F)cccc6F)c6nc(c(-c7c(F)cccc7F)c7ccc4[nH]7)C=C6)C=C5)cc3)cc(=O)c2c1
REMARK SMILES IDX 18 1 17 2 16 3 15 4 14 5 13 6 11 7 12 8 10 9 9 10 8 11 7 12
REMARK SMILES IDX 1 13 2 14 3 15 86 16 4 17 85 18 5 19 83 20 6 21 82 22 84 23
REMARK SMILES IDX 19 24 20 25 21 26 22 27 23 28 24 29 25 30 26 31 27 32 28 33
REMARK SMILES IDX 29 34 81 35 30 36 80 37 31 38 32 39 33 40 74 41 34 42 79 43
REMARK SMILES IDX 73 44 75 45 35 46 78 47 72 48 71 49 36 51 62 52 45 53 61 54
REMARK SMILES IDX 46 55 49 56 60 57 76 58 47 59 48 60 59 62 77 63 50 64 37 65
REMARK SMILES IDX 38 66 43 67 39 68 40 69 42 70 44 71 41 72 63 73 64 74 69 75
REMARK SMILES IDX 65 76 66 77 68 78 70 79 67 80 51 81 52 82 57 83 53 84 54 85
REMARK SMILES IDX 56 86 58 87 55 88
REMARK H PARENT 75 50 49 61
REMARK Flexibility Score: inf
ROOT
ATOM      1  C   UNL A   1      33.047  30.813  27.103  1.00  0.00     0.188 C 
ENDROOT
BRANCH   1   2
ATOM      2  C   UNL A   1      32.311  29.465  27.148  1.00  0.00     0.188 C 
BRANCH   2   3
ATOM      3  O   UNL A   1      32.447  28.710  25.964  1.00  0.00    -0.376 OA
BRANCH   3   4
ATOM      4  C   UNL A   1      32.897  29.347  24.782  1.00  0.00     0.202 C 
BRANCH   4   5
ATOM      5  C   UNL A   1      32.455  28.896  23.376  1.00  0.00     0.261 C 
BRANCH   5   6
ATOM      6  O   UNL A   1      31.858  27.594  23.280  1.00  0.00    -0.463 OA
BRANCH   6   7
ATOM      7  C   UNL A   1      30.555  27.528  22.940  1.00  0.00     0.305 C 
ATOM      8  O   UNL A   1      29.985  28.360  22.240  1.00  0.00    -0.252 OA
BRANCH   7   9
ATOM      9  C   UNL A   1      29.849  26.260  23.403  1.00  0.00     0.123 C 
BRANCH   9  10
ATOM     10  C   UNL A   1      30.543  24.893  23.563  1.00  0.00     0.020 C 
BRANCH  10  11
ATOM     11  C   UNL A   1      31.169  24.495  24.904  1.00  0.00     0.076 C 
BRANCH  11  12
ATOM     12  C   UNL A   1      32.041  23.291  24.744  1.00  0.00     0.108 A 
ATOM     13  C   UNL A   1      37.597  20.034  24.889  1.00  0.00     0.044 C 
ATOM     14  C   UNL A   1      36.444  20.976  24.729  1.00  0.00    -0.050 A 
ATOM     15  C   UNL A   1      36.657  22.305  24.337  1.00  0.00     0.007 A 
ATOM     16  C   UNL A   1      35.136  20.521  24.962  1.00  0.00     0.019 A 
ATOM     17  C   UNL A   1      35.579  23.167  24.160  1.00  0.00     0.048 A 
ATOM     18  C   UNL A   1      34.062  21.395  24.798  1.00  0.00     0.065 A 
ATOM     19  C   UNL A   1      34.288  22.704  24.389  1.00  0.00     0.138 A 
ATOM     20  C   UNL A   1      32.680  20.981  25.093  1.00  0.00     0.192 A 
ATOM     21  O   UNL A   1      33.273  23.595  24.205  1.00  0.00    -0.461 OA
ATOM     22  C   UNL A   1      31.676  22.061  25.133  1.00  0.00     0.095 A 
ATOM     23  O   UNL A   1      32.378  19.826  25.361  1.00  0.00    -0.289 OA
ENDBRANCH  11  12
ENDBRANCH  10  11
ENDBRANCH   9  10
ENDBRANCH   7   9
ENDBRANCH   6   7
ENDBRANCH   5   6
ENDBRANCH   4   5
ENDBRANCH   3   4
ENDBRANCH   2   3
ENDBRANCH   1   2
BRANCH   1  24
ATOM     24  O   UNL A   1      34.139  31.053  27.981  1.00  0.00    -0.377 OA
BRANCH  24  25
ATOM     25  C   UNL A   1      34.887  32.262  27.866  1.00  0.00     0.188 C 
BRANCH  25  26
ATOM     26  C   UNL A   1      34.225  33.626  28.161  1.00  0.00     0.188 C 
BRANCH  26  27
ATOM     27  O   UNL A   1      34.758  34.320  29.275  1.00  0.00    -0.376 OA
BRANCH  27  28
ATOM     28  C   UNL A   1      34.117  34.142  30.529  1.00  0.00     0.202 C 
BRANCH  28  29
ATOM     29  C   UNL A   1      34.874  34.601  31.786  1.00  0.00     0.261 C 
BRANCH  29  30
ATOM     30  O   UNL A   1      36.166  34.010  32.002  1.00  0.00    -0.460 OA
BRANCH  30  31
ATOM     31  C   UNL A   1      36.215  32.815  32.624  1.00  0.00     0.338 C 
ATOM     32  O   UNL A   1      35.472  32.403  33.503  1.00  0.00    -0.246 OA
BRANCH  31  33
ATOM     33  C   UNL A   1      37.226  31.993  31.934  1.00  0.00     0.060 A 
ATOM     34  C   UNL A   1      38.142  31.253  32.694  1.00  0.00     0.016 A 
ATOM     35  C   UNL A   1      37.267  31.957  30.540  1.00  0.00     0.016 A 
ATOM     36  C   UNL A   1      39.125  30.495  32.057  1.00  0.00     0.010 A 
ATOM     37  C   UNL A   1      38.267  31.217  29.904  1.00  0.00     0.010 A 
ATOM     38  C   UNL A   1      39.219  30.510  30.660  1.00  0.00    -0.014 A 
BRANCH  38  39
ATOM     39  C   UNL A   1      40.421  29.953  29.994  1.00  0.00     0.031 A 
ATOM     40  C   UNL A   1      41.597  30.863  29.772  1.00  0.00     0.074 A 
ATOM     41  C   UNL A   1      40.477  28.668  29.606  1.00  0.00     0.049 A 
ATOM     42  N   UNL A   1      42.722  30.633  29.144  1.00  0.00    -0.248 NA
ATOM     43  C   UNL A   1      41.486  32.220  30.332  1.00  0.00     0.031 C 
ATOM     44  C   UNL A   1      39.426  27.674  29.810  1.00  0.00     0.029 A 
ATOM     45  N   UNL A   1      41.465  27.984  28.940  1.00  0.00    -0.354 N 
ATOM     46  C   UNL A   1      43.445  31.817  29.225  1.00  0.00     0.074 A 
ATOM     47  C   UNL A   1      42.622  32.771  29.936  1.00  0.00     0.031 C 
ATOM     48  C   UNL A   1      39.818  26.509  29.264  1.00  0.00     0.029 A 
ATOM     49  C   UNL A   1      41.127  26.688  28.639  1.00  0.00     0.049 A 
ATOM     50  H   UNL A   1      42.333  28.385  28.703  1.00  0.00     0.167 HD
ATOM     51  C   UNL A   1      44.685  32.083  28.754  1.00  0.00     0.037 A 
ATOM     52  C   UNL A   1      41.789  25.765  27.913  1.00  0.00     0.037 A 
ATOM     53  C   UNL A   1      45.498  31.133  28.041  1.00  0.00     0.049 A 
ATOM     54  C   UNL A   1      43.129  26.113  27.317  1.00  0.00     0.074 A 
ATOM     55  C   UNL A   1      46.776  31.300  27.537  1.00  0.00     0.029 A 
ATOM     56  N   UNL A   1      45.107  29.842  27.722  1.00  0.00    -0.354 N 
ATOM     57  N   UNL A   1      43.817  27.225  27.417  1.00  0.00    -0.248 NA
ATOM     58  C   UNL A   1      43.784  25.077  26.505  1.00  0.00     0.031 C 
ATOM     59  C   UNL A   1      47.132  30.130  26.857  1.00  0.00     0.029 A 
ATOM     60  C   UNL A   1      46.104  29.212  26.997  1.00  0.00     0.049 A 
ATOM     61  H   UNL A   1      44.246  29.433  27.974  1.00  0.00     0.167 HD
ATOM     62  C   UNL A   1      44.994  27.013  26.708  1.00  0.00     0.074 A 
ATOM     63  C   UNL A   1      44.934  25.660  26.197  1.00  0.00     0.031 C 
ATOM     64  C   UNL A   1      46.032  27.861  26.498  1.00  0.00     0.037 A 
BRANCH  51  65
ATOM     65  C   UNL A   1      45.223  33.470  28.963  1.00  0.00     0.057 A 
ATOM     66  C   UNL A   1      45.994  33.808  30.083  1.00  0.00     0.134 A 
ATOM     67  C   UNL A   1      44.985  34.474  28.016  1.00  0.00     0.134 A 
ATOM     68  F   UNL A   1      46.245  32.898  31.037  1.00  0.00    -0.206 F 
ATOM     69  C   UNL A   1      46.488  35.101  30.266  1.00  0.00     0.040 A 
ATOM     70  C   UNL A   1      45.500  35.762  28.172  1.00  0.00     0.040 A 
ATOM     71  F   UNL A   1      44.258  34.217  26.919  1.00  0.00    -0.206 F 
ATOM     72  C   UNL A   1      46.247  36.081  29.304  1.00  0.00     0.006 A 
ENDBRANCH  51  65
BRANCH  52  73
ATOM     73  C   UNL A   1      41.187  24.426  27.677  1.00  0.00     0.057 A 
ATOM     74  C   UNL A   1      41.634  23.295  28.371  1.00  0.00     0.134 A 
ATOM     75  C   UNL A   1      40.172  24.239  26.730  1.00  0.00     0.134 A 
ATOM     76  F   UNL A   1      42.621  23.403  29.272  1.00  0.00    -0.206 F 
ATOM     77  C   UNL A   1      41.109  22.025  28.117  1.00  0.00     0.040 A 
ATOM     78  C   UNL A   1      39.619  22.981  26.487  1.00  0.00     0.040 A 
ATOM     79  F   UNL A   1      39.701  25.280  26.028  1.00  0.00    -0.206 F 
ATOM     80  C   UNL A   1      40.095  21.868  27.176  1.00  0.00     0.006 A 
ENDBRANCH  52  73
BRANCH  64  81
ATOM     81  C   UNL A   1      47.204  27.342  25.714  1.00  0.00     0.057 A 
ATOM     82  C   UNL A   1      47.327  27.550  24.334  1.00  0.00     0.134 A 
ATOM     83  C   UNL A   1      48.248  26.664  26.357  1.00  0.00     0.134 A 
ATOM     84  F   UNL A   1      46.358  28.182  23.653  1.00  0.00    -0.206 F 
ATOM     85  C   UNL A   1      48.430  27.081  23.619  1.00  0.00     0.040 A 
ATOM     86  C   UNL A   1      49.372  26.218  25.660  1.00  0.00     0.040 A 
ATOM     87  F   UNL A   1      48.204  26.441  27.679  1.00  0.00    -0.206 F 
ATOM     88  C   UNL A   1      49.462  26.421  24.285  1.00  0.00     0.006 A 
ENDBRANCH  64  81
ENDBRANCH  38  39
ENDBRANCH  31  33
ENDBRANCH  30  31
ENDBRANCH  29  30
ENDBRANCH  28  29
ENDBRANCH  27  28
ENDBRANCH  26  27
ENDBRANCH  25  26
ENDBRANCH  24  25
ENDBRANCH   1  24
TORSDOF 23
ENDMDL
MODEL 2
REMARK VINA RESULT:      -9.8      2.368      8.428
REMARK SMILES Cc1ccc2oc(CCCC(=O)OCCOCCOCCOCCOC(=O)c3ccc(-c4c5nc(c(-c6c(F)cccc6F)c6ccc([nH]6)c(-c6c(F)cccc6F)c6nc(c(-c7c(F)cccc7F)c7ccc4[nH]7)C=C6)C=C5)cc3)cc(=O)c2c1
REMARK SMILES IDX 18 1 17 2 16 3 15 4 14 5 13 6 11 7 12 8 10 9 9 10 8 11 7 12
REMARK SMILES IDX 1 13 2 14 3 15 86 16 4 17 85 18 5 19 83 20 6 21 82 22 84 23
REMARK SMILES IDX 19 24 20 25 21 26 22 27 23 28 24 29 25 30 26 31 27 32 28 33
REMARK SMILES IDX 29 34 81 35 30 36 80 37 31 38 32 39 33 40 74 41 34 42 79 43
REMARK SMILES IDX 73 44 75 45 35 46 78 47 72 48 71 49 36 51 62 52 45 53 61 54
REMARK SMILES IDX 46 55 49 56 60 57 76 58 47 59 48 60 59 62 77 63 50 64 37 65
REMARK SMILES IDX 38 66 43 67 39 68 40 69 42 70 44 71 41 72 63 73 64 74 69 75
REMARK SMILES IDX 65 76 66 77 68 78 70 79 67 80 51 81 52 82 57 83 53 84 54 85
REMARK SMILES IDX 56 86 58 87 55 88
REMARK H PARENT 75 50 49 61
REMARK Flexibility Score: inf
ROOT
ATOM      1  C   UNL A   1      32.788  23.454  22.338  1.00  0.00     0.188 C 
ENDROOT
BRANCH   1   2
ATOM      2  C   UNL A   1      32.927  24.829  21.665  1.00  0.00     0.188 C 
BRANCH   2   3
ATOM      3  O   UNL A   1      33.908  25.649  22.261  1.00  0.00    -0.376 OA
BRANCH   3   4
ATOM      4  C   UNL A   1      33.504  26.743  23.064  1.00  0.00     0.202 C 
BRANCH   4   5
ATOM      5  C   UNL A   1      33.596  26.721  24.603  1.00  0.00     0.261 C 
BRANCH   5   6
ATOM      6  O   UNL A   1      32.565  27.419  25.316  1.00  0.00    -0.463 OA
BRANCH   6   7
ATOM      7  C   UNL A   1      32.071  26.839  26.429  1.00  0.00     0.305 C 
ATOM      8  O   UNL A   1      31.930  27.421  27.500  1.00  0.00    -0.252 OA
BRANCH   7   9
ATOM      9  C   UNL A   1      31.586  25.410  26.229  1.00  0.00     0.123 C 
BRANCH   9  10
ATOM     10  C   UNL A   1      30.265  25.034  25.528  1.00  0.00     0.020 C 
BRANCH  10  11
ATOM     11  C   UNL A   1      30.078  25.307  24.032  1.00  0.00     0.076 C 
BRANCH  11  12
ATOM     12  C   UNL A   1      29.333  26.584  23.815  1.00  0.00     0.108 A 
ATOM     13  C   UNL A   1      27.937  32.103  20.799  1.00  0.00     0.044 C 
ATOM     14  C   UNL A   1      28.512  30.899  21.479  1.00  0.00    -0.050 A 
ATOM     15  C   UNL A   1      29.887  30.633  21.419  1.00  0.00     0.007 A 
ATOM     16  C   UNL A   1      27.667  30.033  22.193  1.00  0.00     0.019 A 
ATOM     17  C   UNL A   1      30.420  29.530  22.079  1.00  0.00     0.048 A 
ATOM     18  C   UNL A   1      28.206  28.921  22.838  1.00  0.00     0.065 A 
ATOM     19  C   UNL A   1      29.574  28.683  22.787  1.00  0.00     0.138 A 
ATOM     20  C   UNL A   1      27.352  27.951  23.545  1.00  0.00     0.192 A 
ATOM     21  O   UNL A   1      30.152  27.616  23.407  1.00  0.00    -0.461 OA
ATOM     22  C   UNL A   1      28.004  26.694  23.955  1.00  0.00     0.095 A 
ATOM     23  O   UNL A   1      26.155  28.132  23.725  1.00  0.00    -0.289 OA
ENDBRANCH  11  12
ENDBRANCH  10  11
ENDBRANCH   9  10
ENDBRANCH   7   9
ENDBRANCH   6   7
ENDBRANCH   5   6
ENDBRANCH   4   5
ENDBRANCH   3   4
ENDBRANCH   2   3
ENDBRANCH   1   2
BRANCH   1  24
ATOM     24  O   UNL A   1      33.876  22.912  23.074  1.00  0.00    -0.377 OA
BRANCH  24  25
ATOM     25  C   UNL A   1      33.626  21.984  24.128  1.00  0.00     0.188 C 
BRANCH  25  26
ATOM     26  C   UNL A   1      34.222  22.212  25.534  1.00  0.00     0.188 C 
BRANCH  26  27
ATOM     27  O   UNL A   1      35.051  21.166  26.008  1.00  0.00    -0.376 OA
BRANCH  27  28
ATOM     28  C   UNL A   1      35.618  20.289  25.046  1.00  0.00     0.202 C 
BRANCH  28  29
ATOM     29  C   UNL A   1      37.139  20.349  24.837  1.00  0.00     0.261 C 
BRANCH  29  30
ATOM     30  O   UNL A   1      37.835  21.403  25.525  1.00  0.00    -0.460 OA
BRANCH  30  31
ATOM     31  C   UNL A   1      39.045  21.121  26.048  1.00  0.00     0.338 C 
ATOM     32  O   UNL A   1      39.665  20.072  25.962  1.00  0.00    -0.246 OA
BRANCH  31  33
ATOM     33  C   UNL A   1      39.593  22.371  26.604  1.00  0.00     0.060 A 
ATOM     34  C   UNL A   1      39.060  23.599  26.188  1.00  0.00     0.016 A 
ATOM     35  C   UNL A   1      40.633  22.327  27.534  1.00  0.00     0.016 A 
ATOM     36  C   UNL A   1      39.590  24.792  26.681  1.00  0.00     0.010 A 
ATOM     37  C   UNL A   1      41.179  23.524  28.007  1.00  0.00     0.010 A 
ATOM     38  C   UNL A   1      40.680  24.760  27.558  1.00  0.00    -0.014 A 
BRANCH  38  39
ATOM     39  C   UNL A   1      41.428  26.006  27.854  1.00  0.00     0.031 A 
ATOM     40  C   UNL A   1      40.722  27.095  28.613  1.00  0.00     0.074 A 
ATOM     41  C   UNL A   1      42.705  26.167  27.470  1.00  0.00     0.049 A 
ATOM     42  N   UNL A   1      41.134  28.299  28.919  1.00  0.00    -0.248 NA
ATOM     43  C   UNL A   1      39.365  26.784  29.089  1.00  0.00     0.031 C 
ATOM     44  C   UNL A   1      43.514  25.167  26.775  1.00  0.00     0.029 A 
ATOM     45  N   UNL A   1      43.543  27.247  27.602  1.00  0.00    -0.354 N 
ATOM     46  C   UNL A   1      40.084  28.889  29.612  1.00  0.00     0.074 A 
ATOM     47  C   UNL A   1      39.007  27.924  29.656  1.00  0.00     0.031 C 
ATOM     48  C   UNL A   1      44.727  25.689  26.524  1.00  0.00     0.029 A 
ATOM     49  C   UNL A   1      44.767  27.069  27.006  1.00  0.00     0.049 A 
ATOM     50  H   UNL A   1      43.289  28.070  28.080  1.00  0.00     0.167 HD
ATOM     51  C   UNL A   1      40.025  30.123  30.165  1.00  0.00     0.037 A 
ATOM     52  C   UNL A   1      45.787  27.935  26.843  1.00  0.00     0.037 A 
ATOM     53  C   UNL A   1      41.097  31.083  30.113  1.00  0.00     0.049 A 
ATOM     54  C   UNL A   1      45.663  29.336  27.386  1.00  0.00     0.074 A 
ATOM     55  C   UNL A   1      41.142  32.354  30.657  1.00  0.00     0.029 A 
ATOM     56  N   UNL A   1      42.307  30.879  29.467  1.00  0.00    -0.354 N 
ATOM     57  N   UNL A   1      44.678  29.879  28.060  1.00  0.00    -0.248 NA
ATOM     58  C   UNL A   1      46.794  30.244  27.144  1.00  0.00     0.031 C 
ATOM     59  C   UNL A   1      42.356  32.943  30.287  1.00  0.00     0.029 A 
ATOM     60  C   UNL A   1      43.093  32.015  29.570  1.00  0.00     0.049 A 
ATOM     61  H   UNL A   1      42.569  30.050  29.005  1.00  0.00     0.167 HD
ATOM     62  C   UNL A   1      45.082  31.179  28.346  1.00  0.00     0.074 A 
ATOM     63  C   UNL A   1      46.407  31.336  27.787  1.00  0.00     0.031 C 
ATOM     64  C   UNL A   1      44.415  32.156  29.012  1.00  0.00     0.037 A 
BRANCH  51  65
ATOM     65  C   UNL A   1      38.745  30.517  30.844  1.00  0.00     0.057 A 
ATOM     66  C   UNL A   1      38.521  30.279  32.206  1.00  0.00     0.134 A 
ATOM     67  C   UNL A   1      37.732  31.167  30.127  1.00  0.00     0.134 A 
ATOM     68  F   UNL A   1      39.443  29.646  32.948  1.00  0.00    -0.206 F 
ATOM     69  C   UNL A   1      37.326  30.651  32.825  1.00  0.00     0.040 A 
ATOM     70  C   UNL A   1      36.546  31.570  30.741  1.00  0.00     0.040 A 
ATOM     71  F   UNL A   1      37.882  31.428  28.820  1.00  0.00    -0.206 F 
ATOM     72  C   UNL A   1      36.337  31.305  32.093  1.00  0.00     0.006 A 
ENDBRANCH  51  65
BRANCH  52  73
ATOM     73  C   UNL A   1      47.009  27.519  26.106  1.00  0.00     0.057 A 
ATOM     74  C   UNL A   1      47.083  27.607  24.711  1.00  0.00     0.134 A 
ATOM     75  C   UNL A   1      48.121  26.992  26.776  1.00  0.00     0.134 A 
ATOM     76  F   UNL A   1      46.042  28.079  24.009  1.00  0.00    -0.206 F 
ATOM     77  C   UNL A   1      48.208  27.170  24.008  1.00  0.00     0.040 A 
ATOM     78  C   UNL A   1      49.263  26.578  26.089  1.00  0.00     0.040 A 
ATOM     79  F   UNL A   1      48.114  26.876  28.112  1.00  0.00    -0.206 F 
ATOM     80  C   UNL A   1      49.304  26.658  24.699  1.00  0.00     0.006 A 
ENDBRANCH  52  73
BRANCH  64  81
ATOM     81  C   UNL A   1      45.120  33.468  29.206  1.00  0.00     0.057 A 
ATOM     82  C   UNL A   1      44.972  34.532  28.307  1.00  0.00     0.134 A 
ATOM     83  C   UNL A   1      45.923  33.686  30.333  1.00  0.00     0.134 A 
ATOM     84  F   UNL A   1      44.226  34.389  27.200  1.00  0.00    -0.206 F 
ATOM     85  C   UNL A   1      45.615  35.755  28.508  1.00  0.00     0.040 A 
ATOM     86  C   UNL A   1      46.546  34.913  30.563  1.00  0.00     0.040 A 
ATOM     87  F   UNL A   1      46.099  32.715  31.243  1.00  0.00    -0.206 F 
ATOM     88  C   UNL A   1      46.398  35.951  29.645  1.00  0.00     0.006 A 
ENDBRANCH  64  81
ENDBRANCH  38  39
ENDBRANCH  31  33
ENDBRANCH  30  31
ENDBRANCH  29  30
ENDBRANCH  28  29
ENDBRANCH  27  28
ENDBRANCH  26  27
ENDBRANCH  25  26
ENDBRANCH  24  25
ENDBRANCH   1  24
TORSDOF 23
ENDMDL
MODEL 3
REMARK VINA RESULT:      -9.6      0.864      5.987
REMARK SMILES Cc1ccc2oc(CCCC(=O)OCCOCCOCCOCCOC(=O)c3ccc(-c4c5nc(c(-c6c(F)cccc6F)c6ccc([nH]6)c(-c6c(F)cccc6F)c6nc(c(-c7c(F)cccc7F)c7ccc4[nH]7)C=C6)C=C5)cc3)cc(=O)c2c1
REMARK SMILES IDX 18 1 17 2 16 3 15 4 14 5 13 6 11 7 12 8 10 9 9 10 8 11 7 12
REMARK SMILES IDX 1 13 2 14 3 15 86 16 4 17 85 18 5 19 83 20 6 21 82 22 84 23
REMARK SMILES IDX 19 24 20 25 21 26 22 27 23 28 24 29 25 30 26 31 27 32 28 33
REMARK SMILES IDX 29 34 81 35 30 36 80 37 31 38 32 39 33 40 74 41 34 42 79 43
REMARK SMILES IDX 73 44 75 45 35 46 78 47 72 48 71 49 36 51 62 52 45 53 61 54
REMARK SMILES IDX 46 55 49 56 60 57 76 58 47 59 48 60 59 62 77 63 50 64 37 65
REMARK SMILES IDX 38 66 43 67 39 68 40 69 42 70 44 71 41 72 63 73 64 74 69 75
REMARK SMILES IDX 65 76 66 77 68 78 70 79 67 80 51 81 52 82 57 83 53 84 54 85
REMARK SMILES IDX 56 86 58 87 55 88
REMARK H PARENT 75 50 49 61
REMARK Flexibility Score: inf
ROOT
ATOM      1  C   UNL A   1      32.678  30.528  26.997  1.00  0.00     0.188 C 
ENDROOT
BRANCH   1   2
ATOM      2  C   UNL A   1      32.079  29.160  26.633  1.00  0.00     0.188 C 
BRANCH   2   3
ATOM      3  O   UNL A   1      32.714  28.543  25.534  1.00  0.00    -0.376 OA
BRANCH   3   4
ATOM      4  C   UNL A   1      32.972  29.300  24.367  1.00  0.00     0.202 C 
BRANCH   4   5
ATOM      5  C   UNL A   1      33.396  28.652  23.034  1.00  0.00     0.261 C 
BRANCH   5   6
ATOM      6  O   UNL A   1      33.734  27.258  23.078  1.00  0.00    -0.463 OA
BRANCH   6   7
ATOM      7  C   UNL A   1      33.018  26.417  22.305  1.00  0.00     0.305 C 
ATOM      8  O   UNL A   1      33.471  25.835  21.324  1.00  0.00    -0.252 OA
BRANCH   7   9
ATOM      9  C   UNL A   1      31.608  26.145  22.812  1.00  0.00     0.123 C 
BRANCH   9  10
ATOM     10  C   UNL A   1      31.054  24.739  23.119  1.00  0.00     0.020 C 
BRANCH  10  11
ATOM     11  C   UNL A   1      31.214  24.133  24.517  1.00  0.00     0.076 C 
BRANCH  11  12
ATOM     12  C   UNL A   1      32.144  22.962  24.482  1.00  0.00     0.108 A 
ATOM     13  C   UNL A   1      37.839  19.999  25.017  1.00  0.00     0.044 C 
ATOM     14  C   UNL A   1      36.647  20.866  24.752  1.00  0.00    -0.050 A 
ATOM     15  C   UNL A   1      36.808  22.164  24.244  1.00  0.00     0.007 A 
ATOM     16  C   UNL A   1      35.357  20.373  25.005  1.00  0.00     0.019 A 
ATOM     17  C   UNL A   1      35.695  22.953  23.971  1.00  0.00     0.048 A 
ATOM     18  C   UNL A   1      34.248  21.176  24.743  1.00  0.00     0.065 A 
ATOM     19  C   UNL A   1      34.422  22.452  24.220  1.00  0.00     0.138 A 
ATOM     20  C   UNL A   1      32.880  20.726  25.052  1.00  0.00     0.192 A 
ATOM     21  O   UNL A   1      33.372  23.274  23.939  1.00  0.00    -0.461 OA
ATOM     22  C   UNL A   1      31.828  21.757  24.976  1.00  0.00     0.095 A 
ATOM     23  O   UNL A   1      32.626  19.587  25.419  1.00  0.00    -0.289 OA
ENDBRANCH  11  12
ENDBRANCH  10  11
ENDBRANCH   9  10
ENDBRANCH   7   9
ENDBRANCH   6   7
ENDBRANCH   5   6
ENDBRANCH   4   5
ENDBRANCH   3   4
ENDBRANCH   2   3
ENDBRANCH   1   2
BRANCH   1  24
ATOM     24  O   UNL A   1      33.750  30.607  27.927  1.00  0.00    -0.377 OA
BRANCH  24  25
ATOM     25  C   UNL A   1      34.702  31.664  27.820  1.00  0.00     0.188 C 
BRANCH  25  26
ATOM     26  C   UNL A   1      34.302  33.119  28.151  1.00  0.00     0.188 C 
BRANCH  26  27
ATOM     27  O   UNL A   1      35.004  33.700  29.235  1.00  0.00    -0.376 OA
BRANCH  27  28
ATOM     28  C   UNL A   1      34.442  33.563  30.532  1.00  0.00     0.202 C 
BRANCH  28  29
ATOM     29  C   UNL A   1      35.211  34.181  31.710  1.00  0.00     0.261 C 
BRANCH  29  30
ATOM     30  O   UNL A   1      36.553  33.705  31.913  1.00  0.00    -0.460 OA
BRANCH  30  31
ATOM     31  C   UNL A   1      36.711  32.492  32.480  1.00  0.00     0.338 C 
ATOM     32  O   UNL A   1      36.025  31.985  33.354  1.00  0.00    -0.246 OA
BRANCH  31  33
ATOM     33  C   UNL A   1      37.765  31.783  31.731  1.00  0.00     0.060 A 
ATOM     34  C   UNL A   1      38.827  31.197  32.433  1.00  0.00     0.016 A 
ATOM     35  C   UNL A   1      37.701  31.701  30.340  1.00  0.00     0.016 A 
ATOM     36  C   UNL A   1      39.850  30.551  31.737  1.00  0.00     0.010 A 
ATOM     37  C   UNL A   1      38.738  31.074  29.643  1.00  0.00     0.010 A 
ATOM     38  C   UNL A   1      39.831  30.526  30.337  1.00  0.00    -0.014 A 
BRANCH  38  39
ATOM     39  C   UNL A   1      41.041  30.105  29.590  1.00  0.00     0.031 A 
ATOM     40  C   UNL A   1      41.101  28.697  29.067  1.00  0.00     0.074 A 
ATOM     41  C   UNL A   1      42.059  30.953  29.367  1.00  0.00     0.049 A 
ATOM     42  N   UNL A   1      42.078  28.074  28.460  1.00  0.00    -0.248 NA
ATOM     43  C   UNL A   1      39.893  27.878  29.261  1.00  0.00     0.031 C 
ATOM     44  C   UNL A   1      42.100  32.356  29.776  1.00  0.00     0.029 A 
ATOM     45  N   UNL A   1      43.269  30.747  28.750  1.00  0.00    -0.354 N 
ATOM     46  C   UNL A   1      41.607  26.791  28.210  1.00  0.00     0.074 A 
ATOM     47  C   UNL A   1      40.270  26.715  28.756  1.00  0.00     0.031 C 
ATOM     48  C   UNL A   1      43.284  32.880  29.414  1.00  0.00     0.029 A 
ATOM     49  C   UNL A   1      44.097  31.840  28.785  1.00  0.00     0.049 A 
ATOM     50  H   UNL A   1      43.517  29.895  28.322  1.00  0.00     0.167 HD
ATOM     51  C   UNL A   1      42.231  25.770  27.577  1.00  0.00     0.037 A 
ATOM     52  C   UNL A   1      45.376  31.974  28.382  1.00  0.00     0.037 A 
ATOM     53  C   UNL A   1      43.565  25.849  27.041  1.00  0.00     0.049 A 
ATOM     54  C   UNL A   1      46.084  30.795  27.764  1.00  0.00     0.074 A 
ATOM     55  C   UNL A   1      44.281  24.876  26.367  1.00  0.00     0.029 A 
ATOM     56  N   UNL A   1      44.387  26.962  27.129  1.00  0.00    -0.354 N 
ATOM     57  N   UNL A   1      45.626  29.593  27.509  1.00  0.00    -0.248 NA
ATOM     58  C   UNL A   1      47.490  30.992  27.379  1.00  0.00     0.031 C 
ATOM     59  C   UNL A   1      45.559  25.379  26.104  1.00  0.00     0.029 A 
ATOM     60  C   UNL A   1      45.616  26.689  26.553  1.00  0.00     0.049 A 
ATOM     61  H   UNL A   1      44.134  27.821  27.541  1.00  0.00     0.167 HD
ATOM     62  C   UNL A   1      46.674  28.902  26.910  1.00  0.00     0.074 A 
ATOM     63  C   UNL A   1      47.786  29.825  26.825  1.00  0.00     0.031 C 
ATOM     64  C   UNL A   1      46.714  27.619  26.470  1.00  0.00     0.037 A 
BRANCH  51  65
ATOM     65  C   UNL A   1      41.491  24.469  27.463  1.00  0.00     0.057 A 
ATOM     66  C   UNL A   1      41.805  23.362  28.262  1.00  0.00     0.134 A 
ATOM     67  C   UNL A   1      40.431  24.332  26.558  1.00  0.00     0.134 A 
ATOM     68  F   UNL A   1      42.820  23.420  29.138  1.00  0.00    -0.206 F 
ATOM     69  C   UNL A   1      41.109  22.157  28.147  1.00  0.00     0.040 A 
ATOM     70  C   UNL A   1      39.707  23.143  26.455  1.00  0.00     0.040 A 
ATOM     71  F   UNL A   1      40.075  25.353  25.765  1.00  0.00    -0.206 F 
ATOM     72  C   UNL A   1      40.051  22.048  27.246  1.00  0.00     0.006 A 
ENDBRANCH  51  65
BRANCH  52  73
ATOM     73  C   UNL A   1      46.091  33.263  28.575  1.00  0.00     0.057 A 
ATOM     74  C   UNL A   1      46.722  33.571  29.786  1.00  0.00     0.134 A 
ATOM     75  C   UNL A   1      46.131  34.233  27.565  1.00  0.00     0.134 A 
ATOM     76  F   UNL A   1      46.696  32.696  30.802  1.00  0.00    -0.206 F 
ATOM     77  C   UNL A   1      47.349  34.802  29.993  1.00  0.00     0.040 A 
ATOM     78  C   UNL A   1      46.779  35.455  27.747  1.00  0.00     0.040 A 
ATOM     79  F   UNL A   1      45.543  34.003  26.381  1.00  0.00    -0.206 F 
ATOM     80  C   UNL A   1      47.383  35.745  28.969  1.00  0.00     0.006 A 
ENDBRANCH  52  73
BRANCH  64  81
ATOM     81  C   UNL A   1      47.985  27.147  25.823  1.00  0.00     0.057 A 
ATOM     82  C   UNL A   1      48.220  27.296  24.451  1.00  0.00     0.134 A 
ATOM     83  C   UNL A   1      49.007  26.577  26.593  1.00  0.00     0.134 A 
ATOM     84  F   UNL A   1      47.280  27.825  23.652  1.00  0.00    -0.206 F 
ATOM     85  C   UNL A   1      49.414  26.873  23.863  1.00  0.00     0.040 A 
ATOM     86  C   UNL A   1      50.218  26.178  26.024  1.00  0.00     0.040 A 
ATOM     87  F   UNL A   1      48.855  26.416  27.916  1.00  0.00    -0.206 F 
ATOM     88  C   UNL A   1      50.421  26.319  24.653  1.00  0.00     0.006 A 
ENDBRANCH  64  81
ENDBRANCH  38  39
ENDBRANCH  31  33
ENDBRANCH  30  31
ENDBRANCH  29  30
ENDBRANCH  28  29
ENDBRANCH  27  28
ENDBRANCH  26  27
ENDBRANCH  25  26
ENDBRANCH  24  25
ENDBRANCH   1  24
TORSDOF 23
ENDMDL
