MODEL 1
REMARK VINA RESULT:     -10.3      0.000      0.000
REMARK SMILES O=C(Cc1cncnc1N1CCC2(CC1)OCCC[C@@H]2O)OCCOCCOCCOCCOC(=O)c1ccc(-c2c3nc(c(-c4c(F)cccc4F)c4ccc([nH]4)c(-c4c(F)cccc4F)c4nc(c(-c5c(F)cccc5F)c5ccc2[nH]5)C=C4)C=C3)cc1
REMARK SMILES IDX 27 1 26 2 25 3 24 4 23 5 22 6 2 7 1 8 3 9 4 10 5 11 9 12
REMARK SMILES IDX 6 13 8 14 7 15 10 16 11 17 15 18 12 19 14 20 13 21 16 22
REMARK SMILES IDX 20 23 17 24 19 25 18 26 21 27 28 29 29 30 30 31 31 32 32 33
REMARK SMILES IDX 33 34 34 35 35 36 36 37 37 38 38 39 90 40 39 41 89 42 40 43
REMARK SMILES IDX 41 44 42 45 83 46 43 47 88 48 82 49 84 50 44 51 87 52 81 53
REMARK SMILES IDX 80 54 45 56 71 57 54 58 70 59 55 60 58 61 69 62 85 63 56 64
REMARK SMILES IDX 57 65 68 67 86 68 59 69 46 70 47 71 52 72 48 73 49 74 51 75
REMARK SMILES IDX 53 76 50 77 72 78 73 79 78 80 74 81 75 82 77 83 79 84 76 85
REMARK SMILES IDX 60 86 61 87 66 88 62 89 63 90 65 91 67 92 64 93
REMARK H PARENT 21 28 84 55 58 66
REMARK Flexibility Score: inf
ROOT
ATOM      1  C   UNL A   1      35.650  32.570  27.916  1.00  0.00     0.188 C 
ENDROOT
BRANCH   1   2
ATOM      2  C   UNL A   1      34.542  31.536  28.248  1.00  0.00     0.188 C 
BRANCH   2   3
ATOM      3  O   UNL A   1      33.914  30.913  27.136  1.00  0.00    -0.376 OA
BRANCH   3   4
ATOM      4  C   UNL A   1      32.546  30.564  27.081  1.00  0.00     0.202 C 
BRANCH   4   5
ATOM      5  C   UNL A   1      32.154  29.108  26.921  1.00  0.00     0.261 C 
BRANCH   5   6
ATOM      6  O   UNL A   1      32.847  28.423  25.865  1.00  0.00    -0.463 OA
BRANCH   6   7
ATOM      7  C   UNL A   1      33.140  27.116  25.716  1.00  0.00     0.310 C 
ATOM      8  O   UNL A   1      34.282  26.720  25.957  1.00  0.00    -0.252 OA
BRANCH   7   9
ATOM      9  C   UNL A   1      32.112  26.193  25.153  1.00  0.00     0.163 C 
BRANCH   9  10
ATOM     10  C   UNL A   1      32.370  25.744  23.753  1.00  0.00     0.024 A 
ATOM     11  C   UNL A   1      33.205  24.663  23.543  1.00  0.00     0.121 A 
ATOM     12  C   UNL A   1      31.849  26.381  22.623  1.00  0.00     0.135 A 
ATOM     13  N   UNL A   1      33.541  24.223  22.328  1.00  0.00    -0.244 NA
ATOM     14  N   UNL A   1      32.178  25.970  21.392  1.00  0.00    -0.219 NA
ATOM     15  C   UNL A   1      32.996  24.904  21.309  1.00  0.00     0.224 A 
BRANCH  12  16
ATOM     16  N   UNL A   1      31.002  27.467  22.786  1.00  0.00    -0.356 N 
ATOM     17  C   UNL A   1      31.620  28.780  22.740  1.00  0.00     0.121 C 
ATOM     18  C   UNL A   1      29.843  27.413  23.680  1.00  0.00     0.121 C 
ATOM     19  C   UNL A   1      30.638  29.719  22.057  1.00  0.00     0.060 C 
ATOM     20  C   UNL A   1      28.731  28.319  23.111  1.00  0.00     0.060 C 
ATOM     21  C   UNL A   1      29.222  29.729  22.700  1.00  0.00     0.097 C 
ATOM     22  O   UNL A   1      29.242  30.456  23.948  1.00  0.00    -0.372 OA
ATOM     23  C   UNL A   1      28.220  30.380  21.685  1.00  0.00     0.146 C 
ATOM     24  C   UNL A   1      29.433  31.861  23.863  1.00  0.00     0.161 C 
ATOM     25  C   UNL A   1      28.489  31.875  21.530  1.00  0.00     0.037 C 
ATOM     26  C   UNL A   1      28.474  32.544  22.898  1.00  0.00     0.031 C 
BRANCH  23  27
ATOM     27  O   UNL A   1      26.859  30.215  22.103  1.00  0.00    -0.390 OA
ATOM     28  H   UNL A   1      26.728  29.310  22.427  1.00  0.00     0.211 HD
ENDBRANCH  23  27
ENDBRANCH  12  16
ENDBRANCH   9  10
ENDBRANCH   7   9
ENDBRANCH   6   7
ENDBRANCH   5   6
ENDBRANCH   4   5
ENDBRANCH   3   4
ENDBRANCH   2   3
ENDBRANCH   1   2
BRANCH   1  29
ATOM     29  O   UNL A   1      35.717  33.712  28.766  1.00  0.00    -0.377 OA
BRANCH  29  30
ATOM     30  C   UNL A   1      34.695  34.668  28.549  1.00  0.00     0.188 C 
BRANCH  30  31
ATOM     31  C   UNL A   1      33.640  34.742  29.673  1.00  0.00     0.188 C 
BRANCH  31  32
ATOM     32  O   UNL A   1      33.931  35.254  30.966  1.00  0.00    -0.376 OA
BRANCH  32  33
ATOM     33  C   UNL A   1      33.929  34.440  32.126  1.00  0.00     0.202 C 
BRANCH  33  34
ATOM     34  C   UNL A   1      34.696  33.115  32.201  1.00  0.00     0.261 C 
BRANCH  34  35
ATOM     35  O   UNL A   1      36.117  33.202  32.146  1.00  0.00    -0.460 OA
BRANCH  35  36
ATOM     36  C   UNL A   1      36.759  32.329  32.954  1.00  0.00     0.338 C 
ATOM     37  O   UNL A   1      36.575  32.135  34.137  1.00  0.00    -0.246 OA
BRANCH  36  38
ATOM     38  C   UNL A   1      37.628  31.484  32.113  1.00  0.00     0.060 A 
ATOM     39  C   UNL A   1      38.590  30.693  32.756  1.00  0.00     0.016 A 
ATOM     40  C   UNL A   1      37.513  31.486  30.721  1.00  0.00     0.016 A 
ATOM     41  C   UNL A   1      39.485  29.945  32.009  1.00  0.00     0.010 A 
ATOM     42  C   UNL A   1      38.446  30.778  29.966  1.00  0.00     0.010 A 
ATOM     43  C   UNL A   1      39.467  30.063  30.617  1.00  0.00    -0.014 A 
BRANCH  43  44
ATOM     44  C   UNL A   1      40.712  29.726  29.902  1.00  0.00     0.031 A 
ATOM     45  C   UNL A   1      40.807  28.350  29.298  1.00  0.00     0.074 A 
ATOM     46  C   UNL A   1      41.670  30.642  29.703  1.00  0.00     0.049 A 
ATOM     47  N   UNL A   1      41.769  27.815  28.596  1.00  0.00    -0.248 NA
ATOM     48  C   UNL A   1      39.651  27.461  29.512  1.00  0.00     0.031 C 
ATOM     49  C   UNL A   1      41.633  32.023  30.178  1.00  0.00     0.029 A 
ATOM     50  N   UNL A   1      42.860  30.540  29.035  1.00  0.00    -0.354 N 
ATOM     51  C   UNL A   1      41.340  26.526  28.300  1.00  0.00     0.074 A 
ATOM     52  C   UNL A   1      40.048  26.348  28.920  1.00  0.00     0.031 C 
ATOM     53  C   UNL A   1      42.760  32.644  29.785  1.00  0.00     0.029 A 
ATOM     54  C   UNL A   1      43.602  31.693  29.062  1.00  0.00     0.049 A 
ATOM     55  H   UNL A   1      43.155  29.719  28.579  1.00  0.00     0.167 HD
ATOM     56  C   UNL A   1      41.969  25.578  27.570  1.00  0.00     0.037 A 
ATOM     57  C   UNL A   1      44.830  31.933  28.568  1.00  0.00     0.037 A 
ATOM     58  C   UNL A   1      43.256  25.770  26.958  1.00  0.00     0.049 A 
ATOM     59  C   UNL A   1      45.548  30.831  27.834  1.00  0.00     0.074 A 
ATOM     60  C   UNL A   1      43.985  24.884  26.188  1.00  0.00     0.029 A 
ATOM     61  N   UNL A   1      44.007  26.932  27.059  1.00  0.00    -0.354 N 
ATOM     62  N   UNL A   1      45.136  29.619  27.546  1.00  0.00    -0.248 NA
ATOM     63  C   UNL A   1      46.901  31.136  27.352  1.00  0.00     0.031 C 
ATOM     64  C   UNL A   1      45.209  25.486  25.878  1.00  0.00     0.029 A 
ATOM     65  C   UNL A   1      45.210  26.774  26.393  1.00  0.00     0.049 A 
ATOM     66  H   UNL A   1      43.727  27.747  27.535  1.00  0.00     0.167 HD
ATOM     67  C   UNL A   1      46.162  29.031  26.814  1.00  0.00     0.074 A 
ATOM     68  C   UNL A   1      47.208  30.026  26.696  1.00  0.00     0.031 C 
ATOM     69  C   UNL A   1      46.233  27.784  26.282  1.00  0.00     0.037 A 
BRANCH  56  70
ATOM     70  C   UNL A   1      41.298  24.240  27.449  1.00  0.00     0.057 A 
ATOM     71  C   UNL A   1      40.196  24.027  26.610  1.00  0.00     0.134 A 
ATOM     72  C   UNL A   1      41.763  23.148  28.191  1.00  0.00     0.134 A 
ATOM     73  F   UNL A   1      39.683  25.035  25.888  1.00  0.00    -0.206 F 
ATOM     74  C   UNL A   1      39.565  22.783  26.535  1.00  0.00     0.040 A 
ATOM     75  C   UNL A   1      41.162  21.892  28.101  1.00  0.00     0.040 A 
ATOM     76  F   UNL A   1      42.812  23.282  29.018  1.00  0.00    -0.206 F 
ATOM     77  C   UNL A   1      40.054  21.709  27.278  1.00  0.00     0.006 A 
ENDBRANCH  56  70
BRANCH  57  78
ATOM     78  C   UNL A   1      45.460  33.265  28.751  1.00  0.00     0.057 A 
ATOM     79  C   UNL A   1      46.224  33.556  29.887  1.00  0.00     0.134 A 
ATOM     80  C   UNL A   1      45.290  34.288  27.810  1.00  0.00     0.134 A 
ATOM     81  F   UNL A   1      46.406  32.625  30.835  1.00  0.00    -0.206 F 
ATOM     82  C   UNL A   1      46.779  34.821  30.091  1.00  0.00     0.040 A 
ATOM     83  C   UNL A   1      45.864  35.548  27.987  1.00  0.00     0.040 A 
ATOM     84  F   UNL A   1      44.571  34.074  26.698  1.00  0.00    -0.206 F 
ATOM     85  C   UNL A   1      46.602  35.820  29.136  1.00  0.00     0.006 A 
ENDBRANCH  57  78
BRANCH  69  86
ATOM     86  C   UNL A   1      47.458  27.450  25.478  1.00  0.00     0.057 A 
ATOM     87  C   UNL A   1      48.598  26.877  26.056  1.00  0.00     0.134 A 
ATOM     88  C   UNL A   1      47.481  27.682  24.096  1.00  0.00     0.134 A 
ATOM     89  F   UNL A   1      48.645  26.637  27.375  1.00  0.00    -0.206 F 
ATOM     90  C   UNL A   1      49.730  26.582  25.295  1.00  0.00     0.040 A 
ATOM     91  C   UNL A   1      48.594  27.358  23.320  1.00  0.00     0.040 A 
ATOM     92  F   UNL A   1      46.418  28.215  23.475  1.00  0.00    -0.206 F 
ATOM     93  C   UNL A   1      49.727  26.817  23.921  1.00  0.00     0.006 A 
ENDBRANCH  69  86
ENDBRANCH  43  44
ENDBRANCH  36  38
ENDBRANCH  35  36
ENDBRANCH  34  35
ENDBRANCH  33  34
ENDBRANCH  32  33
ENDBRANCH  31  32
ENDBRANCH  30  31
ENDBRANCH  29  30
ENDBRANCH   1  29
TORSDOF 23
ENDMDL
MODEL 2
REMARK VINA RESULT:     -10.1      4.789      9.631
REMARK SMILES O=C(Cc1cncnc1N1CCC2(CC1)OCCC[C@@H]2O)OCCOCCOCCOCCOC(=O)c1ccc(-c2c3nc(c(-c4c(F)cccc4F)c4ccc([nH]4)c(-c4c(F)cccc4F)c4nc(c(-c5c(F)cccc5F)c5ccc2[nH]5)C=C4)C=C3)cc1
REMARK SMILES IDX 27 1 26 2 25 3 24 4 23 5 22 6 2 7 1 8 3 9 4 10 5 11 9 12
REMARK SMILES IDX 6 13 8 14 7 15 10 16 11 17 15 18 12 19 14 20 13 21 16 22
REMARK SMILES IDX 20 23 17 24 19 25 18 26 21 27 28 29 29 30 30 31 31 32 32 33
REMARK SMILES IDX 33 34 34 35 35 36 36 37 37 38 38 39 90 40 39 41 89 42 40 43
REMARK SMILES IDX 41 44 42 45 83 46 43 47 88 48 82 49 84 50 44 51 87 52 81 53
REMARK SMILES IDX 80 54 45 56 71 57 54 58 70 59 55 60 58 61 69 62 85 63 56 64
REMARK SMILES IDX 57 65 68 67 86 68 59 69 46 70 47 71 52 72 48 73 49 74 51 75
REMARK SMILES IDX 53 76 50 77 72 78 73 79 78 80 74 81 75 82 77 83 79 84 76 85
REMARK SMILES IDX 60 86 61 87 66 88 62 89 63 90 65 91 67 92 64 93
REMARK H PARENT 21 28 84 55 58 66
REMARK Flexibility Score: inf
ROOT
ATOM      1  C   UNL A   1      33.102  20.679  24.445  1.00  0.00     0.188 C 
ENDROOT
BRANCH   1   2
ATOM      2  C   UNL A   1      31.967  21.562  23.863  1.00  0.00     0.188 C 
BRANCH   2   3
ATOM      3  O   UNL A   1      31.595  22.695  24.637  1.00  0.00    -0.376 OA
BRANCH   3   4
ATOM      4  C   UNL A   1      31.145  22.638  25.974  1.00  0.00     0.202 C 
BRANCH   4   5
ATOM      5  C   UNL A   1      30.711  23.914  26.670  1.00  0.00     0.261 C 
BRANCH   5   6
ATOM      6  O   UNL A   1      31.062  25.117  25.967  1.00  0.00    -0.463 OA
BRANCH   6   7
ATOM      7  C   UNL A   1      31.669  26.238  26.404  1.00  0.00     0.310 C 
ATOM      8  O   UNL A   1      31.166  26.878  27.330  1.00  0.00    -0.252 OA
BRANCH   7   9
ATOM      9  C   UNL A   1      32.873  26.749  25.686  1.00  0.00     0.163 C 
BRANCH   9  10
ATOM     10  C   UNL A   1      33.279  25.947  24.494  1.00  0.00     0.024 A 
ATOM     11  C   UNL A   1      34.109  24.857  24.674  1.00  0.00     0.121 A 
ATOM     12  C   UNL A   1      32.903  26.257  23.183  1.00  0.00     0.135 A 
ATOM     13  N   UNL A   1      34.572  24.114  23.665  1.00  0.00    -0.244 NA
ATOM     14  N   UNL A   1      33.360  25.537  22.151  1.00  0.00    -0.219 NA
ATOM     15  C   UNL A   1      34.160  24.495  22.447  1.00  0.00     0.224 A 
BRANCH  12  16
ATOM     16  N   UNL A   1      32.066  27.339  22.954  1.00  0.00    -0.356 N 
ATOM     17  C   UNL A   1      30.762  27.039  22.393  1.00  0.00     0.121 C 
ATOM     18  C   UNL A   1      32.588  28.638  22.523  1.00  0.00     0.121 C 
ATOM     19  C   UNL A   1      29.768  28.010  23.012  1.00  0.00     0.060 C 
ATOM     20  C   UNL A   1      31.682  29.752  23.090  1.00  0.00     0.060 C 
ATOM     21  C   UNL A   1      30.171  29.504  22.864  1.00  0.00     0.097 C 
ATOM     22  O   UNL A   1      29.954  29.952  21.508  1.00  0.00    -0.372 OA
ATOM     23  C   UNL A   1      29.324  30.350  23.879  1.00  0.00     0.146 C 
ATOM     24  C   UNL A   1      28.603  30.067  21.085  1.00  0.00     0.161 C 
ATOM     25  C   UNL A   1      27.855  30.393  23.465  1.00  0.00     0.037 C 
ATOM     26  C   UNL A   1      27.741  30.890  22.030  1.00  0.00     0.031 C 
BRANCH  23  27
ATOM     27  O   UNL A   1      29.799  31.699  23.973  1.00  0.00    -0.390 OA
ATOM     28  H   UNL A   1      30.303  31.920  23.174  1.00  0.00     0.211 HD
ENDBRANCH  23  27
ENDBRANCH  12  16
ENDBRANCH   9  10
ENDBRANCH   7   9
ENDBRANCH   6   7
ENDBRANCH   5   6
ENDBRANCH   4   5
ENDBRANCH   3   4
ENDBRANCH   2   3
ENDBRANCH   1   2
BRANCH   1  29
ATOM     29  O   UNL A   1      34.408  21.252  24.439  1.00  0.00    -0.377 OA
BRANCH  29  30
ATOM     30  C   UNL A   1      35.407  20.446  25.038  1.00  0.00     0.188 C 
BRANCH  30  31
ATOM     31  C   UNL A   1      36.811  21.086  25.067  1.00  0.00     0.188 C 
BRANCH  31  32
ATOM     32  O   UNL A   1      37.184  22.078  26.013  1.00  0.00    -0.376 OA
BRANCH  32  33
ATOM     33  C   UNL A   1      38.410  22.784  25.934  1.00  0.00     0.202 C 
BRANCH  33  34
ATOM     34  C   UNL A   1      39.700  22.265  26.580  1.00  0.00     0.261 C 
BRANCH  34  35
ATOM     35  O   UNL A   1      40.281  23.092  27.583  1.00  0.00    -0.460 OA
BRANCH  35  36
ATOM     36  C   UNL A   1      41.062  24.085  27.101  1.00  0.00     0.338 C 
ATOM     37  O   UNL A   1      41.850  24.032  26.181  1.00  0.00    -0.246 OA
BRANCH  36  38
ATOM     38  C   UNL A   1      40.668  25.340  27.768  1.00  0.00     0.060 A 
ATOM     39  C   UNL A   1      41.521  26.445  27.637  1.00  0.00     0.016 A 
ATOM     40  C   UNL A   1      39.497  25.422  28.525  1.00  0.00     0.016 A 
ATOM     41  C   UNL A   1      41.240  27.622  28.310  1.00  0.00     0.010 A 
ATOM     42  C   UNL A   1      39.242  26.586  29.248  1.00  0.00     0.010 A 
ATOM     43  C   UNL A   1      40.151  27.656  29.185  1.00  0.00    -0.014 A 
BRANCH  43  44
ATOM     44  C   UNL A   1      40.190  28.664  30.262  1.00  0.00     0.031 A 
ATOM     45  C   UNL A   1      39.164  29.764  30.210  1.00  0.00     0.074 A 
ATOM     46  C   UNL A   1      41.030  28.542  31.299  1.00  0.00     0.049 A 
ATOM     47  N   UNL A   1      38.959  30.750  31.042  1.00  0.00    -0.248 NA
ATOM     48  C   UNL A   1      38.238  29.743  29.063  1.00  0.00     0.031 C 
ATOM     49  C   UNL A   1      42.003  27.467  31.479  1.00  0.00     0.029 A 
ATOM     50  N   UNL A   1      41.184  29.334  32.404  1.00  0.00    -0.354 N 
ATOM     51  C   UNL A   1      37.895  31.470  30.510  1.00  0.00     0.074 A 
ATOM     52  C   UNL A   1      37.516  30.829  29.273  1.00  0.00     0.031 C 
ATOM     53  C   UNL A   1      42.660  27.671  32.635  1.00  0.00     0.029 A 
ATOM     54  C   UNL A   1      42.173  28.903  33.251  1.00  0.00     0.049 A 
ATOM     55  H   UNL A   1      40.638  30.136  32.574  1.00  0.00     0.167 HD
ATOM     56  C   UNL A   1      37.287  32.567  31.015  1.00  0.00     0.037 A 
ATOM     57  C   UNL A   1      42.633  29.462  34.385  1.00  0.00     0.037 A 
ATOM     58  C   UNL A   1      37.676  33.193  32.249  1.00  0.00     0.049 A 
ATOM     59  C   UNL A   1      41.996  30.733  34.881  1.00  0.00     0.074 A 
ATOM     60  C   UNL A   1      37.126  34.302  32.864  1.00  0.00     0.029 A 
ATOM     61  N   UNL A   1      38.724  32.765  33.051  1.00  0.00    -0.354 N 
ATOM     62  N   UNL A   1      40.984  31.405  34.384  1.00  0.00    -0.248 NA
ATOM     63  C   UNL A   1      42.564  31.320  36.101  1.00  0.00     0.031 C 
ATOM     64  C   UNL A   1      37.884  34.585  34.004  1.00  0.00     0.029 A 
ATOM     65  C   UNL A   1      38.860  33.609  34.139  1.00  0.00     0.049 A 
ATOM     66  H   UNL A   1      39.289  31.978  32.872  1.00  0.00     0.167 HD
ATOM     67  C   UNL A   1      40.768  32.470  35.252  1.00  0.00     0.074 A 
ATOM     68  C   UNL A   1      41.749  32.345  36.310  1.00  0.00     0.031 C 
ATOM     69  C   UNL A   1      39.841  33.458  35.185  1.00  0.00     0.037 A 
BRANCH  56  70
ATOM     70  C   UNL A   1      36.184  33.181  30.203  1.00  0.00     0.057 A 
ATOM     71  C   UNL A   1      34.833  33.055  30.555  1.00  0.00     0.134 A 
ATOM     72  C   UNL A   1      36.482  33.907  29.043  1.00  0.00     0.134 A 
ATOM     73  F   UNL A   1      34.474  32.353  31.640  1.00  0.00    -0.206 F 
ATOM     74  C   UNL A   1      33.819  33.607  29.768  1.00  0.00     0.040 A 
ATOM     75  C   UNL A   1      35.481  34.490  28.267  1.00  0.00     0.040 A 
ATOM     76  F   UNL A   1      37.754  34.063  28.645  1.00  0.00    -0.206 F 
ATOM     77  C   UNL A   1      34.144  34.334  28.623  1.00  0.00     0.006 A 
ENDBRANCH  56  70
BRANCH  57  78
ATOM     78  C   UNL A   1      43.752  28.828  35.127  1.00  0.00     0.057 A 
ATOM     79  C   UNL A   1      45.085  29.092  34.791  1.00  0.00     0.134 A 
ATOM     80  C   UNL A   1      43.517  27.925  36.171  1.00  0.00     0.134 A 
ATOM     81  F   UNL A   1      45.375  29.932  33.787  1.00  0.00    -0.206 F 
ATOM     82  C   UNL A   1      46.144  28.463  35.451  1.00  0.00     0.040 A 
ATOM     83  C   UNL A   1      44.566  27.312  36.858  1.00  0.00     0.040 A 
ATOM     84  F   UNL A   1      42.263  27.631  36.544  1.00  0.00    -0.206 F 
ATOM     85  C   UNL A   1      45.884  27.574  36.491  1.00  0.00     0.006 A 
ENDBRANCH  57  78
BRANCH  69  86
ATOM     86  C   UNL A   1      39.809  34.447  36.317  1.00  0.00     0.057 A 
ATOM     87  C   UNL A   1      39.105  34.201  37.503  1.00  0.00     0.134 A 
ATOM     88  C   UNL A   1      40.520  35.651  36.225  1.00  0.00     0.134 A 
ATOM     89  F   UNL A   1      38.397  33.072  37.653  1.00  0.00    -0.206 F 
ATOM     90  C   UNL A   1      39.078  35.135  38.540  1.00  0.00     0.040 A 
ATOM     91  C   UNL A   1      40.530  36.575  37.269  1.00  0.00     0.040 A 
ATOM     92  F   UNL A   1      41.228  35.943  35.123  1.00  0.00    -0.206 F 
ATOM     93  C   UNL A   1      39.798  36.324  38.426  1.00  0.00     0.006 A 
ENDBRANCH  69  86
ENDBRANCH  43  44
ENDBRANCH  36  38
ENDBRANCH  35  36
ENDBRANCH  34  35
ENDBRANCH  33  34
ENDBRANCH  32  33
ENDBRANCH  31  32
ENDBRANCH  30  31
ENDBRANCH  29  30
ENDBRANCH   1  29
TORSDOF 23
ENDMDL
MODEL 3
REMARK VINA RESULT:      -9.9      5.458      9.309
REMARK SMILES O=C(Cc1cncnc1N1CCC2(CC1)OCCC[C@@H]2O)OCCOCCOCCOCCOC(=O)c1ccc(-c2c3nc(c(-c4c(F)cccc4F)c4ccc([nH]4)c(-c4c(F)cccc4F)c4nc(c(-c5c(F)cccc5F)c5ccc2[nH]5)C=C4)C=C3)cc1
REMARK SMILES IDX 27 1 26 2 25 3 24 4 23 5 22 6 2 7 1 8 3 9 4 10 5 11 9 12
REMARK SMILES IDX 6 13 8 14 7 15 10 16 11 17 15 18 12 19 14 20 13 21 16 22
REMARK SMILES IDX 20 23 17 24 19 25 18 26 21 27 28 29 29 30 30 31 31 32 32 33
REMARK SMILES IDX 33 34 34 35 35 36 36 37 37 38 38 39 90 40 39 41 89 42 40 43
REMARK SMILES IDX 41 44 42 45 83 46 43 47 88 48 82 49 84 50 44 51 87 52 81 53
REMARK SMILES IDX 80 54 45 56 71 57 54 58 70 59 55 60 58 61 69 62 85 63 56 64
REMARK SMILES IDX 57 65 68 67 86 68 59 69 46 70 47 71 52 72 48 73 49 74 51 75
REMARK SMILES IDX 53 76 50 77 72 78 73 79 78 80 74 81 75 82 77 83 79 84 76 85
REMARK SMILES IDX 60 86 61 87 66 88 62 89 63 90 65 91 67 92 64 93
REMARK H PARENT 21 28 84 55 58 66
REMARK Flexibility Score: inf
ROOT
ATOM      1  C   UNL A   1      40.256  29.265  28.217  1.00  0.00     0.188 C 
ENDROOT
BRANCH   1   2
ATOM      2  C   UNL A   1      40.031  28.482  26.896  1.00  0.00     0.188 C 
BRANCH   2   3
ATOM      3  O   UNL A   1      40.171  27.070  26.974  1.00  0.00    -0.376 OA
BRANCH   3   4
ATOM      4  C   UNL A   1      39.837  26.293  28.105  1.00  0.00     0.202 C 
BRANCH   4   5
ATOM      5  C   UNL A   1      40.305  24.853  28.185  1.00  0.00     0.261 C 
BRANCH   5   6
ATOM      6  O   UNL A   1      39.602  23.955  27.311  1.00  0.00    -0.463 OA
BRANCH   6   7
ATOM      7  C   UNL A   1      39.899  22.697  26.929  1.00  0.00     0.310 C 
ATOM      8  O   UNL A   1      39.184  22.131  26.101  1.00  0.00    -0.252 OA
BRANCH   7   9
ATOM      9  C   UNL A   1      41.016  21.971  27.601  1.00  0.00     0.163 C 
BRANCH   9  10
ATOM     10  C   UNL A   1      41.799  21.063  26.712  1.00  0.00     0.024 A 
ATOM     11  C   UNL A   1      41.330  19.782  26.486  1.00  0.00     0.121 A 
ATOM     12  C   UNL A   1      43.015  21.415  26.117  1.00  0.00     0.135 A 
ATOM     13  N   UNL A   1      41.988  18.881  25.753  1.00  0.00    -0.244 NA
ATOM     14  N   UNL A   1      43.702  20.528  25.386  1.00  0.00    -0.219 NA
ATOM     15  C   UNL A   1      43.146  19.311  25.232  1.00  0.00     0.224 A 
BRANCH  12  16
ATOM     16  N   UNL A   1      43.521  22.691  26.311  1.00  0.00    -0.356 N 
ATOM     17  C   UNL A   1      43.440  23.597  25.180  1.00  0.00     0.121 C 
ATOM     18  C   UNL A   1      44.695  22.934  27.153  1.00  0.00     0.121 C 
ATOM     19  C   UNL A   1      43.162  24.987  25.732  1.00  0.00     0.060 C 
ATOM     20  C   UNL A   1      44.560  24.325  27.809  1.00  0.00     0.060 C 
ATOM     21  C   UNL A   1      44.176  25.449  26.816  1.00  0.00     0.097 C 
ATOM     22  O   UNL A   1      45.436  25.807  26.207  1.00  0.00    -0.372 OA
ATOM     23  C   UNL A   1      43.557  26.667  27.587  1.00  0.00     0.146 C 
ATOM     24  C   UNL A   1      45.447  26.982  25.410  1.00  0.00     0.161 C 
ATOM     25  C   UNL A   1      43.489  27.904  26.694  1.00  0.00     0.037 C 
ATOM     26  C   UNL A   1      44.868  28.198  26.118  1.00  0.00     0.031 C 
BRANCH  23  27
ATOM     27  O   UNL A   1      44.322  27.002  28.752  1.00  0.00    -0.390 OA
ATOM     28  H   UNL A   1      43.860  27.693  29.253  1.00  0.00     0.211 HD
ENDBRANCH  23  27
ENDBRANCH  12  16
ENDBRANCH   9  10
ENDBRANCH   7   9
ENDBRANCH   6   7
ENDBRANCH   5   6
ENDBRANCH   4   5
ENDBRANCH   3   4
ENDBRANCH   2   3
ENDBRANCH   1   2
BRANCH   1  29
ATOM     29  O   UNL A   1      39.099  29.486  29.020  1.00  0.00    -0.377 OA
BRANCH  29  30
ATOM     30  C   UNL A   1      38.015  30.090  28.337  1.00  0.00     0.188 C 
BRANCH  30  31
ATOM     31  C   UNL A   1      37.475  31.373  29.004  1.00  0.00     0.188 C 
BRANCH  31  32
ATOM     32  O   UNL A   1      38.302  32.487  29.309  1.00  0.00    -0.376 OA
BRANCH  32  33
ATOM     33  C   UNL A   1      37.803  33.660  29.927  1.00  0.00     0.202 C 
BRANCH  33  34
ATOM     34  C   UNL A   1      36.666  33.626  30.955  1.00  0.00     0.261 C 
BRANCH  34  35
ATOM     35  O   UNL A   1      37.048  33.714  32.324  1.00  0.00    -0.460 OA
BRANCH  35  36
ATOM     36  C   UNL A   1      36.744  32.620  33.058  1.00  0.00     0.338 C 
ATOM     37  O   UNL A   1      35.673  32.325  33.546  1.00  0.00    -0.246 OA
BRANCH  36  38
ATOM     38  C   UNL A   1      37.905  31.712  33.026  1.00  0.00     0.060 A 
ATOM     39  C   UNL A   1      39.093  32.149  33.629  1.00  0.00     0.016 A 
ATOM     40  C   UNL A   1      37.834  30.466  32.397  1.00  0.00     0.016 A 
ATOM     41  C   UNL A   1      40.235  31.370  33.555  1.00  0.00     0.010 A 
ATOM     42  C   UNL A   1      38.996  29.707  32.274  1.00  0.00     0.010 A 
ATOM     43  C   UNL A   1      40.205  30.195  32.800  1.00  0.00    -0.014 A 
BRANCH  43  44
ATOM     44  C   UNL A   1      41.495  29.696  32.287  1.00  0.00     0.031 A 
ATOM     45  C   UNL A   1      42.163  30.503  31.207  1.00  0.00     0.074 A 
ATOM     46  C   UNL A   1      42.098  28.633  32.837  1.00  0.00     0.049 A 
ATOM     47  N   UNL A   1      43.308  30.308  30.610  1.00  0.00    -0.248 NA
ATOM     48  C   UNL A   1      41.440  31.702  30.743  1.00  0.00     0.031 C 
ATOM     49  C   UNL A   1      41.569  27.836  33.942  1.00  0.00     0.029 A 
ATOM     50  N   UNL A   1      43.301  28.052  32.539  1.00  0.00    -0.354 N 
ATOM     51  C   UNL A   1      43.431  31.346  29.693  1.00  0.00     0.074 A 
ATOM     52  C   UNL A   1      42.237  32.152  29.790  1.00  0.00     0.031 C 
ATOM     53  C   UNL A   1      42.449  26.860  34.228  1.00  0.00     0.029 A 
ATOM     54  C   UNL A   1      43.581  26.951  33.307  1.00  0.00     0.049 A 
ATOM     55  H   UNL A   1      43.907  28.392  31.842  1.00  0.00     0.167 HD
ATOM     56  C   UNL A   1      44.456  31.605  28.850  1.00  0.00     0.037 A 
ATOM     57  C   UNL A   1      44.630  26.111  33.250  1.00  0.00     0.037 A 
ATOM     58  C   UNL A   1      45.640  30.793  28.765  1.00  0.00     0.049 A 
ATOM     59  C   UNL A   1      45.717  26.371  32.241  1.00  0.00     0.074 A 
ATOM     60  C   UNL A   1      46.746  30.964  27.955  1.00  0.00     0.029 A 
ATOM     61  N   UNL A   1      45.861  29.647  29.516  1.00  0.00    -0.354 N 
ATOM     62  N   UNL A   1      45.837  27.359  31.385  1.00  0.00    -0.248 NA
ATOM     63  C   UNL A   1      46.817  25.400  32.195  1.00  0.00     0.031 C 
ATOM     64  C   UNL A   1      47.608  29.884  28.167  1.00  0.00     0.029 A 
ATOM     65  C   UNL A   1      47.073  29.081  29.163  1.00  0.00     0.049 A 
ATOM     66  H   UNL A   1      45.247  29.290  30.198  1.00  0.00     0.167 HD
ATOM     67  C   UNL A   1      47.045  27.150  30.728  1.00  0.00     0.074 A 
ATOM     68  C   UNL A   1      47.621  25.948  31.294  1.00  0.00     0.031 C 
ATOM     69  C   UNL A   1      47.629  27.886  29.749  1.00  0.00     0.037 A 
BRANCH  56  70
ATOM     70  C   UNL A   1      44.307  32.775  27.921  1.00  0.00     0.057 A 
ATOM     71  C   UNL A   1      44.533  34.095  28.335  1.00  0.00     0.134 A 
ATOM     72  C   UNL A   1      43.927  32.574  26.589  1.00  0.00     0.134 A 
ATOM     73  F   UNL A   1      44.877  34.362  29.604  1.00  0.00    -0.206 F 
ATOM     74  C   UNL A   1      44.358  35.173  27.464  1.00  0.00     0.040 A 
ATOM     75  C   UNL A   1      43.781  33.640  25.700  1.00  0.00     0.040 A 
ATOM     76  F   UNL A   1      43.691  31.337  26.126  1.00  0.00    -0.206 F 
ATOM     77  C   UNL A   1      43.988  34.945  26.139  1.00  0.00     0.006 A 
ENDBRANCH  56  70
BRANCH  57  78
ATOM     78  C   UNL A   1      44.704  24.948  34.170  1.00  0.00     0.057 A 
ATOM     79  C   UNL A   1      45.220  25.079  35.465  1.00  0.00     0.134 A 
ATOM     80  C   UNL A   1      44.286  23.673  33.769  1.00  0.00     0.134 A 
ATOM     81  F   UNL A   1      45.655  26.269  35.901  1.00  0.00    -0.206 F 
ATOM     82  C   UNL A   1      45.339  23.980  36.319  1.00  0.00     0.040 A 
ATOM     83  C   UNL A   1      44.372  22.572  34.622  1.00  0.00     0.040 A 
ATOM     84  F   UNL A   1      43.780  23.480  32.542  1.00  0.00    -0.206 F 
ATOM     85  C   UNL A   1      44.910  22.723  35.898  1.00  0.00     0.006 A 
ENDBRANCH  57  78
BRANCH  69  86
ATOM     86  C   UNL A   1      48.984  27.442  29.273  1.00  0.00     0.057 A 
ATOM     87  C   UNL A   1      49.145  26.565  28.192  1.00  0.00     0.134 A 
ATOM     88  C   UNL A   1      50.145  27.926  29.891  1.00  0.00     0.134 A 
ATOM     89  F   UNL A   1      48.076  26.058  27.561  1.00  0.00    -0.206 F 
ATOM     90  C   UNL A   1      50.411  26.156  27.770  1.00  0.00     0.040 A 
ATOM     91  C   UNL A   1      51.415  27.553  29.454  1.00  0.00     0.040 A 
ATOM     92  F   UNL A   1      50.063  28.781  30.922  1.00  0.00    -0.206 F 
ATOM     93  C   UNL A   1      51.550  26.655  28.398  1.00  0.00     0.006 A 
ENDBRANCH  69  86
ENDBRANCH  43  44
ENDBRANCH  36  38
ENDBRANCH  35  36
ENDBRANCH  34  35
ENDBRANCH  33  34
ENDBRANCH  32  33
ENDBRANCH  31  32
ENDBRANCH  30  31
ENDBRANCH  29  30
ENDBRANCH   1  29
TORSDOF 23
ENDMDL
