MODEL 1
REMARK VINA RESULT:     -10.6      0.000      0.000
REMARK SMILES O=C(OCCOCCOCCOCCOC(=O)[C@@H]1CN(c2nc(-c3ccccc3)no2)CC[NH2+]1)c1ccc(-c2c3nc(c(-c4c(F)cccc4F)c4ccc([nH]4)c(-c4c(F)cccc4F)c4nc(c(-c5c(F)cccc5F)c5ccc2[nH]5)C=C4)C=C3)cc1
REMARK SMILES IDX 9 1 8 2 7 3 6 4 5 5 4 6 3 7 2 8 1 9 35 10 36 11 88 12 37 13
REMARK SMILES IDX 87 14 38 15 39 16 40 17 81 18 41 19 86 20 80 21 82 22 42 23
REMARK SMILES IDX 85 24 79 25 78 26 43 28 69 29 52 30 68 31 53 32 56 33 67 34
REMARK SMILES IDX 83 35 54 36 55 37 66 39 84 40 57 41 44 42 45 43 50 44 46 45
REMARK SMILES IDX 47 46 49 47 51 48 48 49 70 50 71 51 76 52 72 53 73 54 75 55
REMARK SMILES IDX 77 56 74 57 58 58 59 59 64 60 60 61 61 62 63 63 65 64 62 65
REMARK SMILES IDX 10 66 11 67 12 68 13 69 14 70 15 71 16 72 17 73 18 74 19 75
REMARK SMILES IDX 34 76 20 77 33 78 32 81 21 82 22 83 31 84 23 85 30 86 24 87
REMARK SMILES IDX 25 88 29 89 26 90 28 91 27 92
REMARK H PARENT 82 27 56 38 34 79 34 80
REMARK Flexibility Score: inf
ROOT
ATOM      1  O   UNL A   1      38.894  20.697  25.610  1.00  0.00    -0.377 OA
ENDROOT
BRANCH   1   2
ATOM      2  C   UNL A   1      39.992  19.868  25.969  1.00  0.00     0.188 C 
BRANCH   2   3
ATOM      3  C   UNL A   1      40.859  20.454  27.071  1.00  0.00     0.188 C 
BRANCH   3   4
ATOM      4  O   UNL A   1      42.148  19.853  27.020  1.00  0.00    -0.376 OA
BRANCH   4   5
ATOM      5  C   UNL A   1      42.810  19.929  25.761  1.00  0.00     0.202 C 
BRANCH   5   6
ATOM      6  C   UNL A   1      43.695  21.164  25.593  1.00  0.00     0.261 C 
BRANCH   6   7
ATOM      7  O   UNL A   1      42.979  22.335  25.169  1.00  0.00    -0.460 OA
BRANCH   7   8
ATOM      8  C   UNL A   1      43.379  23.629  25.200  1.00  0.00     0.338 C 
ATOM      9  O   UNL A   1      44.132  24.027  24.311  1.00  0.00    -0.246 OA
BRANCH   8  10
ATOM     10  C   UNL A   1      42.990  24.611  26.260  1.00  0.00     0.060 A 
ATOM     11  C   UNL A   1      43.469  25.916  26.359  1.00  0.00     0.016 A 
ATOM     12  C   UNL A   1      41.970  24.229  27.149  1.00  0.00     0.016 A 
ATOM     13  C   UNL A   1      42.978  26.818  27.285  1.00  0.00     0.010 A 
ATOM     14  C   UNL A   1      41.461  25.131  28.091  1.00  0.00     0.010 A 
ATOM     15  C   UNL A   1      41.972  26.431  28.156  1.00  0.00    -0.014 A 
BRANCH  15  16
ATOM     16  C   UNL A   1      41.609  27.381  29.215  1.00  0.00     0.031 A 
ATOM     17  C   UNL A   1      42.484  27.430  30.426  1.00  0.00     0.074 A 
ATOM     18  C   UNL A   1      40.633  28.281  29.003  1.00  0.00     0.049 A 
ATOM     19  N   UNL A   1      42.332  28.105  31.530  1.00  0.00    -0.248 NA
ATOM     20  C   UNL A   1      43.716  26.619  30.378  1.00  0.00     0.031 C 
ATOM     21  C   UNL A   1      39.858  28.414  27.765  1.00  0.00     0.029 A 
ATOM     22  N   UNL A   1      40.142  29.272  29.809  1.00  0.00    -0.354 N 
ATOM     23  C   UNL A   1      43.417  27.763  32.324  1.00  0.00     0.074 A 
ATOM     24  C   UNL A   1      44.237  26.843  31.573  1.00  0.00     0.031 C 
ATOM     25  C   UNL A   1      38.989  29.430  27.898  1.00  0.00     0.029 A 
ATOM     26  C   UNL A   1      39.089  29.956  29.253  1.00  0.00     0.049 A 
ATOM     27  H   UNL A   1      40.509  29.475  30.699  1.00  0.00     0.167 HD
ATOM     28  C   UNL A   1      43.675  28.172  33.585  1.00  0.00     0.037 A 
ATOM     29  C   UNL A   1      38.264  30.859  29.816  1.00  0.00     0.037 A 
ATOM     30  C   UNL A   1      42.833  29.097  34.289  1.00  0.00     0.049 A 
ATOM     31  C   UNL A   1      38.503  31.206  31.261  1.00  0.00     0.074 A 
ATOM     32  C   UNL A   1      42.940  29.553  35.587  1.00  0.00     0.029 A 
ATOM     33  N   UNL A   1      41.718  29.710  33.731  1.00  0.00    -0.354 N 
ATOM     34  N   UNL A   1      39.479  30.820  32.052  1.00  0.00    -0.248 NA
ATOM     35  C   UNL A   1      37.516  32.079  31.906  1.00  0.00     0.031 C 
ATOM     36  C   UNL A   1      41.858  30.405  35.832  1.00  0.00     0.029 A 
ATOM     37  C   UNL A   1      41.105  30.516  34.670  1.00  0.00     0.049 A 
ATOM     38  H   UNL A   1      41.410  29.588  32.804  1.00  0.00     0.167 HD
ATOM     39  C   UNL A   1      39.226  31.405  33.284  1.00  0.00     0.074 A 
ATOM     40  C   UNL A   1      38.022  32.198  33.125  1.00  0.00     0.031 C 
ATOM     41  C   UNL A   1      39.910  31.291  34.450  1.00  0.00     0.037 A 
BRANCH  28  42
ATOM     42  C   UNL A   1      44.837  27.542  34.286  1.00  0.00     0.057 A 
ATOM     43  C   UNL A   1      46.101  28.140  34.336  1.00  0.00     0.134 A 
ATOM     44  C   UNL A   1      44.688  26.292  34.899  1.00  0.00     0.134 A 
ATOM     45  F   UNL A   1      46.321  29.319  33.736  1.00  0.00    -0.206 F 
ATOM     46  C   UNL A   1      47.180  27.511  34.964  1.00  0.00     0.040 A 
ATOM     47  C   UNL A   1      45.751  25.662  35.544  1.00  0.00     0.040 A 
ATOM     48  F   UNL A   1      43.506  25.658  34.869  1.00  0.00    -0.206 F 
ATOM     49  C   UNL A   1      47.004  26.270  35.575  1.00  0.00     0.006 A 
ENDBRANCH  28  42
BRANCH  29  50
ATOM     50  C   UNL A   1      37.092  31.397  29.072  1.00  0.00     0.057 A 
ATOM     51  C   UNL A   1      37.055  32.717  28.611  1.00  0.00     0.134 A 
ATOM     52  C   UNL A   1      35.949  30.612  28.852  1.00  0.00     0.134 A 
ATOM     53  F   UNL A   1      38.104  33.530  28.808  1.00  0.00    -0.206 F 
ATOM     54  C   UNL A   1      35.923  33.244  27.984  1.00  0.00     0.040 A 
ATOM     55  C   UNL A   1      34.823  31.116  28.199  1.00  0.00     0.040 A 
ATOM     56  F   UNL A   1      35.908  29.339  29.271  1.00  0.00    -0.206 F 
ATOM     57  C   UNL A   1      34.804  32.442  27.774  1.00  0.00     0.006 A 
ENDBRANCH  29  50
BRANCH  41  58
ATOM     58  C   UNL A   1      39.371  32.052  35.620  1.00  0.00     0.057 A 
ATOM     59  C   UNL A   1      39.768  33.368  35.879  1.00  0.00     0.134 A 
ATOM     60  C   UNL A   1      38.403  31.480  36.454  1.00  0.00     0.134 A 
ATOM     61  F   UNL A   1      40.703  33.960  35.121  1.00  0.00    -0.206 F 
ATOM     62  C   UNL A   1      39.225  34.090  36.941  1.00  0.00     0.040 A 
ATOM     63  C   UNL A   1      37.834  32.202  37.501  1.00  0.00     0.040 A 
ATOM     64  F   UNL A   1      37.978  30.225  36.245  1.00  0.00    -0.206 F 
ATOM     65  C   UNL A   1      38.250  33.509  37.749  1.00  0.00     0.006 A 
ENDBRANCH  41  58
ENDBRANCH  15  16
ENDBRANCH   8  10
ENDBRANCH   7   8
ENDBRANCH   6   7
ENDBRANCH   5   6
ENDBRANCH   4   5
ENDBRANCH   3   4
ENDBRANCH   2   3
ENDBRANCH   1   2
BRANCH   1  66
ATOM     66  C   UNL A   1      38.912  22.053  26.038  1.00  0.00     0.188 C 
BRANCH  66  67
ATOM     67  C   UNL A   1      37.748  22.981  25.663  1.00  0.00     0.188 C 
BRANCH  67  68
ATOM     68  O   UNL A   1      37.069  22.635  24.466  1.00  0.00    -0.376 OA
BRANCH  68  69
ATOM     69  C   UNL A   1      35.658  22.495  24.608  1.00  0.00     0.202 C 
BRANCH  69  70
ATOM     70  C   UNL A   1      34.830  22.986  23.411  1.00  0.00     0.261 C 
BRANCH  70  71
ATOM     71  O   UNL A   1      34.662  24.413  23.297  1.00  0.00    -0.459 OA
BRANCH  71  72
ATOM     72  C   UNL A   1      34.076  25.103  24.307  1.00  0.00     0.366 C 
ATOM     73  O   UNL A   1      34.701  25.841  25.063  1.00  0.00    -0.245 OA
BRANCH  72  74
ATOM     74  C   UNL A   1      32.529  24.905  24.343  1.00  0.00     0.313 C 
ATOM     75  C   UNL A   1      31.762  26.251  24.239  1.00  0.00     0.199 C 
ATOM     76  N   UNL A   1      32.159  24.021  25.498  1.00  0.00    -0.332 N 
ATOM     77  N   UNL A   1      30.359  26.169  24.664  1.00  0.00    -0.312 N 
ATOM     78  C   UNL A   1      30.701  24.005  25.716  1.00  0.00     0.283 C 
ATOM     79  H   UNL A   1      32.617  24.367  26.341  1.00  0.00     0.347 HD
ATOM     80  H   UNL A   1      32.463  23.071  25.286  1.00  0.00     0.347 HD
ATOM     81  C   UNL A   1      30.050  25.401  25.851  1.00  0.00     0.183 C 
BRANCH  77  82
ATOM     82  C   UNL A   1      29.511  27.061  24.120  1.00  0.00     0.324 A 
ATOM     83  N   UNL A   1      29.772  28.314  23.878  1.00  0.00    -0.171 NA
ATOM     84  O   UNL A   1      28.241  26.702  23.749  1.00  0.00    -0.315 OA
ATOM     85  C   UNL A   1      28.633  28.761  23.275  1.00  0.00     0.204 A 
ATOM     86  N   UNL A   1      27.643  27.858  23.204  1.00  0.00    -0.055 NA
BRANCH  85  87
ATOM     87  C   UNL A   1      28.646  30.077  22.678  1.00  0.00     0.023 A 
ATOM     88  C   UNL A   1      28.306  30.286  21.341  1.00  0.00     0.012 A 
ATOM     89  C   UNL A   1      28.859  31.175  23.526  1.00  0.00     0.012 A 
ATOM     90  C   UNL A   1      28.156  31.593  20.867  1.00  0.00     0.001 A 
ATOM     91  C   UNL A   1      28.718  32.474  23.049  1.00  0.00     0.001 A 
ATOM     92  C   UNL A   1      28.358  32.682  21.721  1.00  0.00     0.000 A 
ENDBRANCH  85  87
ENDBRANCH  77  82
ENDBRANCH  72  74
ENDBRANCH  71  72
ENDBRANCH  70  71
ENDBRANCH  69  70
ENDBRANCH  68  69
ENDBRANCH  67  68
ENDBRANCH  66  67
ENDBRANCH   1  66
TORSDOF 22
ENDMDL
MODEL 2
REMARK VINA RESULT:     -10.4      2.529      6.906
REMARK SMILES O=C(OCCOCCOCCOCCOC(=O)[C@@H]1CN(c2nc(-c3ccccc3)no2)CC[NH2+]1)c1ccc(-c2c3nc(c(-c4c(F)cccc4F)c4ccc([nH]4)c(-c4c(F)cccc4F)c4nc(c(-c5c(F)cccc5F)c5ccc2[nH]5)C=C4)C=C3)cc1
REMARK SMILES IDX 9 1 8 2 7 3 6 4 5 5 4 6 3 7 2 8 1 9 35 10 36 11 88 12 37 13
REMARK SMILES IDX 87 14 38 15 39 16 40 17 81 18 41 19 86 20 80 21 82 22 42 23
REMARK SMILES IDX 85 24 79 25 78 26 43 28 69 29 52 30 68 31 53 32 56 33 67 34
REMARK SMILES IDX 83 35 54 36 55 37 66 39 84 40 57 41 44 42 45 43 50 44 46 45
REMARK SMILES IDX 47 46 49 47 51 48 48 49 70 50 71 51 76 52 72 53 73 54 75 55
REMARK SMILES IDX 77 56 74 57 58 58 59 59 64 60 60 61 61 62 63 63 65 64 62 65
REMARK SMILES IDX 10 66 11 67 12 68 13 69 14 70 15 71 16 72 17 73 18 74 19 75
REMARK SMILES IDX 34 76 20 77 33 78 32 81 21 82 22 83 31 84 23 85 30 86 24 87
REMARK SMILES IDX 25 88 29 89 26 90 28 91 27 92
REMARK H PARENT 82 27 56 38 34 79 34 80
REMARK Flexibility Score: inf
ROOT
ATOM      1  O   UNL A   1      39.685  21.270  26.220  1.00  0.00    -0.377 OA
ENDROOT
BRANCH   1   2
ATOM      2  C   UNL A   1      40.953  21.348  26.861  1.00  0.00     0.188 C 
BRANCH   2   3
ATOM      3  C   UNL A   1      42.029  20.521  26.176  1.00  0.00     0.188 C 
BRANCH   3   4
ATOM      4  O   UNL A   1      43.038  21.391  25.676  1.00  0.00    -0.376 OA
BRANCH   4   5
ATOM      5  C   UNL A   1      42.650  22.752  25.514  1.00  0.00     0.202 C 
BRANCH   5   6
ATOM      6  C   UNL A   1      43.472  23.739  26.343  1.00  0.00     0.261 C 
BRANCH   6   7
ATOM      7  O   UNL A   1      43.440  25.084  25.839  1.00  0.00    -0.460 OA
BRANCH   7   8
ATOM      8  C   UNL A   1      42.436  25.991  25.910  1.00  0.00     0.338 C 
ATOM      9  O   UNL A   1      41.739  26.169  24.911  1.00  0.00    -0.246 OA
BRANCH   8  10
ATOM     10  C   UNL A   1      42.127  26.820  27.117  1.00  0.00     0.060 A 
ATOM     11  C   UNL A   1      42.518  28.144  27.302  1.00  0.00     0.016 A 
ATOM     12  C   UNL A   1      41.270  26.260  28.081  1.00  0.00     0.016 A 
ATOM     13  C   UNL A   1      42.096  28.899  28.381  1.00  0.00     0.010 A 
ATOM     14  C   UNL A   1      40.833  27.011  29.179  1.00  0.00     0.010 A 
ATOM     15  C   UNL A   1      41.251  28.337  29.325  1.00  0.00    -0.014 A 
BRANCH  15  16
ATOM     16  C   UNL A   1      40.970  29.137  30.524  1.00  0.00     0.031 A 
ATOM     17  C   UNL A   1      39.793  30.056  30.479  1.00  0.00     0.074 A 
ATOM     18  C   UNL A   1      41.649  28.901  31.661  1.00  0.00     0.049 A 
ATOM     19  N   UNL A   1      39.390  30.928  31.360  1.00  0.00    -0.248 NA
ATOM     20  C   UNL A   1      38.936  29.967  29.281  1.00  0.00     0.031 C 
ATOM     21  C   UNL A   1      42.690  27.882  31.830  1.00  0.00     0.029 A 
ATOM     22  N   UNL A   1      41.549  29.481  32.896  1.00  0.00    -0.354 N 
ATOM     23  C   UNL A   1      38.268  31.524  30.803  1.00  0.00     0.074 A 
ATOM     24  C   UNL A   1      38.031  30.901  29.523  1.00  0.00     0.031 C 
ATOM     25  C   UNL A   1      43.132  27.912  33.098  1.00  0.00     0.029 A 
ATOM     26  C   UNL A   1      42.468  29.003  33.799  1.00  0.00     0.049 A 
ATOM     27  H   UNL A   1      40.884  30.171  33.116  1.00  0.00     0.167 HD
ATOM     28  C   UNL A   1      37.525  32.526  31.321  1.00  0.00     0.037 A 
ATOM     29  C   UNL A   1      42.772  29.456  35.030  1.00  0.00     0.037 A 
ATOM     30  C   UNL A   1      37.793  33.107  32.606  1.00  0.00     0.049 A 
ATOM     31  C   UNL A   1      42.009  30.652  35.533  1.00  0.00     0.074 A 
ATOM     32  C   UNL A   1      37.163  34.165  33.228  1.00  0.00     0.029 A 
ATOM     33  N   UNL A   1      38.790  32.662  33.465  1.00  0.00    -0.354 N 
ATOM     34  N   UNL A   1      40.998  31.281  34.976  1.00  0.00    -0.248 NA
ATOM     35  C   UNL A   1      42.442  31.226  36.812  1.00  0.00     0.031 C 
ATOM     36  C   UNL A   1      37.811  34.393  34.447  1.00  0.00     0.029 A 
ATOM     37  C   UNL A   1      38.816  33.446  34.602  1.00  0.00     0.049 A 
ATOM     38  H   UNL A   1      39.390  31.901  33.290  1.00  0.00     0.167 HD
ATOM     39  C   UNL A   1      40.674  32.321  35.835  1.00  0.00     0.074 A 
ATOM     40  C   UNL A   1      41.575  32.216  36.967  1.00  0.00     0.031 C 
ATOM     41  C   UNL A   1      39.733  33.287  35.703  1.00  0.00     0.037 A 
BRANCH  28  42
ATOM     42  C   UNL A   1      36.447  33.099  30.456  1.00  0.00     0.057 A 
ATOM     43  C   UNL A   1      35.089  32.838  30.672  1.00  0.00     0.134 A 
ATOM     44  C   UNL A   1      36.785  33.906  29.364  1.00  0.00     0.134 A 
ATOM     45  F   UNL A   1      34.700  32.041  31.678  1.00  0.00    -0.206 F 
ATOM     46  C   UNL A   1      34.105  33.354  29.824  1.00  0.00     0.040 A 
ATOM     47  C   UNL A   1      35.813  34.443  28.521  1.00  0.00     0.040 A 
ATOM     48  F   UNL A   1      38.071  34.177  29.091  1.00  0.00    -0.206 F 
ATOM     49  C   UNL A   1      34.467  34.164  28.748  1.00  0.00     0.006 A 
ENDBRANCH  28  42
BRANCH  29  50
ATOM     50  C   UNL A   1      43.900  28.872  35.806  1.00  0.00     0.057 A 
ATOM     51  C   UNL A   1      43.703  27.830  36.719  1.00  0.00     0.134 A 
ATOM     52  C   UNL A   1      45.201  29.383  35.693  1.00  0.00     0.134 A 
ATOM     53  F   UNL A   1      42.479  27.309  36.895  1.00  0.00    -0.206 F 
ATOM     54  C   UNL A   1      44.747  27.336  37.505  1.00  0.00     0.040 A 
ATOM     55  C   UNL A   1      46.260  28.878  36.449  1.00  0.00     0.040 A 
ATOM     56  F   UNL A   1      45.466  30.386  34.843  1.00  0.00    -0.206 F 
ATOM     57  C   UNL A   1      46.031  27.859  37.369  1.00  0.00     0.006 A 
ENDBRANCH  29  50
BRANCH  41  58
ATOM     58  C   UNL A   1      39.633  34.282  36.815  1.00  0.00     0.057 A 
ATOM     59  C   UNL A   1      38.793  34.068  37.913  1.00  0.00     0.134 A 
ATOM     60  C   UNL A   1      40.432  35.432  36.813  1.00  0.00     0.134 A 
ATOM     61  F   UNL A   1      37.995  32.991  37.960  1.00  0.00    -0.206 F 
ATOM     62  C   UNL A   1      38.741  34.975  38.971  1.00  0.00     0.040 A 
ATOM     63  C   UNL A   1      40.409  36.330  37.878  1.00  0.00     0.040 A 
ATOM     64  F   UNL A   1      41.264  35.682  35.791  1.00  0.00    -0.206 F 
ATOM     65  C   UNL A   1      39.558  36.104  38.958  1.00  0.00     0.006 A 
ENDBRANCH  41  58
ENDBRANCH  15  16
ENDBRANCH   8  10
ENDBRANCH   7   8
ENDBRANCH   6   7
ENDBRANCH   5   6
ENDBRANCH   4   5
ENDBRANCH   3   4
ENDBRANCH   2   3
ENDBRANCH   1   2
BRANCH   1  66
ATOM     66  C   UNL A   1      38.901  22.452  26.144  1.00  0.00     0.188 C 
BRANCH  66  67
ATOM     67  C   UNL A   1      37.614  22.455  25.306  1.00  0.00     0.188 C 
BRANCH  67  68
ATOM     68  O   UNL A   1      37.451  21.329  24.458  1.00  0.00    -0.376 OA
BRANCH  68  69
ATOM     69  C   UNL A   1      36.572  20.330  24.967  1.00  0.00     0.202 C 
BRANCH  69  70
ATOM     70  C   UNL A   1      35.206  20.845  25.445  1.00  0.00     0.261 C 
BRANCH  70  71
ATOM     71  O   UNL A   1      34.081  19.976  25.208  1.00  0.00    -0.459 OA
BRANCH  71  72
ATOM     72  C   UNL A   1      32.897  20.503  24.808  1.00  0.00     0.366 C 
ATOM     73  O   UNL A   1      31.833  19.894  24.884  1.00  0.00    -0.245 OA
BRANCH  72  74
ATOM     74  C   UNL A   1      33.039  21.978  24.317  1.00  0.00     0.313 C 
ATOM     75  C   UNL A   1      32.342  22.984  25.271  1.00  0.00     0.199 C 
ATOM     76  N   UNL A   1      32.657  22.067  22.868  1.00  0.00    -0.332 N 
ATOM     77  N   UNL A   1      32.098  24.301  24.669  1.00  0.00    -0.312 N 
ATOM     78  C   UNL A   1      32.542  23.470  22.429  1.00  0.00     0.283 C 
ATOM     79  H   UNL A   1      31.760  21.601  22.732  1.00  0.00     0.347 HD
ATOM     80  H   UNL A   1      33.386  21.615  22.315  1.00  0.00     0.347 HD
ATOM     81  C   UNL A   1      31.619  24.348  23.304  1.00  0.00     0.183 C 
BRANCH  77  82
ATOM     82  C   UNL A   1      32.027  25.346  25.513  1.00  0.00     0.324 A 
ATOM     83  N   UNL A   1      32.840  26.364  25.538  1.00  0.00    -0.171 NA
ATOM     84  O   UNL A   1      31.037  25.435  26.457  1.00  0.00    -0.315 OA
ATOM     85  C   UNL A   1      32.312  27.164  26.508  1.00  0.00     0.204 A 
ATOM     86  N   UNL A   1      31.249  26.650  27.144  1.00  0.00    -0.055 NA
BRANCH  85  87
ATOM     87  C   UNL A   1      32.850  28.496  26.664  1.00  0.00     0.023 A 
ATOM     88  C   UNL A   1      32.050  29.634  26.561  1.00  0.00     0.012 A 
ATOM     89  C   UNL A   1      34.185  28.614  27.085  1.00  0.00     0.012 A 
ATOM     90  C   UNL A   1      32.583  30.881  26.904  1.00  0.00     0.001 A 
ATOM     91  C   UNL A   1      34.714  29.857  27.416  1.00  0.00     0.001 A 
ATOM     92  C   UNL A   1      33.909  30.990  27.333  1.00  0.00     0.000 A 
ENDBRANCH  85  87
ENDBRANCH  77  82
ENDBRANCH  72  74
ENDBRANCH  71  72
ENDBRANCH  70  71
ENDBRANCH  69  70
ENDBRANCH  68  69
ENDBRANCH  67  68
ENDBRANCH  66  67
ENDBRANCH   1  66
TORSDOF 22
ENDMDL
MODEL 3
REMARK VINA RESULT:      -9.8      2.265      7.075
REMARK SMILES O=C(OCCOCCOCCOCCOC(=O)[C@@H]1CN(c2nc(-c3ccccc3)no2)CC[NH2+]1)c1ccc(-c2c3nc(c(-c4c(F)cccc4F)c4ccc([nH]4)c(-c4c(F)cccc4F)c4nc(c(-c5c(F)cccc5F)c5ccc2[nH]5)C=C4)C=C3)cc1
REMARK SMILES IDX 9 1 8 2 7 3 6 4 5 5 4 6 3 7 2 8 1 9 35 10 36 11 88 12 37 13
REMARK SMILES IDX 87 14 38 15 39 16 40 17 81 18 41 19 86 20 80 21 82 22 42 23
REMARK SMILES IDX 85 24 79 25 78 26 43 28 69 29 52 30 68 31 53 32 56 33 67 34
REMARK SMILES IDX 83 35 54 36 55 37 66 39 84 40 57 41 44 42 45 43 50 44 46 45
REMARK SMILES IDX 47 46 49 47 51 48 48 49 70 50 71 51 76 52 72 53 73 54 75 55
REMARK SMILES IDX 77 56 74 57 58 58 59 59 64 60 60 61 61 62 63 63 65 64 62 65
REMARK SMILES IDX 10 66 11 67 12 68 13 69 14 70 15 71 16 72 17 73 18 74 19 75
REMARK SMILES IDX 34 76 20 77 33 78 32 81 21 82 22 83 31 84 23 85 30 86 24 87
REMARK SMILES IDX 25 88 29 89 26 90 28 91 27 92
REMARK H PARENT 82 27 56 38 34 79 34 80
REMARK Flexibility Score: inf
ROOT
ATOM      1  O   UNL A   1      44.483  19.715  25.060  1.00  0.00    -0.377 OA
ENDROOT
BRANCH   1   2
ATOM      2  C   UNL A   1      45.631  19.854  24.231  1.00  0.00     0.188 C 
BRANCH   2   3
ATOM      3  C   UNL A   1      46.530  21.012  24.632  1.00  0.00     0.188 C 
BRANCH   3   4
ATOM      4  O   UNL A   1      45.919  21.731  25.697  1.00  0.00    -0.376 OA
BRANCH   4   5
ATOM      5  C   UNL A   1      45.733  23.124  25.470  1.00  0.00     0.202 C 
BRANCH   5   6
ATOM      6  C   UNL A   1      44.550  23.729  26.227  1.00  0.00     0.261 C 
BRANCH   6   7
ATOM      7  O   UNL A   1      44.152  25.021  25.741  1.00  0.00    -0.460 OA
BRANCH   7   8
ATOM      8  C   UNL A   1      42.967  25.658  25.904  1.00  0.00     0.338 C 
ATOM      9  O   UNL A   1      42.133  25.578  25.003  1.00  0.00    -0.246 OA
BRANCH   8  10
ATOM     10  C   UNL A   1      42.607  26.482  27.101  1.00  0.00     0.060 A 
ATOM     11  C   UNL A   1      43.070  27.771  27.355  1.00  0.00     0.016 A 
ATOM     12  C   UNL A   1      41.629  25.965  27.968  1.00  0.00     0.016 A 
ATOM     13  C   UNL A   1      42.604  28.532  28.412  1.00  0.00     0.010 A 
ATOM     14  C   UNL A   1      41.145  26.723  29.042  1.00  0.00     0.010 A 
ATOM     15  C   UNL A   1      41.639  28.013  29.260  1.00  0.00    -0.014 A 
BRANCH  15  16
ATOM     16  C   UNL A   1      41.305  28.806  30.451  1.00  0.00     0.031 A 
ATOM     17  C   UNL A   1      40.123  29.716  30.363  1.00  0.00     0.074 A 
ATOM     18  C   UNL A   1      41.941  28.571  31.612  1.00  0.00     0.049 A 
ATOM     19  N   UNL A   1      39.679  30.581  31.230  1.00  0.00    -0.248 NA
ATOM     20  C   UNL A   1      39.315  29.624  29.132  1.00  0.00     0.031 C 
ATOM     21  C   UNL A   1      42.983  27.559  31.818  1.00  0.00     0.029 A 
ATOM     22  N   UNL A   1      41.789  29.145  32.845  1.00  0.00    -0.354 N 
ATOM     23  C   UNL A   1      38.575  31.171  30.632  1.00  0.00     0.074 A 
ATOM     24  C   UNL A   1      38.394  30.550  29.341  1.00  0.00     0.031 C 
ATOM     25  C   UNL A   1      43.375  27.588  33.102  1.00  0.00     0.029 A 
ATOM     26  C   UNL A   1      42.676  28.671  33.781  1.00  0.00     0.049 A 
ATOM     27  H   UNL A   1      41.110  29.829  33.041  1.00  0.00     0.167 HD
ATOM     28  C   UNL A   1      37.805  32.165  31.124  1.00  0.00     0.037 A 
ATOM     29  C   UNL A   1      42.928  29.122  35.024  1.00  0.00     0.037 A 
ATOM     30  C   UNL A   1      38.019  32.743  32.420  1.00  0.00     0.049 A 
ATOM     31  C   UNL A   1      42.136  30.311  35.501  1.00  0.00     0.074 A 
ATOM     32  C   UNL A   1      37.356  33.794  33.021  1.00  0.00     0.029 A 
ATOM     33  N   UNL A   1      38.985  32.303  33.316  1.00  0.00    -0.354 N 
ATOM     34  N   UNL A   1      41.143  30.934  34.907  1.00  0.00    -0.248 NA
ATOM     35  C   UNL A   1      42.515  30.883  36.798  1.00  0.00     0.031 C 
ATOM     36  C   UNL A   1      37.954  34.022  34.265  1.00  0.00     0.029 A 
ATOM     37  C   UNL A   1      38.960  33.083  34.455  1.00  0.00     0.049 A 
ATOM     38  H   UNL A   1      39.596  31.547  33.162  1.00  0.00     0.167 HD
ATOM     39  C   UNL A   1      40.778  31.967  35.756  1.00  0.00     0.074 A 
ATOM     40  C   UNL A   1      41.635  31.866  36.922  1.00  0.00     0.031 C 
ATOM     41  C   UNL A   1      39.834  32.927  35.591  1.00  0.00     0.037 A 
BRANCH  28  42
ATOM     42  C   UNL A   1      36.757  32.732  30.220  1.00  0.00     0.057 A 
ATOM     43  C   UNL A   1      37.053  33.648  29.204  1.00  0.00     0.134 A 
ATOM     44  C   UNL A   1      35.415  32.370  30.394  1.00  0.00     0.134 A 
ATOM     45  F   UNL A   1      38.313  34.066  29.011  1.00  0.00    -0.206 F 
ATOM     46  C   UNL A   1      36.049  34.193  28.399  1.00  0.00     0.040 A 
ATOM     47  C   UNL A   1      34.406  32.891  29.585  1.00  0.00     0.040 A 
ATOM     48  F   UNL A   1      35.063  31.511  31.362  1.00  0.00    -0.206 F 
ATOM     49  C   UNL A   1      34.721  33.809  28.586  1.00  0.00     0.006 A 
ENDBRANCH  28  42
BRANCH  29  50
ATOM     50  C   UNL A   1      44.029  28.544  35.842  1.00  0.00     0.057 A 
ATOM     51  C   UNL A   1      43.794  27.541  36.788  1.00  0.00     0.134 A 
ATOM     52  C   UNL A   1      45.343  29.024  35.734  1.00  0.00     0.134 A 
ATOM     53  F   UNL A   1      42.556  27.052  36.961  1.00  0.00    -0.206 F 
ATOM     54  C   UNL A   1      44.813  27.055  37.611  1.00  0.00     0.040 A 
ATOM     55  C   UNL A   1      46.377  28.525  36.528  1.00  0.00     0.040 A 
ATOM     56  F   UNL A   1      45.644  29.989  34.853  1.00  0.00    -0.206 F 
ATOM     57  C   UNL A   1      46.111  27.546  37.480  1.00  0.00     0.006 A 
ENDBRANCH  29  50
BRANCH  41  58
ATOM     58  C   UNL A   1      39.683  33.917  36.702  1.00  0.00     0.057 A 
ATOM     59  C   UNL A   1      40.290  35.177  36.645  1.00  0.00     0.134 A 
ATOM     60  C   UNL A   1      38.873  33.627  37.807  1.00  0.00     0.134 A 
ATOM     61  F   UNL A   1      41.088  35.502  35.617  1.00  0.00    -0.206 F 
ATOM     62  C   UNL A   1      40.105  36.114  37.660  1.00  0.00     0.040 A 
ATOM     63  C   UNL A   1      38.660  34.566  38.813  1.00  0.00     0.040 A 
ATOM     64  F   UNL A   1      38.259  32.439  37.908  1.00  0.00    -0.206 F 
ATOM     65  C   UNL A   1      39.281  35.812  38.742  1.00  0.00     0.006 A 
ENDBRANCH  41  58
ENDBRANCH  15  16
ENDBRANCH   8  10
ENDBRANCH   7   8
ENDBRANCH   6   7
ENDBRANCH   5   6
ENDBRANCH   4   5
ENDBRANCH   3   4
ENDBRANCH   2   3
ENDBRANCH   1   2
BRANCH   1  66
ATOM     66  C   UNL A   1      44.287  18.475  25.727  1.00  0.00     0.188 C 
BRANCH  66  67
ATOM     67  C   UNL A   1      42.983  18.230  26.500  1.00  0.00     0.188 C 
BRANCH  67  68
ATOM     68  O   UNL A   1      41.818  18.768  25.894  1.00  0.00    -0.376 OA
BRANCH  68  69
ATOM     69  C   UNL A   1      41.321  19.949  26.516  1.00  0.00     0.202 C 
BRANCH  69  70
ATOM     70  C   UNL A   1      39.858  20.288  26.196  1.00  0.00     0.261 C 
BRANCH  70  71
ATOM     71  O   UNL A   1      39.628  21.543  25.525  1.00  0.00    -0.459 OA
BRANCH  71  72
ATOM     72  C   UNL A   1      38.523  22.272  25.823  1.00  0.00     0.366 C 
ATOM     73  O   UNL A   1      38.534  23.209  26.617  1.00  0.00    -0.245 OA
BRANCH  72  74
ATOM     74  C   UNL A   1      37.278  21.829  24.994  1.00  0.00     0.313 C 
ATOM     75  C   UNL A   1      36.251  22.980  24.817  1.00  0.00     0.199 C 
ATOM     76  N   UNL A   1      36.737  20.540  25.544  1.00  0.00    -0.332 N 
ATOM     77  N   UNL A   1      34.916  22.527  24.409  1.00  0.00    -0.312 N 
ATOM     78  C   UNL A   1      35.427  20.213  24.952  1.00  0.00     0.283 C 
ATOM     79  H   UNL A   1      36.633  20.628  26.554  1.00  0.00     0.347 HD
ATOM     80  H   UNL A   1      37.391  19.793  25.311  1.00  0.00     0.347 HD
ATOM     81  C   UNL A   1      34.375  21.343  25.043  1.00  0.00     0.183 C 
BRANCH  77  82
ATOM     82  C   UNL A   1      34.163  23.406  23.724  1.00  0.00     0.324 A 
ATOM     83  N   UNL A   1      33.261  24.198  24.231  1.00  0.00    -0.171 NA
ATOM     84  O   UNL A   1      34.297  23.554  22.368  1.00  0.00    -0.315 OA
ATOM     85  C   UNL A   1      32.839  24.922  23.154  1.00  0.00     0.204 A 
ATOM     86  N   UNL A   1      33.383  24.559  21.984  1.00  0.00    -0.055 NA
BRANCH  85  87
ATOM     87  C   UNL A   1      31.974  26.055  23.390  1.00  0.00     0.023 A 
ATOM     88  C   UNL A   1      31.854  26.647  24.648  1.00  0.00     0.012 A 
ATOM     89  C   UNL A   1      31.367  26.655  22.274  1.00  0.00     0.012 A 
ATOM     90  C   UNL A   1      31.151  27.849  24.778  1.00  0.00     0.001 A 
ATOM     91  C   UNL A   1      30.660  27.845  22.409  1.00  0.00     0.001 A 
ATOM     92  C   UNL A   1      30.560  28.446  23.660  1.00  0.00     0.000 A 
ENDBRANCH  85  87
ENDBRANCH  77  82
ENDBRANCH  72  74
ENDBRANCH  71  72
ENDBRANCH  70  71
ENDBRANCH  69  70
ENDBRANCH  68  69
ENDBRANCH  67  68
ENDBRANCH  66  67
ENDBRANCH   1  66
TORSDOF 22
ENDMDL
