MODEL 1
REMARK VINA RESULT:      -9.9      0.000      0.000
REMARK SMILES CC[C@H](C(=O)OCCOCCOCCOCCOC(=O)c1ccc(-c2c3nc(c(-c4c(F)cccc4F)c4ccc([nH]4)c(-c4c(F)cccc4F)c4nc(c(-c5c(F)cccc5F)c5ccc2[nH]5)C=C4)C=C3)cc1)C1=CCCc2c(C)ccc(C)c21
REMARK SMILES IDX 13 1 12 2 11 3 10 4 9 5 8 6 7 7 6 8 4 9 5 10 3 11 2 12 1 13
REMARK SMILES IDX 75 14 76 15 86 16 77 17 79 18 84 19 78 20 80 21 83 22 85 23
REMARK SMILES IDX 81 24 82 25 14 26 15 27 16 28 17 29 18 30 19 31 20 32 21 33
REMARK SMILES IDX 22 34 74 35 23 36 73 37 24 38 25 39 26 40 67 41 27 42 72 43
REMARK SMILES IDX 66 44 68 45 28 46 71 47 65 48 64 49 29 51 55 52 38 53 54 54
REMARK SMILES IDX 39 55 42 56 53 57 69 58 40 59 41 60 52 62 70 63 43 64 30 65
REMARK SMILES IDX 31 66 36 67 32 68 33 69 35 70 37 71 34 72 56 73 57 74 62 75
REMARK SMILES IDX 58 76 59 77 61 78 63 79 60 80 44 81 45 82 50 83 46 84 47 85
REMARK SMILES IDX 49 86 51 87 48 88
REMARK H PARENT 68 50 42 61
REMARK Flexibility Score: inf
ROOT
ATOM      1  C   UNL A   1      44.846  20.067  25.357  1.00  0.00     0.188 C 
ENDROOT
BRANCH   1   2
ATOM      2  O   UNL A   1      43.542  20.400  25.825  1.00  0.00    -0.377 OA
BRANCH   2   3
ATOM      3  C   UNL A   1      42.489  19.462  25.630  1.00  0.00     0.188 C 
BRANCH   3   4
ATOM      4  C   UNL A   1      41.165  19.616  26.399  1.00  0.00     0.188 C 
BRANCH   4   5
ATOM      5  O   UNL A   1      40.230  20.467  25.770  1.00  0.00    -0.376 OA
BRANCH   5   6
ATOM      6  C   UNL A   1      39.955  21.741  26.311  1.00  0.00     0.202 C 
BRANCH   6   7
ATOM      7  C   UNL A   1      38.582  22.266  25.902  1.00  0.00     0.261 C 
BRANCH   7   8
ATOM      8  O   UNL A   1      37.804  21.478  24.975  1.00  0.00    -0.463 OA
BRANCH   8   9
ATOM      9  C   UNL A   1      36.842  22.011  24.176  1.00  0.00     0.313 C 
ATOM     10  O   UNL A   1      37.064  22.663  23.163  1.00  0.00    -0.252 OA
BRANCH   9  11
ATOM     11  C   UNL A   1      35.425  21.693  24.686  1.00  0.00     0.129 C 
BRANCH  11  12
ATOM     12  C   UNL A   1      35.166  20.168  24.932  1.00  0.00     0.017 C 
ATOM     13  C   UNL A   1      33.803  19.563  24.591  1.00  0.00     0.005 C 
ENDBRANCH  11  12
BRANCH  11  14
ATOM     14  C   UNL A   1      34.929  22.648  25.806  1.00  0.00    -0.030 C 
ATOM     15  C   UNL A   1      35.543  23.829  25.997  1.00  0.00    -0.022 C 
ATOM     16  C   UNL A   1      33.449  22.843  25.886  1.00  0.00    -0.015 A 
ATOM     17  C   UNL A   1      35.097  24.942  25.052  1.00  0.00     0.032 C 
ATOM     18  C   UNL A   1      32.907  23.573  24.825  1.00  0.00    -0.037 A 
ATOM     19  C   UNL A   1      32.600  22.586  26.961  1.00  0.00    -0.043 A 
ATOM     20  C   UNL A   1      33.767  24.692  24.266  1.00  0.00     0.040 C 
ATOM     21  C   UNL A   1      31.567  23.394  24.480  1.00  0.00    -0.047 A 
ATOM     22  C   UNL A   1      31.210  22.694  26.757  1.00  0.00     0.004 A 
ATOM     23  C   UNL A   1      33.110  22.445  28.364  1.00  0.00     0.045 C 
ATOM     24  C   UNL A   1      31.079  23.544  23.071  1.00  0.00     0.044 C 
ATOM     25  C   UNL A   1      30.700  22.981  25.488  1.00  0.00     0.004 A 
ENDBRANCH  11  14
ENDBRANCH   9  11
ENDBRANCH   8   9
ENDBRANCH   7   8
ENDBRANCH   6   7
ENDBRANCH   5   6
ENDBRANCH   4   5
ENDBRANCH   3   4
ENDBRANCH   2   3
ENDBRANCH   1   2
BRANCH   1  26
ATOM     26  C   UNL A   1      45.527  20.969  24.293  1.00  0.00     0.188 C 
BRANCH  26  27
ATOM     27  O   UNL A   1      46.471  21.893  24.815  1.00  0.00    -0.376 OA
BRANCH  27  28
ATOM     28  C   UNL A   1      46.016  22.807  25.801  1.00  0.00     0.202 C 
BRANCH  28  29
ATOM     29  C   UNL A   1      45.880  24.290  25.415  1.00  0.00     0.261 C 
BRANCH  29  30
ATOM     30  O   UNL A   1      44.705  24.653  24.675  1.00  0.00    -0.460 OA
BRANCH  30  31
ATOM     31  C   UNL A   1      43.513  24.277  25.179  1.00  0.00     0.338 C 
ATOM     32  O   UNL A   1      42.833  23.324  24.835  1.00  0.00    -0.246 OA
BRANCH  31  33
ATOM     33  C   UNL A   1      43.260  25.102  26.380  1.00  0.00     0.060 A 
ATOM     34  C   UNL A   1      42.460  24.580  27.407  1.00  0.00     0.016 A 
ATOM     35  C   UNL A   1      43.832  26.370  26.503  1.00  0.00     0.016 A 
ATOM     36  C   UNL A   1      42.205  25.340  28.549  1.00  0.00     0.010 A 
ATOM     37  C   UNL A   1      43.549  27.143  27.631  1.00  0.00     0.010 A 
ATOM     38  C   UNL A   1      42.707  26.644  28.640  1.00  0.00    -0.014 A 
BRANCH  38  39
ATOM     39  C   UNL A   1      42.161  27.564  29.665  1.00  0.00     0.031 A 
ATOM     40  C   UNL A   1      42.834  27.595  31.009  1.00  0.00     0.074 A 
ATOM     41  C   UNL A   1      41.112  28.366  29.411  1.00  0.00     0.049 A 
ATOM     42  N   UNL A   1      42.518  28.266  32.085  1.00  0.00    -0.248 NA
ATOM     43  C   UNL A   1      44.030  26.748  31.156  1.00  0.00     0.031 C 
ATOM     44  C   UNL A   1      40.407  28.462  28.135  1.00  0.00     0.029 A 
ATOM     45  N   UNL A   1      40.454  29.248  30.231  1.00  0.00    -0.354 N 
ATOM     46  C   UNL A   1      43.468  27.918  33.036  1.00  0.00     0.074 A 
ATOM     47  C   UNL A   1      44.354  26.953  32.422  1.00  0.00     0.031 C 
ATOM     48  C   UNL A   1      39.402  29.346  28.262  1.00  0.00     0.029 A 
ATOM     49  C   UNL A   1      39.373  29.850  29.635  1.00  0.00     0.049 A 
ATOM     50  H   UNL A   1      40.729  29.433  31.157  1.00  0.00     0.167 HD
ATOM     51  C   UNL A   1      43.597  28.367  34.306  1.00  0.00     0.037 A 
ATOM     52  C   UNL A   1      38.454  30.689  30.151  1.00  0.00     0.037 A 
ATOM     53  C   UNL A   1      42.709  29.320  34.917  1.00  0.00     0.049 A 
ATOM     54  C   UNL A   1      38.566  31.108  31.595  1.00  0.00     0.074 A 
ATOM     55  C   UNL A   1      42.756  29.846  36.194  1.00  0.00     0.029 A 
ATOM     56  N   UNL A   1      41.603  29.878  34.293  1.00  0.00    -0.354 N 
ATOM     57  N   UNL A   1      39.478  30.791  32.483  1.00  0.00    -0.248 NA
ATOM     58  C   UNL A   1      37.518  32.003  32.109  1.00  0.00     0.031 C 
ATOM     59  C   UNL A   1      41.646  30.681  36.363  1.00  0.00     0.029 A 
ATOM     60  C   UNL A   1      40.944  30.723  35.168  1.00  0.00     0.049 A 
ATOM     61  H   UNL A   1      41.328  29.700  33.363  1.00  0.00     0.167 HD
ATOM     62  C   UNL A   1      39.135  31.473  33.646  1.00  0.00     0.074 A 
ATOM     63  C   UNL A   1      37.936  32.229  33.347  1.00  0.00     0.031 C 
ATOM     64  C   UNL A   1      39.757  31.477  34.852  1.00  0.00     0.037 A 
BRANCH  51  65
ATOM     65  C   UNL A   1      44.720  27.802  35.126  1.00  0.00     0.057 A 
ATOM     66  C   UNL A   1      45.993  28.389  35.148  1.00  0.00     0.134 A 
ATOM     67  C   UNL A   1      44.521  26.664  35.917  1.00  0.00     0.134 A 
ATOM     68  F   UNL A   1      46.256  29.471  34.399  1.00  0.00    -0.206 F 
ATOM     69  C   UNL A   1      47.032  27.849  35.906  1.00  0.00     0.040 A 
ATOM     70  C   UNL A   1      45.544  26.131  36.702  1.00  0.00     0.040 A 
ATOM     71  F   UNL A   1      43.327  26.052  35.943  1.00  0.00    -0.206 F 
ATOM     72  C   UNL A   1      46.806  26.720  36.693  1.00  0.00     0.006 A 
ENDBRANCH  51  65
BRANCH  52  73
ATOM     73  C   UNL A   1      37.333  31.181  29.308  1.00  0.00     0.057 A 
ATOM     74  C   UNL A   1      37.310  32.496  28.826  1.00  0.00     0.134 A 
ATOM     75  C   UNL A   1      36.245  30.361  28.991  1.00  0.00     0.134 A 
ATOM     76  F   UNL A   1      38.311  33.340  29.119  1.00  0.00    -0.206 F 
ATOM     77  C   UNL A   1      36.238  32.981  28.077  1.00  0.00     0.040 A 
ATOM     78  C   UNL A   1      35.178  30.825  28.218  1.00  0.00     0.040 A 
ATOM     79  F   UNL A   1      36.203  29.092  29.423  1.00  0.00    -0.206 F 
ATOM     80  C   UNL A   1      35.169  32.143  27.765  1.00  0.00     0.006 A 
ENDBRANCH  52  73
BRANCH  64  81
ATOM     81  C   UNL A   1      39.183  32.357  35.924  1.00  0.00     0.057 A 
ATOM     82  C   UNL A   1      38.270  31.879  36.873  1.00  0.00     0.134 A 
ATOM     83  C   UNL A   1      39.588  33.695  36.037  1.00  0.00     0.134 A 
ATOM     84  F   UNL A   1      37.833  30.611  36.817  1.00  0.00    -0.206 F 
ATOM     85  C   UNL A   1      37.761  32.705  37.878  1.00  0.00     0.040 A 
ATOM     86  C   UNL A   1      39.110  34.521  37.055  1.00  0.00     0.040 A 
ATOM     87  F   UNL A   1      40.470  34.215  35.169  1.00  0.00    -0.206 F 
ATOM     88  C   UNL A   1      38.188  34.028  37.975  1.00  0.00     0.006 A 
ENDBRANCH  64  81
ENDBRANCH  38  39
ENDBRANCH  31  33
ENDBRANCH  30  31
ENDBRANCH  29  30
ENDBRANCH  28  29
ENDBRANCH  27  28
ENDBRANCH  26  27
ENDBRANCH   1  26
TORSDOF 22
ENDMDL
MODEL 2
REMARK VINA RESULT:      -9.1      5.232     10.519
REMARK SMILES CC[C@H](C(=O)OCCOCCOCCOCCOC(=O)c1ccc(-c2c3nc(c(-c4c(F)cccc4F)c4ccc([nH]4)c(-c4c(F)cccc4F)c4nc(c(-c5c(F)cccc5F)c5ccc2[nH]5)C=C4)C=C3)cc1)C1=CCCc2c(C)ccc(C)c21
REMARK SMILES IDX 13 1 12 2 11 3 10 4 9 5 8 6 7 7 6 8 4 9 5 10 3 11 2 12 1 13
REMARK SMILES IDX 75 14 76 15 86 16 77 17 79 18 84 19 78 20 80 21 83 22 85 23
REMARK SMILES IDX 81 24 82 25 14 26 15 27 16 28 17 29 18 30 19 31 20 32 21 33
REMARK SMILES IDX 22 34 74 35 23 36 73 37 24 38 25 39 26 40 67 41 27 42 72 43
REMARK SMILES IDX 66 44 68 45 28 46 71 47 65 48 64 49 29 51 55 52 38 53 54 54
REMARK SMILES IDX 39 55 42 56 53 57 69 58 40 59 41 60 52 62 70 63 43 64 30 65
REMARK SMILES IDX 31 66 36 67 32 68 33 69 35 70 37 71 34 72 56 73 57 74 62 75
REMARK SMILES IDX 58 76 59 77 61 78 63 79 60 80 44 81 45 82 50 83 46 84 47 85
REMARK SMILES IDX 49 86 51 87 48 88
REMARK H PARENT 68 50 42 61
REMARK Flexibility Score: inf
ROOT
ATOM      1  C   UNL A   1      34.288  34.393  29.182  1.00  0.00     0.188 C 
ENDROOT
BRANCH   1   2
ATOM      2  O   UNL A   1      35.346  33.444  29.074  1.00  0.00    -0.377 OA
BRANCH   2   3
ATOM      3  C   UNL A   1      35.015  32.061  29.001  1.00  0.00     0.188 C 
BRANCH   3   4
ATOM      4  C   UNL A   1      35.060  31.326  27.651  1.00  0.00     0.188 C 
BRANCH   4   5
ATOM      5  O   UNL A   1      33.967  30.459  27.431  1.00  0.00    -0.376 OA
BRANCH   5   6
ATOM      6  C   UNL A   1      34.181  29.169  26.899  1.00  0.00     0.202 C 
BRANCH   6   7
ATOM      7  C   UNL A   1      33.211  28.833  25.772  1.00  0.00     0.261 C 
BRANCH   7   8
ATOM      8  O   UNL A   1      33.227  27.490  25.240  1.00  0.00    -0.463 OA
BRANCH   8   9
ATOM      9  C   UNL A   1      32.145  26.668  25.272  1.00  0.00     0.313 C 
ATOM     10  O   UNL A   1      31.296  26.672  26.155  1.00  0.00    -0.252 OA
BRANCH   9  11
ATOM     11  C   UNL A   1      32.098  25.726  24.056  1.00  0.00     0.129 C 
BRANCH  11  12
ATOM     12  C   UNL A   1      33.370  25.799  23.146  1.00  0.00     0.017 C 
ATOM     13  C   UNL A   1      33.320  26.577  21.829  1.00  0.00     0.005 C 
ENDBRANCH  11  12
BRANCH  11  14
ATOM     14  C   UNL A   1      31.590  24.295  24.387  1.00  0.00    -0.030 C 
ATOM     15  C   UNL A   1      31.345  23.427  23.391  1.00  0.00    -0.022 C 
ATOM     16  C   UNL A   1      32.311  23.589  25.490  1.00  0.00    -0.015 A 
ATOM     17  C   UNL A   1      32.578  22.707  22.851  1.00  0.00     0.032 C 
ATOM     18  C   UNL A   1      33.617  23.208  25.172  1.00  0.00    -0.037 A 
ATOM     19  C   UNL A   1      31.790  23.086  26.681  1.00  0.00    -0.043 A 
ATOM     20  C   UNL A   1      33.865  22.778  23.738  1.00  0.00     0.040 C 
ATOM     21  C   UNL A   1      34.553  23.038  26.194  1.00  0.00    -0.047 A 
ATOM     22  C   UNL A   1      32.687  22.599  27.651  1.00  0.00     0.004 A 
ATOM     23  C   UNL A   1      30.325  22.819  26.859  1.00  0.00     0.045 C 
ATOM     24  C   UNL A   1      36.014  23.308  25.990  1.00  0.00     0.044 C 
ATOM     25  C   UNL A   1      34.067  22.688  27.450  1.00  0.00     0.004 A 
ENDBRANCH  11  14
ENDBRANCH   9  11
ENDBRANCH   8   9
ENDBRANCH   7   8
ENDBRANCH   6   7
ENDBRANCH   5   6
ENDBRANCH   4   5
ENDBRANCH   3   4
ENDBRANCH   2   3
ENDBRANCH   1   2
BRANCH   1  26
ATOM     26  C   UNL A   1      33.847  34.887  30.586  1.00  0.00     0.188 C 
BRANCH  26  27
ATOM     27  O   UNL A   1      34.753  34.577  31.635  1.00  0.00    -0.376 OA
BRANCH  27  28
ATOM     28  C   UNL A   1      34.386  33.540  32.532  1.00  0.00     0.202 C 
BRANCH  28  29
ATOM     29  C   UNL A   1      35.199  32.234  32.510  1.00  0.00     0.261 C 
BRANCH  29  30
ATOM     30  O   UNL A   1      36.317  32.162  33.407  1.00  0.00    -0.460 OA
BRANCH  30  31
ATOM     31  C   UNL A   1      37.349  32.999  33.182  1.00  0.00     0.338 C 
ATOM     32  O   UNL A   1      37.561  34.071  33.725  1.00  0.00    -0.246 OA
BRANCH  31  33
ATOM     33  C   UNL A   1      38.308  32.296  32.305  1.00  0.00     0.060 A 
ATOM     34  C   UNL A   1      39.269  31.455  32.885  1.00  0.00     0.016 A 
ATOM     35  C   UNL A   1      38.240  32.443  30.917  1.00  0.00     0.016 A 
ATOM     36  C   UNL A   1      40.187  30.781  32.078  1.00  0.00     0.010 A 
ATOM     37  C   UNL A   1      39.180  31.795  30.112  1.00  0.00     0.010 A 
ATOM     38  C   UNL A   1      40.177  30.991  30.693  1.00  0.00    -0.014 A 
BRANCH  38  39
ATOM     39  C   UNL A   1      41.343  30.567  29.884  1.00  0.00     0.031 A 
ATOM     40  C   UNL A   1      41.341  29.168  29.331  1.00  0.00     0.074 A 
ATOM     41  C   UNL A   1      42.368  31.398  29.627  1.00  0.00     0.049 A 
ATOM     42  N   UNL A   1      42.260  28.541  28.646  1.00  0.00    -0.248 NA
ATOM     43  C   UNL A   1      40.132  28.368  29.592  1.00  0.00     0.031 C 
ATOM     44  C   UNL A   1      42.462  32.788  30.065  1.00  0.00     0.029 A 
ATOM     45  N   UNL A   1      43.533  31.179  28.935  1.00  0.00    -0.354 N 
ATOM     46  C   UNL A   1      41.745  27.274  28.400  1.00  0.00     0.074 A 
ATOM     47  C   UNL A   1      40.448  27.210  29.035  1.00  0.00     0.031 C 
ATOM     48  C   UNL A   1      43.633  33.296  29.643  1.00  0.00     0.029 A 
ATOM     49  C   UNL A   1      44.383  32.258  28.936  1.00  0.00     0.049 A 
ATOM     50  H   UNL A   1      43.741  30.330  28.482  1.00  0.00     0.167 HD
ATOM     51  C   UNL A   1      42.300  26.257  27.700  1.00  0.00     0.037 A 
ATOM     52  C   UNL A   1      45.632  32.377  28.445  1.00  0.00     0.037 A 
ATOM     53  C   UNL A   1      43.595  26.322  27.077  1.00  0.00     0.049 A 
ATOM     54  C   UNL A   1      46.266  31.201  27.747  1.00  0.00     0.074 A 
ATOM     55  C   UNL A   1      44.246  25.351  26.339  1.00  0.00     0.029 A 
ATOM     56  N   UNL A   1      44.442  27.419  27.133  1.00  0.00    -0.354 N 
ATOM     57  N   UNL A   1      45.766  30.014  27.499  1.00  0.00    -0.248 NA
ATOM     58  C   UNL A   1      47.641  31.384  27.257  1.00  0.00     0.031 C 
ATOM     59  C   UNL A   1      45.510  25.839  25.994  1.00  0.00     0.029 A 
ATOM     60  C   UNL A   1      45.621  27.138  26.464  1.00  0.00     0.049 A 
ATOM     61  H   UNL A   1      44.235  28.271  27.581  1.00  0.00     0.167 HD
ATOM     62  C   UNL A   1      46.748  29.322  26.798  1.00  0.00     0.074 A 
ATOM     63  C   UNL A   1      47.869  30.227  26.650  1.00  0.00     0.031 C 
ATOM     64  C   UNL A   1      46.724  28.054  26.317  1.00  0.00     0.037 A 
BRANCH  51  65
ATOM     65  C   UNL A   1      41.519  24.979  27.607  1.00  0.00     0.057 A 
ATOM     66  C   UNL A   1      40.479  24.810  26.683  1.00  0.00     0.134 A 
ATOM     67  C   UNL A   1      41.822  23.897  28.442  1.00  0.00     0.134 A 
ATOM     68  F   UNL A   1      40.125  25.814  25.865  1.00  0.00    -0.206 F 
ATOM     69  C   UNL A   1      39.753  23.620  26.612  1.00  0.00     0.040 A 
ATOM     70  C   UNL A   1      41.122  22.692  28.361  1.00  0.00     0.040 A 
ATOM     71  F   UNL A   1      42.807  23.991  29.349  1.00  0.00    -0.206 F 
ATOM     72  C   UNL A   1      40.080  22.554  27.448  1.00  0.00     0.006 A 
ENDBRANCH  51  65
BRANCH  52  73
ATOM     73  C   UNL A   1      46.380  33.651  28.608  1.00  0.00     0.057 A 
ATOM     74  C   UNL A   1      47.272  33.839  29.672  1.00  0.00     0.134 A 
ATOM     75  C   UNL A   1      46.199  34.721  27.725  1.00  0.00     0.134 A 
ATOM     76  F   UNL A   1      47.469  32.860  30.568  1.00  0.00    -0.206 F 
ATOM     77  C   UNL A   1      47.940  35.049  29.861  1.00  0.00     0.040 A 
ATOM     78  C   UNL A   1      46.882  35.928  27.886  1.00  0.00     0.040 A 
ATOM     79  F   UNL A   1      45.357  34.608  26.686  1.00  0.00    -0.206 F 
ATOM     80  C   UNL A   1      47.750  36.098  28.962  1.00  0.00     0.006 A 
ENDBRANCH  52  73
BRANCH  64  81
ATOM     81  C   UNL A   1      47.923  27.583  25.545  1.00  0.00     0.057 A 
ATOM     82  C   UNL A   1      49.044  27.026  26.175  1.00  0.00     0.134 A 
ATOM     83  C   UNL A   1      47.936  27.646  24.145  1.00  0.00     0.134 A 
ATOM     84  F   UNL A   1      49.102  26.945  27.514  1.00  0.00    -0.206 F 
ATOM     85  C   UNL A   1      50.143  26.573  25.442  1.00  0.00     0.040 A 
ATOM     86  C   UNL A   1      49.015  27.168  23.400  1.00  0.00     0.040 A 
ATOM     87  F   UNL A   1      46.890  28.157  23.476  1.00  0.00    -0.206 F 
ATOM     88  C   UNL A   1      50.126  26.637  24.051  1.00  0.00     0.006 A 
ENDBRANCH  64  81
ENDBRANCH  38  39
ENDBRANCH  31  33
ENDBRANCH  30  31
ENDBRANCH  29  30
ENDBRANCH  28  29
ENDBRANCH  27  28
ENDBRANCH  26  27
ENDBRANCH   1  26
TORSDOF 22
ENDMDL
MODEL 3
REMARK VINA RESULT:      -8.8      4.211      8.348
REMARK SMILES CC[C@H](C(=O)OCCOCCOCCOCCOC(=O)c1ccc(-c2c3nc(c(-c4c(F)cccc4F)c4ccc([nH]4)c(-c4c(F)cccc4F)c4nc(c(-c5c(F)cccc5F)c5ccc2[nH]5)C=C4)C=C3)cc1)C1=CCCc2c(C)ccc(C)c21
REMARK SMILES IDX 13 1 12 2 11 3 10 4 9 5 8 6 7 7 6 8 4 9 5 10 3 11 2 12 1 13
REMARK SMILES IDX 75 14 76 15 86 16 77 17 79 18 84 19 78 20 80 21 83 22 85 23
REMARK SMILES IDX 81 24 82 25 14 26 15 27 16 28 17 29 18 30 19 31 20 32 21 33
REMARK SMILES IDX 22 34 74 35 23 36 73 37 24 38 25 39 26 40 67 41 27 42 72 43
REMARK SMILES IDX 66 44 68 45 28 46 71 47 65 48 64 49 29 51 55 52 38 53 54 54
REMARK SMILES IDX 39 55 42 56 53 57 69 58 40 59 41 60 52 62 70 63 43 64 30 65
REMARK SMILES IDX 31 66 36 67 32 68 33 69 35 70 37 71 34 72 56 73 57 74 62 75
REMARK SMILES IDX 58 76 59 77 61 78 63 79 60 80 44 81 45 82 50 83 46 84 47 85
REMARK SMILES IDX 49 86 51 87 48 88
REMARK H PARENT 68 50 42 61
REMARK Flexibility Score: inf
ROOT
ATOM      1  C   UNL A   1      42.888  24.062  28.285  1.00  0.00     0.188 C 
ENDROOT
BRANCH   1   2
ATOM      2  O   UNL A   1      41.613  24.654  28.518  1.00  0.00    -0.377 OA
BRANCH   2   3
ATOM      3  C   UNL A   1      40.995  25.379  27.458  1.00  0.00     0.188 C 
BRANCH   3   4
ATOM      4  C   UNL A   1      39.966  26.479  27.772  1.00  0.00     0.188 C 
BRANCH   4   5
ATOM      5  O   UNL A   1      40.534  27.676  28.261  1.00  0.00    -0.376 OA
BRANCH   5   6
ATOM      6  C   UNL A   1      40.446  27.994  29.633  1.00  0.00     0.202 C 
BRANCH   6   7
ATOM      7  C   UNL A   1      40.231  29.485  29.874  1.00  0.00     0.261 C 
BRANCH   7   8
ATOM      8  O   UNL A   1      39.170  30.143  29.148  1.00  0.00    -0.463 OA
BRANCH   8   9
ATOM      9  C   UNL A   1      37.863  29.793  29.269  1.00  0.00     0.313 C 
ATOM     10  O   UNL A   1      37.347  28.832  28.710  1.00  0.00    -0.252 OA
BRANCH   9  11
ATOM     11  C   UNL A   1      37.092  30.742  30.204  1.00  0.00     0.129 C 
BRANCH  11  12
ATOM     12  C   UNL A   1      37.113  30.306  31.708  1.00  0.00     0.017 C 
ATOM     13  C   UNL A   1      38.373  30.532  32.548  1.00  0.00     0.005 C 
ENDBRANCH  11  12
BRANCH  11  14
ATOM     14  C   UNL A   1      37.365  32.248  29.937  1.00  0.00    -0.030 C 
ATOM     15  C   UNL A   1      36.940  32.811  28.793  1.00  0.00    -0.022 C 
ATOM     16  C   UNL A   1      37.079  33.172  31.077  1.00  0.00    -0.015 A 
ATOM     17  C   UNL A   1      35.470  33.226  28.791  1.00  0.00     0.032 C 
ATOM     18  C   UNL A   1      35.721  33.322  31.370  1.00  0.00    -0.037 A 
ATOM     19  C   UNL A   1      37.953  34.044  31.724  1.00  0.00    -0.043 A 
ATOM     20  C   UNL A   1      34.769  33.295  30.188  1.00  0.00     0.040 C 
ATOM     21  C   UNL A   1      35.330  33.692  32.657  1.00  0.00    -0.047 A 
ATOM     22  C   UNL A   1      37.503  34.705  32.883  1.00  0.00     0.004 A 
ATOM     23  C   UNL A   1      39.243  34.486  31.100  1.00  0.00     0.045 C 
ATOM     24  C   UNL A   1      34.033  33.240  33.258  1.00  0.00     0.044 C 
ATOM     25  C   UNL A   1      36.237  34.434  33.408  1.00  0.00     0.004 A 
ENDBRANCH  11  14
ENDBRANCH   9  11
ENDBRANCH   8   9
ENDBRANCH   7   8
ENDBRANCH   6   7
ENDBRANCH   5   6
ENDBRANCH   4   5
ENDBRANCH   3   4
ENDBRANCH   2   3
ENDBRANCH   1   2
BRANCH   1  26
ATOM     26  C   UNL A   1      42.992  22.808  27.376  1.00  0.00     0.188 C 
BRANCH  26  27
ATOM     27  O   UNL A   1      44.289  22.560  26.853  1.00  0.00    -0.376 OA
BRANCH  27  28
ATOM     28  C   UNL A   1      44.387  22.218  25.479  1.00  0.00     0.202 C 
BRANCH  28  29
ATOM     29  C   UNL A   1      45.109  23.192  24.533  1.00  0.00     0.261 C 
BRANCH  29  30
ATOM     30  O   UNL A   1      44.852  24.590  24.736  1.00  0.00    -0.460 OA
BRANCH  30  31
ATOM     31  C   UNL A   1      45.910  25.386  24.985  1.00  0.00     0.338 C 
ATOM     32  O   UNL A   1      46.983  25.389  24.405  1.00  0.00    -0.246 OA
BRANCH  31  33
ATOM     33  C   UNL A   1      45.475  26.413  25.955  1.00  0.00     0.060 A 
ATOM     34  C   UNL A   1      46.426  26.984  26.814  1.00  0.00     0.016 A 
ATOM     35  C   UNL A   1      44.142  26.829  25.998  1.00  0.00     0.016 A 
ATOM     36  C   UNL A   1      46.039  27.954  27.739  1.00  0.00     0.010 A 
ATOM     37  C   UNL A   1      43.749  27.775  26.947  1.00  0.00     0.010 A 
ATOM     38  C   UNL A   1      44.690  28.313  27.843  1.00  0.00    -0.014 A 
BRANCH  38  39
ATOM     39  C   UNL A   1      44.226  29.064  29.033  1.00  0.00     0.031 A 
ATOM     40  C   UNL A   1      44.046  30.551  28.899  1.00  0.00     0.074 A 
ATOM     41  C   UNL A   1      43.952  28.449  30.197  1.00  0.00     0.049 A 
ATOM     42  N   UNL A   1      43.708  31.435  29.799  1.00  0.00    -0.248 NA
ATOM     43  C   UNL A   1      44.284  31.115  27.558  1.00  0.00     0.031 C 
ATOM     44  C   UNL A   1      44.041  27.011  30.437  1.00  0.00     0.029 A 
ATOM     45  N   UNL A   1      43.550  28.971  31.401  1.00  0.00    -0.354 N 
ATOM     46  C   UNL A   1      43.699  32.657  29.139  1.00  0.00     0.074 A 
ATOM     47  C   UNL A   1      44.096  32.407  27.771  1.00  0.00     0.031 C 
ATOM     48  C   UNL A   1      43.716  26.765  31.718  1.00  0.00     0.029 A 
ATOM     49  C   UNL A   1      43.430  28.030  32.395  1.00  0.00     0.049 A 
ATOM     50  H   UNL A   1      43.364  29.927  31.540  1.00  0.00     0.167 HD
ATOM     51  C   UNL A   1      43.381  33.879  29.627  1.00  0.00     0.037 A 
ATOM     52  C   UNL A   1      43.149  28.183  33.704  1.00  0.00     0.037 A 
ATOM     53  C   UNL A   1      42.995  34.125  30.991  1.00  0.00     0.049 A 
ATOM     54  C   UNL A   1      42.885  29.566  34.245  1.00  0.00     0.074 A 
ATOM     55  C   UNL A   1      42.645  35.324  31.584  1.00  0.00     0.029 A 
ATOM     56  N   UNL A   1      42.922  33.153  31.976  1.00  0.00    -0.354 N 
ATOM     57  N   UNL A   1      42.857  30.714  33.611  1.00  0.00    -0.248 NA
ATOM     58  C   UNL A   1      42.611  29.672  35.686  1.00  0.00     0.031 C 
ATOM     59  C   UNL A   1      42.415  35.087  32.943  1.00  0.00     0.029 A 
ATOM     60  C   UNL A   1      42.559  33.729  33.181  1.00  0.00     0.049 A 
ATOM     61  H   UNL A   1      43.102  32.194  31.840  1.00  0.00     0.167 HD
ATOM     62  C   UNL A   1      42.531  31.672  34.566  1.00  0.00     0.074 A 
ATOM     63  C   UNL A   1      42.359  30.966  35.820  1.00  0.00     0.031 C 
ATOM     64  C   UNL A   1      42.383  33.012  34.419  1.00  0.00     0.037 A 
BRANCH  51  65
ATOM     65  C   UNL A   1      43.473  35.043  28.683  1.00  0.00     0.057 A 
ATOM     66  C   UNL A   1      44.699  35.634  28.350  1.00  0.00     0.134 A 
ATOM     67  C   UNL A   1      42.320  35.569  28.088  1.00  0.00     0.134 A 
ATOM     68  F   UNL A   1      45.840  35.190  28.901  1.00  0.00    -0.206 F 
ATOM     69  C   UNL A   1      44.772  36.722  27.480  1.00  0.00     0.040 A 
ATOM     70  C   UNL A   1      42.383  36.638  27.193  1.00  0.00     0.040 A 
ATOM     71  F   UNL A   1      41.113  35.050  28.362  1.00  0.00    -0.206 F 
ATOM     72  C   UNL A   1      43.611  37.222  26.892  1.00  0.00     0.006 A 
ENDBRANCH  51  65
BRANCH  52  73
ATOM     73  C   UNL A   1      43.118  27.002  34.604  1.00  0.00     0.057 A 
ATOM     74  C   UNL A   1      41.918  26.338  34.889  1.00  0.00     0.134 A 
ATOM     75  C   UNL A   1      44.278  26.529  35.227  1.00  0.00     0.134 A 
ATOM     76  F   UNL A   1      40.767  26.760  34.345  1.00  0.00    -0.206 F 
ATOM     77  C   UNL A   1      41.872  25.259  35.774  1.00  0.00     0.040 A 
ATOM     78  C   UNL A   1      44.251  25.433  36.092  1.00  0.00     0.040 A 
ATOM     79  F   UNL A   1      45.460  27.121  34.999  1.00  0.00    -0.206 F 
ATOM     80  C   UNL A   1      43.043  24.800  36.374  1.00  0.00     0.006 A 
ENDBRANCH  52  73
BRANCH  64  81
ATOM     81  C   UNL A   1      41.972  33.800  35.630  1.00  0.00     0.057 A 
ATOM     82  C   UNL A   1      42.907  34.419  36.470  1.00  0.00     0.134 A 
ATOM     83  C   UNL A   1      40.615  33.981  35.933  1.00  0.00     0.134 A 
ATOM     84  F   UNL A   1      44.222  34.278  36.243  1.00  0.00    -0.206 F 
ATOM     85  C   UNL A   1      42.509  35.167  37.580  1.00  0.00     0.040 A 
ATOM     86  C   UNL A   1      40.204  34.751  37.021  1.00  0.00     0.040 A 
ATOM     87  F   UNL A   1      39.665  33.426  35.163  1.00  0.00    -0.206 F 
ATOM     88  C   UNL A   1      41.153  35.341  37.852  1.00  0.00     0.006 A 
ENDBRANCH  64  81
ENDBRANCH  38  39
ENDBRANCH  31  33
ENDBRANCH  30  31
ENDBRANCH  29  30
ENDBRANCH  28  29
ENDBRANCH  27  28
ENDBRANCH  26  27
ENDBRANCH   1  26
TORSDOF 22
ENDMDL
