MODEL 1
REMARK VINA RESULT:     -10.5      0.000      0.000
REMARK SMILES COc1cccc([C@@H]2[NH2+][C@@](C)(C(=O)OCCOCCOCCOCCOC(=O)c3ccc(-c4c5nc(c(-c6c(F)cccc6F)c6ccc([nH]6)c(-c6c(F)cccc6F)c6nc(c(-c7c(F)cccc7F)c7ccc4[nH]7)C=C6)C=C5)cc3)[C@@H]3C(=O)N(C)C(=O)[C@@H]32)c1O
REMARK SMILES IDX 20 1 19 2 18 3 17 4 16 5 15 6 14 7 12 8 13 9 10 10 8 11 9 12
REMARK SMILES IDX 90 13 83 16 88 17 11 18 84 19 86 20 89 21 85 22 87 23 7 24
REMARK SMILES IDX 3 25 4 26 91 27 5 28 6 29 2 30 1 31 92 32 21 34 22 35 23 36
REMARK SMILES IDX 24 37 25 38 26 39 27 40 28 41 29 42 30 43 82 44 31 45 81 46
REMARK SMILES IDX 32 47 33 48 34 49 75 50 35 51 80 52 74 53 76 54 36 55 79 56
REMARK SMILES IDX 73 57 72 58 37 60 63 61 46 62 62 63 47 64 50 65 61 66 77 67
REMARK SMILES IDX 48 68 49 69 60 71 78 72 51 73 38 74 39 75 44 76 40 77 41 78
REMARK SMILES IDX 43 79 45 80 42 81 64 82 65 83 70 84 66 85 67 86 69 87 71 88
REMARK SMILES IDX 68 89 52 90 53 91 58 92 54 93 55 94 57 95 59 96 56 97
REMARK H PARENT 9 14 9 15 92 33 76 59 50 70
REMARK Flexibility Score: inf
ROOT
ATOM      1  O   UNL A   1      40.293  21.544  25.955  1.00  0.00    -0.377 OA
ENDROOT
BRANCH   1   2
ATOM      2  C   UNL A   1      39.130  22.117  26.513  1.00  0.00     0.188 C 
BRANCH   2   3
ATOM      3  C   UNL A   1      38.139  22.667  25.466  1.00  0.00     0.188 C 
BRANCH   3   4
ATOM      4  O   UNL A   1      36.798  22.195  25.404  1.00  0.00    -0.376 OA
BRANCH   4   5
ATOM      5  C   UNL A   1      36.546  20.861  25.002  1.00  0.00     0.202 C 
BRANCH   5   6
ATOM      6  C   UNL A   1      35.098  20.325  24.997  1.00  0.00     0.261 C 
BRANCH   6   7
ATOM      7  O   UNL A   1      34.125  21.001  25.823  1.00  0.00    -0.459 OA
BRANCH   7   8
ATOM      8  C   UNL A   1      32.941  21.296  25.227  1.00  0.00     0.368 C 
ATOM      9  O   UNL A   1      32.017  20.488  25.156  1.00  0.00    -0.245 OA
BRANCH   8  10
ATOM     10  C   UNL A   1      32.848  22.718  24.572  1.00  0.00     0.204 C 
ATOM     11  C   UNL A   1      33.383  24.743  25.845  1.00  0.00     0.232 C 
ATOM     12  N   UNL A   1      33.928  23.697  24.940  1.00  0.00    -0.325 N 
ATOM     13  C   UNL A   1      31.939  24.371  26.139  1.00  0.00     0.161 C 
ATOM     14  H   UNL A   1      34.685  23.203  25.413  1.00  0.00     0.347 HD
ATOM     15  H   UNL A   1      34.280  24.140  24.091  1.00  0.00     0.347 HD
ATOM     16  C   UNL A   1      31.552  23.340  25.089  1.00  0.00     0.170 C 
ATOM     17  C   UNL A   1      30.907  25.443  25.973  1.00  0.00     0.239 C 
ATOM     18  C   UNL A   1      32.950  22.418  23.073  1.00  0.00     0.093 C 
ATOM     19  C   UNL A   1      30.684  24.110  24.137  1.00  0.00     0.240 C 
ATOM     20  N   UNL A   1      30.273  25.247  24.781  1.00  0.00    -0.285 N 
ATOM     21  O   UNL A   1      30.689  26.328  26.787  1.00  0.00    -0.274 OA
ATOM     22  O   UNL A   1      30.318  23.725  23.038  1.00  0.00    -0.274 OA
ATOM     23  C   UNL A   1      29.257  26.134  24.283  1.00  0.00     0.156 C 
BRANCH  11  24
ATOM     24  C   UNL A   1      33.653  26.190  25.450  1.00  0.00     0.056 A 
ATOM     25  C   UNL A   1      33.595  28.061  23.876  1.00  0.00     0.161 A 
ATOM     26  C   UNL A   1      33.900  28.960  24.895  1.00  0.00     0.050 A 
ATOM     27  C   UNL A   1      33.526  26.685  24.148  1.00  0.00     0.166 A 
ATOM     28  C   UNL A   1      34.098  28.487  26.189  1.00  0.00     0.005 A 
ATOM     29  C   UNL A   1      33.962  27.121  26.465  1.00  0.00     0.014 A 
BRANCH  25  30
ATOM     30  O   UNL A   1      33.473  28.566  22.608  1.00  0.00    -0.493 OA
ATOM     31  C   UNL A   1      32.146  28.987  22.279  1.00  0.00     0.278 C 
ENDBRANCH  25  30
BRANCH  27  32
ATOM     32  O   UNL A   1      33.364  25.798  23.121  1.00  0.00    -0.504 OA
ATOM     33  H   UNL A   1      32.711  25.129  23.178  1.00  0.00     0.293 HD
ENDBRANCH  27  32
ENDBRANCH  11  24
ENDBRANCH   8  10
ENDBRANCH   7   8
ENDBRANCH   6   7
ENDBRANCH   5   6
ENDBRANCH   4   5
ENDBRANCH   3   4
ENDBRANCH   2   3
ENDBRANCH   1   2
BRANCH   1  34
ATOM     34  C   UNL A   1      40.443  20.156  26.159  1.00  0.00     0.188 C 
BRANCH  34  35
ATOM     35  C   UNL A   1      41.876  19.644  26.369  1.00  0.00     0.188 C 
BRANCH  35  36
ATOM     36  O   UNL A   1      42.693  19.748  25.206  1.00  0.00    -0.376 OA
BRANCH  36  37
ATOM     37  C   UNL A   1      43.900  20.488  25.273  1.00  0.00     0.202 C 
BRANCH  37  38
ATOM     38  C   UNL A   1      43.882  21.788  26.096  1.00  0.00     0.261 C 
BRANCH  38  39
ATOM     39  O   UNL A   1      43.093  22.865  25.575  1.00  0.00    -0.460 OA
BRANCH  39  40
ATOM     40  C   UNL A   1      43.700  24.058  25.400  1.00  0.00     0.338 C 
ATOM     41  O   UNL A   1      44.260  24.458  24.394  1.00  0.00    -0.246 OA
BRANCH  40  42
ATOM     42  C   UNL A   1      43.387  24.894  26.580  1.00  0.00     0.060 A 
ATOM     43  C   UNL A   1      42.367  24.478  27.447  1.00  0.00     0.016 A 
ATOM     44  C   UNL A   1      44.128  26.044  26.861  1.00  0.00     0.016 A 
ATOM     45  C   UNL A   1      42.075  25.222  28.591  1.00  0.00     0.010 A 
ATOM     46  C   UNL A   1      43.808  26.811  27.985  1.00  0.00     0.010 A 
ATOM     47  C   UNL A   1      42.761  26.417  28.837  1.00  0.00    -0.014 A 
BRANCH  47  48
ATOM     48  C   UNL A   1      42.223  27.369  29.838  1.00  0.00     0.031 A 
ATOM     49  C   UNL A   1      42.865  27.386  31.199  1.00  0.00     0.074 A 
ATOM     50  C   UNL A   1      41.223  28.219  29.544  1.00  0.00     0.049 A 
ATOM     51  N   UNL A   1      42.548  28.079  32.261  1.00  0.00    -0.248 NA
ATOM     52  C   UNL A   1      44.027  26.499  31.383  1.00  0.00     0.031 C 
ATOM     53  C   UNL A   1      40.557  28.332  28.250  1.00  0.00     0.029 A 
ATOM     54  N   UNL A   1      40.587  29.146  30.334  1.00  0.00    -0.354 N 
ATOM     55  C   UNL A   1      43.474  27.720  33.232  1.00  0.00     0.074 A 
ATOM     56  C   UNL A   1      44.338  26.718  32.650  1.00  0.00     0.031 C 
ATOM     57  C   UNL A   1      39.586  29.260  28.339  1.00  0.00     0.029 A 
ATOM     58  C   UNL A   1      39.545  29.782  29.704  1.00  0.00     0.049 A 
ATOM     59  H   UNL A   1      40.854  29.336  31.262  1.00  0.00     0.167 HD
ATOM     60  C   UNL A   1      43.602  28.193  34.493  1.00  0.00     0.037 A 
ATOM     61  C   UNL A   1      38.645  30.660  30.192  1.00  0.00     0.037 A 
ATOM     62  C   UNL A   1      42.731  29.175  35.076  1.00  0.00     0.049 A 
ATOM     63  C   UNL A   1      38.747  31.095  31.635  1.00  0.00     0.074 A 
ATOM     64  C   UNL A   1      42.760  29.703  36.354  1.00  0.00     0.029 A 
ATOM     65  N   UNL A   1      41.669  29.776  34.416  1.00  0.00    -0.354 N 
ATOM     66  N   UNL A   1      39.631  30.756  32.544  1.00  0.00    -0.248 NA
ATOM     67  C   UNL A   1      37.726  32.036  32.119  1.00  0.00     0.031 C 
ATOM     68  C   UNL A   1      41.686  30.590  36.482  1.00  0.00     0.029 A 
ATOM     69  C   UNL A   1      41.026  30.658  35.266  1.00  0.00     0.049 A 
ATOM     70  H   UNL A   1      41.411  29.599  33.483  1.00  0.00     0.167 HD
ATOM     71  C   UNL A   1      39.296  31.472  33.688  1.00  0.00     0.074 A 
ATOM     72  C   UNL A   1      38.138  32.273  33.355  1.00  0.00     0.031 C 
ATOM     73  C   UNL A   1      39.889  31.466  34.907  1.00  0.00     0.037 A 
BRANCH  60  74
ATOM     74  C   UNL A   1      44.720  27.644  35.328  1.00  0.00     0.057 A 
ATOM     75  C   UNL A   1      45.982  28.254  35.360  1.00  0.00     0.134 A 
ATOM     76  C   UNL A   1      44.523  26.522  36.141  1.00  0.00     0.134 A 
ATOM     77  F   UNL A   1      46.241  29.320  34.589  1.00  0.00    -0.206 F 
ATOM     78  C   UNL A   1      47.010  27.759  36.164  1.00  0.00     0.040 A 
ATOM     79  C   UNL A   1      45.536  26.033  36.968  1.00  0.00     0.040 A 
ATOM     80  F   UNL A   1      43.340  25.889  36.154  1.00  0.00    -0.206 F 
ATOM     81  C   UNL A   1      46.785  26.651  36.979  1.00  0.00     0.006 A 
ENDBRANCH  60  74
BRANCH  61  82
ATOM     82  C   UNL A   1      37.539  31.168  29.337  1.00  0.00     0.057 A 
ATOM     83  C   UNL A   1      37.546  32.472  28.827  1.00  0.00     0.134 A 
ATOM     84  C   UNL A   1      36.409  30.384  29.072  1.00  0.00     0.134 A 
ATOM     85  F   UNL A   1      38.586  33.284  29.066  1.00  0.00    -0.206 F 
ATOM     86  C   UNL A   1      36.458  32.991  28.121  1.00  0.00     0.040 A 
ATOM     87  C   UNL A   1      35.328  30.878  28.339  1.00  0.00     0.040 A 
ATOM     88  F   UNL A   1      36.333  29.125  29.531  1.00  0.00    -0.206 F 
ATOM     89  C   UNL A   1      35.344  32.191  27.874  1.00  0.00     0.006 A 
ENDBRANCH  61  82
BRANCH  73  90
ATOM     90  C   UNL A   1      39.339  32.395  35.952  1.00  0.00     0.057 A 
ATOM     91  C   UNL A   1      38.370  31.985  36.877  1.00  0.00     0.134 A 
ATOM     92  C   UNL A   1      39.823  33.706  36.061  1.00  0.00     0.134 A 
ATOM     93  F   UNL A   1      37.859  30.746  36.823  1.00  0.00    -0.206 F 
ATOM     94  C   UNL A   1      37.883  32.854  37.854  1.00  0.00     0.040 A 
ATOM     95  C   UNL A   1      39.366  34.573  37.054  1.00  0.00     0.040 A 
ATOM     96  F   UNL A   1      40.761  34.159  35.216  1.00  0.00    -0.206 F 
ATOM     97  C   UNL A   1      38.387  34.150  37.949  1.00  0.00     0.006 A 
ENDBRANCH  73  90
ENDBRANCH  47  48
ENDBRANCH  40  42
ENDBRANCH  39  40
ENDBRANCH  38  39
ENDBRANCH  37  38
ENDBRANCH  36  37
ENDBRANCH  35  36
ENDBRANCH  34  35
ENDBRANCH   1  34
TORSDOF 23
ENDMDL
MODEL 2
REMARK VINA RESULT:     -10.4      1.153      6.046
REMARK SMILES COc1cccc([C@@H]2[NH2+][C@@](C)(C(=O)OCCOCCOCCOCCOC(=O)c3ccc(-c4c5nc(c(-c6c(F)cccc6F)c6ccc([nH]6)c(-c6c(F)cccc6F)c6nc(c(-c7c(F)cccc7F)c7ccc4[nH]7)C=C6)C=C5)cc3)[C@@H]3C(=O)N(C)C(=O)[C@@H]32)c1O
REMARK SMILES IDX 20 1 19 2 18 3 17 4 16 5 15 6 14 7 12 8 13 9 10 10 8 11 9 12
REMARK SMILES IDX 90 13 83 16 88 17 11 18 84 19 86 20 89 21 85 22 87 23 7 24
REMARK SMILES IDX 3 25 4 26 91 27 5 28 6 29 2 30 1 31 92 32 21 34 22 35 23 36
REMARK SMILES IDX 24 37 25 38 26 39 27 40 28 41 29 42 30 43 82 44 31 45 81 46
REMARK SMILES IDX 32 47 33 48 34 49 75 50 35 51 80 52 74 53 76 54 36 55 79 56
REMARK SMILES IDX 73 57 72 58 37 60 63 61 46 62 62 63 47 64 50 65 61 66 77 67
REMARK SMILES IDX 48 68 49 69 60 71 78 72 51 73 38 74 39 75 44 76 40 77 41 78
REMARK SMILES IDX 43 79 45 80 42 81 64 82 65 83 70 84 66 85 67 86 69 87 71 88
REMARK SMILES IDX 68 89 52 90 53 91 58 92 54 93 55 94 57 95 59 96 56 97
REMARK H PARENT 9 14 9 15 92 33 76 59 50 70
REMARK Flexibility Score: inf
ROOT
ATOM      1  O   UNL A   1      40.878  20.898  25.844  1.00  0.00    -0.377 OA
ENDROOT
BRANCH   1   2
ATOM      2  C   UNL A   1      40.189  21.597  26.859  1.00  0.00     0.188 C 
BRANCH   2   3
ATOM      3  C   UNL A   1      39.275  22.723  26.333  1.00  0.00     0.188 C 
BRANCH   3   4
ATOM      4  O   UNL A   1      37.891  22.493  26.092  1.00  0.00    -0.376 OA
BRANCH   4   5
ATOM      5  C   UNL A   1      37.497  21.418  25.258  1.00  0.00     0.202 C 
BRANCH   5   6
ATOM      6  C   UNL A   1      36.047  21.350  24.733  1.00  0.00     0.261 C 
BRANCH   6   7
ATOM      7  O   UNL A   1      35.257  22.559  24.773  1.00  0.00    -0.459 OA
BRANCH   7   8
ATOM      8  C   UNL A   1      35.146  23.235  23.601  1.00  0.00     0.368 C 
ATOM      9  O   UNL A   1      36.038  23.241  22.754  1.00  0.00    -0.245 OA
BRANCH   8  10
ATOM     10  C   UNL A   1      33.830  24.068  23.421  1.00  0.00     0.204 C 
ATOM     11  C   UNL A   1      33.631  26.343  24.311  1.00  0.00     0.232 C 
ATOM     12  N   UNL A   1      33.999  25.532  23.121  1.00  0.00    -0.325 N 
ATOM     13  C   UNL A   1      33.307  25.369  25.432  1.00  0.00     0.161 C 
ATOM     14  H   UNL A   1      34.971  25.716  22.875  1.00  0.00     0.347 HD
ATOM     15  H   UNL A   1      33.390  25.786  22.343  1.00  0.00     0.347 HD
ATOM     16  C   UNL A   1      33.107  24.017  24.766  1.00  0.00     0.170 C 
ATOM     17  C   UNL A   1      32.027  25.584  26.179  1.00  0.00     0.239 C 
ATOM     18  C   UNL A   1      33.156  23.398  22.219  1.00  0.00     0.093 C 
ATOM     19  C   UNL A   1      31.617  23.828  24.785  1.00  0.00     0.240 C 
ATOM     20  N   UNL A   1      31.103  24.696  25.710  1.00  0.00    -0.285 N 
ATOM     21  O   UNL A   1      31.867  26.418  27.058  1.00  0.00    -0.274 OA
ATOM     22  O   UNL A   1      31.002  22.970  24.172  1.00  0.00    -0.274 OA
ATOM     23  C   UNL A   1      29.743  24.667  26.176  1.00  0.00     0.156 C 
BRANCH  11  24
ATOM     24  C   UNL A   1      32.640  27.478  24.080  1.00  0.00     0.056 A 
ATOM     25  C   UNL A   1      30.559  28.398  23.183  1.00  0.00     0.161 A 
ATOM     26  C   UNL A   1      30.706  29.549  23.954  1.00  0.00     0.050 A 
ATOM     27  C   UNL A   1      31.547  27.400  23.211  1.00  0.00     0.166 A 
ATOM     28  C   UNL A   1      31.820  29.682  24.779  1.00  0.00     0.005 A 
ATOM     29  C   UNL A   1      32.767  28.654  24.851  1.00  0.00     0.014 A 
BRANCH  25  30
ATOM     30  O   UNL A   1      29.481  28.341  22.339  1.00  0.00    -0.493 OA
ATOM     31  C   UNL A   1      28.475  29.317  22.620  1.00  0.00     0.278 C 
ENDBRANCH  25  30
BRANCH  27  32
ATOM     32  O   UNL A   1      31.467  26.342  22.349  1.00  0.00    -0.504 OA
ATOM     33  H   UNL A   1      32.248  25.963  21.998  1.00  0.00     0.293 HD
ENDBRANCH  27  32
ENDBRANCH  11  24
ENDBRANCH   8  10
ENDBRANCH   7   8
ENDBRANCH   6   7
ENDBRANCH   5   6
ENDBRANCH   4   5
ENDBRANCH   3   4
ENDBRANCH   2   3
ENDBRANCH   1   2
BRANCH   1  34
ATOM     34  C   UNL A   1      41.377  19.631  26.212  1.00  0.00     0.188 C 
BRANCH  34  35
ATOM     35  C   UNL A   1      42.898  19.438  26.116  1.00  0.00     0.188 C 
BRANCH  35  36
ATOM     36  O   UNL A   1      43.463  19.962  24.917  1.00  0.00    -0.376 OA
BRANCH  36  37
ATOM     37  C   UNL A   1      44.447  20.979  25.003  1.00  0.00     0.202 C 
BRANCH  37  38
ATOM     38  C   UNL A   1      44.232  22.076  26.061  1.00  0.00     0.261 C 
BRANCH  38  39
ATOM     39  O   UNL A   1      43.428  23.195  25.668  1.00  0.00    -0.460 OA
BRANCH  39  40
ATOM     40  C   UNL A   1      44.030  24.400  25.584  1.00  0.00     0.338 C 
ATOM     41  O   UNL A   1      44.824  24.768  24.735  1.00  0.00    -0.246 OA
BRANCH  40  42
ATOM     42  C   UNL A   1      43.398  25.285  26.588  1.00  0.00     0.060 A 
ATOM     43  C   UNL A   1      43.971  26.541  26.833  1.00  0.00     0.016 A 
ATOM     44  C   UNL A   1      42.223  24.904  27.240  1.00  0.00     0.016 A 
ATOM     45  C   UNL A   1      43.377  27.414  27.744  1.00  0.00     0.010 A 
ATOM     46  C   UNL A   1      41.651  25.763  28.183  1.00  0.00     0.010 A 
ATOM     47  C   UNL A   1      42.243  27.009  28.458  1.00  0.00    -0.014 A 
BRANCH  47  48
ATOM     48  C   UNL A   1      41.827  27.778  29.655  1.00  0.00     0.031 A 
ATOM     49  C   UNL A   1      40.632  28.682  29.522  1.00  0.00     0.074 A 
ATOM     50  C   UNL A   1      42.462  27.655  30.835  1.00  0.00     0.049 A 
ATOM     51  N   UNL A   1      40.102  29.498  30.395  1.00  0.00    -0.248 NA
ATOM     52  C   UNL A   1      39.938  28.658  28.222  1.00  0.00     0.031 C 
ATOM     53  C   UNL A   1      43.597  26.776  31.102  1.00  0.00     0.029 A 
ATOM     54  N   UNL A   1      42.237  28.290  32.032  1.00  0.00    -0.354 N 
ATOM     55  C   UNL A   1      39.012  30.074  29.755  1.00  0.00     0.074 A 
ATOM     56  C   UNL A   1      38.978  29.550  28.409  1.00  0.00     0.031 C 
ATOM     57  C   UNL A   1      43.987  26.944  32.378  1.00  0.00     0.029 A 
ATOM     58  C   UNL A   1      43.150  27.965  33.006  1.00  0.00     0.049 A 
ATOM     59  H   UNL A   1      41.493  28.919  32.177  1.00  0.00     0.167 HD
ATOM     60  C   UNL A   1      38.110  30.952  30.250  1.00  0.00     0.037 A 
ATOM     61  C   UNL A   1      43.302  28.463  34.251  1.00  0.00     0.037 A 
ATOM     62  C   UNL A   1      38.156  31.488  31.583  1.00  0.00     0.049 A 
ATOM     63  C   UNL A   1      42.343  29.520  34.743  1.00  0.00     0.074 A 
ATOM     64  C   UNL A   1      37.304  32.403  32.174  1.00  0.00     0.029 A 
ATOM     65  N   UNL A   1      39.111  31.155  32.532  1.00  0.00    -0.354 N 
ATOM     66  N   UNL A   1      41.310  30.053  34.135  1.00  0.00    -0.248 NA
ATOM     67  C   UNL A   1      42.571  30.044  36.099  1.00  0.00     0.031 C 
ATOM     68  C   UNL A   1      37.771  32.660  33.467  1.00  0.00     0.029 A 
ATOM     69  C   UNL A   1      38.878  31.860  33.700  1.00  0.00     0.049 A 
ATOM     70  H   UNL A   1      39.846  30.515  32.394  1.00  0.00     0.167 HD
ATOM     71  C   UNL A   1      40.745  30.940  35.046  1.00  0.00     0.074 A 
ATOM     72  C   UNL A   1      41.541  30.862  36.251  1.00  0.00     0.031 C 
ATOM     73  C   UNL A   1      39.668  31.749  34.899  1.00  0.00     0.037 A 
BRANCH  60  74
ATOM     74  C   UNL A   1      37.004  31.396  29.340  1.00  0.00     0.057 A 
ATOM     75  C   UNL A   1      35.900  30.575  29.070  1.00  0.00     0.134 A 
ATOM     76  C   UNL A   1      37.020  32.670  28.761  1.00  0.00     0.134 A 
ATOM     77  F   UNL A   1      35.834  29.335  29.578  1.00  0.00    -0.206 F 
ATOM     78  C   UNL A   1      34.857  31.004  28.249  1.00  0.00     0.040 A 
ATOM     79  C   UNL A   1      35.970  33.120  27.959  1.00  0.00     0.040 A 
ATOM     80  F   UNL A   1      38.049  33.504  28.977  1.00  0.00    -0.206 F 
ATOM     81  C   UNL A   1      34.885  32.285  27.699  1.00  0.00     0.006 A 
ENDBRANCH  60  74
BRANCH  61  82
ATOM     82  C   UNL A   1      44.424  28.011  35.117  1.00  0.00     0.057 A 
ATOM     83  C   UNL A   1      44.241  27.031  36.100  1.00  0.00     0.134 A 
ATOM     84  C   UNL A   1      45.690  28.605  35.033  1.00  0.00     0.134 A 
ATOM     85  F   UNL A   1      43.046  26.440  36.250  1.00  0.00    -0.206 F 
ATOM     86  C   UNL A   1      45.260  26.685  36.991  1.00  0.00     0.040 A 
ATOM     87  C   UNL A   1      46.727  28.246  35.896  1.00  0.00     0.040 A 
ATOM     88  F   UNL A   1      45.936  29.552  34.116  1.00  0.00    -0.206 F 
ATOM     89  C   UNL A   1      46.509  27.294  36.889  1.00  0.00     0.006 A 
ENDBRANCH  61  82
BRANCH  73  90
ATOM     90  C   UNL A   1      39.248  32.569  36.087  1.00  0.00     0.057 A 
ATOM     91  C   UNL A   1      38.351  32.083  37.047  1.00  0.00     0.134 A 
ATOM     92  C   UNL A   1      39.787  33.845  36.293  1.00  0.00     0.134 A 
ATOM     93  F   UNL A   1      37.792  30.872  36.904  1.00  0.00    -0.206 F 
ATOM     94  C   UNL A   1      37.986  32.848  38.155  1.00  0.00     0.040 A 
ATOM     95  C   UNL A   1      39.454  34.606  37.413  1.00  0.00     0.040 A 
ATOM     96  F   UNL A   1      40.662  34.365  35.419  1.00  0.00    -0.206 F 
ATOM     97  C   UNL A   1      38.544  34.112  38.344  1.00  0.00     0.006 A 
ENDBRANCH  73  90
ENDBRANCH  47  48
ENDBRANCH  40  42
ENDBRANCH  39  40
ENDBRANCH  38  39
ENDBRANCH  37  38
ENDBRANCH  36  37
ENDBRANCH  35  36
ENDBRANCH  34  35
ENDBRANCH   1  34
TORSDOF 23
ENDMDL
MODEL 3
REMARK VINA RESULT:     -10.0      2.006      2.904
REMARK SMILES COc1cccc([C@@H]2[NH2+][C@@](C)(C(=O)OCCOCCOCCOCCOC(=O)c3ccc(-c4c5nc(c(-c6c(F)cccc6F)c6ccc([nH]6)c(-c6c(F)cccc6F)c6nc(c(-c7c(F)cccc7F)c7ccc4[nH]7)C=C6)C=C5)cc3)[C@@H]3C(=O)N(C)C(=O)[C@@H]32)c1O
REMARK SMILES IDX 20 1 19 2 18 3 17 4 16 5 15 6 14 7 12 8 13 9 10 10 8 11 9 12
REMARK SMILES IDX 90 13 83 16 88 17 11 18 84 19 86 20 89 21 85 22 87 23 7 24
REMARK SMILES IDX 3 25 4 26 91 27 5 28 6 29 2 30 1 31 92 32 21 34 22 35 23 36
REMARK SMILES IDX 24 37 25 38 26 39 27 40 28 41 29 42 30 43 82 44 31 45 81 46
REMARK SMILES IDX 32 47 33 48 34 49 75 50 35 51 80 52 74 53 76 54 36 55 79 56
REMARK SMILES IDX 73 57 72 58 37 60 63 61 46 62 62 63 47 64 50 65 61 66 77 67
REMARK SMILES IDX 48 68 49 69 60 71 78 72 51 73 38 74 39 75 44 76 40 77 41 78
REMARK SMILES IDX 43 79 45 80 42 81 64 82 65 83 70 84 66 85 67 86 69 87 71 88
REMARK SMILES IDX 68 89 52 90 53 91 58 92 54 93 55 94 57 95 59 96 56 97
REMARK H PARENT 9 14 9 15 92 33 76 59 50 70
REMARK Flexibility Score: inf
ROOT
ATOM      1  O   UNL A   1      40.910  22.136  27.505  1.00  0.00    -0.377 OA
ENDROOT
BRANCH   1   2
ATOM      2  C   UNL A   1      39.666  22.558  26.989  1.00  0.00     0.188 C 
BRANCH   2   3
ATOM      3  C   UNL A   1      39.063  21.597  25.944  1.00  0.00     0.188 C 
BRANCH   3   4
ATOM      4  O   UNL A   1      38.159  22.065  24.950  1.00  0.00    -0.376 OA
BRANCH   4   5
ATOM      5  C   UNL A   1      36.862  22.488  25.331  1.00  0.00     0.202 C 
BRANCH   5   6
ATOM      6  C   UNL A   1      36.128  23.554  24.490  1.00  0.00     0.261 C 
BRANCH   6   7
ATOM      7  O   UNL A   1      34.722  23.767  24.745  1.00  0.00    -0.459 OA
BRANCH   7   8
ATOM      8  C   UNL A   1      33.991  24.226  23.697  1.00  0.00     0.368 C 
ATOM      9  O   UNL A   1      34.375  24.135  22.532  1.00  0.00    -0.245 OA
BRANCH   8  10
ATOM     10  C   UNL A   1      32.646  24.942  24.069  1.00  0.00     0.204 C 
ATOM     11  C   UNL A   1      32.010  27.071  23.037  1.00  0.00     0.232 C 
ATOM     12  N   UNL A   1      31.898  25.592  22.940  1.00  0.00    -0.325 N 
ATOM     13  C   UNL A   1      32.932  27.373  24.207  1.00  0.00     0.161 C 
ATOM     14  H   UNL A   1      32.291  25.282  22.051  1.00  0.00     0.347 HD
ATOM     15  H   UNL A   1      30.915  25.327  22.994  1.00  0.00     0.347 HD
ATOM     16  C   UNL A   1      33.021  26.085  25.011  1.00  0.00     0.170 C 
ATOM     17  C   UNL A   1      32.460  28.379  25.211  1.00  0.00     0.239 C 
ATOM     18  C   UNL A   1      31.790  23.802  24.631  1.00  0.00     0.093 C 
ATOM     19  C   UNL A   1      32.158  26.353  26.210  1.00  0.00     0.240 C 
ATOM     20  N   UNL A   1      31.987  27.708  26.301  1.00  0.00    -0.285 N 
ATOM     21  O   UNL A   1      32.506  29.590  25.054  1.00  0.00    -0.274 OA
ATOM     22  O   UNL A   1      31.783  25.517  27.017  1.00  0.00    -0.274 OA
ATOM     23  C   UNL A   1      31.405  28.374  27.435  1.00  0.00     0.156 C 
BRANCH  11  24
ATOM     24  C   UNL A   1      30.705  27.857  22.970  1.00  0.00     0.056 A 
ATOM     25  C   UNL A   1      29.305  29.677  22.129  1.00  0.00     0.161 A 
ATOM     26  C   UNL A   1      28.166  29.082  22.665  1.00  0.00     0.050 A 
ATOM     27  C   UNL A   1      30.566  29.092  22.329  1.00  0.00     0.166 A 
ATOM     28  C   UNL A   1      28.284  27.885  23.367  1.00  0.00     0.005 A 
ATOM     29  C   UNL A   1      29.536  27.274  23.505  1.00  0.00     0.014 A 
BRANCH  25  30
ATOM     30  O   UNL A   1      29.148  30.886  21.503  1.00  0.00    -0.493 OA
ATOM     31  C   UNL A   1      28.739  31.941  22.377  1.00  0.00     0.278 C 
ENDBRANCH  25  30
BRANCH  27  32
ATOM     32  O   UNL A   1      31.692  29.752  21.922  1.00  0.00    -0.504 OA
ATOM     33  H   UNL A   1      32.322  29.315  21.382  1.00  0.00     0.293 HD
ENDBRANCH  27  32
ENDBRANCH  11  24
ENDBRANCH   8  10
ENDBRANCH   7   8
ENDBRANCH   6   7
ENDBRANCH   5   6
ENDBRANCH   4   5
ENDBRANCH   3   4
ENDBRANCH   2   3
ENDBRANCH   1   2
BRANCH   1  34
ATOM     34  C   UNL A   1      41.487  21.021  26.861  1.00  0.00     0.188 C 
BRANCH  34  35
ATOM     35  C   UNL A   1      42.956  21.160  26.434  1.00  0.00     0.188 C 
BRANCH  35  36
ATOM     36  O   UNL A   1      43.119  21.539  25.071  1.00  0.00    -0.376 OA
BRANCH  36  37
ATOM     37  C   UNL A   1      43.518  22.864  24.764  1.00  0.00     0.202 C 
BRANCH  37  38
ATOM     38  C   UNL A   1      43.656  23.846  25.941  1.00  0.00     0.261 C 
BRANCH  38  39
ATOM     39  O   UNL A   1      42.500  24.630  26.260  1.00  0.00    -0.460 OA
BRANCH  39  40
ATOM     40  C   UNL A   1      42.480  25.914  25.844  1.00  0.00     0.338 C 
ATOM     41  O   UNL A   1      42.396  26.314  24.696  1.00  0.00    -0.246 OA
BRANCH  40  42
ATOM     42  C   UNL A   1      42.367  26.769  27.047  1.00  0.00     0.060 A 
ATOM     43  C   UNL A   1      41.541  26.346  28.098  1.00  0.00     0.016 A 
ATOM     44  C   UNL A   1      43.109  27.947  27.161  1.00  0.00     0.016 A 
ATOM     45  C   UNL A   1      41.444  27.109  29.261  1.00  0.00     0.010 A 
ATOM     46  C   UNL A   1      42.980  28.732  28.310  1.00  0.00     0.010 A 
ATOM     47  C   UNL A   1      42.125  28.329  29.352  1.00  0.00    -0.014 A 
BRANCH  47  48
ATOM     48  C   UNL A   1      41.753  29.290  30.418  1.00  0.00     0.031 A 
ATOM     49  C   UNL A   1      42.655  29.384  31.617  1.00  0.00     0.074 A 
ATOM     50  C   UNL A   1      40.671  30.083  30.314  1.00  0.00     0.049 A 
ATOM     51  N   UNL A   1      42.526  30.098  32.704  1.00  0.00    -0.248 NA
ATOM     52  C   UNL A   1      43.875  28.558  31.582  1.00  0.00     0.031 C 
ATOM     53  C   UNL A   1      39.751  30.121  29.180  1.00  0.00     0.029 A 
ATOM     54  N   UNL A   1      40.162  31.007  31.193  1.00  0.00    -0.354 N 
ATOM     55  C   UNL A   1      43.647  29.815  33.474  1.00  0.00     0.074 A 
ATOM     56  C   UNL A   1      44.426  28.834  32.753  1.00  0.00     0.031 C 
ATOM     57  C   UNL A   1      38.772  31.006  29.443  1.00  0.00     0.029 A 
ATOM     58  C   UNL A   1      38.982  31.572  30.775  1.00  0.00     0.049 A 
ATOM     59  H   UNL A   1      40.601  31.241  32.043  1.00  0.00     0.167 HD
ATOM     60  C   UNL A   1      44.004  30.337  34.670  1.00  0.00     0.037 A 
ATOM     61  C   UNL A   1      38.156  32.425  31.414  1.00  0.00     0.037 A 
ATOM     62  C   UNL A   1      43.219  31.299  35.395  1.00  0.00     0.049 A 
ATOM     63  C   UNL A   1      38.527  32.914  32.795  1.00  0.00     0.074 A 
ATOM     64  C   UNL A   1      43.480  31.871  36.626  1.00  0.00     0.029 A 
ATOM     65  N   UNL A   1      42.016  31.827  34.951  1.00  0.00    -0.354 N 
ATOM     66  N   UNL A   1      39.593  32.648  33.512  1.00  0.00    -0.248 NA
ATOM     67  C   UNL A   1      37.578  33.824  33.454  1.00  0.00     0.031 C 
ATOM     68  C   UNL A   1      42.411  32.712  36.950  1.00  0.00     0.029 A 
ATOM     69  C   UNL A   1      41.514  32.707  35.893  1.00  0.00     0.049 A 
ATOM     70  H   UNL A   1      41.583  31.606  34.095  1.00  0.00     0.167 HD
ATOM     71  C   UNL A   1      39.461  33.387  34.682  1.00  0.00     0.074 A 
ATOM     72  C   UNL A   1      38.219  34.122  34.574  1.00  0.00     0.031 C 
ATOM     73  C   UNL A   1      40.288  33.450  35.754  1.00  0.00     0.037 A 
BRANCH  60  74
ATOM     74  C   UNL A   1      45.295  29.869  35.272  1.00  0.00     0.057 A 
ATOM     75  C   UNL A   1      46.509  30.514  35.001  1.00  0.00     0.134 A 
ATOM     76  C   UNL A   1      45.320  28.791  36.165  1.00  0.00     0.134 A 
ATOM     77  F   UNL A   1      46.556  31.540  34.139  1.00  0.00    -0.206 F 
ATOM     78  C   UNL A   1      47.704  30.096  35.589  1.00  0.00     0.040 A 
ATOM     79  C   UNL A   1      46.504  28.380  36.779  1.00  0.00     0.040 A 
ATOM     80  F   UNL A   1      44.193  28.128  36.465  1.00  0.00    -0.206 F 
ATOM     81  C   UNL A   1      47.702  29.032  36.489  1.00  0.00     0.006 A 
ENDBRANCH  60  74
BRANCH  61  82
ATOM     82  C   UNL A   1      36.874  32.852  30.791  1.00  0.00     0.057 A 
ATOM     83  C   UNL A   1      36.831  33.862  29.822  1.00  0.00     0.134 A 
ATOM     84  C   UNL A   1      35.650  32.312  31.207  1.00  0.00     0.134 A 
ATOM     85  F   UNL A   1      37.965  34.439  29.398  1.00  0.00    -0.206 F 
ATOM     86  C   UNL A   1      35.621  34.345  29.318  1.00  0.00     0.040 A 
ATOM     87  C   UNL A   1      34.435  32.762  30.688  1.00  0.00     0.040 A 
ATOM     88  F   UNL A   1      35.617  31.342  32.133  1.00  0.00    -0.206 F 
ATOM     89  C   UNL A   1      34.417  33.793  29.751  1.00  0.00     0.006 A 
ENDBRANCH  61  82
BRANCH  73  90
ATOM     90  C   UNL A   1      39.914  34.389  36.866  1.00  0.00     0.057 A 
ATOM     91  C   UNL A   1      39.216  33.958  38.001  1.00  0.00     0.134 A 
ATOM     92  C   UNL A   1      40.302  35.735  36.818  1.00  0.00     0.134 A 
ATOM     93  F   UNL A   1      38.808  32.684  38.106  1.00  0.00    -0.206 F 
ATOM     94  C   UNL A   1      38.893  34.837  39.035  1.00  0.00     0.040 A 
ATOM     95  C   UNL A   1      40.012  36.616  37.860  1.00  0.00     0.040 A 
ATOM     96  F   UNL A   1      40.985  36.210  35.766  1.00  0.00    -0.206 F 
ATOM     97  C   UNL A   1      39.298  36.170  38.969  1.00  0.00     0.006 A 
ENDBRANCH  73  90
ENDBRANCH  47  48
ENDBRANCH  40  42
ENDBRANCH  39  40
ENDBRANCH  38  39
ENDBRANCH  37  38
ENDBRANCH  36  37
ENDBRANCH  35  36
ENDBRANCH  34  35
ENDBRANCH   1  34
TORSDOF 23
ENDMDL
