MODEL 1
REMARK VINA RESULT:     -10.7      0.000      0.000
REMARK SMILES COc1ccc(C(F)(F)F)cc1-c1cc(N)cc(C(=O)OCCOCCOCCOCCOC(=O)c2ccc(-c3c4nc(c(-c5c(F)cccc5F)c5ccc([nH]5)c(-c5c(F)cccc5F)c5nc(c(-c6c(F)cccc6F)c6ccc3[nH]6)C=C5)C=C4)cc2)c1
REMARK SMILES IDX 27 1 26 2 25 3 24 4 23 5 22 6 21 7 19 8 20 9 18 10 13 11
REMARK SMILES IDX 14 12 90 13 15 14 17 15 12 16 3 17 4 18 5 19 11 20 6 21 2 22
REMARK SMILES IDX 1 23 7 24 8 25 9 26 10 27 16 28 28 31 29 32 30 33 31 34
REMARK SMILES IDX 32 35 33 36 34 37 35 38 36 39 37 40 89 41 38 42 88 43 39 44
REMARK SMILES IDX 40 45 41 46 82 47 42 48 87 49 81 50 83 51 43 52 86 53 80 54
REMARK SMILES IDX 79 55 44 57 70 58 53 59 69 60 54 61 57 62 68 63 84 64 55 65
REMARK SMILES IDX 56 66 67 68 85 69 58 70 45 71 46 72 51 73 47 74 48 75 50 76
REMARK SMILES IDX 52 77 49 78 71 79 72 80 77 81 73 82 74 83 76 84 78 85 75 86
REMARK SMILES IDX 59 87 60 88 65 89 61 90 62 91 64 92 66 93 63 94
REMARK H PARENT 16 29 16 30 83 56 57 67
REMARK Flexibility Score: inf
ROOT
ATOM      1  O   UNL A   1      43.842  18.079  25.522  1.00  0.00    -0.377 OA
ENDROOT
BRANCH   1   2
ATOM      2  C   UNL A   1      42.694  18.654  26.123  1.00  0.00     0.188 C 
BRANCH   2   3
ATOM      3  C   UNL A   1      42.516  20.168  25.890  1.00  0.00     0.188 C 
BRANCH   3   4
ATOM      4  O   UNL A   1      41.493  20.734  26.693  1.00  0.00    -0.376 OA
BRANCH   4   5
ATOM      5  C   UNL A   1      40.862  21.939  26.300  1.00  0.00     0.202 C 
BRANCH   5   6
ATOM      6  C   UNL A   1      39.361  22.179  26.530  1.00  0.00     0.261 C 
BRANCH   6   7
ATOM      7  O   UNL A   1      38.551  22.316  25.364  1.00  0.00    -0.460 OA
BRANCH   7   8
ATOM      8  C   UNL A   1      37.737  21.292  25.037  1.00  0.00     0.338 C 
ATOM      9  O   UNL A   1      38.066  20.151  24.768  1.00  0.00    -0.246 OA
BRANCH   8  10
ATOM     10  C   UNL A   1      36.346  21.747  25.274  1.00  0.00     0.062 A 
ATOM     11  C   UNL A   1      34.657  23.495  25.216  1.00  0.00    -0.012 A 
ATOM     12  C   UNL A   1      33.736  22.562  25.734  1.00  0.00     0.034 A 
ATOM     13  C   UNL A   1      35.989  23.084  25.082  1.00  0.00     0.024 A 
ATOM     14  C   UNL A   1      34.114  21.253  26.065  1.00  0.00     0.033 A 
ATOM     15  C   UNL A   1      35.405  20.832  25.755  1.00  0.00     0.041 A 
BRANCH  11  16
ATOM     16  C   UNL A   1      34.221  24.820  24.721  1.00  0.00     0.024 A 
ATOM     17  C   UNL A   1      34.024  25.086  23.346  1.00  0.00     0.126 A 
ATOM     18  C   UNL A   1      33.611  26.348  22.906  1.00  0.00     0.047 A 
ATOM     19  C   UNL A   1      33.347  27.362  23.823  1.00  0.00     0.017 A 
ATOM     20  C   UNL A   1      33.961  25.871  25.626  1.00  0.00     0.025 A 
ATOM     21  C   UNL A   1      33.521  27.137  25.195  1.00  0.00     0.056 A 
BRANCH  17  22
ATOM     22  O   UNL A   1      34.332  24.194  22.346  1.00  0.00    -0.496 OA
ATOM     23  C   UNL A   1      33.242  23.345  21.990  1.00  0.00     0.278 C 
ENDBRANCH  17  22
BRANCH  21  24
ATOM     24  C   UNL A   1      33.246  28.250  26.176  1.00  0.00     0.416 C 
ATOM     25  F   UNL A   1      33.436  29.485  25.635  1.00  0.00    -0.166 F 
ATOM     26  F   UNL A   1      31.961  28.236  26.630  1.00  0.00    -0.166 F 
ATOM     27  F   UNL A   1      34.032  28.205  27.288  1.00  0.00    -0.166 F 
ENDBRANCH  21  24
ENDBRANCH  11  16
BRANCH  14  28
ATOM     28  N   UNL A   1      33.178  20.354  26.551  1.00  0.00    -0.399 N 
ATOM     29  H   UNL A   1      33.400  19.397  26.613  1.00  0.00     0.156 HD
ATOM     30  H   UNL A   1      32.291  20.673  26.835  1.00  0.00     0.156 HD
ENDBRANCH  14  28
ENDBRANCH   8  10
ENDBRANCH   7   8
ENDBRANCH   6   7
ENDBRANCH   5   6
ENDBRANCH   4   5
ENDBRANCH   3   4
ENDBRANCH   2   3
ENDBRANCH   1   2
BRANCH   1  31
ATOM     31  C   UNL A   1      44.738  18.921  24.797  1.00  0.00     0.188 C 
BRANCH  31  32
ATOM     32  C   UNL A   1      46.085  19.424  25.380  1.00  0.00     0.188 C 
BRANCH  32  33
ATOM     33  O   UNL A   1      46.599  20.607  24.790  1.00  0.00    -0.376 OA
BRANCH  33  34
ATOM     34  C   UNL A   1      45.730  21.716  24.647  1.00  0.00     0.202 C 
BRANCH  34  35
ATOM     35  C   UNL A   1      45.471  22.541  25.913  1.00  0.00     0.261 C 
BRANCH  35  36
ATOM     36  O   UNL A   1      44.325  23.406  25.869  1.00  0.00    -0.460 OA
BRANCH  36  37
ATOM     37  C   UNL A   1      44.543  24.712  25.604  1.00  0.00     0.338 C 
ATOM     38  O   UNL A   1      45.091  25.187  24.623  1.00  0.00    -0.246 OA
BRANCH  37  39
ATOM     39  C   UNL A   1      43.832  25.495  26.632  1.00  0.00     0.060 A 
ATOM     40  C   UNL A   1      44.189  26.833  26.845  1.00  0.00     0.016 A 
ATOM     41  C   UNL A   1      42.799  24.910  27.366  1.00  0.00     0.016 A 
ATOM     42  C   UNL A   1      43.525  27.586  27.814  1.00  0.00     0.010 A 
ATOM     43  C   UNL A   1      42.152  25.658  28.352  1.00  0.00     0.010 A 
ATOM     44  C   UNL A   1      42.530  26.989  28.599  1.00  0.00    -0.014 A 
BRANCH  44  45
ATOM     45  C   UNL A   1      42.011  27.686  29.800  1.00  0.00     0.031 A 
ATOM     46  C   UNL A   1      40.793  28.552  29.649  1.00  0.00     0.074 A 
ATOM     47  C   UNL A   1      42.612  27.561  30.996  1.00  0.00     0.049 A 
ATOM     48  N   UNL A   1      40.211  29.330  30.525  1.00  0.00    -0.248 NA
ATOM     49  C   UNL A   1      40.146  28.543  28.326  1.00  0.00     0.031 C 
ATOM     50  C   UNL A   1      43.776  26.723  31.278  1.00  0.00     0.029 A 
ATOM     51  N   UNL A   1      42.330  28.164  32.198  1.00  0.00    -0.354 N 
ATOM     52  C   UNL A   1      39.142  29.912  29.857  1.00  0.00     0.074 A 
ATOM     53  C   UNL A   1      39.166  29.418  28.498  1.00  0.00     0.031 C 
ATOM     54  C   UNL A   1      44.124  26.882  32.567  1.00  0.00     0.029 A 
ATOM     55  C   UNL A   1      43.232  27.861  33.188  1.00  0.00     0.049 A 
ATOM     56  H   UNL A   1      41.555  28.755  32.336  1.00  0.00     0.167 HD
ATOM     57  C   UNL A   1      38.220  30.780  30.336  1.00  0.00     0.037 A 
ATOM     58  C   UNL A   1      43.342  28.347  34.441  1.00  0.00     0.037 A 
ATOM     59  C   UNL A   1      38.199  31.270  31.689  1.00  0.00     0.049 A 
ATOM     60  C   UNL A   1      42.347  29.370  34.928  1.00  0.00     0.074 A 
ATOM     61  C   UNL A   1      37.287  32.127  32.278  1.00  0.00     0.029 A 
ATOM     62  N   UNL A   1      39.140  30.955  32.657  1.00  0.00    -0.354 N 
ATOM     63  N   UNL A   1      41.316  29.888  34.304  1.00  0.00    -0.248 NA
ATOM     64  C   UNL A   1      42.531  29.878  36.297  1.00  0.00     0.031 C 
ATOM     65  C   UNL A   1      37.712  32.381  33.586  1.00  0.00     0.029 A 
ATOM     66  C   UNL A   1      38.850  31.629  33.831  1.00  0.00     0.049 A 
ATOM     67  H   UNL A   1      39.900  30.343  32.529  1.00  0.00     0.167 HD
ATOM     68  C   UNL A   1      40.715  30.754  35.209  1.00  0.00     0.074 A 
ATOM     69  C   UNL A   1      41.487  30.683  36.431  1.00  0.00     0.031 C 
ATOM     70  C   UNL A   1      39.622  31.540  35.044  1.00  0.00     0.037 A 
BRANCH  57  71
ATOM     71  C   UNL A   1      37.177  31.284  29.383  1.00  0.00     0.057 A 
ATOM     72  C   UNL A   1      36.056  30.520  29.034  1.00  0.00     0.134 A 
ATOM     73  C   UNL A   1      37.274  32.573  28.843  1.00  0.00     0.134 A 
ATOM     74  F   UNL A   1      35.911  29.271  29.503  1.00  0.00    -0.206 F 
ATOM     75  C   UNL A   1      35.079  31.012  28.167  1.00  0.00     0.040 A 
ATOM     76  C   UNL A   1      36.289  33.088  27.999  1.00  0.00     0.040 A 
ATOM     77  F   UNL A   1      38.320  33.358  29.138  1.00  0.00    -0.206 F 
ATOM     78  C   UNL A   1      35.189  32.304  27.655  1.00  0.00     0.006 A 
ENDBRANCH  57  71
BRANCH  58  79
ATOM     79  C   UNL A   1      44.457  27.905  35.321  1.00  0.00     0.057 A 
ATOM     80  C   UNL A   1      44.320  26.803  36.173  1.00  0.00     0.134 A 
ATOM     81  C   UNL A   1      45.671  28.601  35.361  1.00  0.00     0.134 A 
ATOM     82  F   UNL A   1      43.172  26.111  36.202  1.00  0.00    -0.206 F 
ATOM     83  C   UNL A   1      45.339  26.423  37.049  1.00  0.00     0.040 A 
ATOM     84  C   UNL A   1      46.710  28.215  36.210  1.00  0.00     0.040 A 
ATOM     85  F   UNL A   1      45.867  29.669  34.573  1.00  0.00    -0.206 F 
ATOM     86  C   UNL A   1      46.540  27.129  37.066  1.00  0.00     0.006 A 
ENDBRANCH  58  79
BRANCH  70  87
ATOM     87  C   UNL A   1      39.165  32.354  36.222  1.00  0.00     0.057 A 
ATOM     88  C   UNL A   1      39.602  33.668  36.431  1.00  0.00     0.134 A 
ATOM     89  C   UNL A   1      38.230  31.833  37.126  1.00  0.00     0.134 A 
ATOM     90  F   UNL A   1      40.504  34.224  35.608  1.00  0.00    -0.206 F 
ATOM     91  C   UNL A   1      39.142  34.426  37.510  1.00  0.00     0.040 A 
ATOM     92  C   UNL A   1      37.740  32.592  38.190  1.00  0.00     0.040 A 
ATOM     93  F   UNL A   1      37.760  30.585  36.978  1.00  0.00    -0.206 F 
ATOM     94  C   UNL A   1      38.202  33.892  38.387  1.00  0.00     0.006 A 
ENDBRANCH  70  87
ENDBRANCH  44  45
ENDBRANCH  37  39
ENDBRANCH  36  37
ENDBRANCH  35  36
ENDBRANCH  34  35
ENDBRANCH  33  34
ENDBRANCH  32  33
ENDBRANCH  31  32
ENDBRANCH   1  31
TORSDOF 24
ENDMDL
MODEL 2
REMARK VINA RESULT:     -10.4      2.290      6.882
REMARK SMILES COc1ccc(C(F)(F)F)cc1-c1cc(N)cc(C(=O)OCCOCCOCCOCCOC(=O)c2ccc(-c3c4nc(c(-c5c(F)cccc5F)c5ccc([nH]5)c(-c5c(F)cccc5F)c5nc(c(-c6c(F)cccc6F)c6ccc3[nH]6)C=C5)C=C4)cc2)c1
REMARK SMILES IDX 27 1 26 2 25 3 24 4 23 5 22 6 21 7 19 8 20 9 18 10 13 11
REMARK SMILES IDX 14 12 90 13 15 14 17 15 12 16 3 17 4 18 5 19 11 20 6 21 2 22
REMARK SMILES IDX 1 23 7 24 8 25 9 26 10 27 16 28 28 31 29 32 30 33 31 34
REMARK SMILES IDX 32 35 33 36 34 37 35 38 36 39 37 40 89 41 38 42 88 43 39 44
REMARK SMILES IDX 40 45 41 46 82 47 42 48 87 49 81 50 83 51 43 52 86 53 80 54
REMARK SMILES IDX 79 55 44 57 70 58 53 59 69 60 54 61 57 62 68 63 84 64 55 65
REMARK SMILES IDX 56 66 67 68 85 69 58 70 45 71 46 72 51 73 47 74 48 75 50 76
REMARK SMILES IDX 52 77 49 78 71 79 72 80 77 81 73 82 74 83 76 84 78 85 75 86
REMARK SMILES IDX 59 87 60 88 65 89 61 90 62 91 64 92 66 93 63 94
REMARK H PARENT 16 29 16 30 83 56 57 67
REMARK Flexibility Score: inf
ROOT
ATOM      1  O   UNL A   1      39.220  21.628  26.172  1.00  0.00    -0.377 OA
ENDROOT
BRANCH   1   2
ATOM      2  C   UNL A   1      37.963  21.991  25.627  1.00  0.00     0.188 C 
BRANCH   2   3
ATOM      3  C   UNL A   1      37.681  23.507  25.574  1.00  0.00     0.188 C 
BRANCH   3   4
ATOM      4  O   UNL A   1      36.405  23.849  26.090  1.00  0.00    -0.376 OA
BRANCH   4   5
ATOM      5  C   UNL A   1      35.357  22.897  26.093  1.00  0.00     0.202 C 
BRANCH   5   6
ATOM      6  C   UNL A   1      34.125  23.052  26.999  1.00  0.00     0.261 C 
BRANCH   6   7
ATOM      7  O   UNL A   1      32.982  23.680  26.419  1.00  0.00    -0.460 OA
BRANCH   7   8
ATOM      8  C   UNL A   1      32.300  23.003  25.473  1.00  0.00     0.338 C 
ATOM      9  O   UNL A   1      31.762  21.917  25.593  1.00  0.00    -0.246 OA
BRANCH   8  10
ATOM     10  C   UNL A   1      32.133  23.916  24.317  1.00  0.00     0.062 A 
ATOM     11  C   UNL A   1      31.335  26.013  23.381  1.00  0.00    -0.012 A 
ATOM     12  C   UNL A   1      31.835  25.594  22.131  1.00  0.00     0.034 A 
ATOM     13  C   UNL A   1      31.415  25.107  24.446  1.00  0.00     0.024 A 
ATOM     14  C   UNL A   1      32.434  24.339  21.955  1.00  0.00     0.033 A 
ATOM     15  C   UNL A   1      32.649  23.539  23.074  1.00  0.00     0.041 A 
BRANCH  11  16
ATOM     16  C   UNL A   1      30.851  27.395  23.598  1.00  0.00     0.024 A 
ATOM     17  C   UNL A   1      31.598  28.354  24.320  1.00  0.00     0.126 A 
ATOM     18  C   UNL A   1      31.117  29.652  24.509  1.00  0.00     0.047 A 
ATOM     19  C   UNL A   1      29.900  30.040  23.953  1.00  0.00     0.017 A 
ATOM     20  C   UNL A   1      29.615  27.811  23.059  1.00  0.00     0.025 A 
ATOM     21  C   UNL A   1      29.133  29.124  23.223  1.00  0.00     0.056 A 
BRANCH  17  22
ATOM     22  O   UNL A   1      32.767  28.065  24.984  1.00  0.00    -0.496 OA
ATOM     23  C   UNL A   1      33.346  29.200  25.628  1.00  0.00     0.278 C 
ENDBRANCH  17  22
BRANCH  21  24
ATOM     24  C   UNL A   1      27.810  29.554  22.639  1.00  0.00     0.416 C 
ATOM     25  F   UNL A   1      27.835  29.625  21.279  1.00  0.00    -0.166 F 
ATOM     26  F   UNL A   1      26.800  28.693  22.948  1.00  0.00    -0.166 F 
ATOM     27  F   UNL A   1      27.395  30.779  23.069  1.00  0.00    -0.166 F 
ENDBRANCH  21  24
ENDBRANCH  11  16
BRANCH  14  28
ATOM     28  N   UNL A   1      32.935  23.968  20.717  1.00  0.00    -0.399 N 
ATOM     29  H   UNL A   1      33.191  24.657  20.062  1.00  0.00     0.156 HD
ATOM     30  H   UNL A   1      33.037  23.015  20.493  1.00  0.00     0.156 HD
ENDBRANCH  14  28
ENDBRANCH   8  10
ENDBRANCH   7   8
ENDBRANCH   6   7
ENDBRANCH   5   6
ENDBRANCH   4   5
ENDBRANCH   3   4
ENDBRANCH   2   3
ENDBRANCH   1   2
BRANCH   1  31
ATOM     31  C   UNL A   1      39.691  20.292  25.994  1.00  0.00     0.188 C 
BRANCH  31  32
ATOM     32  C   UNL A   1      41.036  19.785  26.577  1.00  0.00     0.188 C 
BRANCH  32  33
ATOM     33  O   UNL A   1      41.932  19.217  25.634  1.00  0.00    -0.376 OA
BRANCH  33  34
ATOM     34  C   UNL A   1      43.132  19.913  25.347  1.00  0.00     0.202 C 
BRANCH  34  35
ATOM     35  C   UNL A   1      43.287  21.292  25.999  1.00  0.00     0.261 C 
BRANCH  35  36
ATOM     36  O   UNL A   1      42.675  22.385  25.296  1.00  0.00    -0.460 OA
BRANCH  36  37
ATOM     37  C   UNL A   1      43.423  23.492  25.098  1.00  0.00     0.338 C 
ATOM     38  O   UNL A   1      44.265  23.673  24.235  1.00  0.00    -0.246 OA
BRANCH  37  39
ATOM     39  C   UNL A   1      42.911  24.536  26.006  1.00  0.00     0.060 A 
ATOM     40  C   UNL A   1      43.613  25.743  26.128  1.00  0.00     0.016 A 
ATOM     41  C   UNL A   1      41.727  24.329  26.715  1.00  0.00     0.016 A 
ATOM     42  C   UNL A   1      43.141  26.740  26.983  1.00  0.00     0.010 A 
ATOM     43  C   UNL A   1      41.269  25.317  27.587  1.00  0.00     0.010 A 
ATOM     44  C   UNL A   1      41.988  26.515  27.746  1.00  0.00    -0.014 A 
BRANCH  44  45
ATOM     45  C   UNL A   1      41.631  27.443  28.846  1.00  0.00     0.031 A 
ATOM     46  C   UNL A   1      42.404  27.354  30.131  1.00  0.00     0.074 A 
ATOM     47  C   UNL A   1      40.637  28.337  28.712  1.00  0.00     0.049 A 
ATOM     48  N   UNL A   1      42.219  27.987  31.260  1.00  0.00    -0.248 NA
ATOM     49  C   UNL A   1      43.541  26.416  30.145  1.00  0.00     0.031 C 
ATOM     50  C   UNL A   1      39.839  28.546  27.506  1.00  0.00     0.029 A 
ATOM     51  N   UNL A   1      40.117  29.229  29.620  1.00  0.00    -0.354 N 
ATOM     52  C   UNL A   1      43.202  27.516  32.120  1.00  0.00     0.074 A 
ATOM     53  C   UNL A   1      43.968  26.528  31.394  1.00  0.00     0.031 C 
ATOM     54  C   UNL A   1      38.913  29.489  27.754  1.00  0.00     0.029 A 
ATOM     55  C   UNL A   1      39.029  29.921  29.147  1.00  0.00     0.049 A 
ATOM     56  H   UNL A   1      40.488  29.358  30.521  1.00  0.00     0.167 HD
ATOM     57  C   UNL A   1      43.445  27.878  33.402  1.00  0.00     0.037 A 
ATOM     58  C   UNL A   1      38.203  30.779  29.780  1.00  0.00     0.037 A 
ATOM     59  C   UNL A   1      42.681  28.862  34.122  1.00  0.00     0.049 A 
ATOM     60  C   UNL A   1      38.449  31.109  31.230  1.00  0.00     0.074 A 
ATOM     61  C   UNL A   1      42.869  29.321  35.412  1.00  0.00     0.029 A 
ATOM     62  N   UNL A   1      41.575  29.528  33.615  1.00  0.00    -0.354 N 
ATOM     63  N   UNL A   1      39.404  30.689  32.027  1.00  0.00    -0.248 NA
ATOM     64  C   UNL A   1      37.503  32.035  31.871  1.00  0.00     0.031 C 
ATOM     65  C   UNL A   1      41.840  30.218  35.710  1.00  0.00     0.029 A 
ATOM     66  C   UNL A   1      41.049  30.369  34.581  1.00  0.00     0.049 A 
ATOM     67  H   UNL A   1      41.218  29.420  32.704  1.00  0.00     0.167 HD
ATOM     68  C   UNL A   1      39.190  31.320  33.247  1.00  0.00     0.074 A 
ATOM     69  C   UNL A   1      38.025  32.163  33.082  1.00  0.00     0.031 C 
ATOM     70  C   UNL A   1      39.895  31.211  34.400  1.00  0.00     0.037 A 
BRANCH  57  71
ATOM     71  C   UNL A   1      44.563  27.184  34.121  1.00  0.00     0.057 A 
ATOM     72  C   UNL A   1      45.852  27.725  34.193  1.00  0.00     0.134 A 
ATOM     73  C   UNL A   1      44.331  25.975  34.790  1.00  0.00     0.134 A 
ATOM     74  F   UNL A   1      46.145  28.872  33.561  1.00  0.00    -0.206 F 
ATOM     75  C   UNL A   1      46.876  27.081  34.891  1.00  0.00     0.040 A 
ATOM     76  C   UNL A   1      45.339  25.335  35.514  1.00  0.00     0.040 A 
ATOM     77  F   UNL A   1      43.119  25.402  34.763  1.00  0.00    -0.206 F 
ATOM     78  C   UNL A   1      46.618  25.887  35.562  1.00  0.00     0.006 A 
ENDBRANCH  57  71
BRANCH  58  79
ATOM     79  C   UNL A   1      37.038  31.363  29.063  1.00  0.00     0.057 A 
ATOM     80  C   UNL A   1      37.062  32.678  28.584  1.00  0.00     0.134 A 
ATOM     81  C   UNL A   1      35.858  30.634  28.878  1.00  0.00     0.134 A 
ATOM     82  F   UNL A   1      38.154  33.438  28.753  1.00  0.00    -0.206 F 
ATOM     83  C   UNL A   1      35.949  33.255  27.969  1.00  0.00     0.040 A 
ATOM     84  C   UNL A   1      34.746  31.187  28.238  1.00  0.00     0.040 A 
ATOM     85  F   UNL A   1      35.765  29.370  29.317  1.00  0.00    -0.206 F 
ATOM     86  C   UNL A   1      34.788  32.506  27.792  1.00  0.00     0.006 A 
ENDBRANCH  58  79
BRANCH  70  87
ATOM     87  C   UNL A   1      39.457  32.053  35.565  1.00  0.00     0.057 A 
ATOM     88  C   UNL A   1      38.552  31.580  36.525  1.00  0.00     0.134 A 
ATOM     89  C   UNL A   1      39.994  33.332  35.761  1.00  0.00     0.134 A 
ATOM     90  F   UNL A   1      37.992  30.368  36.393  1.00  0.00    -0.206 F 
ATOM     91  C   UNL A   1      38.180  32.359  37.622  1.00  0.00     0.040 A 
ATOM     92  C   UNL A   1      39.654  34.107  36.870  1.00  0.00     0.040 A 
ATOM     93  F   UNL A   1      40.876  33.841  34.886  1.00  0.00    -0.206 F 
ATOM     94  C   UNL A   1      38.739  33.622  37.802  1.00  0.00     0.006 A 
ENDBRANCH  70  87
ENDBRANCH  44  45
ENDBRANCH  37  39
ENDBRANCH  36  37
ENDBRANCH  35  36
ENDBRANCH  34  35
ENDBRANCH  33  34
ENDBRANCH  32  33
ENDBRANCH  31  32
ENDBRANCH   1  31
TORSDOF 24
ENDMDL
MODEL 3
REMARK VINA RESULT:     -10.4      1.157      6.080
REMARK SMILES COc1ccc(C(F)(F)F)cc1-c1cc(N)cc(C(=O)OCCOCCOCCOCCOC(=O)c2ccc(-c3c4nc(c(-c5c(F)cccc5F)c5ccc([nH]5)c(-c5c(F)cccc5F)c5nc(c(-c6c(F)cccc6F)c6ccc3[nH]6)C=C5)C=C4)cc2)c1
REMARK SMILES IDX 27 1 26 2 25 3 24 4 23 5 22 6 21 7 19 8 20 9 18 10 13 11
REMARK SMILES IDX 14 12 90 13 15 14 17 15 12 16 3 17 4 18 5 19 11 20 6 21 2 22
REMARK SMILES IDX 1 23 7 24 8 25 9 26 10 27 16 28 28 31 29 32 30 33 31 34
REMARK SMILES IDX 32 35 33 36 34 37 35 38 36 39 37 40 89 41 38 42 88 43 39 44
REMARK SMILES IDX 40 45 41 46 82 47 42 48 87 49 81 50 83 51 43 52 86 53 80 54
REMARK SMILES IDX 79 55 44 57 70 58 53 59 69 60 54 61 57 62 68 63 84 64 55 65
REMARK SMILES IDX 56 66 67 68 85 69 58 70 45 71 46 72 51 73 47 74 48 75 50 76
REMARK SMILES IDX 52 77 49 78 71 79 72 80 77 81 73 82 74 83 76 84 78 85 75 86
REMARK SMILES IDX 59 87 60 88 65 89 61 90 62 91 64 92 66 93 63 94
REMARK H PARENT 16 29 16 30 83 56 57 67
REMARK Flexibility Score: inf
ROOT
ATOM      1  O   UNL A   1      44.334  17.846  25.660  1.00  0.00    -0.377 OA
ENDROOT
BRANCH   1   2
ATOM      2  C   UNL A   1      43.256  18.155  26.527  1.00  0.00     0.188 C 
BRANCH   2   3
ATOM      3  C   UNL A   1      42.358  19.324  26.073  1.00  0.00     0.188 C 
BRANCH   3   4
ATOM      4  O   UNL A   1      41.983  20.179  27.140  1.00  0.00    -0.376 OA
BRANCH   4   5
ATOM      5  C   UNL A   1      40.740  20.858  27.108  1.00  0.00     0.202 C 
BRANCH   5   6
ATOM      6  C   UNL A   1      40.528  22.115  26.249  1.00  0.00     0.261 C 
BRANCH   6   7
ATOM      7  O   UNL A   1      39.210  22.328  25.745  1.00  0.00    -0.460 OA
BRANCH   7   8
ATOM      8  C   UNL A   1      38.448  23.266  26.343  1.00  0.00     0.338 C 
ATOM      9  O   UNL A   1      38.831  24.292  26.874  1.00  0.00    -0.246 OA
BRANCH   8  10
ATOM     10  C   UNL A   1      37.033  22.933  26.048  1.00  0.00     0.062 A 
ATOM     11  C   UNL A   1      34.701  23.596  25.878  1.00  0.00    -0.012 A 
ATOM     12  C   UNL A   1      34.399  22.274  25.493  1.00  0.00     0.034 A 
ATOM     13  C   UNL A   1      36.023  23.878  26.243  1.00  0.00     0.024 A 
ATOM     14  C   UNL A   1      35.382  21.278  25.429  1.00  0.00     0.033 A 
ATOM     15  C   UNL A   1      36.712  21.639  25.632  1.00  0.00     0.041 A 
BRANCH  11  16
ATOM     16  C   UNL A   1      33.693  24.677  25.790  1.00  0.00     0.024 A 
ATOM     17  C   UNL A   1      32.349  24.493  26.188  1.00  0.00     0.126 A 
ATOM     18  C   UNL A   1      31.418  25.532  26.095  1.00  0.00     0.047 A 
ATOM     19  C   UNL A   1      31.810  26.790  25.640  1.00  0.00     0.017 A 
ATOM     20  C   UNL A   1      34.058  25.956  25.318  1.00  0.00     0.025 A 
ATOM     21  C   UNL A   1      33.134  27.017  25.244  1.00  0.00     0.056 A 
BRANCH  17  22
ATOM     22  O   UNL A   1      31.828  23.279  26.571  1.00  0.00    -0.496 OA
ATOM     23  C   UNL A   1      30.416  23.312  26.781  1.00  0.00     0.278 C 
ENDBRANCH  17  22
BRANCH  21  24
ATOM     24  C   UNL A   1      33.540  28.380  24.739  1.00  0.00     0.416 C 
ATOM     25  F   UNL A   1      34.341  28.314  23.640  1.00  0.00    -0.166 F 
ATOM     26  F   UNL A   1      32.469  29.139  24.375  1.00  0.00    -0.166 F 
ATOM     27  F   UNL A   1      34.224  29.120  25.656  1.00  0.00    -0.166 F 
ENDBRANCH  21  24
ENDBRANCH  11  16
BRANCH  14  28
ATOM     28  N   UNL A   1      35.055  19.994  25.024  1.00  0.00    -0.399 N 
ATOM     29  H   UNL A   1      35.753  19.396  24.670  1.00  0.00     0.156 HD
ATOM     30  H   UNL A   1      34.126  19.678  25.092  1.00  0.00     0.156 HD
ENDBRANCH  14  28
ENDBRANCH   8  10
ENDBRANCH   7   8
ENDBRANCH   6   7
ENDBRANCH   5   6
ENDBRANCH   4   5
ENDBRANCH   3   4
ENDBRANCH   2   3
ENDBRANCH   1   2
BRANCH   1  31
ATOM     31  C   UNL A   1      44.756  18.821  24.707  1.00  0.00     0.188 C 
BRANCH  31  32
ATOM     32  C   UNL A   1      46.145  19.509  24.759  1.00  0.00     0.188 C 
BRANCH  32  33
ATOM     33  O   UNL A   1      46.123  20.927  24.721  1.00  0.00    -0.376 OA
BRANCH  33  34
ATOM     34  C   UNL A   1      44.915  21.569  24.352  1.00  0.00     0.202 C 
BRANCH  34  35
ATOM     35  C   UNL A   1      44.223  22.389  25.447  1.00  0.00     0.261 C 
BRANCH  35  36
ATOM     36  O   UNL A   1      43.680  23.651  25.030  1.00  0.00    -0.460 OA
BRANCH  36  37
ATOM     37  C   UNL A   1      44.442  24.749  25.222  1.00  0.00     0.338 C 
ATOM     38  O   UNL A   1      45.462  25.055  24.629  1.00  0.00    -0.246 OA
BRANCH  37  39
ATOM     39  C   UNL A   1      43.722  25.626  26.165  1.00  0.00     0.060 A 
ATOM     40  C   UNL A   1      43.996  27.000  26.169  1.00  0.00     0.016 A 
ATOM     41  C   UNL A   1      42.761  25.091  27.024  1.00  0.00     0.016 A 
ATOM     42  C   UNL A   1      43.322  27.842  27.055  1.00  0.00     0.010 A 
ATOM     43  C   UNL A   1      42.105  25.930  27.926  1.00  0.00     0.010 A 
ATOM     44  C   UNL A   1      42.402  27.304  27.964  1.00  0.00    -0.014 A 
BRANCH  44  45
ATOM     45  C   UNL A   1      41.886  28.133  29.080  1.00  0.00     0.031 A 
ATOM     46  C   UNL A   1      42.604  28.076  30.399  1.00  0.00     0.074 A 
ATOM     47  C   UNL A   1      40.801  28.911  28.931  1.00  0.00     0.049 A 
ATOM     48  N   UNL A   1      42.293  28.632  31.541  1.00  0.00    -0.248 NA
ATOM     49  C   UNL A   1      43.842  27.278  30.434  1.00  0.00     0.031 C 
ATOM     50  C   UNL A   1      40.041  29.080  27.694  1.00  0.00     0.029 A 
ATOM     51  N   UNL A   1      40.137  29.694  29.844  1.00  0.00    -0.354 N 
ATOM     52  C   UNL A   1      43.284  28.241  32.431  1.00  0.00     0.074 A 
ATOM     53  C   UNL A   1      44.194  27.382  31.707  1.00  0.00     0.031 C 
ATOM     54  C   UNL A   1      39.000  29.897  27.931  1.00  0.00     0.029 A 
ATOM     55  C   UNL A   1      38.999  30.276  29.344  1.00  0.00     0.049 A 
ATOM     56  H   UNL A   1      40.448  29.825  30.768  1.00  0.00     0.167 HD
ATOM     57  C   UNL A   1      43.422  28.570  33.737  1.00  0.00     0.037 A 
ATOM     58  C   UNL A   1      38.048  31.002  29.966  1.00  0.00     0.037 A 
ATOM     59  C   UNL A   1      42.514  29.424  34.455  1.00  0.00     0.049 A 
ATOM     60  C   UNL A   1      38.186  31.294  31.439  1.00  0.00     0.074 A 
ATOM     61  C   UNL A   1      42.586  29.843  35.770  1.00  0.00     0.029 A 
ATOM     62  N   UNL A   1      41.362  29.980  33.918  1.00  0.00    -0.354 N 
ATOM     63  N   UNL A   1      39.145  30.951  32.267  1.00  0.00    -0.248 NA
ATOM     64  C   UNL A   1      37.108  32.073  32.067  1.00  0.00     0.031 C 
ATOM     65  C   UNL A   1      41.445  30.601  36.049  1.00  0.00     0.029 A 
ATOM     66  C   UNL A   1      40.696  30.709  34.888  1.00  0.00     0.049 A 
ATOM     67  H   UNL A   1      41.063  29.872  32.987  1.00  0.00     0.167 HD
ATOM     68  C   UNL A   1      38.802  31.497  33.498  1.00  0.00     0.074 A 
ATOM     69  C   UNL A   1      37.554  32.205  33.307  1.00  0.00     0.031 C 
ATOM     70  C   UNL A   1      39.460  31.419  34.681  1.00  0.00     0.037 A 
BRANCH  57  71
ATOM     71  C   UNL A   1      44.579  27.978  34.485  1.00  0.00     0.057 A 
ATOM     72  C   UNL A   1      45.796  28.656  34.632  1.00  0.00     0.134 A 
ATOM     73  C   UNL A   1      44.457  26.728  35.106  1.00  0.00     0.134 A 
ATOM     74  F   UNL A   1      45.985  29.849  34.049  1.00  0.00    -0.206 F 
ATOM     75  C   UNL A   1      46.855  28.105  35.356  1.00  0.00     0.040 A 
ATOM     76  C   UNL A   1      45.498  26.179  35.856  1.00  0.00     0.040 A 
ATOM     77  F   UNL A   1      43.318  26.027  35.007  1.00  0.00    -0.206 F 
ATOM     78  C   UNL A   1      46.704  26.867  35.978  1.00  0.00     0.006 A 
ENDBRANCH  57  71
BRANCH  58  79
ATOM     79  C   UNL A   1      36.858  31.480  29.214  1.00  0.00     0.057 A 
ATOM     80  C   UNL A   1      35.772  30.635  28.955  1.00  0.00     0.134 A 
ATOM     81  C   UNL A   1      36.797  32.781  28.699  1.00  0.00     0.134 A 
ATOM     82  F   UNL A   1      35.781  29.369  29.397  1.00  0.00    -0.206 F 
ATOM     83  C   UNL A   1      34.681  31.057  28.192  1.00  0.00     0.040 A 
ATOM     84  C   UNL A   1      35.698  33.226  27.960  1.00  0.00     0.040 A 
ATOM     85  F   UNL A   1      37.805  33.640  28.907  1.00  0.00    -0.206 F 
ATOM     86  C   UNL A   1      34.641  32.358  27.696  1.00  0.00     0.006 A 
ENDBRANCH  58  79
BRANCH  70  87
ATOM     87  C   UNL A   1      38.872  32.150  35.855  1.00  0.00     0.057 A 
ATOM     88  C   UNL A   1      38.123  31.494  36.840  1.00  0.00     0.134 A 
ATOM     89  C   UNL A   1      39.108  33.520  36.030  1.00  0.00     0.134 A 
ATOM     90  F   UNL A   1      37.851  30.184  36.728  1.00  0.00    -0.206 F 
ATOM     91  C   UNL A   1      37.611  32.179  37.944  1.00  0.00     0.040 A 
ATOM     92  C   UNL A   1      38.628  34.208  37.145  1.00  0.00     0.040 A 
ATOM     93  F   UNL A   1      39.828  34.208  35.131  1.00  0.00    -0.206 F 
ATOM     94  C   UNL A   1      37.872  33.538  38.104  1.00  0.00     0.006 A 
ENDBRANCH  70  87
ENDBRANCH  44  45
ENDBRANCH  37  39
ENDBRANCH  36  37
ENDBRANCH  35  36
ENDBRANCH  34  35
ENDBRANCH  33  34
ENDBRANCH  32  33
ENDBRANCH  31  32
ENDBRANCH   1  31
TORSDOF 24
ENDMDL
