MODEL 1
REMARK VINA RESULT:      -7.5      0.000      0.000
REMARK SMILES CS(=O)(=O)c1ccc(/C=C(/C(=O)OCCOCCOCCOCCOC(=O)c2ccc(-c3c4nc(c(-c5c(F)cccc5F)c5ccc([nH]5)c(-c5c(F)cccc5F)c5nc(c(-c6c(F)cccc6F)c6ccc3[nH]6)C=C5)C=C4)cc2)c2ccc(-c3ccc(F)cc3F)cc2)cc1
REMARK SMILES IDX 19 1 18 2 17 3 16 4 15 5 14 6 13 7 11 8 12 9 10 10 9 11 8 12
REMARK SMILES IDX 5 13 6 14 97 15 7 16 96 17 2 18 1 19 3 20 4 21 82 22 83 23
REMARK SMILES IDX 95 24 84 25 94 26 85 27 86 28 87 29 92 30 88 31 91 32 93 33
REMARK SMILES IDX 89 34 90 35 20 36 21 37 22 38 23 39 24 40 25 41 26 42 27 43
REMARK SMILES IDX 28 44 29 45 81 46 30 47 80 48 31 49 32 50 33 51 74 52 34 53
REMARK SMILES IDX 79 54 73 55 75 56 35 57 78 58 72 59 71 60 36 62 62 63 45 64
REMARK SMILES IDX 61 65 46 66 49 67 60 68 76 69 47 70 48 71 59 73 77 74 50 75
REMARK SMILES IDX 37 76 38 77 43 78 39 79 40 80 42 81 44 82 41 83 63 84 64 85
REMARK SMILES IDX 69 86 65 87 66 88 68 89 70 90 67 91 51 92 52 93 57 94 53 95
REMARK SMILES IDX 54 96 56 97 58 98 55 99
REMARK H PARENT 75 61 49 72
REMARK Flexibility Score: inf
ROOT
ATOM      1  O   UNL A   1      37.817  32.323  33.096  1.00  0.00    -0.377 OA
ENDROOT
BRANCH   1   2
ATOM      2  C   UNL A   1      38.872  31.669  33.781  1.00  0.00     0.188 C 
BRANCH   2   3
ATOM      3  C   UNL A   1      39.012  30.136  33.640  1.00  0.00     0.188 C 
BRANCH   3   4
ATOM      4  O   UNL A   1      40.357  29.693  33.609  1.00  0.00    -0.376 OA
BRANCH   4   5
ATOM      5  C   UNL A   1      40.599  28.349  33.240  1.00  0.00     0.202 C 
BRANCH   5   6
ATOM      6  C   UNL A   1      41.237  27.400  34.271  1.00  0.00     0.261 C 
BRANCH   6   7
ATOM      7  O   UNL A   1      41.208  27.826  35.642  1.00  0.00    -0.460 OA
BRANCH   7   8
ATOM      8  C   UNL A   1      41.873  27.066  36.545  1.00  0.00     0.338 C 
ATOM      9  O   UNL A   1      41.349  26.383  37.411  1.00  0.00    -0.246 OA
BRANCH   8  10
ATOM     10  C   UNL A   1      43.346  27.048  36.237  1.00  0.00     0.067 C 
ATOM     11  C   UNL A   1      44.050  28.209  36.244  1.00  0.00     0.024 C 
BRANCH  11  12
ATOM     12  C   UNL A   1      45.524  28.400  36.172  1.00  0.00    -0.025 A 
ATOM     13  C   UNL A   1      48.328  28.367  36.373  1.00  0.00     0.067 A 
ATOM     14  C   UNL A   1      47.716  27.933  35.203  1.00  0.00     0.021 A 
ATOM     15  C   UNL A   1      47.569  28.948  37.387  1.00  0.00     0.021 A 
ATOM     16  C   UNL A   1      46.326  27.991  35.097  1.00  0.00     0.009 A 
ATOM     17  C   UNL A   1      46.172  28.962  37.283  1.00  0.00     0.009 A 
BRANCH  13  18
ATOM     18  S   UNL A   1      50.080  28.149  36.556  1.00  0.00     0.175 S 
ATOM     19  C   UNL A   1      50.433  26.689  35.603  1.00  0.00     0.163 C 
ATOM     20  O   UNL A   1      50.342  27.833  37.947  1.00  0.00    -0.224 OA
ATOM     21  O   UNL A   1      50.715  29.281  35.910  1.00  0.00    -0.224 OA
ENDBRANCH  13  18
ENDBRANCH  11  12
BRANCH  10  22
ATOM     22  C   UNL A   1      43.979  25.740  35.974  1.00  0.00    -0.011 A 
ATOM     23  C   UNL A   1      44.054  25.233  34.666  1.00  0.00     0.009 A 
ATOM     24  C   UNL A   1      44.653  25.071  36.992  1.00  0.00     0.009 A 
ATOM     25  C   UNL A   1      44.836  24.114  34.370  1.00  0.00     0.009 A 
ATOM     26  C   UNL A   1      45.447  23.962  36.690  1.00  0.00     0.009 A 
ATOM     27  C   UNL A   1      45.573  23.475  35.374  1.00  0.00    -0.015 A 
BRANCH  27  28
ATOM     28  C   UNL A   1      46.479  22.356  35.064  1.00  0.00     0.018 A 
ATOM     29  C   UNL A   1      46.010  21.027  35.026  1.00  0.00     0.015 A 
ATOM     30  C   UNL A   1      47.833  22.576  34.762  1.00  0.00     0.133 A 
ATOM     31  C   UNL A   1      46.866  19.975  34.684  1.00  0.00     0.040 A 
ATOM     32  C   UNL A   1      48.689  21.536  34.419  1.00  0.00     0.079 A 
ATOM     33  F   UNL A   1      48.339  23.819  34.795  1.00  0.00    -0.206 F 
ATOM     34  C   UNL A   1      48.194  20.243  34.380  1.00  0.00     0.126 A 
ATOM     35  F   UNL A   1      49.008  19.236  34.038  1.00  0.00    -0.207 F 
ENDBRANCH  27  28
ENDBRANCH  10  22
ENDBRANCH   8  10
ENDBRANCH   7   8
ENDBRANCH   6   7
ENDBRANCH   5   6
ENDBRANCH   4   5
ENDBRANCH   3   4
ENDBRANCH   2   3
ENDBRANCH   1   2
BRANCH   1  36
ATOM     36  C   UNL A   1      36.534  31.708  33.042  1.00  0.00     0.188 C 
BRANCH  36  37
ATOM     37  C   UNL A   1      35.312  32.444  32.443  1.00  0.00     0.188 C 
BRANCH  37  38
ATOM     38  O   UNL A   1      35.578  33.744  31.940  1.00  0.00    -0.376 OA
BRANCH  38  39
ATOM     39  C   UNL A   1      35.573  33.931  30.536  1.00  0.00     0.202 C 
BRANCH  39  40
ATOM     40  C   UNL A   1      34.551  33.115  29.732  1.00  0.00     0.261 C 
BRANCH  40  41
ATOM     41  O   UNL A   1      35.048  32.495  28.537  1.00  0.00    -0.460 OA
BRANCH  41  42
ATOM     42  C   UNL A   1      34.721  31.201  28.347  1.00  0.00     0.338 C 
ATOM     43  O   UNL A   1      33.634  30.756  28.004  1.00  0.00    -0.246 OA
BRANCH  42  44
ATOM     44  C   UNL A   1      35.954  30.398  28.430  1.00  0.00     0.060 A 
ATOM     45  C   UNL A   1      36.341  29.887  29.676  1.00  0.00     0.016 A 
ATOM     46  C   UNL A   1      36.729  30.160  27.292  1.00  0.00     0.016 A 
ATOM     47  C   UNL A   1      37.539  29.189  29.800  1.00  0.00     0.010 A 
ATOM     48  C   UNL A   1      37.943  29.481  27.421  1.00  0.00     0.010 A 
ATOM     49  C   UNL A   1      38.375  29.043  28.686  1.00  0.00    -0.014 A 
BRANCH  49  50
ATOM     50  C   UNL A   1      39.791  28.667  28.912  1.00  0.00     0.031 A 
ATOM     51  C   UNL A   1      40.663  29.626  29.677  1.00  0.00     0.074 A 
ATOM     52  C   UNL A   1      40.271  27.473  28.524  1.00  0.00     0.049 A 
ATOM     53  N   UNL A   1      41.915  29.508  30.037  1.00  0.00    -0.248 NA
ATOM     54  C   UNL A   1      40.034  30.889  30.096  1.00  0.00     0.031 C 
ATOM     55  C   UNL A   1      39.512  26.443  27.817  1.00  0.00     0.029 A 
ATOM     56  N   UNL A   1      41.519  26.925  28.684  1.00  0.00    -0.354 N 
ATOM     57  C   UNL A   1      42.221  30.679  30.720  1.00  0.00     0.074 A 
ATOM     58  C   UNL A   1      41.040  31.513  30.688  1.00  0.00     0.031 C 
ATOM     59  C   UNL A   1      40.313  25.385  27.602  1.00  0.00     0.029 A 
ATOM     60  C   UNL A   1      41.645  25.674  28.133  1.00  0.00     0.049 A 
ATOM     61  H   UNL A   1      42.254  27.386  29.149  1.00  0.00     0.167 HD
ATOM     62  C   UNL A   1      43.377  31.026  31.333  1.00  0.00     0.037 A 
ATOM     63  C   UNL A   1      42.719  24.865  28.060  1.00  0.00     0.037 A 
ATOM     64  C   UNL A   1      44.553  30.197  31.362  1.00  0.00     0.049 A 
ATOM     65  C   UNL A   1      44.016  25.302  28.689  1.00  0.00     0.074 A 
ATOM     66  C   UNL A   1      45.773  30.450  31.961  1.00  0.00     0.029 A 
ATOM     67  N   UNL A   1      44.655  28.954  30.754  1.00  0.00    -0.354 N 
ATOM     68  N   UNL A   1      44.289  26.401  29.353  1.00  0.00    -0.248 NA
ATOM     69  C   UNL A   1      45.153  24.379  28.567  1.00  0.00     0.031 C 
ATOM     70  C   UNL A   1      46.634  29.388  31.667  1.00  0.00     0.029 A 
ATOM     71  C   UNL A   1      45.928  28.439  30.943  1.00  0.00     0.049 A 
ATOM     72  H   UNL A   1      43.932  28.504  30.262  1.00  0.00     0.167 HD
ATOM     73  C   UNL A   1      45.615  26.283  29.757  1.00  0.00     0.074 A 
ATOM     74  C   UNL A   1      46.083  24.999  29.278  1.00  0.00     0.031 C 
ATOM     75  C   UNL A   1      46.379  27.158  30.461  1.00  0.00     0.037 A 
BRANCH  62  76
ATOM     76  C   UNL A   1      43.431  32.373  31.994  1.00  0.00     0.057 A 
ATOM     77  C   UNL A   1      43.133  32.550  33.353  1.00  0.00     0.134 A 
ATOM     78  C   UNL A   1      43.799  33.509  31.262  1.00  0.00     0.134 A 
ATOM     79  F   UNL A   1      42.755  31.509  34.108  1.00  0.00    -0.206 F 
ATOM     80  C   UNL A   1      43.176  33.812  33.951  1.00  0.00     0.040 A 
ATOM     81  C   UNL A   1      43.875  34.770  31.857  1.00  0.00     0.040 A 
ATOM     82  F   UNL A   1      44.097  33.413  29.958  1.00  0.00    -0.206 F 
ATOM     83  C   UNL A   1      43.555  34.924  33.204  1.00  0.00     0.006 A 
ENDBRANCH  62  76
BRANCH  63  84
ATOM     84  C   UNL A   1      42.622  23.557  27.362  1.00  0.00     0.057 A 
ATOM     85  C   UNL A   1      42.190  22.403  28.027  1.00  0.00     0.134 A 
ATOM     86  C   UNL A   1      42.997  23.421  26.019  1.00  0.00     0.134 A 
ATOM     87  F   UNL A   1      41.840  22.461  29.321  1.00  0.00    -0.206 F 
ATOM     88  C   UNL A   1      42.156  21.159  27.393  1.00  0.00     0.040 A 
ATOM     89  C   UNL A   1      42.941  22.190  25.364  1.00  0.00     0.040 A 
ATOM     90  F   UNL A   1      43.420  24.486  25.323  1.00  0.00    -0.206 F 
ATOM     91  C   UNL A   1      42.529  21.053  26.054  1.00  0.00     0.006 A 
ENDBRANCH  63  84
BRANCH  75  92
ATOM     92  C   UNL A   1      47.781  26.731  30.794  1.00  0.00     0.057 A 
ATOM     93  C   UNL A   1      48.875  27.055  29.980  1.00  0.00     0.134 A 
ATOM     94  C   UNL A   1      48.042  25.992  31.956  1.00  0.00     0.134 A 
ATOM     95  F   UNL A   1      48.698  27.754  28.848  1.00  0.00    -0.206 F 
ATOM     96  C   UNL A   1      50.166  26.621  30.285  1.00  0.00     0.040 A 
ATOM     97  C   UNL A   1      49.333  25.583  32.290  1.00  0.00     0.040 A 
ATOM     98  F   UNL A   1      47.045  25.659  32.791  1.00  0.00    -0.206 F 
ATOM     99  C   UNL A   1      50.399  25.886  31.446  1.00  0.00     0.006 A 
ENDBRANCH  75  92
ENDBRANCH  49  50
ENDBRANCH  42  44
ENDBRANCH  41  42
ENDBRANCH  40  41
ENDBRANCH  39  40
ENDBRANCH  38  39
ENDBRANCH  37  38
ENDBRANCH  36  37
ENDBRANCH   1  36
TORSDOF 24
ENDMDL
MODEL 2
REMARK VINA RESULT:      -7.5      4.517     10.404
REMARK SMILES CS(=O)(=O)c1ccc(/C=C(/C(=O)OCCOCCOCCOCCOC(=O)c2ccc(-c3c4nc(c(-c5c(F)cccc5F)c5ccc([nH]5)c(-c5c(F)cccc5F)c5nc(c(-c6c(F)cccc6F)c6ccc3[nH]6)C=C5)C=C4)cc2)c2ccc(-c3ccc(F)cc3F)cc2)cc1
REMARK SMILES IDX 19 1 18 2 17 3 16 4 15 5 14 6 13 7 11 8 12 9 10 10 9 11 8 12
REMARK SMILES IDX 5 13 6 14 97 15 7 16 96 17 2 18 1 19 3 20 4 21 82 22 83 23
REMARK SMILES IDX 95 24 84 25 94 26 85 27 86 28 87 29 92 30 88 31 91 32 93 33
REMARK SMILES IDX 89 34 90 35 20 36 21 37 22 38 23 39 24 40 25 41 26 42 27 43
REMARK SMILES IDX 28 44 29 45 81 46 30 47 80 48 31 49 32 50 33 51 74 52 34 53
REMARK SMILES IDX 79 54 73 55 75 56 35 57 78 58 72 59 71 60 36 62 62 63 45 64
REMARK SMILES IDX 61 65 46 66 49 67 60 68 76 69 47 70 48 71 59 73 77 74 50 75
REMARK SMILES IDX 37 76 38 77 43 78 39 79 40 80 42 81 44 82 41 83 63 84 64 85
REMARK SMILES IDX 69 86 65 87 66 88 68 89 70 90 67 91 51 92 52 93 57 94 53 95
REMARK SMILES IDX 54 96 56 97 58 98 55 99
REMARK H PARENT 75 61 49 72
REMARK Flexibility Score: inf
ROOT
ATOM      1  O   UNL A   1      45.347  21.248  24.739  1.00  0.00    -0.377 OA
ENDROOT
BRANCH   1   2
ATOM      2  C   UNL A   1      45.802  22.268  25.613  1.00  0.00     0.188 C 
BRANCH   2   3
ATOM      3  C   UNL A   1      46.544  23.485  25.014  1.00  0.00     0.188 C 
BRANCH   3   4
ATOM      4  O   UNL A   1      46.188  24.715  25.618  1.00  0.00    -0.376 OA
BRANCH   4   5
ATOM      5  C   UNL A   1      46.442  25.902  24.891  1.00  0.00     0.202 C 
BRANCH   5   6
ATOM      6  C   UNL A   1      46.383  27.252  25.629  1.00  0.00     0.261 C 
BRANCH   6   7
ATOM      7  O   UNL A   1      45.554  27.308  26.802  1.00  0.00    -0.460 OA
BRANCH   7   8
ATOM      8  C   UNL A   1      44.725  28.372  26.928  1.00  0.00     0.338 C 
ATOM      9  O   UNL A   1      43.513  28.339  26.790  1.00  0.00    -0.246 OA
BRANCH   8  10
ATOM     10  C   UNL A   1      45.482  29.576  27.421  1.00  0.00     0.067 C 
ATOM     11  C   UNL A   1      46.765  29.438  27.844  1.00  0.00     0.024 C 
BRANCH  11  12
ATOM     12  C   UNL A   1      47.751  30.502  28.174  1.00  0.00    -0.025 A 
ATOM     13  C   UNL A   1      49.413  32.760  28.387  1.00  0.00     0.067 A 
ATOM     14  C   UNL A   1      48.412  32.551  29.327  1.00  0.00     0.021 A 
ATOM     15  C   UNL A   1      49.687  31.788  27.425  1.00  0.00     0.021 A 
ATOM     16  C   UNL A   1      47.618  31.406  29.237  1.00  0.00     0.009 A 
ATOM     17  C   UNL A   1      48.856  30.665  27.323  1.00  0.00     0.009 A 
BRANCH  13  18
ATOM     18  S   UNL A   1      50.315  34.288  28.420  1.00  0.00     0.175 S 
ATOM     19  C   UNL A   1      49.101  35.493  28.907  1.00  0.00     0.163 C 
ATOM     20  O   UNL A   1      50.712  34.596  27.059  1.00  0.00    -0.224 OA
ATOM     21  O   UNL A   1      51.297  34.175  29.481  1.00  0.00    -0.224 OA
ENDBRANCH  13  18
ENDBRANCH  11  12
BRANCH  10  22
ATOM     22  C   UNL A   1      44.795  30.882  27.387  1.00  0.00    -0.011 A 
ATOM     23  C   UNL A   1      44.000  31.301  28.468  1.00  0.00     0.009 A 
ATOM     24  C   UNL A   1      45.057  31.784  26.359  1.00  0.00     0.009 A 
ATOM     25  C   UNL A   1      43.527  32.612  28.550  1.00  0.00     0.009 A 
ATOM     26  C   UNL A   1      44.596  33.099  26.452  1.00  0.00     0.009 A 
ATOM     27  C   UNL A   1      43.842  33.546  27.555  1.00  0.00    -0.015 A 
BRANCH  27  28
ATOM     28  C   UNL A   1      43.436  34.956  27.674  1.00  0.00     0.018 A 
ATOM     29  C   UNL A   1      43.626  35.670  28.875  1.00  0.00     0.015 A 
ATOM     30  C   UNL A   1      42.877  35.650  26.588  1.00  0.00     0.133 A 
ATOM     31  C   UNL A   1      43.281  37.023  28.966  1.00  0.00     0.040 A 
ATOM     32  C   UNL A   1      42.535  36.994  26.670  1.00  0.00     0.079 A 
ATOM     33  F   UNL A   1      42.661  35.018  25.424  1.00  0.00    -0.206 F 
ATOM     34  C   UNL A   1      42.744  37.670  27.861  1.00  0.00     0.126 A 
ATOM     35  F   UNL A   1      42.429  38.969  27.946  1.00  0.00    -0.207 F 
ENDBRANCH  27  28
ENDBRANCH  10  22
ENDBRANCH   8  10
ENDBRANCH   7   8
ENDBRANCH   6   7
ENDBRANCH   5   6
ENDBRANCH   4   5
ENDBRANCH   3   4
ENDBRANCH   2   3
ENDBRANCH   1   2
BRANCH   1  36
ATOM     36  C   UNL A   1      46.078  20.029  24.651  1.00  0.00     0.188 C 
BRANCH  36  37
ATOM     37  C   UNL A   1      45.611  18.755  25.394  1.00  0.00     0.188 C 
BRANCH  37  38
ATOM     38  O   UNL A   1      44.287  18.337  25.103  1.00  0.00    -0.376 OA
BRANCH  38  39
ATOM     39  C   UNL A   1      43.551  17.689  26.125  1.00  0.00     0.202 C 
BRANCH  39  40
ATOM     40  C   UNL A   1      43.078  18.560  27.297  1.00  0.00     0.261 C 
BRANCH  40  41
ATOM     41  O   UNL A   1      41.762  19.118  27.169  1.00  0.00    -0.460 OA
BRANCH  41  42
ATOM     42  C   UNL A   1      41.574  20.002  26.169  1.00  0.00     0.338 C 
ATOM     43  O   UNL A   1      41.254  19.754  25.014  1.00  0.00    -0.246 OA
BRANCH  42  44
ATOM     44  C   UNL A   1      41.628  21.360  26.738  1.00  0.00     0.060 A 
ATOM     45  C   UNL A   1      42.248  22.375  25.997  1.00  0.00     0.016 A 
ATOM     46  C   UNL A   1      41.084  21.629  27.996  1.00  0.00     0.016 A 
ATOM     47  C   UNL A   1      42.381  23.650  26.541  1.00  0.00     0.010 A 
ATOM     48  C   UNL A   1      41.239  22.901  28.552  1.00  0.00     0.010 A 
ATOM     49  C   UNL A   1      41.937  23.898  27.846  1.00  0.00    -0.014 A 
BRANCH  49  50
ATOM     50  C   UNL A   1      42.436  25.108  28.543  1.00  0.00     0.031 A 
ATOM     51  C   UNL A   1      41.447  26.197  28.861  1.00  0.00     0.074 A 
ATOM     52  C   UNL A   1      43.710  25.203  28.957  1.00  0.00     0.049 A 
ATOM     53  N   UNL A   1      41.627  27.327  29.496  1.00  0.00    -0.248 NA
ATOM     54  C   UNL A   1      40.065  25.980  28.401  1.00  0.00     0.031 C 
ATOM     55  C   UNL A   1      44.748  24.196  28.749  1.00  0.00     0.029 A 
ATOM     56  N   UNL A   1      44.342  26.203  29.653  1.00  0.00    -0.354 N 
ATOM     57  C   UNL A   1      40.386  27.952  29.510  1.00  0.00     0.074 A 
ATOM     58  C   UNL A   1      39.471  27.100  28.784  1.00  0.00     0.031 C 
ATOM     59  C   UNL A   1      45.891  24.630  29.306  1.00  0.00     0.029 A 
ATOM     60  C   UNL A   1      45.672  25.954  29.886  1.00  0.00     0.049 A 
ATOM     61  H   UNL A   1      43.886  27.020  29.956  1.00  0.00     0.167 HD
ATOM     62  C   UNL A   1      40.034  29.124  30.087  1.00  0.00     0.037 A 
ATOM     63  C   UNL A   1      46.603  26.718  30.489  1.00  0.00     0.037 A 
ATOM     64  C   UNL A   1      40.946  29.973  30.807  1.00  0.00     0.049 A 
ATOM     65  C   UNL A   1      46.203  28.053  31.063  1.00  0.00     0.074 A 
ATOM     66  C   UNL A   1      40.690  31.177  31.437  1.00  0.00     0.029 A 
ATOM     67  N   UNL A   1      42.296  29.708  30.983  1.00  0.00    -0.354 N 
ATOM     68  N   UNL A   1      45.022  28.625  31.093  1.00  0.00    -0.248 NA
ATOM     69  C   UNL A   1      47.266  28.843  31.700  1.00  0.00     0.031 C 
ATOM     70  C   UNL A   1      41.896  31.671  31.943  1.00  0.00     0.029 A 
ATOM     71  C   UNL A   1      42.892  30.740  31.691  1.00  0.00     0.049 A 
ATOM     72  H   UNL A   1      42.763  28.906  30.655  1.00  0.00     0.167 HD
ATOM     73  C   UNL A   1      45.194  29.822  31.780  1.00  0.00     0.074 A 
ATOM     74  C   UNL A   1      46.589  29.883  32.165  1.00  0.00     0.031 C 
ATOM     75  C   UNL A   1      44.283  30.785  32.068  1.00  0.00     0.037 A 
BRANCH  62  76
ATOM     76  C   UNL A   1      38.607  29.568  29.935  1.00  0.00     0.057 A 
ATOM     77  C   UNL A   1      37.664  29.415  30.960  1.00  0.00     0.134 A 
ATOM     78  C   UNL A   1      38.174  30.170  28.746  1.00  0.00     0.134 A 
ATOM     79  F   UNL A   1      38.006  28.829  32.118  1.00  0.00    -0.206 F 
ATOM     80  C   UNL A   1      36.337  29.821  30.800  1.00  0.00     0.040 A 
ATOM     81  C   UNL A   1      36.859  30.607  28.585  1.00  0.00     0.040 A 
ATOM     82  F   UNL A   1      39.023  30.347  27.723  1.00  0.00    -0.206 F 
ATOM     83  C   UNL A   1      35.934  30.426  29.612  1.00  0.00     0.006 A 
ENDBRANCH  62  76
BRANCH  63  84
ATOM     84  C   UNL A   1      48.010  26.248  30.581  1.00  0.00     0.057 A 
ATOM     85  C   UNL A   1      48.893  26.370  29.502  1.00  0.00     0.134 A 
ATOM     86  C   UNL A   1      48.495  25.629  31.740  1.00  0.00     0.134 A 
ATOM     87  F   UNL A   1      48.483  26.931  28.354  1.00  0.00    -0.206 F 
ATOM     88  C   UNL A   1      50.197  25.874  29.561  1.00  0.00     0.040 A 
ATOM     89  C   UNL A   1      49.804  25.155  31.824  1.00  0.00     0.040 A 
ATOM     90  F   UNL A   1      47.700  25.480  32.811  1.00  0.00    -0.206 F 
ATOM     91  C   UNL A   1      50.657  25.268  30.729  1.00  0.00     0.006 A 
ENDBRANCH  63  84
BRANCH  75  92
ATOM     92  C   UNL A   1      44.757  31.960  32.877  1.00  0.00     0.057 A 
ATOM     93  C   UNL A   1      44.636  32.004  34.273  1.00  0.00     0.134 A 
ATOM     94  C   UNL A   1      45.354  33.061  32.249  1.00  0.00     0.134 A 
ATOM     95  F   UNL A   1      44.067  30.988  34.939  1.00  0.00    -0.206 F 
ATOM     96  C   UNL A   1      45.049  33.117  35.007  1.00  0.00     0.040 A 
ATOM     97  C   UNL A   1      45.804  34.164  32.975  1.00  0.00     0.040 A 
ATOM     98  F   UNL A   1      45.518  33.081  30.917  1.00  0.00    -0.206 F 
ATOM     99  C   UNL A   1      45.640  34.200  34.358  1.00  0.00     0.006 A 
ENDBRANCH  75  92
ENDBRANCH  49  50
ENDBRANCH  42  44
ENDBRANCH  41  42
ENDBRANCH  40  41
ENDBRANCH  39  40
ENDBRANCH  38  39
ENDBRANCH  37  38
ENDBRANCH  36  37
ENDBRANCH   1  36
TORSDOF 24
ENDMDL
MODEL 3
REMARK VINA RESULT:      -7.4      0.650      5.649
REMARK SMILES CS(=O)(=O)c1ccc(/C=C(/C(=O)OCCOCCOCCOCCOC(=O)c2ccc(-c3c4nc(c(-c5c(F)cccc5F)c5ccc([nH]5)c(-c5c(F)cccc5F)c5nc(c(-c6c(F)cccc6F)c6ccc3[nH]6)C=C5)C=C4)cc2)c2ccc(-c3ccc(F)cc3F)cc2)cc1
REMARK SMILES IDX 19 1 18 2 17 3 16 4 15 5 14 6 13 7 11 8 12 9 10 10 9 11 8 12
REMARK SMILES IDX 5 13 6 14 97 15 7 16 96 17 2 18 1 19 3 20 4 21 82 22 83 23
REMARK SMILES IDX 95 24 84 25 94 26 85 27 86 28 87 29 92 30 88 31 91 32 93 33
REMARK SMILES IDX 89 34 90 35 20 36 21 37 22 38 23 39 24 40 25 41 26 42 27 43
REMARK SMILES IDX 28 44 29 45 81 46 30 47 80 48 31 49 32 50 33 51 74 52 34 53
REMARK SMILES IDX 79 54 73 55 75 56 35 57 78 58 72 59 71 60 36 62 62 63 45 64
REMARK SMILES IDX 61 65 46 66 49 67 60 68 76 69 47 70 48 71 59 73 77 74 50 75
REMARK SMILES IDX 37 76 38 77 43 78 39 79 40 80 42 81 44 82 41 83 63 84 64 85
REMARK SMILES IDX 69 86 65 87 66 88 68 89 70 90 67 91 51 92 52 93 57 94 53 95
REMARK SMILES IDX 54 96 56 97 58 98 55 99
REMARK H PARENT 75 61 49 72
REMARK Flexibility Score: inf
ROOT
ATOM      1  O   UNL A   1      37.878  32.302  33.194  1.00  0.00    -0.377 OA
ENDROOT
BRANCH   1   2
ATOM      2  C   UNL A   1      38.922  31.694  33.938  1.00  0.00     0.188 C 
BRANCH   2   3
ATOM      3  C   UNL A   1      39.059  30.155  33.908  1.00  0.00     0.188 C 
BRANCH   3   4
ATOM      4  O   UNL A   1      40.397  29.710  33.780  1.00  0.00    -0.376 OA
BRANCH   4   5
ATOM      5  C   UNL A   1      40.609  28.374  33.366  1.00  0.00     0.202 C 
BRANCH   5   6
ATOM      6  C   UNL A   1      41.338  27.409  34.319  1.00  0.00     0.261 C 
BRANCH   6   7
ATOM      7  O   UNL A   1      41.347  27.764  35.711  1.00  0.00    -0.460 OA
BRANCH   7   8
ATOM      8  C   UNL A   1      41.970  26.917  36.565  1.00  0.00     0.338 C 
ATOM      9  O   UNL A   1      41.407  26.135  37.315  1.00  0.00    -0.246 OA
BRANCH   8  10
ATOM     10  C   UNL A   1      43.459  26.953  36.353  1.00  0.00     0.067 C 
ATOM     11  C   UNL A   1      44.136  28.117  36.526  1.00  0.00     0.024 C 
BRANCH  11  12
ATOM     12  C   UNL A   1      45.607  28.337  36.569  1.00  0.00    -0.025 A 
ATOM     13  C   UNL A   1      48.282  29.180  36.372  1.00  0.00     0.067 A 
ATOM     14  C   UNL A   1      47.624  29.257  37.594  1.00  0.00     0.021 A 
ATOM     15  C   UNL A   1      47.671  28.560  35.283  1.00  0.00     0.021 A 
ATOM     16  C   UNL A   1      46.309  28.798  37.691  1.00  0.00     0.009 A 
ATOM     17  C   UNL A   1      46.338  28.142  35.386  1.00  0.00     0.009 A 
BRANCH  13  18
ATOM     18  S   UNL A   1      49.897  29.903  36.222  1.00  0.00     0.175 S 
ATOM     19  C   UNL A   1      50.412  30.159  37.905  1.00  0.00     0.163 C 
ATOM     20  O   UNL A   1      49.740  31.210  35.612  1.00  0.00    -0.224 OA
ATOM     21  O   UNL A   1      50.755  28.896  35.629  1.00  0.00    -0.224 OA
ENDBRANCH  13  18
ENDBRANCH  11  12
BRANCH  10  22
ATOM     22  C   UNL A   1      44.135  25.689  35.997  1.00  0.00    -0.011 A 
ATOM     23  C   UNL A   1      44.355  25.351  34.651  1.00  0.00     0.009 A 
ATOM     24  C   UNL A   1      44.708  24.898  36.989  1.00  0.00     0.009 A 
ATOM     25  C   UNL A   1      45.180  24.280  34.302  1.00  0.00     0.009 A 
ATOM     26  C   UNL A   1      45.545  23.837  36.637  1.00  0.00     0.009 A 
ATOM     27  C   UNL A   1      45.816  23.519  35.291  1.00  0.00    -0.015 A 
BRANCH  27  28
ATOM     28  C   UNL A   1      46.766  22.450  34.941  1.00  0.00     0.018 A 
ATOM     29  C   UNL A   1      46.333  21.120  34.765  1.00  0.00     0.015 A 
ATOM     30  C   UNL A   1      48.129  22.722  34.738  1.00  0.00     0.133 A 
ATOM     31  C   UNL A   1      47.233  20.118  34.387  1.00  0.00     0.040 A 
ATOM     32  C   UNL A   1      49.028  21.732  34.359  1.00  0.00     0.079 A 
ATOM     33  F   UNL A   1      48.601  23.967  34.905  1.00  0.00    -0.206 F 
ATOM     34  C   UNL A   1      48.569  20.437  34.183  1.00  0.00     0.126 A 
ATOM     35  F   UNL A   1      49.426  19.480  33.806  1.00  0.00    -0.207 F 
ENDBRANCH  27  28
ENDBRANCH  10  22
ENDBRANCH   8  10
ENDBRANCH   7   8
ENDBRANCH   6   7
ENDBRANCH   5   6
ENDBRANCH   4   5
ENDBRANCH   3   4
ENDBRANCH   2   3
ENDBRANCH   1   2
BRANCH   1  36
ATOM     36  C   UNL A   1      36.640  31.616  33.044  1.00  0.00     0.188 C 
BRANCH  36  37
ATOM     37  C   UNL A   1      35.447  32.261  32.299  1.00  0.00     0.188 C 
BRANCH  37  38
ATOM     38  O   UNL A   1      35.698  33.549  31.759  1.00  0.00    -0.376 OA
BRANCH  38  39
ATOM     39  C   UNL A   1      35.613  33.711  30.354  1.00  0.00     0.202 C 
BRANCH  39  40
ATOM     40  C   UNL A   1      34.582  32.845  29.618  1.00  0.00     0.261 C 
BRANCH  40  41
ATOM     41  O   UNL A   1      35.008  32.299  28.361  1.00  0.00    -0.460 OA
BRANCH  41  42
ATOM     42  C   UNL A   1      34.818  30.977  28.180  1.00  0.00     0.338 C 
ATOM     43  O   UNL A   1      33.811  30.425  27.758  1.00  0.00    -0.246 OA
BRANCH  42  44
ATOM     44  C   UNL A   1      36.107  30.294  28.394  1.00  0.00     0.060 A 
ATOM     45  C   UNL A   1      36.369  29.733  29.651  1.00  0.00     0.016 A 
ATOM     46  C   UNL A   1      37.053  30.217  27.370  1.00  0.00     0.016 A 
ATOM     47  C   UNL A   1      37.607  29.148  29.906  1.00  0.00     0.010 A 
ATOM     48  C   UNL A   1      38.303  29.652  27.633  1.00  0.00     0.010 A 
ATOM     49  C   UNL A   1      38.600  29.166  28.919  1.00  0.00    -0.014 A 
BRANCH  49  50
ATOM     50  C   UNL A   1      40.003  28.914  29.326  1.00  0.00     0.031 A 
ATOM     51  C   UNL A   1      40.649  27.630  28.878  1.00  0.00     0.074 A 
ATOM     52  C   UNL A   1      40.714  29.833  30.000  1.00  0.00     0.049 A 
ATOM     53  N   UNL A   1      41.869  27.200  29.069  1.00  0.00    -0.248 NA
ATOM     54  C   UNL A   1      39.800  26.706  28.107  1.00  0.00     0.031 C 
ATOM     55  C   UNL A   1      40.214  31.131  30.449  1.00  0.00     0.029 A 
ATOM     56  N   UNL A   1      42.021  29.811  30.417  1.00  0.00    -0.354 N 
ATOM     57  C   UNL A   1      41.932  25.960  28.444  1.00  0.00     0.074 A 
ATOM     58  C   UNL A   1      40.618  25.686  27.908  1.00  0.00     0.031 C 
ATOM     59  C   UNL A   1      41.205  31.783  31.081  1.00  0.00     0.029 A 
ATOM     60  C   UNL A   1      42.398  30.939  31.104  1.00  0.00     0.049 A 
ATOM     61  H   UNL A   1      42.630  29.058  30.241  1.00  0.00     0.167 HD
ATOM     62  C   UNL A   1      42.992  25.128  28.316  1.00  0.00     0.037 A 
ATOM     63  C   UNL A   1      43.572  31.243  31.691  1.00  0.00     0.037 A 
ATOM     64  C   UNL A   1      44.299  25.402  28.854  1.00  0.00     0.049 A 
ATOM     65  C   UNL A   1      44.718  30.269  31.595  1.00  0.00     0.074 A 
ATOM     66  C   UNL A   1      45.444  24.630  28.774  1.00  0.00     0.029 A 
ATOM     67  N   UNL A   1      44.630  26.535  29.582  1.00  0.00    -0.354 N 
ATOM     68  N   UNL A   1      44.776  29.110  30.983  1.00  0.00    -0.248 NA
ATOM     69  C   UNL A   1      45.969  30.654  32.264  1.00  0.00     0.031 C 
ATOM     70  C   UNL A   1      46.452  25.266  29.503  1.00  0.00     0.029 A 
ATOM     71  C   UNL A   1      45.956  26.470  29.979  1.00  0.00     0.049 A 
ATOM     72  H   UNL A   1      44.015  27.276  29.786  1.00  0.00     0.167 HD
ATOM     73  C   UNL A   1      46.075  28.646  31.164  1.00  0.00     0.074 A 
ATOM     74  C   UNL A   1      46.775  29.659  31.926  1.00  0.00     0.031 C 
ATOM     75  C   UNL A   1      46.640  27.488  30.737  1.00  0.00     0.037 A 
BRANCH  62  76
ATOM     76  C   UNL A   1      42.769  23.832  27.591  1.00  0.00     0.057 A 
ATOM     77  C   UNL A   1      42.378  22.663  28.257  1.00  0.00     0.134 A 
ATOM     78  C   UNL A   1      42.935  23.758  26.202  1.00  0.00     0.134 A 
ATOM     79  F   UNL A   1      42.219  22.659  29.589  1.00  0.00    -0.206 F 
ATOM     80  C   UNL A   1      42.185  21.461  27.571  1.00  0.00     0.040 A 
ATOM     81  C   UNL A   1      42.716  22.570  25.502  1.00  0.00     0.040 A 
ATOM     82  F   UNL A   1      43.309  24.839  25.501  1.00  0.00    -0.206 F 
ATOM     83  C   UNL A   1      42.347  21.415  26.189  1.00  0.00     0.006 A 
ENDBRANCH  62  76
BRANCH  63  84
ATOM     84  C   UNL A   1      43.729  32.523  32.428  1.00  0.00     0.057 A 
ATOM     85  C   UNL A   1      43.344  32.647  33.768  1.00  0.00     0.134 A 
ATOM     86  C   UNL A   1      44.233  33.668  31.796  1.00  0.00     0.134 A 
ATOM     87  F   UNL A   1      42.830  31.595  34.422  1.00  0.00    -0.206 F 
ATOM     88  C   UNL A   1      43.430  33.864  34.447  1.00  0.00     0.040 A 
ATOM     89  C   UNL A   1      44.353  34.883  32.471  1.00  0.00     0.040 A 
ATOM     90  F   UNL A   1      44.621  33.618  30.514  1.00  0.00    -0.206 F 
ATOM     91  C   UNL A   1      43.942  34.986  33.797  1.00  0.00     0.006 A 
ENDBRANCH  63  84
BRANCH  75  92
ATOM     92  C   UNL A   1      48.096  27.280  31.046  1.00  0.00     0.057 A 
ATOM     93  C   UNL A   1      49.114  27.796  30.231  1.00  0.00     0.134 A 
ATOM     94  C   UNL A   1      48.487  26.560  32.182  1.00  0.00     0.134 A 
ATOM     95  F   UNL A   1      48.813  28.489  29.123  1.00  0.00    -0.206 F 
ATOM     96  C   UNL A   1      50.462  27.565  30.512  1.00  0.00     0.040 A 
ATOM     97  C   UNL A   1      49.831  26.353  32.493  1.00  0.00     0.040 A 
ATOM     98  F   UNL A   1      47.567  26.050  33.017  1.00  0.00    -0.206 F 
ATOM     99  C   UNL A   1      50.824  26.844  31.649  1.00  0.00     0.006 A 
ENDBRANCH  75  92
ENDBRANCH  49  50
ENDBRANCH  42  44
ENDBRANCH  41  42
ENDBRANCH  40  41
ENDBRANCH  39  40
ENDBRANCH  38  39
ENDBRANCH  37  38
ENDBRANCH  36  37
ENDBRANCH   1  36
TORSDOF 24
ENDMDL
