MODEL 1
REMARK VINA RESULT:     -10.0      0.000      0.000
REMARK SMILES CC(C)c1nc(OCC(=O)OCCOCCOCCOCCOC(=O)c2ccc(-c3c4nc(c(-c5c(F)cccc5F)c5ccc([nH]5)c(-c5c(F)cccc5F)c5nc(c(-c6c(F)cccc6F)c6ccc3[nH]6)C=C5)C=C4)cc2)cc(-c2ccccn2)n1
REMARK SMILES IDX 16 1 15 2 14 3 13 4 12 5 11 6 9 7 10 8 8 9 7 10 6 11 4 12
REMARK SMILES IDX 5 13 88 14 81 15 80 16 2 17 1 18 3 19 82 20 83 21 87 22
REMARK SMILES IDX 84 23 86 24 85 25 17 26 18 27 19 28 20 29 21 30 22 31 23 32
REMARK SMILES IDX 24 33 25 34 26 35 27 36 79 37 28 38 78 39 29 40 30 41 31 42
REMARK SMILES IDX 72 43 32 44 77 45 71 46 73 47 33 48 76 49 70 50 69 51 34 53
REMARK SMILES IDX 60 54 43 55 59 56 44 57 47 58 58 59 74 60 45 61 46 62 57 64
REMARK SMILES IDX 75 65 48 66 35 67 36 68 41 69 37 70 38 71 40 72 42 73 39 74
REMARK SMILES IDX 61 75 62 76 67 77 63 78 64 79 66 80 68 81 65 82 49 83 50 84
REMARK SMILES IDX 55 85 51 86 52 87 54 88 56 89 53 90
REMARK H PARENT 73 52 47 63
REMARK Flexibility Score: inf
ROOT
ATOM      1  C   UNL A   1      34.531  22.523  26.876  1.00  0.00     0.188 C 
ENDROOT
BRANCH   1   2
ATOM      2  C   UNL A   1      33.073  22.063  27.051  1.00  0.00     0.188 C 
BRANCH   2   3
ATOM      3  O   UNL A   1      32.103  22.890  27.666  1.00  0.00    -0.376 OA
BRANCH   3   4
ATOM      4  C   UNL A   1      31.471  23.884  26.881  1.00  0.00     0.202 C 
BRANCH   4   5
ATOM      5  C   UNL A   1      31.115  23.616  25.400  1.00  0.00     0.261 C 
BRANCH   5   6
ATOM      6  O   UNL A   1      31.544  24.593  24.426  1.00  0.00    -0.461 OA
BRANCH   6   7
ATOM      7  C   UNL A   1      31.950  24.135  23.213  1.00  0.00     0.344 C 
ATOM      8  O   UNL A   1      31.936  22.954  22.884  1.00  0.00    -0.248 OA
BRANCH   7   9
ATOM      9  C   UNL A   1      32.435  25.267  22.267  1.00  0.00     0.353 C 
BRANCH   9  10
ATOM     10  O   UNL A   1      33.205  26.365  22.730  1.00  0.00    -0.466 OA
BRANCH  10  11
ATOM     11  C   UNL A   1      32.663  27.519  23.227  1.00  0.00     0.217 A 
ATOM     12  C   UNL A   1      32.392  28.683  25.212  1.00  0.00     0.135 A 
ATOM     13  N   UNL A   1      33.003  27.703  24.518  1.00  0.00    -0.198 NA
ATOM     14  N   UNL A   1      31.405  29.431  24.701  1.00  0.00    -0.231 NA
ATOM     15  C   UNL A   1      31.050  29.232  23.405  1.00  0.00     0.096 A 
ATOM     16  C   UNL A   1      31.723  28.314  22.603  1.00  0.00     0.099 A 
BRANCH  12  17
ATOM     17  C   UNL A   1      32.683  28.771  26.706  1.00  0.00     0.051 C 
ATOM     18  C   UNL A   1      32.911  30.213  27.162  1.00  0.00     0.016 C 
ATOM     19  C   UNL A   1      31.615  28.132  27.606  1.00  0.00     0.016 C 
ENDBRANCH  12  17
BRANCH  15  20
ATOM     20  C   UNL A   1      29.775  29.894  22.998  1.00  0.00     0.089 A 
ATOM     21  C   UNL A   1      29.126  30.834  23.808  1.00  0.00     0.030 A 
ATOM     22  N   UNL A   1      29.346  29.667  21.727  1.00  0.00    -0.255 NA
ATOM     23  C   UNL A   1      28.096  31.616  23.286  1.00  0.00     0.004 A 
ATOM     24  C   UNL A   1      28.313  30.409  21.259  1.00  0.00     0.112 A 
ATOM     25  C   UNL A   1      27.679  31.403  21.982  1.00  0.00     0.020 A 
ENDBRANCH  15  20
ENDBRANCH  10  11
ENDBRANCH   9  10
ENDBRANCH   7   9
ENDBRANCH   6   7
ENDBRANCH   5   6
ENDBRANCH   4   5
ENDBRANCH   3   4
ENDBRANCH   2   3
ENDBRANCH   1   2
BRANCH   1  26
ATOM     26  O   UNL A   1      35.354  21.492  26.361  1.00  0.00    -0.377 OA
BRANCH  26  27
ATOM     27  C   UNL A   1      35.542  21.536  24.952  1.00  0.00     0.188 C 
BRANCH  27  28
ATOM     28  C   UNL A   1      36.987  21.594  24.409  1.00  0.00     0.188 C 
BRANCH  28  29
ATOM     29  O   UNL A   1      37.848  22.430  25.165  1.00  0.00    -0.376 OA
BRANCH  29  30
ATOM     30  C   UNL A   1      38.772  21.854  26.071  1.00  0.00     0.202 C 
BRANCH  30  31
ATOM     31  C   UNL A   1      39.353  20.552  25.526  1.00  0.00     0.261 C 
BRANCH  31  32
ATOM     32  O   UNL A   1      40.270  19.919  26.420  1.00  0.00    -0.460 OA
BRANCH  32  33
ATOM     33  C   UNL A   1      41.563  19.995  26.056  1.00  0.00     0.338 C 
ATOM     34  O   UNL A   1      42.161  19.284  25.262  1.00  0.00    -0.246 OA
BRANCH  33  35
ATOM     35  C   UNL A   1      42.073  21.259  26.592  1.00  0.00     0.060 A 
ATOM     36  C   UNL A   1      42.093  21.406  27.983  1.00  0.00     0.016 A 
ATOM     37  C   UNL A   1      42.599  22.242  25.747  1.00  0.00     0.016 A 
ATOM     38  C   UNL A   1      42.613  22.562  28.537  1.00  0.00     0.010 A 
ATOM     39  C   UNL A   1      43.092  23.418  26.301  1.00  0.00     0.010 A 
ATOM     40  C   UNL A   1      43.055  23.591  27.694  1.00  0.00    -0.014 A 
BRANCH  40  41
ATOM     41  C   UNL A   1      43.196  24.929  28.291  1.00  0.00     0.031 A 
ATOM     42  C   UNL A   1      44.587  25.390  28.614  1.00  0.00     0.074 A 
ATOM     43  C   UNL A   1      42.133  25.738  28.410  1.00  0.00     0.049 A 
ATOM     44  N   UNL A   1      45.001  26.557  29.028  1.00  0.00    -0.248 NA
ATOM     45  C   UNL A   1      45.665  24.400  28.428  1.00  0.00     0.031 C 
ATOM     46  C   UNL A   1      40.756  25.383  28.070  1.00  0.00     0.029 A 
ATOM     47  N   UNL A   1      42.057  27.037  28.832  1.00  0.00    -0.354 N 
ATOM     48  C   UNL A   1      46.381  26.442  29.140  1.00  0.00     0.074 A 
ATOM     49  C   UNL A   1      46.733  25.086  28.793  1.00  0.00     0.031 C 
ATOM     50  C   UNL A   1      39.968  26.449  28.289  1.00  0.00     0.029 A 
ATOM     51  C   UNL A   1      40.783  27.546  28.805  1.00  0.00     0.049 A 
ATOM     52  H   UNL A   1      42.840  27.556  29.126  1.00  0.00     0.167 HD
ATOM     53  C   UNL A   1      47.273  27.395  29.488  1.00  0.00     0.037 A 
ATOM     54  C   UNL A   1      40.342  28.765  29.165  1.00  0.00     0.037 A 
ATOM     55  C   UNL A   1      46.896  28.734  29.848  1.00  0.00     0.049 A 
ATOM     56  C   UNL A   1      41.350  29.785  29.626  1.00  0.00     0.074 A 
ATOM     57  C   UNL A   1      47.705  29.786  30.235  1.00  0.00     0.029 A 
ATOM     58  N   UNL A   1      45.588  29.199  29.873  1.00  0.00    -0.354 N 
ATOM     59  N   UNL A   1      42.655  29.680  29.715  1.00  0.00    -0.248 NA
ATOM     60  C   UNL A   1      40.823  31.095  30.026  1.00  0.00     0.031 C 
ATOM     61  C   UNL A   1      46.880  30.870  30.551  1.00  0.00     0.029 A 
ATOM     62  C   UNL A   1      45.563  30.517  30.295  1.00  0.00     0.049 A 
ATOM     63  H   UNL A   1      44.796  28.670  29.628  1.00  0.00     0.167 HD
ATOM     64  C   UNL A   1      43.110  30.917  30.154  1.00  0.00     0.074 A 
ATOM     65  C   UNL A   1      41.938  31.760  30.289  1.00  0.00     0.031 C 
ATOM     66  C   UNL A   1      44.376  31.326  30.421  1.00  0.00     0.037 A 
BRANCH  53  67
ATOM     67  C   UNL A   1      48.720  27.000  29.537  1.00  0.00     0.057 A 
ATOM     68  C   UNL A   1      49.289  26.384  30.660  1.00  0.00     0.134 A 
ATOM     69  C   UNL A   1      49.560  27.246  28.443  1.00  0.00     0.134 A 
ATOM     70  F   UNL A   1      48.548  26.144  31.754  1.00  0.00    -0.206 F 
ATOM     71  C   UNL A   1      50.644  26.048  30.703  1.00  0.00     0.040 A 
ATOM     72  C   UNL A   1      50.909  26.888  28.463  1.00  0.00     0.040 A 
ATOM     73  F   UNL A   1      49.084  27.841  27.339  1.00  0.00    -0.206 F 
ATOM     74  C   UNL A   1      51.456  26.294  29.598  1.00  0.00     0.006 A 
ENDBRANCH  53  67
BRANCH  54  75
ATOM     75  C   UNL A   1      38.892  29.082  29.107  1.00  0.00     0.057 A 
ATOM     76  C   UNL A   1      38.273  29.470  27.913  1.00  0.00     0.134 A 
ATOM     77  C   UNL A   1      38.092  29.020  30.255  1.00  0.00     0.134 A 
ATOM     78  F   UNL A   1      38.987  29.566  26.782  1.00  0.00    -0.206 F 
ATOM     79  C   UNL A   1      36.918  29.806  27.866  1.00  0.00     0.040 A 
ATOM     80  C   UNL A   1      36.730  29.325  30.218  1.00  0.00     0.040 A 
ATOM     81  F   UNL A   1      38.621  28.651  31.431  1.00  0.00    -0.206 F 
ATOM     82  C   UNL A   1      36.141  29.729  29.021  1.00  0.00     0.006 A 
ENDBRANCH  54  75
BRANCH  66  83
ATOM     83  C   UNL A   1      44.551  32.754  30.849  1.00  0.00     0.057 A 
ATOM     84  C   UNL A   1      44.555  33.131  32.198  1.00  0.00     0.134 A 
ATOM     85  C   UNL A   1      44.736  33.763  29.895  1.00  0.00     0.134 A 
ATOM     86  F   UNL A   1      44.375  32.215  33.162  1.00  0.00    -0.206 F 
ATOM     87  C   UNL A   1      44.691  34.466  32.580  1.00  0.00     0.040 A 
ATOM     88  C   UNL A   1      44.909  35.096  30.266  1.00  0.00     0.040 A 
ATOM     89  F   UNL A   1      44.759  33.468  28.586  1.00  0.00    -0.206 F 
ATOM     90  C   UNL A   1      44.874  35.452  31.613  1.00  0.00     0.006 A 
ENDBRANCH  66  83
ENDBRANCH  40  41
ENDBRANCH  33  35
ENDBRANCH  32  33
ENDBRANCH  31  32
ENDBRANCH  30  31
ENDBRANCH  29  30
ENDBRANCH  28  29
ENDBRANCH  27  28
ENDBRANCH  26  27
ENDBRANCH   1  26
TORSDOF 24
ENDMDL
MODEL 2
REMARK VINA RESULT:     -10.0      3.622      4.905
REMARK SMILES CC(C)c1nc(OCC(=O)OCCOCCOCCOCCOC(=O)c2ccc(-c3c4nc(c(-c5c(F)cccc5F)c5ccc([nH]5)c(-c5c(F)cccc5F)c5nc(c(-c6c(F)cccc6F)c6ccc3[nH]6)C=C5)C=C4)cc2)cc(-c2ccccn2)n1
REMARK SMILES IDX 16 1 15 2 14 3 13 4 12 5 11 6 9 7 10 8 8 9 7 10 6 11 4 12
REMARK SMILES IDX 5 13 88 14 81 15 80 16 2 17 1 18 3 19 82 20 83 21 87 22
REMARK SMILES IDX 84 23 86 24 85 25 17 26 18 27 19 28 20 29 21 30 22 31 23 32
REMARK SMILES IDX 24 33 25 34 26 35 27 36 79 37 28 38 78 39 29 40 30 41 31 42
REMARK SMILES IDX 72 43 32 44 77 45 71 46 73 47 33 48 76 49 70 50 69 51 34 53
REMARK SMILES IDX 60 54 43 55 59 56 44 57 47 58 58 59 74 60 45 61 46 62 57 64
REMARK SMILES IDX 75 65 48 66 35 67 36 68 41 69 37 70 38 71 40 72 42 73 39 74
REMARK SMILES IDX 61 75 62 76 67 77 63 78 64 79 66 80 68 81 65 82 49 83 50 84
REMARK SMILES IDX 55 85 51 86 52 87 54 88 56 89 53 90
REMARK H PARENT 73 52 47 63
REMARK Flexibility Score: inf
ROOT
ATOM      1  C   UNL A   1      37.985  22.705  25.736  1.00  0.00     0.188 C 
ENDROOT
BRANCH   1   2
ATOM      2  C   UNL A   1      36.507  22.331  25.522  1.00  0.00     0.188 C 
BRANCH   2   3
ATOM      3  O   UNL A   1      35.902  22.402  24.244  1.00  0.00    -0.376 OA
BRANCH   3   4
ATOM      4  C   UNL A   1      34.875  23.354  24.038  1.00  0.00     0.202 C 
BRANCH   4   5
ATOM      5  C   UNL A   1      33.409  22.906  23.833  1.00  0.00     0.261 C 
BRANCH   5   6
ATOM      6  O   UNL A   1      32.571  22.818  25.006  1.00  0.00    -0.461 OA
BRANCH   6   7
ATOM      7  C   UNL A   1      31.623  23.776  25.176  1.00  0.00     0.344 C 
ATOM      8  O   UNL A   1      31.091  24.033  26.250  1.00  0.00    -0.248 OA
BRANCH   7   9
ATOM      9  C   UNL A   1      31.277  24.529  23.863  1.00  0.00     0.353 C 
BRANCH   9  10
ATOM     10  O   UNL A   1      30.258  25.515  23.800  1.00  0.00    -0.466 OA
BRANCH  10  11
ATOM     11  C   UNL A   1      30.503  26.862  23.782  1.00  0.00     0.217 A 
ATOM     12  C   UNL A   1      31.393  28.556  25.086  1.00  0.00     0.135 A 
ATOM     13  N   UNL A   1      31.234  27.240  24.848  1.00  0.00    -0.198 NA
ATOM     14  N   UNL A   1      30.791  29.506  24.357  1.00  0.00    -0.231 NA
ATOM     15  C   UNL A   1      30.039  29.123  23.294  1.00  0.00     0.096 A 
ATOM     16  C   UNL A   1      29.931  27.784  22.929  1.00  0.00     0.099 A 
BRANCH  12  17
ATOM     17  C   UNL A   1      32.094  28.956  26.380  1.00  0.00     0.051 C 
ATOM     18  C   UNL A   1      31.956  30.452  26.668  1.00  0.00     0.016 C 
ATOM     19  C   UNL A   1      31.645  28.172  27.621  1.00  0.00     0.016 C 
ENDBRANCH  12  17
BRANCH  15  20
ATOM     20  C   UNL A   1      29.186  30.201  22.711  1.00  0.00     0.089 A 
ATOM     21  C   UNL A   1      28.892  31.382  23.404  1.00  0.00     0.030 A 
ATOM     22  N   UNL A   1      28.831  30.063  21.405  1.00  0.00    -0.255 NA
ATOM     23  C   UNL A   1      28.321  32.464  22.734  1.00  0.00     0.004 A 
ATOM     24  C   UNL A   1      28.236  31.113  20.790  1.00  0.00     0.112 A 
ATOM     25  C   UNL A   1      27.987  32.331  21.397  1.00  0.00     0.020 A 
ENDBRANCH  15  20
ENDBRANCH  10  11
ENDBRANCH   9  10
ENDBRANCH   7   9
ENDBRANCH   6   7
ENDBRANCH   5   6
ENDBRANCH   4   5
ENDBRANCH   3   4
ENDBRANCH   2   3
ENDBRANCH   1   2
BRANCH   1  26
ATOM     26  O   UNL A   1      38.799  21.561  25.921  1.00  0.00    -0.377 OA
BRANCH  26  27
ATOM     27  C   UNL A   1      40.099  21.839  26.427  1.00  0.00     0.188 C 
BRANCH  27  28
ATOM     28  C   UNL A   1      40.961  20.653  26.917  1.00  0.00     0.188 C 
BRANCH  28  29
ATOM     29  O   UNL A   1      42.283  20.659  26.402  1.00  0.00    -0.376 OA
BRANCH  29  30
ATOM     30  C   UNL A   1      42.694  21.696  25.529  1.00  0.00     0.202 C 
BRANCH  30  31
ATOM     31  C   UNL A   1      44.186  21.989  25.671  1.00  0.00     0.261 C 
BRANCH  31  32
ATOM     32  O   UNL A   1      44.469  23.110  26.510  1.00  0.00    -0.460 OA
BRANCH  32  33
ATOM     33  C   UNL A   1      44.405  24.308  25.901  1.00  0.00     0.338 C 
ATOM     34  O   UNL A   1      44.746  24.588  24.762  1.00  0.00    -0.246 OA
BRANCH  33  35
ATOM     35  C   UNL A   1      43.604  25.174  26.768  1.00  0.00     0.060 A 
ATOM     36  C   UNL A   1      44.070  26.476  26.985  1.00  0.00     0.016 A 
ATOM     37  C   UNL A   1      42.378  24.743  27.288  1.00  0.00     0.016 A 
ATOM     38  C   UNL A   1      43.321  27.347  27.755  1.00  0.00     0.010 A 
ATOM     39  C   UNL A   1      41.640  25.608  28.089  1.00  0.00     0.010 A 
ATOM     40  C   UNL A   1      42.139  26.892  28.355  1.00  0.00    -0.014 A 
BRANCH  40  41
ATOM     41  C   UNL A   1      41.612  27.686  29.477  1.00  0.00     0.031 A 
ATOM     42  C   UNL A   1      42.363  27.618  30.775  1.00  0.00     0.074 A 
ATOM     43  C   UNL A   1      40.584  28.528  29.294  1.00  0.00     0.049 A 
ATOM     44  N   UNL A   1      42.189  28.303  31.872  1.00  0.00    -0.248 NA
ATOM     45  C   UNL A   1      43.478  26.654  30.835  1.00  0.00     0.031 C 
ATOM     46  C   UNL A   1      39.834  28.691  28.050  1.00  0.00     0.029 A 
ATOM     47  N   UNL A   1      40.013  29.422  30.157  1.00  0.00    -0.354 N 
ATOM     48  C   UNL A   1      43.175  27.861  32.745  1.00  0.00     0.074 A 
ATOM     49  C   UNL A   1      43.918  26.823  32.070  1.00  0.00     0.031 C 
ATOM     50  C   UNL A   1      38.900  29.641  28.229  1.00  0.00     0.029 A 
ATOM     51  C   UNL A   1      38.977  30.131  29.603  1.00  0.00     0.049 A 
ATOM     52  H   UNL A   1      40.315  29.546  31.085  1.00  0.00     0.167 HD
ATOM     53  C   UNL A   1      43.443  28.297  33.995  1.00  0.00     0.037 A 
ATOM     54  C   UNL A   1      38.185  31.066  30.159  1.00  0.00     0.037 A 
ATOM     55  C   UNL A   1      42.677  29.320  34.653  1.00  0.00     0.049 A 
ATOM     56  C   UNL A   1      38.455  31.478  31.582  1.00  0.00     0.074 A 
ATOM     57  C   UNL A   1      42.839  29.838  35.924  1.00  0.00     0.029 A 
ATOM     58  N   UNL A   1      41.591  29.972  34.086  1.00  0.00    -0.354 N 
ATOM     59  N   UNL A   1      39.398  31.071  32.400  1.00  0.00    -0.248 NA
ATOM     60  C   UNL A   1      37.557  32.488  32.156  1.00  0.00     0.031 C 
ATOM     61  C   UNL A   1      41.813  30.762  36.147  1.00  0.00     0.029 A 
ATOM     62  C   UNL A   1      41.054  30.871  34.990  1.00  0.00     0.049 A 
ATOM     63  H   UNL A   1      41.252  29.818  33.175  1.00  0.00     0.167 HD
ATOM     64  C   UNL A   1      39.226  31.793  33.574  1.00  0.00     0.074 A 
ATOM     65  C   UNL A   1      38.101  32.679  33.349  1.00  0.00     0.031 C 
ATOM     66  C   UNL A   1      39.930  31.736  34.733  1.00  0.00     0.037 A 
BRANCH  53  67
ATOM     67  C   UNL A   1      44.574  27.637  34.729  1.00  0.00     0.057 A 
ATOM     68  C   UNL A   1      44.387  26.489  35.512  1.00  0.00     0.134 A 
ATOM     69  C   UNL A   1      45.870  28.164  34.657  1.00  0.00     0.134 A 
ATOM     70  F   UNL A   1      43.166  25.949  35.647  1.00  0.00    -0.206 F 
ATOM     71  C   UNL A   1      45.443  25.903  36.213  1.00  0.00     0.040 A 
ATOM     72  C   UNL A   1      46.938  27.569  35.330  1.00  0.00     0.040 A 
ATOM     73  F   UNL A   1      46.118  29.266  33.935  1.00  0.00    -0.206 F 
ATOM     74  C   UNL A   1      46.725  26.439  36.116  1.00  0.00     0.006 A 
ENDBRANCH  53  67
BRANCH  54  75
ATOM     75  C   UNL A   1      37.073  31.666  29.379  1.00  0.00     0.057 A 
ATOM     76  C   UNL A   1      37.169  32.952  28.835  1.00  0.00     0.134 A 
ATOM     77  C   UNL A   1      35.877  30.967  29.170  1.00  0.00     0.134 A 
ATOM     78  F   UNL A   1      38.281  33.680  29.014  1.00  0.00    -0.206 F 
ATOM     79  C   UNL A   1      36.109  33.532  28.135  1.00  0.00     0.040 A 
ATOM     80  C   UNL A   1      34.820  31.522  28.446  1.00  0.00     0.040 A 
ATOM     81  F   UNL A   1      35.721  29.729  29.659  1.00  0.00    -0.206 F 
ATOM     82  C   UNL A   1      34.931  32.813  27.934  1.00  0.00     0.006 A 
ENDBRANCH  54  75
BRANCH  66  83
ATOM     83  C   UNL A   1      39.518  32.683  35.823  1.00  0.00     0.057 A 
ATOM     84  C   UNL A   1      40.050  33.975  35.925  1.00  0.00     0.134 A 
ATOM     85  C   UNL A   1      38.562  32.301  36.772  1.00  0.00     0.134 A 
ATOM     86  F   UNL A   1      40.976  34.401  35.052  1.00  0.00    -0.206 F 
ATOM     87  C   UNL A   1      39.678  34.836  36.958  1.00  0.00     0.040 A 
ATOM     88  C   UNL A   1      38.156  33.165  37.788  1.00  0.00     0.040 A 
ATOM     89  F   UNL A   1      38.000  31.083  36.722  1.00  0.00    -0.206 F 
ATOM     90  C   UNL A   1      38.725  34.433  37.890  1.00  0.00     0.006 A 
ENDBRANCH  66  83
ENDBRANCH  40  41
ENDBRANCH  33  35
ENDBRANCH  32  33
ENDBRANCH  31  32
ENDBRANCH  30  31
ENDBRANCH  29  30
ENDBRANCH  28  29
ENDBRANCH  27  28
ENDBRANCH  26  27
ENDBRANCH   1  26
TORSDOF 24
ENDMDL
MODEL 3
REMARK VINA RESULT:      -9.9      4.539      9.115
REMARK SMILES CC(C)c1nc(OCC(=O)OCCOCCOCCOCCOC(=O)c2ccc(-c3c4nc(c(-c5c(F)cccc5F)c5ccc([nH]5)c(-c5c(F)cccc5F)c5nc(c(-c6c(F)cccc6F)c6ccc3[nH]6)C=C5)C=C4)cc2)cc(-c2ccccn2)n1
REMARK SMILES IDX 16 1 15 2 14 3 13 4 12 5 11 6 9 7 10 8 8 9 7 10 6 11 4 12
REMARK SMILES IDX 5 13 88 14 81 15 80 16 2 17 1 18 3 19 82 20 83 21 87 22
REMARK SMILES IDX 84 23 86 24 85 25 17 26 18 27 19 28 20 29 21 30 22 31 23 32
REMARK SMILES IDX 24 33 25 34 26 35 27 36 79 37 28 38 78 39 29 40 30 41 31 42
REMARK SMILES IDX 72 43 32 44 77 45 71 46 73 47 33 48 76 49 70 50 69 51 34 53
REMARK SMILES IDX 60 54 43 55 59 56 44 57 47 58 58 59 74 60 45 61 46 62 57 64
REMARK SMILES IDX 75 65 48 66 35 67 36 68 41 69 37 70 38 71 40 72 42 73 39 74
REMARK SMILES IDX 61 75 62 76 67 77 63 78 64 79 66 80 68 81 65 82 49 83 50 84
REMARK SMILES IDX 55 85 51 86 52 87 54 88 56 89 53 90
REMARK H PARENT 73 52 47 63
REMARK Flexibility Score: inf
ROOT
ATOM      1  C   UNL A   1      40.656  20.095  26.307  1.00  0.00     0.188 C 
ENDROOT
BRANCH   1   2
ATOM      2  C   UNL A   1      39.377  20.757  25.763  1.00  0.00     0.188 C 
BRANCH   2   3
ATOM      3  O   UNL A   1      38.740  21.817  26.452  1.00  0.00    -0.376 OA
BRANCH   3   4
ATOM      4  C   UNL A   1      37.857  22.654  25.729  1.00  0.00     0.202 C 
BRANCH   4   5
ATOM      5  C   UNL A   1      36.530  22.102  25.159  1.00  0.00     0.261 C 
BRANCH   5   6
ATOM      6  O   UNL A   1      35.577  23.059  24.647  1.00  0.00    -0.461 OA
BRANCH   6   7
ATOM      7  C   UNL A   1      35.580  23.298  23.309  1.00  0.00     0.344 C 
ATOM      8  O   UNL A   1      36.515  23.023  22.565  1.00  0.00    -0.248 OA
BRANCH   7   9
ATOM      9  C   UNL A   1      34.267  23.954  22.805  1.00  0.00     0.353 C 
BRANCH   9  10
ATOM     10  O   UNL A   1      33.133  23.188  22.427  1.00  0.00    -0.466 OA
BRANCH  10  11
ATOM     11  C   UNL A   1      32.546  22.249  23.233  1.00  0.00     0.217 A 
ATOM     12  C   UNL A   1      31.692  21.977  25.368  1.00  0.00     0.135 A 
ATOM     13  N   UNL A   1      32.113  22.795  24.385  1.00  0.00    -0.198 NA
ATOM     14  N   UNL A   1      31.760  20.641  25.283  1.00  0.00    -0.231 NA
ATOM     15  C   UNL A   1      32.215  20.092  24.128  1.00  0.00     0.096 A 
ATOM     16  C   UNL A   1      32.556  20.883  23.034  1.00  0.00     0.099 A 
BRANCH  12  17
ATOM     17  C   UNL A   1      31.351  22.611  26.712  1.00  0.00     0.051 C 
ATOM     18  C   UNL A   1      31.942  24.016  26.849  1.00  0.00     0.016 C 
ATOM     19  C   UNL A   1      29.850  22.675  27.030  1.00  0.00     0.016 C 
ENDBRANCH  12  17
BRANCH  15  20
ATOM     20  C   UNL A   1      32.525  18.633  24.210  1.00  0.00     0.089 A 
ATOM     21  C   UNL A   1      33.349  17.988  23.279  1.00  0.00     0.030 A 
ATOM     22  N   UNL A   1      32.102  17.979  25.324  1.00  0.00    -0.255 NA
ATOM     23  C   UNL A   1      33.823  16.702  23.536  1.00  0.00     0.004 A 
ATOM     24  C   UNL A   1      32.541  16.713  25.528  1.00  0.00     0.112 A 
ATOM     25  C   UNL A   1      33.414  16.048  24.687  1.00  0.00     0.020 A 
ENDBRANCH  15  20
ENDBRANCH  10  11
ENDBRANCH   9  10
ENDBRANCH   7   9
ENDBRANCH   6   7
ENDBRANCH   5   6
ENDBRANCH   4   5
ENDBRANCH   3   4
ENDBRANCH   2   3
ENDBRANCH   1   2
BRANCH   1  26
ATOM     26  O   UNL A   1      41.758  20.276  25.435  1.00  0.00    -0.377 OA
BRANCH  26  27
ATOM     27  C   UNL A   1      43.025  20.289  26.081  1.00  0.00     0.188 C 
BRANCH  27  28
ATOM     28  C   UNL A   1      44.047  21.370  25.664  1.00  0.00     0.188 C 
BRANCH  28  29
ATOM     29  O   UNL A   1      43.683  22.074  24.487  1.00  0.00    -0.376 OA
BRANCH  29  30
ATOM     30  C   UNL A   1      43.878  23.475  24.417  1.00  0.00     0.202 C 
BRANCH  30  31
ATOM     31  C   UNL A   1      43.902  24.107  25.807  1.00  0.00     0.261 C 
BRANCH  31  32
ATOM     32  O   UNL A   1      42.890  25.096  26.000  1.00  0.00    -0.460 OA
BRANCH  32  33
ATOM     33  C   UNL A   1      41.822  24.687  26.710  1.00  0.00     0.338 C 
ATOM     34  O   UNL A   1      41.356  23.560  26.779  1.00  0.00    -0.246 OA
BRANCH  33  35
ATOM     35  C   UNL A   1      41.466  25.793  27.601  1.00  0.00     0.060 A 
ATOM     36  C   UNL A   1      42.254  26.948  27.540  1.00  0.00     0.016 A 
ATOM     37  C   UNL A   1      40.331  25.727  28.417  1.00  0.00     0.016 A 
ATOM     38  C   UNL A   1      41.925  28.038  28.325  1.00  0.00     0.010 A 
ATOM     39  C   UNL A   1      40.018  26.811  29.231  1.00  0.00     0.010 A 
ATOM     40  C   UNL A   1      40.844  27.945  29.213  1.00  0.00    -0.014 A 
BRANCH  40  41
ATOM     41  C   UNL A   1      40.790  28.932  30.304  1.00  0.00     0.031 A 
ATOM     42  C   UNL A   1      39.708  29.970  30.232  1.00  0.00     0.074 A 
ATOM     43  C   UNL A   1      41.593  28.814  31.371  1.00  0.00     0.049 A 
ATOM     44  N   UNL A   1      39.363  30.872  31.111  1.00  0.00    -0.248 NA
ATOM     45  C   UNL A   1      38.892  29.982  29.004  1.00  0.00     0.031 C 
ATOM     46  C   UNL A   1      42.634  27.802  31.540  1.00  0.00     0.029 A 
ATOM     47  N   UNL A   1      41.637  29.546  32.526  1.00  0.00    -0.354 N 
ATOM     48  C   UNL A   1      38.288  31.546  30.547  1.00  0.00     0.074 A 
ATOM     49  C   UNL A   1      38.061  30.983  29.237  1.00  0.00     0.031 C 
ATOM     50  C   UNL A   1      43.212  27.972  32.741  1.00  0.00     0.029 A 
ATOM     51  C   UNL A   1      42.596  29.116  33.409  1.00  0.00     0.049 A 
ATOM     52  H   UNL A   1      41.040  30.306  32.708  1.00  0.00     0.167 HD
ATOM     53  C   UNL A   1      37.546  32.539  31.086  1.00  0.00     0.037 A 
ATOM     54  C   UNL A   1      42.929  29.607  34.616  1.00  0.00     0.037 A 
ATOM     55  C   UNL A   1      37.803  33.096  32.386  1.00  0.00     0.049 A 
ATOM     56  C   UNL A   1      42.137  30.767  35.161  1.00  0.00     0.074 A 
ATOM     57  C   UNL A   1      37.134  34.115  33.037  1.00  0.00     0.029 A 
ATOM     58  N   UNL A   1      38.826  32.681  33.228  1.00  0.00    -0.354 N 
ATOM     59  N   UNL A   1      41.110  31.391  34.633  1.00  0.00    -0.248 NA
ATOM     60  C   UNL A   1      42.545  31.283  36.474  1.00  0.00     0.031 C 
ATOM     61  C   UNL A   1      37.789  34.356  34.249  1.00  0.00     0.029 A 
ATOM     62  C   UNL A   1      38.823  33.441  34.384  1.00  0.00     0.049 A 
ATOM     63  H   UNL A   1      39.459  31.954  33.032  1.00  0.00     0.167 HD
ATOM     64  C   UNL A   1      40.730  32.355  35.559  1.00  0.00     0.074 A 
ATOM     65  C   UNL A   1      41.626  32.212  36.691  1.00  0.00     0.031 C 
ATOM     66  C   UNL A   1      39.734  33.274  35.489  1.00  0.00     0.037 A 
BRANCH  53  67
ATOM     67  C   UNL A   1      36.433  33.100  30.251  1.00  0.00     0.057 A 
ATOM     68  C   UNL A   1      36.661  34.043  29.239  1.00  0.00     0.134 A 
ATOM     69  C   UNL A   1      35.110  32.695  30.468  1.00  0.00     0.134 A 
ATOM     70  F   UNL A   1      37.901  34.496  28.997  1.00  0.00    -0.206 F 
ATOM     71  C   UNL A   1      35.612  34.579  28.490  1.00  0.00     0.040 A 
ATOM     72  C   UNL A   1      34.057  33.202  29.705  1.00  0.00     0.040 A 
ATOM     73  F   UNL A   1      34.819  31.803  31.426  1.00  0.00    -0.206 F 
ATOM     74  C   UNL A   1      34.305  34.152  28.717  1.00  0.00     0.006 A 
ENDBRANCH  53  67
BRANCH  54  75
ATOM     75  C   UNL A   1      44.054  29.012  35.382  1.00  0.00     0.057 A 
ATOM     76  C   UNL A   1      45.376  29.423  35.180  1.00  0.00     0.134 A 
ATOM     77  C   UNL A   1      43.832  28.002  36.327  1.00  0.00     0.134 A 
ATOM     78  F   UNL A   1      45.658  30.373  34.277  1.00  0.00    -0.206 F 
ATOM     79  C   UNL A   1      46.439  28.836  35.871  1.00  0.00     0.040 A 
ATOM     80  C   UNL A   1      44.880  27.427  37.047  1.00  0.00     0.040 A 
ATOM     81  F   UNL A   1      42.588  27.565  36.573  1.00  0.00    -0.206 F 
ATOM     82  C   UNL A   1      46.191  27.838  36.812  1.00  0.00     0.006 A 
ENDBRANCH  54  75
BRANCH  66  83
ATOM     83  C   UNL A   1      39.547  34.163  36.685  1.00  0.00     0.057 A 
ATOM     84  C   UNL A   1      38.844  33.743  37.821  1.00  0.00     0.134 A 
ATOM     85  C   UNL A   1      40.095  35.452  36.703  1.00  0.00     0.134 A 
ATOM     86  F   UNL A   1      38.287  32.523  37.865  1.00  0.00    -0.206 F 
ATOM     87  C   UNL A   1      38.655  34.589  38.914  1.00  0.00     0.040 A 
ATOM     88  C   UNL A   1      39.944  36.294  37.804  1.00  0.00     0.040 A 
ATOM     89  F   UNL A   1      40.795  35.910  35.653  1.00  0.00    -0.206 F 
ATOM     90  C   UNL A   1      39.211  35.867  38.909  1.00  0.00     0.006 A 
ENDBRANCH  66  83
ENDBRANCH  40  41
ENDBRANCH  33  35
ENDBRANCH  32  33
ENDBRANCH  31  32
ENDBRANCH  30  31
ENDBRANCH  29  30
ENDBRANCH  28  29
ENDBRANCH  27  28
ENDBRANCH  26  27
ENDBRANCH   1  26
TORSDOF 24
ENDMDL
