MODEL 1
REMARK VINA RESULT:     -12.1      0.000      0.000
REMARK SMILES Cc1ccc(C(=O)OCCOCCOCCOCCOC(=O)c2ccc(-c3c4nc(c(-c5c(F)cccc5F)c5ccc([nH]5)c(-c5c(F)cccc5F)c5nc(c(-c6c(F)cccc6F)c6ccc3[nH]6)C=C5)C=C4)cc2)cc1N1CC(C)C1
REMARK SMILES IDX 15 1 14 2 13 3 12 4 11 5 10 6 9 7 8 8 6 9 7 10 5 11 1 12
REMARK SMILES IDX 2 13 3 14 78 15 4 16 77 17 79 18 80 19 83 20 81 21 82 22
REMARK SMILES IDX 16 23 17 24 18 25 19 26 20 27 21 28 22 29 23 30 24 31 76 32
REMARK SMILES IDX 25 33 75 34 26 35 27 36 28 37 69 38 29 39 74 40 68 41 70 42
REMARK SMILES IDX 30 43 73 44 67 45 66 46 31 48 57 49 40 50 56 51 41 52 44 53
REMARK SMILES IDX 55 54 71 55 42 56 43 57 54 59 72 60 45 61 32 62 33 63 38 64
REMARK SMILES IDX 34 65 35 66 37 67 39 68 36 69 58 70 59 71 64 72 60 73 61 74
REMARK SMILES IDX 63 75 65 76 62 77 46 78 47 79 52 80 48 81 49 82 51 83 53 84
REMARK SMILES IDX 50 85
REMARK H PARENT 70 47 44 58
REMARK Flexibility Score: inf
ROOT
ATOM      1  C   UNL A   1      41.982  19.408  27.395  1.00  0.00     0.188 C 
ENDROOT
BRANCH   1   2
ATOM      2  O   UNL A   1      40.805  20.090  27.784  1.00  0.00    -0.377 OA
BRANCH   2   3
ATOM      3  C   UNL A   1      40.925  21.499  27.594  1.00  0.00     0.188 C 
BRANCH   3   4
ATOM      4  C   UNL A   1      39.807  22.204  26.738  1.00  0.00     0.188 C 
BRANCH   4   5
ATOM      5  O   UNL A   1      38.794  21.436  25.879  1.00  0.00    -0.376 OA
BRANCH   5   6
ATOM      6  C   UNL A   1      37.456  21.914  25.078  1.00  0.00     0.202 C 
BRANCH   6   7
ATOM      7  C   UNL A   1      36.950  22.892  23.576  1.00  0.00     0.261 C 
BRANCH   7   8
ATOM      8  O   UNL A   1      35.348  23.174  22.719  1.00  0.00    -0.460 OA
BRANCH   8   9
ATOM      9  C   UNL A   1      33.999  24.054  22.622  1.00  0.00     0.338 C 
ATOM     10  O   UNL A   1      33.252  23.821  21.658  1.00  0.00    -0.246 OA
BRANCH   9  11
ATOM     11  C   UNL A   1      33.372  25.361  23.517  1.00  0.00     0.062 A 
ATOM     12  C   UNL A   1      31.519  28.188  26.389  1.00  0.00     0.046 C 
ATOM     13  C   UNL A   1      32.129  27.255  25.389  1.00  0.00    -0.028 A 
ATOM     14  C   UNL A   1      33.163  26.364  25.763  1.00  0.00     0.006 A 
ATOM     15  C   UNL A   1      31.732  27.258  24.070  1.00  0.00     0.040 A 
ATOM     16  C   UNL A   1      33.731  25.415  24.866  1.00  0.00     0.016 A 
ATOM     17  C   UNL A   1      32.464  26.422  23.194  1.00  0.00     0.041 A 
BRANCH  15  18
ATOM     18  N   UNL A   1      30.637  27.961  23.520  1.00  0.00    -0.371 N 
ATOM     19  C   UNL A   1      29.251  27.574  23.507  1.00  0.00     0.121 C 
ATOM     20  C   UNL A   1      30.343  29.328  23.235  1.00  0.00     0.121 C 
ATOM     21  C   UNL A   1      28.976  28.844  22.687  1.00  0.00     0.025 C 
ATOM     22  C   UNL A   1      27.712  29.626  22.996  1.00  0.00     0.011 C 
ENDBRANCH  15  18
ENDBRANCH   9  11
ENDBRANCH   8   9
ENDBRANCH   7   8
ENDBRANCH   6   7
ENDBRANCH   5   6
ENDBRANCH   4   5
ENDBRANCH   3   4
ENDBRANCH   2   3
ENDBRANCH   1   2
BRANCH   1  23
ATOM     23  C   UNL A   1      42.128  19.385  25.871  1.00  0.00     0.188 C 
BRANCH  23  24
ATOM     24  O   UNL A   1      43.057  18.406  25.436  1.00  0.00    -0.376 OA
BRANCH  24  25
ATOM     25  C   UNL A   1      44.424  18.782  25.375  1.00  0.00     0.202 C 
BRANCH  25  26
ATOM     26  C   UNL A   1      44.735  19.189  23.932  1.00  0.00     0.261 C 
BRANCH  26  27
ATOM     27  O   UNL A   1      44.576  20.622  23.779  1.00  0.00    -0.460 OA
BRANCH  27  28
ATOM     28  C   UNL A   1      45.462  21.382  24.466  1.00  0.00     0.338 C 
ATOM     29  O   UNL A   1      46.654  21.094  24.648  1.00  0.00    -0.246 OA
BRANCH  28  30
ATOM     30  C   UNL A   1      44.744  22.486  25.167  1.00  0.00     0.060 A 
ATOM     31  C   UNL A   1      44.701  23.755  24.608  1.00  0.00     0.016 A 
ATOM     32  C   UNL A   1      44.345  22.341  26.504  1.00  0.00     0.016 A 
ATOM     33  C   UNL A   1      44.451  24.850  25.447  1.00  0.00     0.010 A 
ATOM     34  C   UNL A   1      44.310  23.453  27.358  1.00  0.00     0.010 A 
ATOM     35  C   UNL A   1      44.538  24.741  26.861  1.00  0.00    -0.014 A 
BRANCH  35  36
ATOM     36  C   UNL A   1      44.687  26.001  27.880  1.00  0.00     0.031 A 
ATOM     37  C   UNL A   1      43.003  26.500  27.525  1.00  0.00     0.074 A 
ATOM     38  C   UNL A   1      45.969  26.827  28.564  1.00  0.00     0.049 A 
ATOM     39  N   UNL A   1      42.606  27.652  27.012  1.00  0.00    -0.248 NA
ATOM     40  C   UNL A   1      41.838  25.588  27.548  1.00  0.00     0.031 C 
ATOM     41  C   UNL A   1      46.123  28.280  29.436  1.00  0.00     0.029 A 
ATOM     42  N   UNL A   1      47.480  26.895  28.391  1.00  0.00    -0.354 N 
ATOM     43  C   UNL A   1      41.294  27.805  27.344  1.00  0.00     0.074 A 
ATOM     44  C   UNL A   1      40.825  26.437  27.309  1.00  0.00     0.031 C 
ATOM     45  C   UNL A   1      47.336  28.812  29.526  1.00  0.00     0.029 A 
ATOM     46  C   UNL A   1      48.060  28.194  28.500  1.00  0.00     0.049 A 
ATOM     47  H   UNL A   1      48.022  26.092  28.214  1.00  0.00     0.167 HD
ATOM     48  C   UNL A   1      40.829  28.930  28.001  1.00  0.00     0.037 A 
ATOM     49  C   UNL A   1      48.668  28.986  27.555  1.00  0.00     0.037 A 
ATOM     50  C   UNL A   1      41.892  29.924  28.390  1.00  0.00     0.049 A 
ATOM     51  C   UNL A   1      47.879  30.332  27.397  1.00  0.00     0.074 A 
ATOM     52  C   UNL A   1      42.402  30.249  29.648  1.00  0.00     0.029 A 
ATOM     53  N   UNL A   1      42.787  30.543  27.492  1.00  0.00    -0.354 N 
ATOM     54  N   UNL A   1      46.594  30.452  27.647  1.00  0.00    -0.248 NA
ATOM     55  C   UNL A   1      48.450  31.618  27.017  1.00  0.00     0.031 C 
ATOM     56  C   UNL A   1      43.605  30.982  29.515  1.00  0.00     0.029 A 
ATOM     57  C   UNL A   1      43.843  31.189  28.168  1.00  0.00     0.049 A 
ATOM     58  H   UNL A   1      42.686  30.527  26.513  1.00  0.00     0.167 HD
ATOM     59  C   UNL A   1      46.140  31.722  27.426  1.00  0.00     0.074 A 
ATOM     60  C   UNL A   1      47.371  32.429  27.083  1.00  0.00     0.031 C 
ATOM     61  C   UNL A   1      44.817  32.098  27.532  1.00  0.00     0.037 A 
BRANCH  48  62
ATOM     62  C   UNL A   1      39.480  28.802  28.737  1.00  0.00     0.057 A 
ATOM     63  C   UNL A   1      38.270  29.332  28.253  1.00  0.00     0.134 A 
ATOM     64  C   UNL A   1      39.359  28.224  30.016  1.00  0.00     0.134 A 
ATOM     65  F   UNL A   1      38.099  29.663  26.969  1.00  0.00    -0.206 F 
ATOM     66  C   UNL A   1      37.130  29.504  29.057  1.00  0.00     0.040 A 
ATOM     67  C   UNL A   1      38.245  28.421  30.851  1.00  0.00     0.040 A 
ATOM     68  F   UNL A   1      40.318  27.419  30.500  1.00  0.00    -0.206 F 
ATOM     69  C   UNL A   1      37.135  29.104  30.382  1.00  0.00     0.006 A 
ENDBRANCH  48  62
BRANCH  49  70
ATOM     70  C   UNL A   1      49.453  28.314  26.476  1.00  0.00     0.057 A 
ATOM     71  C   UNL A   1      50.852  28.218  26.607  1.00  0.00     0.134 A 
ATOM     72  C   UNL A   1      48.874  27.540  25.463  1.00  0.00     0.134 A 
ATOM     73  F   UNL A   1      51.500  28.973  27.509  1.00  0.00    -0.206 F 
ATOM     74  C   UNL A   1      51.609  27.285  25.891  1.00  0.00     0.040 A 
ATOM     75  C   UNL A   1      49.616  26.579  24.759  1.00  0.00     0.040 A 
ATOM     76  F   UNL A   1      47.549  27.567  25.262  1.00  0.00    -0.206 F 
ATOM     77  C   UNL A   1      50.980  26.426  24.999  1.00  0.00     0.006 A 
ENDBRANCH  49  70
BRANCH  61  78
ATOM     78  C   UNL A   1      44.308  33.487  27.208  1.00  0.00     0.057 A 
ATOM     79  C   UNL A   1      43.806  33.853  25.955  1.00  0.00     0.134 A 
ATOM     80  C   UNL A   1      44.184  34.475  28.216  1.00  0.00     0.134 A 
ATOM     81  F   UNL A   1      43.781  32.984  24.935  1.00  0.00    -0.206 F 
ATOM     82  C   UNL A   1      43.258  35.119  25.708  1.00  0.00     0.040 A 
ATOM     83  C   UNL A   1      43.587  35.718  27.997  1.00  0.00     0.040 A 
ATOM     84  F   UNL A   1      44.629  34.282  29.465  1.00  0.00    -0.206 F 
ATOM     85  C   UNL A   1      43.131  36.049  26.734  1.00  0.00     0.006 A 
ENDBRANCH  61  78
ENDBRANCH  35  36
ENDBRANCH  28  30
ENDBRANCH  27  28
ENDBRANCH  26  27
ENDBRANCH  25  26
ENDBRANCH  24  25
ENDBRANCH  23  24
ENDBRANCH   1  23
TORSDOF 21
ENDMDL
MODEL 2
REMARK VINA RESULT:     -10.4      5.167      9.185
REMARK SMILES Cc1ccc(C(=O)OCCOCCOCCOCCOC(=O)c2ccc(-c3c4nc(c(-c5c(F)cccc5F)c5ccc([nH]5)c(-c5c(F)cccc5F)c5nc(c(-c6c(F)cccc6F)c6ccc3[nH]6)C=C5)C=C4)cc2)cc1N1CC(C)C1
REMARK SMILES IDX 15 1 14 2 13 3 12 4 11 5 10 6 9 7 8 8 6 9 7 10 5 11 1 12
REMARK SMILES IDX 2 13 3 14 78 15 4 16 77 17 79 18 80 19 83 20 81 21 82 22
REMARK SMILES IDX 16 23 17 24 18 25 19 26 20 27 21 28 22 29 23 30 24 31 76 32
REMARK SMILES IDX 25 33 75 34 26 35 27 36 28 37 69 38 29 39 74 40 68 41 70 42
REMARK SMILES IDX 30 43 73 44 67 45 66 46 31 48 57 49 40 50 56 51 41 52 44 53
REMARK SMILES IDX 55 54 71 55 42 56 43 57 54 59 72 60 45 61 32 62 33 63 38 64
REMARK SMILES IDX 34 65 35 66 37 67 39 68 36 69 58 70 59 71 64 72 60 73 61 74
REMARK SMILES IDX 63 75 65 76 62 77 46 78 47 79 52 80 48 81 49 82 51 83 53 84
REMARK SMILES IDX 50 85
REMARK H PARENT 70 47 44 58
REMARK Flexibility Score: inf
ROOT
ATOM      1  C   UNL A   1      37.262  21.245  25.903  1.00  0.00     0.188 C 
ENDROOT
BRANCH   1   2
ATOM      2  O   UNL A   1      36.947  20.571  24.699  1.00  0.00    -0.377 OA
BRANCH   2   3
ATOM      3  C   UNL A   1      36.196  19.383  24.941  1.00  0.00     0.188 C 
BRANCH   3   4
ATOM      4  C   UNL A   1      34.627  19.507  24.905  1.00  0.00     0.188 C 
BRANCH   4   5
ATOM      5  O   UNL A   1      33.886  20.582  24.098  1.00  0.00    -0.376 OA
BRANCH   5   6
ATOM      6  C   UNL A   1      33.514  22.136  24.431  1.00  0.00     0.202 C 
BRANCH   6   7
ATOM      7  C   UNL A   1      34.124  23.576  25.442  1.00  0.00     0.261 C 
BRANCH   7   8
ATOM      8  O   UNL A   1      33.291  24.954  26.329  1.00  0.00    -0.460 OA
BRANCH   8   9
ATOM      9  C   UNL A   1      32.061  25.999  26.361  1.00  0.00     0.338 C 
ATOM     10  O   UNL A   1      30.931  25.522  26.552  1.00  0.00    -0.246 OA
BRANCH   9  11
ATOM     11  C   UNL A   1      31.925  27.675  26.085  1.00  0.00     0.062 A 
ATOM     12  C   UNL A   1      31.168  32.045  26.079  1.00  0.00     0.046 C 
ATOM     13  C   UNL A   1      31.417  30.569  26.041  1.00  0.00    -0.028 A 
ATOM     14  C   UNL A   1      32.079  29.916  27.108  1.00  0.00     0.006 A 
ATOM     15  C   UNL A   1      31.044  29.805  24.956  1.00  0.00     0.040 A 
ATOM     16  C   UNL A   1      32.283  28.507  27.148  1.00  0.00     0.016 A 
ATOM     17  C   UNL A   1      31.441  28.448  24.980  1.00  0.00     0.041 A 
BRANCH  15  18
ATOM     18  N   UNL A   1      30.260  30.226  23.859  1.00  0.00    -0.371 N 
ATOM     19  C   UNL A   1      30.152  29.617  22.559  1.00  0.00     0.121 C 
ATOM     20  C   UNL A   1      29.061  30.982  23.694  1.00  0.00     0.121 C 
ATOM     21  C   UNL A   1      29.231  30.782  22.166  1.00  0.00     0.025 C 
ATOM     22  C   UNL A   1      28.024  30.467  21.301  1.00  0.00     0.011 C 
ENDBRANCH  15  18
ENDBRANCH   9  11
ENDBRANCH   8   9
ENDBRANCH   7   8
ENDBRANCH   6   7
ENDBRANCH   5   6
ENDBRANCH   4   5
ENDBRANCH   3   4
ENDBRANCH   2   3
ENDBRANCH   1   2
BRANCH   1  23
ATOM     23  C   UNL A   1      37.786  22.656  25.625  1.00  0.00     0.188 C 
BRANCH  23  24
ATOM     24  O   UNL A   1      39.203  22.713  25.635  1.00  0.00    -0.376 OA
BRANCH  24  25
ATOM     25  C   UNL A   1      39.876  22.054  26.695  1.00  0.00     0.202 C 
BRANCH  25  26
ATOM     26  C   UNL A   1      40.358  23.121  27.682  1.00  0.00     0.261 C 
BRANCH  26  27
ATOM     27  O   UNL A   1      41.180  24.096  26.992  1.00  0.00    -0.460 OA
BRANCH  27  28
ATOM     28  C   UNL A   1      40.707  25.365  26.999  1.00  0.00     0.338 C 
ATOM     29  O   UNL A   1      40.409  26.018  25.989  1.00  0.00    -0.246 OA
BRANCH  28  30
ATOM     30  C   UNL A   1      40.822  25.938  28.372  1.00  0.00     0.060 A 
ATOM     31  C   UNL A   1      39.689  26.378  29.041  1.00  0.00     0.016 A 
ATOM     32  C   UNL A   1      42.074  26.295  28.893  1.00  0.00     0.016 A 
ATOM     33  C   UNL A   1      39.840  27.307  30.080  1.00  0.00     0.010 A 
ATOM     34  C   UNL A   1      42.191  27.374  29.781  1.00  0.00     0.010 A 
ATOM     35  C   UNL A   1      41.052  28.024  30.267  1.00  0.00    -0.014 A 
BRANCH  35  36
ATOM     36  C   UNL A   1      41.194  29.391  31.140  1.00  0.00     0.031 A 
ATOM     37  C   UNL A   1      41.699  28.436  32.570  1.00  0.00     0.074 A 
ATOM     38  C   UNL A   1      40.624  30.955  30.994  1.00  0.00     0.049 A 
ATOM     39  N   UNL A   1      41.096  28.384  33.746  1.00  0.00    -0.248 NA
ATOM     40  C   UNL A   1      42.745  27.389  32.550  1.00  0.00     0.031 C 
ATOM     41  C   UNL A   1      40.582  32.310  32.023  1.00  0.00     0.029 A 
ATOM     42  N   UNL A   1      39.613  31.705  30.140  1.00  0.00    -0.354 N 
ATOM     43  C   UNL A   1      42.021  27.957  34.650  1.00  0.00     0.074 A 
ATOM     44  C   UNL A   1      42.810  27.047  33.847  1.00  0.00     0.031 C 
ATOM     45  C   UNL A   1      39.743  33.289  31.708  1.00  0.00     0.029 A 
ATOM     46  C   UNL A   1      38.841  32.696  30.817  1.00  0.00     0.049 A 
ATOM     47  H   UNL A   1      39.498  31.517  29.180  1.00  0.00     0.167 HD
ATOM     48  C   UNL A   1      42.307  28.667  35.800  1.00  0.00     0.037 A 
ATOM     49  C   UNL A   1      37.499  32.739  31.114  1.00  0.00     0.037 A 
ATOM     50  C   UNL A   1      41.584  29.983  35.931  1.00  0.00     0.049 A 
ATOM     51  C   UNL A   1      37.297  32.805  32.667  1.00  0.00     0.074 A 
ATOM     52  C   UNL A   1      42.067  31.288  35.834  1.00  0.00     0.029 A 
ATOM     53  N   UNL A   1      40.181  30.138  35.915  1.00  0.00    -0.354 N 
ATOM     54  N   UNL A   1      38.160  32.319  33.531  1.00  0.00    -0.248 NA
ATOM     55  C   UNL A   1      36.184  33.445  33.358  1.00  0.00     0.031 C 
ATOM     56  C   UNL A   1      40.993  32.199  35.693  1.00  0.00     0.029 A 
ATOM     57  C   UNL A   1      39.807  31.490  35.764  1.00  0.00     0.049 A 
ATOM     58  H   UNL A   1      39.542  29.395  36.001  1.00  0.00     0.167 HD
ATOM     59  C   UNL A   1      37.752  32.493  34.824  1.00  0.00     0.074 A 
ATOM     60  C   UNL A   1      36.522  33.261  34.654  1.00  0.00     0.031 C 
ATOM     61  C   UNL A   1      38.432  32.003  35.920  1.00  0.00     0.037 A 
BRANCH  48  62
ATOM     62  C   UNL A   1      43.656  28.372  36.488  1.00  0.00     0.057 A 
ATOM     63  C   UNL A   1      43.825  27.408  37.499  1.00  0.00     0.134 A 
ATOM     64  C   UNL A   1      44.824  29.115  36.231  1.00  0.00     0.134 A 
ATOM     65  F   UNL A   1      42.946  26.420  37.697  1.00  0.00    -0.206 F 
ATOM     66  C   UNL A   1      44.949  27.366  38.340  1.00  0.00     0.040 A 
ATOM     67  C   UNL A   1      45.941  29.119  37.084  1.00  0.00     0.040 A 
ATOM     68  F   UNL A   1      44.936  29.857  35.118  1.00  0.00    -0.206 F 
ATOM     69  C   UNL A   1      45.988  28.266  38.174  1.00  0.00     0.006 A 
ENDBRANCH  48  62
BRANCH  49  70
ATOM     70  C   UNL A   1      36.546  32.118  30.145  1.00  0.00     0.057 A 
ATOM     71  C   UNL A   1      35.926  32.934  29.178  1.00  0.00     0.134 A 
ATOM     72  C   UNL A   1      36.420  30.736  29.958  1.00  0.00     0.134 A 
ATOM     73  F   UNL A   1      35.941  34.270  29.311  1.00  0.00    -0.206 F 
ATOM     74  C   UNL A   1      35.361  32.412  28.010  1.00  0.00     0.040 A 
ATOM     75  C   UNL A   1      35.883  30.201  28.777  1.00  0.00     0.040 A 
ATOM     76  F   UNL A   1      36.976  29.881  30.828  1.00  0.00    -0.206 F 
ATOM     77  C   UNL A   1      35.385  31.042  27.784  1.00  0.00     0.006 A 
ENDBRANCH  49  70
BRANCH  61  78
ATOM     78  C   UNL A   1      37.933  32.129  37.345  1.00  0.00     0.057 A 
ATOM     79  C   UNL A   1      37.381  31.066  38.067  1.00  0.00     0.134 A 
ATOM     80  C   UNL A   1      38.128  33.321  38.085  1.00  0.00     0.134 A 
ATOM     81  F   UNL A   1      37.224  29.856  37.512  1.00  0.00    -0.206 F 
ATOM     82  C   UNL A   1      37.011  31.187  39.413  1.00  0.00     0.040 A 
ATOM     83  C   UNL A   1      37.817  33.435  39.442  1.00  0.00     0.040 A 
ATOM     84  F   UNL A   1      38.634  34.431  37.533  1.00  0.00    -0.206 F 
ATOM     85  C   UNL A   1      37.244  32.368  40.110  1.00  0.00     0.006 A 
ENDBRANCH  61  78
ENDBRANCH  35  36
ENDBRANCH  28  30
ENDBRANCH  27  28
ENDBRANCH  26  27
ENDBRANCH  25  26
ENDBRANCH  24  25
ENDBRANCH  23  24
ENDBRANCH   1  23
TORSDOF 21
ENDMDL
MODEL 3
REMARK VINA RESULT:     -10.1      6.726     10.869
REMARK SMILES Cc1ccc(C(=O)OCCOCCOCCOCCOC(=O)c2ccc(-c3c4nc(c(-c5c(F)cccc5F)c5ccc([nH]5)c(-c5c(F)cccc5F)c5nc(c(-c6c(F)cccc6F)c6ccc3[nH]6)C=C5)C=C4)cc2)cc1N1CC(C)C1
REMARK SMILES IDX 15 1 14 2 13 3 12 4 11 5 10 6 9 7 8 8 6 9 7 10 5 11 1 12
REMARK SMILES IDX 2 13 3 14 78 15 4 16 77 17 79 18 80 19 83 20 81 21 82 22
REMARK SMILES IDX 16 23 17 24 18 25 19 26 20 27 21 28 22 29 23 30 24 31 76 32
REMARK SMILES IDX 25 33 75 34 26 35 27 36 28 37 69 38 29 39 74 40 68 41 70 42
REMARK SMILES IDX 30 43 73 44 67 45 66 46 31 48 57 49 40 50 56 51 41 52 44 53
REMARK SMILES IDX 55 54 71 55 42 56 43 57 54 59 72 60 45 61 32 62 33 63 38 64
REMARK SMILES IDX 34 65 35 66 37 67 39 68 36 69 58 70 59 71 64 72 60 73 61 74
REMARK SMILES IDX 63 75 65 76 62 77 46 78 47 79 52 80 48 81 49 82 51 83 53 84
REMARK SMILES IDX 50 85
REMARK H PARENT 70 47 44 58
REMARK Flexibility Score: inf
ROOT
ATOM      1  C   UNL A   1      32.830  35.704  32.782  1.00  0.00     0.188 C 
ENDROOT
BRANCH   1   2
ATOM      2  O   UNL A   1      32.287  35.650  31.476  1.00  0.00    -0.377 OA
BRANCH   2   3
ATOM      3  C   UNL A   1      33.262  35.974  30.487  1.00  0.00     0.188 C 
BRANCH   3   4
ATOM      4  C   UNL A   1      32.891  35.666  28.988  1.00  0.00     0.188 C 
BRANCH   4   5
ATOM      5  O   UNL A   1      33.197  34.327  28.302  1.00  0.00    -0.376 OA
BRANCH   5   6
ATOM      6  C   UNL A   1      32.279  33.331  27.392  1.00  0.00     0.202 C 
BRANCH   6   7
ATOM      7  C   UNL A   1      32.135  31.534  26.925  1.00  0.00     0.261 C 
BRANCH   7   8
ATOM      8  O   UNL A   1      33.347  30.251  26.411  1.00  0.00    -0.460 OA
BRANCH   8   9
ATOM      9  C   UNL A   1      33.661  28.678  26.226  1.00  0.00     0.338 C 
ATOM     10  O   UNL A   1      34.650  28.235  26.831  1.00  0.00    -0.246 OA
BRANCH   9  11
ATOM     11  C   UNL A   1      32.982  27.440  25.274  1.00  0.00     0.062 A 
ATOM     12  C   UNL A   1      30.574  24.278  23.305  1.00  0.00     0.046 C 
ATOM     13  C   UNL A   1      31.420  25.323  23.964  1.00  0.00    -0.028 A 
ATOM     14  C   UNL A   1      30.935  26.640  24.149  1.00  0.00     0.006 A 
ATOM     15  C   UNL A   1      32.706  25.050  24.377  1.00  0.00     0.040 A 
ATOM     16  C   UNL A   1      31.676  27.651  24.827  1.00  0.00     0.016 A 
ATOM     17  C   UNL A   1      33.450  26.146  24.873  1.00  0.00     0.041 A 
BRANCH  15  18
ATOM     18  N   UNL A   1      33.329  23.783  24.411  1.00  0.00    -0.371 N 
ATOM     19  C   UNL A   1      34.604  23.405  23.859  1.00  0.00     0.121 C 
ATOM     20  C   UNL A   1      33.267  22.639  25.262  1.00  0.00     0.121 C 
ATOM     21  C   UNL A   1      34.300  21.971  24.319  1.00  0.00     0.025 C 
ATOM     22  C   UNL A   1      35.444  21.157  24.897  1.00  0.00     0.011 C 
ENDBRANCH  15  18
ENDBRANCH   9  11
ENDBRANCH   8   9
ENDBRANCH   7   8
ENDBRANCH   6   7
ENDBRANCH   5   6
ENDBRANCH   4   5
ENDBRANCH   3   4
ENDBRANCH   2   3
ENDBRANCH   1   2
BRANCH   1  23
ATOM     23  C   UNL A   1      34.356  35.820  32.741  1.00  0.00     0.188 C 
BRANCH  23  24
ATOM     24  O   UNL A   1      34.995  34.697  33.327  1.00  0.00    -0.376 OA
BRANCH  24  25
ATOM     25  C   UNL A   1      35.763  33.864  32.474  1.00  0.00     0.202 C 
BRANCH  25  26
ATOM     26  C   UNL A   1      34.829  32.805  31.884  1.00  0.00     0.261 C 
BRANCH  26  27
ATOM     27  O   UNL A   1      35.599  31.661  31.437  1.00  0.00    -0.460 OA
BRANCH  27  28
ATOM     28  C   UNL A   1      36.032  31.717  30.155  1.00  0.00     0.338 C 
ATOM     29  O   UNL A   1      35.325  31.515  29.157  1.00  0.00    -0.246 OA
BRANCH  28  30
ATOM     30  C   UNL A   1      37.520  31.819  30.128  1.00  0.00     0.060 A 
ATOM     31  C   UNL A   1      38.296  30.868  30.775  1.00  0.00     0.016 A 
ATOM     32  C   UNL A   1      38.146  32.999  29.699  1.00  0.00     0.016 A 
ATOM     33  C   UNL A   1      39.607  31.205  31.139  1.00  0.00     0.010 A 
ATOM     34  C   UNL A   1      39.373  33.392  30.254  1.00  0.00     0.010 A 
ATOM     35  C   UNL A   1      40.057  32.552  31.139  1.00  0.00    -0.014 A 
BRANCH  35  36
ATOM     36  C   UNL A   1      41.377  33.089  31.927  1.00  0.00     0.031 A 
ATOM     37  C   UNL A   1      40.346  33.693  33.262  1.00  0.00     0.074 A 
ATOM     38  C   UNL A   1      42.954  33.437  31.497  1.00  0.00     0.049 A 
ATOM     39  N   UNL A   1      40.244  34.942  33.687  1.00  0.00    -0.248 NA
ATOM     40  C   UNL A   1      39.286  32.901  33.926  1.00  0.00     0.031 C 
ATOM     41  C   UNL A   1      44.257  34.214  32.268  1.00  0.00     0.029 A 
ATOM     42  N   UNL A   1      43.759  33.591  30.215  1.00  0.00    -0.354 N 
ATOM     43  C   UNL A   1      39.759  34.892  34.959  1.00  0.00     0.074 A 
ATOM     44  C   UNL A   1      38.880  33.744  34.888  1.00  0.00     0.031 C 
ATOM     45  C   UNL A   1      45.261  34.624  31.504  1.00  0.00     0.029 A 
ATOM     46  C   UNL A   1      44.725  34.641  30.211  1.00  0.00     0.049 A 
ATOM     47  H   UNL A   1      43.620  33.003  29.437  1.00  0.00     0.167 HD
ATOM     48  C   UNL A   1      40.408  35.501  36.017  1.00  0.00     0.037 A 
ATOM     49  C   UNL A   1      44.772  35.814  29.495  1.00  0.00     0.037 A 
ATOM     50  C   UNL A   1      41.725  36.145  35.668  1.00  0.00     0.049 A 
ATOM     51  C   UNL A   1      44.763  37.038  30.475  1.00  0.00     0.074 A 
ATOM     52  C   UNL A   1      43.027  35.762  35.992  1.00  0.00     0.029 A 
ATOM     53  N   UNL A   1      41.900  37.148  34.691  1.00  0.00    -0.354 N 
ATOM     54  N   UNL A   1      44.223  37.004  31.673  1.00  0.00    -0.248 NA
ATOM     55  C   UNL A   1      45.383  38.335  30.229  1.00  0.00     0.031 C 
ATOM     56  C   UNL A   1      43.958  36.460  35.186  1.00  0.00     0.029 A 
ATOM     57  C   UNL A   1      43.263  37.346  34.383  1.00  0.00     0.049 A 
ATOM     58  H   UNL A   1      41.162  37.649  34.276  1.00  0.00     0.167 HD
ATOM     59  C   UNL A   1      44.338  38.199  32.327  1.00  0.00     0.074 A 
ATOM     60  C   UNL A   1      45.131  38.985  31.386  1.00  0.00     0.031 C 
ATOM     61  C   UNL A   1      43.786  38.457  33.564  1.00  0.00     0.037 A 
BRANCH  48  62
ATOM     62  C   UNL A   1      40.061  35.000  37.433  1.00  0.00     0.057 A 
ATOM     63  C   UNL A   1      40.281  33.682  37.874  1.00  0.00     0.134 A 
ATOM     64  C   UNL A   1      39.399  35.798  38.386  1.00  0.00     0.134 A 
ATOM     65  F   UNL A   1      41.130  32.855  37.255  1.00  0.00    -0.206 F 
ATOM     66  C   UNL A   1      39.678  33.145  39.024  1.00  0.00     0.040 A 
ATOM     67  C   UNL A   1      38.753  35.274  39.518  1.00  0.00     0.040 A 
ATOM     68  F   UNL A   1      39.372  37.135  38.263  1.00  0.00    -0.206 F 
ATOM     69  C   UNL A   1      38.858  33.926  39.820  1.00  0.00     0.006 A 
ENDBRANCH  48  62
BRANCH  49  70
ATOM     70  C   UNL A   1      44.212  35.813  28.110  1.00  0.00     0.057 A 
ATOM     71  C   UNL A   1      44.927  35.163  27.085  1.00  0.00     0.134 A 
ATOM     72  C   UNL A   1      42.898  36.188  27.803  1.00  0.00     0.134 A 
ATOM     73  F   UNL A   1      46.213  34.825  27.268  1.00  0.00    -0.206 F 
ATOM     74  C   UNL A   1      44.322  34.759  25.890  1.00  0.00     0.040 A 
ATOM     75  C   UNL A   1      42.271  35.764  26.622  1.00  0.00     0.040 A 
ATOM     76  F   UNL A   1      42.141  36.813  28.716  1.00  0.00    -0.206 F 
ATOM     77  C   UNL A   1      42.973  35.016  25.679  1.00  0.00     0.006 A 
ENDBRANCH  49  70
BRANCH  61  78
ATOM     78  C   UNL A   1      43.848  39.807  34.248  1.00  0.00     0.057 A 
ATOM     79  C   UNL A   1      44.692  40.088  35.329  1.00  0.00     0.134 A 
ATOM     80  C   UNL A   1      43.140  40.921  33.734  1.00  0.00     0.134 A 
ATOM     81  F   UNL A   1      45.484  39.144  35.856  1.00  0.00    -0.206 F 
ATOM     82  C   UNL A   1      44.794  41.370  35.884  1.00  0.00     0.040 A 
ATOM     83  C   UNL A   1      43.280  42.214  34.242  1.00  0.00     0.040 A 
ATOM     84  F   UNL A   1      42.284  40.813  32.710  1.00  0.00    -0.206 F 
ATOM     85  C   UNL A   1      44.101  42.441  35.331  1.00  0.00     0.006 A 
ENDBRANCH  61  78
ENDBRANCH  35  36
ENDBRANCH  28  30
ENDBRANCH  27  28
ENDBRANCH  26  27
ENDBRANCH  25  26
ENDBRANCH  24  25
ENDBRANCH  23  24
ENDBRANCH   1  23
TORSDOF 21
ENDMDL
