MODEL 1
REMARK VINA RESULT:      -9.4      0.000      0.000
REMARK SMILES CC/C(=C/C(=O)[C@H](Cc1ccc(Cl)cc1Cl)C(=O)OCCOCCOCCOCCOC(=O)c1ccc(-c2c3nc(c(-c4c(F)cccc4F)c4ccc([nH]4)c(-c4c(F)cccc4F)c4nc(c(-c5c(F)cccc5F)c5ccc2[nH]5)C=C4)C=C3)cc1)N(C)C
REMARK SMILES IDX 24 1 23 2 22 3 21 4 20 5 19 6 17 7 18 8 7 9 5 10 6 11 4 12
REMARK SMILES IDX 3 13 2 14 1 15 88 16 89 17 90 18 8 19 9 20 10 21 15 22 11 23
REMARK SMILES IDX 14 24 16 25 12 26 13 27 25 28 26 29 27 30 28 31 29 32 30 33
REMARK SMILES IDX 31 34 32 35 33 36 34 37 35 38 87 39 36 40 86 41 37 42 38 43
REMARK SMILES IDX 39 44 80 45 40 46 85 47 79 48 81 49 41 50 84 51 78 52 77 53
REMARK SMILES IDX 42 55 68 56 51 57 67 58 52 59 55 60 66 61 82 62 53 63 54 64
REMARK SMILES IDX 65 66 83 67 56 68 43 69 44 70 49 71 45 72 46 73 48 74 50 75
REMARK SMILES IDX 47 76 69 77 70 78 75 79 71 80 72 81 74 82 76 83 73 84 57 85
REMARK SMILES IDX 58 86 63 87 59 88 60 89 62 90 64 91 61 92
REMARK H PARENT 81 54 55 65
REMARK Flexibility Score: inf
ROOT
ATOM      1  C   UNL A   1      40.909  20.735  26.812  1.00  0.00     0.188 C 
ENDROOT
BRANCH   1   2
ATOM      2  C   UNL A   1      39.577  20.457  26.091  1.00  0.00     0.188 C 
BRANCH   2   3
ATOM      3  O   UNL A   1      38.962  21.469  25.307  1.00  0.00    -0.376 OA
BRANCH   3   4
ATOM      4  C   UNL A   1      37.929  22.295  25.840  1.00  0.00     0.202 C 
BRANCH   4   5
ATOM      5  C   UNL A   1      37.192  23.359  25.006  1.00  0.00     0.261 C 
BRANCH   5   6
ATOM      6  O   UNL A   1      35.767  23.277  25.085  1.00  0.00    -0.463 OA
BRANCH   6   7
ATOM      7  C   UNL A   1      35.037  23.456  23.943  1.00  0.00     0.317 C 
ATOM      8  O   UNL A   1      35.457  23.175  22.832  1.00  0.00    -0.251 OA
BRANCH   7   9
ATOM      9  C   UNL A   1      33.614  23.870  24.321  1.00  0.00     0.175 C 
BRANCH   9  10
ATOM     10  C   UNL A   1      33.466  24.606  25.639  1.00  0.00     0.171 C 
ATOM     11  O   UNL A   1      33.058  24.083  26.674  1.00  0.00    -0.294 OA
BRANCH  10  12
ATOM     12  C   UNL A   1      33.815  26.044  25.718  1.00  0.00     0.069 C 
ATOM     13  C   UNL A   1      33.374  27.078  24.974  1.00  0.00     0.016 C 
BRANCH  13  14
ATOM     14  C   UNL A   1      33.515  28.430  25.676  1.00  0.00     0.050 C 
ATOM     15  C   UNL A   1      32.812  29.581  24.984  1.00  0.00     0.010 C 
ENDBRANCH  13  14
BRANCH  13  16
ATOM     16  N   UNL A   1      32.750  27.026  23.715  1.00  0.00    -0.381 N 
ATOM     17  C   UNL A   1      33.480  26.947  22.442  1.00  0.00     0.143 C 
ATOM     18  C   UNL A   1      31.323  26.689  23.564  1.00  0.00     0.143 C 
ENDBRANCH  13  16
ENDBRANCH  10  12
ENDBRANCH   9  10
BRANCH   9  19
ATOM     19  C   UNL A   1      32.578  22.807  23.844  1.00  0.00     0.060 C 
BRANCH  19  20
ATOM     20  C   UNL A   1      32.593  21.303  24.009  1.00  0.00    -0.028 A 
ATOM     21  C   UNL A   1      32.814  20.843  25.331  1.00  0.00     0.007 A 
ATOM     22  C   UNL A   1      32.311  20.344  23.032  1.00  0.00     0.045 A 
ATOM     23  C   UNL A   1      32.857  19.486  25.643  1.00  0.00     0.021 A 
ATOM     24  C   UNL A   1      32.411  18.978  23.329  1.00  0.00     0.041 A 
ATOM     25  Cl  UNL A   1      31.759  20.769  21.457  1.00  0.00    -0.084 Cl
ATOM     26  C   UNL A   1      32.690  18.557  24.628  1.00  0.00     0.042 A 
ATOM     27  Cl  UNL A   1      32.797  16.880  24.987  1.00  0.00    -0.084 Cl
ENDBRANCH  19  20
ENDBRANCH   9  19
ENDBRANCH   7   9
ENDBRANCH   6   7
ENDBRANCH   5   6
ENDBRANCH   4   5
ENDBRANCH   3   4
ENDBRANCH   2   3
ENDBRANCH   1   2
BRANCH   1  28
ATOM     28  O   UNL A   1      41.754  19.609  26.911  1.00  0.00    -0.377 OA
BRANCH  28  29
ATOM     29  C   UNL A   1      42.481  19.262  25.740  1.00  0.00     0.188 C 
BRANCH  29  30
ATOM     30  C   UNL A   1      43.927  19.780  25.559  1.00  0.00     0.188 C 
BRANCH  30  31
ATOM     31  O   UNL A   1      44.216  20.293  24.265  1.00  0.00    -0.376 OA
BRANCH  31  32
ATOM     32  C   UNL A   1      44.525  21.672  24.136  1.00  0.00     0.202 C 
BRANCH  32  33
ATOM     33  C   UNL A   1      43.488  22.677  24.665  1.00  0.00     0.261 C 
BRANCH  33  34
ATOM     34  O   UNL A   1      43.946  24.024  24.849  1.00  0.00    -0.460 OA
BRANCH  34  35
ATOM     35  C   UNL A   1      44.785  24.271  25.883  1.00  0.00     0.338 C 
ATOM     36  O   UNL A   1      45.946  23.944  25.979  1.00  0.00    -0.246 OA
BRANCH  35  37
ATOM     37  C   UNL A   1      44.079  25.196  26.800  1.00  0.00     0.060 A 
ATOM     38  C   UNL A   1      44.369  26.567  26.741  1.00  0.00     0.016 A 
ATOM     39  C   UNL A   1      43.100  24.719  27.674  1.00  0.00     0.016 A 
ATOM     40  C   UNL A   1      43.679  27.464  27.560  1.00  0.00     0.010 A 
ATOM     41  C   UNL A   1      42.434  25.614  28.516  1.00  0.00     0.010 A 
ATOM     42  C   UNL A   1      42.733  26.988  28.476  1.00  0.00    -0.014 A 
BRANCH  42  43
ATOM     43  C   UNL A   1      42.188  27.884  29.524  1.00  0.00     0.031 A 
ATOM     44  C   UNL A   1      42.875  27.915  30.860  1.00  0.00     0.074 A 
ATOM     45  C   UNL A   1      41.102  28.647  29.306  1.00  0.00     0.049 A 
ATOM     46  N   UNL A   1      42.534  28.537  31.959  1.00  0.00    -0.248 NA
ATOM     47  C   UNL A   1      44.116  27.131  30.967  1.00  0.00     0.031 C 
ATOM     48  C   UNL A   1      40.377  28.750  28.043  1.00  0.00     0.029 A 
ATOM     49  N   UNL A   1      40.412  29.472  30.161  1.00  0.00    -0.354 N 
ATOM     50  C   UNL A   1      43.514  28.215  32.890  1.00  0.00     0.074 A 
ATOM     51  C   UNL A   1      44.442  27.318  32.236  1.00  0.00     0.031 C 
ATOM     52  C   UNL A   1      39.332  29.582  28.209  1.00  0.00     0.029 A 
ATOM     53  C   UNL A   1      39.293  30.035  29.599  1.00  0.00     0.049 A 
ATOM     54  H   UNL A   1      40.693  29.643  31.090  1.00  0.00     0.167 HD
ATOM     55  C   UNL A   1      43.636  28.636  34.171  1.00  0.00     0.037 A 
ATOM     56  C   UNL A   1      38.333  30.803  30.154  1.00  0.00     0.037 A 
ATOM     57  C   UNL A   1      42.701  29.513  34.825  1.00  0.00     0.049 A 
ATOM     58  C   UNL A   1      38.423  31.160  31.616  1.00  0.00     0.074 A 
ATOM     59  C   UNL A   1      42.737  30.002  36.118  1.00  0.00     0.029 A 
ATOM     60  N   UNL A   1      41.550  30.018  34.237  1.00  0.00    -0.354 N 
ATOM     61  N   UNL A   1      39.364  30.874  32.484  1.00  0.00    -0.248 NA
ATOM     62  C   UNL A   1      37.312  31.944  32.178  1.00  0.00     0.031 C 
ATOM     63  C   UNL A   1      41.576  30.752  36.333  1.00  0.00     0.029 A 
ATOM     64  C   UNL A   1      40.847  30.783  35.154  1.00  0.00     0.049 A 
ATOM     65  H   UNL A   1      41.272  29.857  33.306  1.00  0.00     0.167 HD
ATOM     66  C   UNL A   1      38.972  31.463  33.682  1.00  0.00     0.074 A 
ATOM     67  C   UNL A   1      37.716  32.136  33.426  1.00  0.00     0.031 C 
ATOM     68  C   UNL A   1      39.597  31.449  34.886  1.00  0.00     0.037 A 
BRANCH  55  69
ATOM     69  C   UNL A   1      44.805  28.115  34.955  1.00  0.00     0.057 A 
ATOM     70  C   UNL A   1      46.043  28.772  34.966  1.00  0.00     0.134 A 
ATOM     71  C   UNL A   1      44.690  26.943  35.712  1.00  0.00     0.134 A 
ATOM     72  F   UNL A   1      46.227  29.891  34.249  1.00  0.00    -0.206 F 
ATOM     73  C   UNL A   1      47.134  28.262  35.673  1.00  0.00     0.040 A 
ATOM     74  C   UNL A   1      45.764  26.440  36.448  1.00  0.00     0.040 A 
ATOM     75  F   UNL A   1      43.532  26.265  35.750  1.00  0.00    -0.206 F 
ATOM     76  C   UNL A   1      46.994  27.095  36.422  1.00  0.00     0.006 A 
ENDBRANCH  55  69
BRANCH  56  77
ATOM     77  C   UNL A   1      37.187  31.275  29.335  1.00  0.00     0.057 A 
ATOM     78  C   UNL A   1      36.104  30.433  29.055  1.00  0.00     0.134 A 
ATOM     79  C   UNL A   1      37.156  32.564  28.789  1.00  0.00     0.134 A 
ATOM     80  F   UNL A   1      36.087  29.177  29.525  1.00  0.00    -0.206 F 
ATOM     81  C   UNL A   1      35.041  30.849  28.251  1.00  0.00     0.040 A 
ATOM     82  C   UNL A   1      36.087  33.003  28.006  1.00  0.00     0.040 A 
ATOM     83  F   UNL A   1      38.164  33.420  29.014  1.00  0.00    -0.206 F 
ATOM     84  C   UNL A   1      35.028  32.140  27.728  1.00  0.00     0.006 A 
ENDBRANCH  56  77
BRANCH  68  85
ATOM     85  C   UNL A   1      38.953  32.203  36.015  1.00  0.00     0.057 A 
ATOM     86  C   UNL A   1      38.135  31.568  36.958  1.00  0.00     0.134 A 
ATOM     87  C   UNL A   1      39.203  33.570  36.195  1.00  0.00     0.134 A 
ATOM     88  F   UNL A   1      37.845  30.263  36.840  1.00  0.00    -0.206 F 
ATOM     89  C   UNL A   1      37.575  32.269  38.029  1.00  0.00     0.040 A 
ATOM     90  C   UNL A   1      38.675  34.275  37.279  1.00  0.00     0.040 A 
ATOM     91  F   UNL A   1      39.986  34.239  35.336  1.00  0.00    -0.206 F 
ATOM     92  C   UNL A   1      37.853  33.625  38.197  1.00  0.00     0.006 A 
ENDBRANCH  68  85
ENDBRANCH  42  43
ENDBRANCH  35  37
ENDBRANCH  34  35
ENDBRANCH  33  34
ENDBRANCH  32  33
ENDBRANCH  31  32
ENDBRANCH  30  31
ENDBRANCH  29  30
ENDBRANCH  28  29
ENDBRANCH   1  28
TORSDOF 26
ENDMDL
MODEL 2
REMARK VINA RESULT:      -9.1      1.134      5.965
REMARK SMILES CC/C(=C/C(=O)[C@H](Cc1ccc(Cl)cc1Cl)C(=O)OCCOCCOCCOCCOC(=O)c1ccc(-c2c3nc(c(-c4c(F)cccc4F)c4ccc([nH]4)c(-c4c(F)cccc4F)c4nc(c(-c5c(F)cccc5F)c5ccc2[nH]5)C=C4)C=C3)cc1)N(C)C
REMARK SMILES IDX 24 1 23 2 22 3 21 4 20 5 19 6 17 7 18 8 7 9 5 10 6 11 4 12
REMARK SMILES IDX 3 13 2 14 1 15 88 16 89 17 90 18 8 19 9 20 10 21 15 22 11 23
REMARK SMILES IDX 14 24 16 25 12 26 13 27 25 28 26 29 27 30 28 31 29 32 30 33
REMARK SMILES IDX 31 34 32 35 33 36 34 37 35 38 87 39 36 40 86 41 37 42 38 43
REMARK SMILES IDX 39 44 80 45 40 46 85 47 79 48 81 49 41 50 84 51 78 52 77 53
REMARK SMILES IDX 42 55 68 56 51 57 67 58 52 59 55 60 66 61 82 62 53 63 54 64
REMARK SMILES IDX 65 66 83 67 56 68 43 69 44 70 49 71 45 72 46 73 48 74 50 75
REMARK SMILES IDX 47 76 69 77 70 78 75 79 71 80 72 81 74 82 76 83 73 84 57 85
REMARK SMILES IDX 58 86 63 87 59 88 60 89 62 90 64 91 61 92
REMARK H PARENT 81 54 55 65
REMARK Flexibility Score: inf
ROOT
ATOM      1  C   UNL A   1      40.740  21.998  27.983  1.00  0.00     0.188 C 
ENDROOT
BRANCH   1   2
ATOM      2  C   UNL A   1      40.125  23.253  27.336  1.00  0.00     0.188 C 
BRANCH   2   3
ATOM      3  O   UNL A   1      39.169  23.128  26.294  1.00  0.00    -0.376 OA
BRANCH   3   4
ATOM      4  C   UNL A   1      37.974  23.905  26.287  1.00  0.00     0.202 C 
BRANCH   4   5
ATOM      5  C   UNL A   1      36.779  23.597  25.365  1.00  0.00     0.261 C 
BRANCH   5   6
ATOM      6  O   UNL A   1      35.559  24.227  25.764  1.00  0.00    -0.463 OA
BRANCH   6   7
ATOM      7  C   UNL A   1      34.588  23.460  26.349  1.00  0.00     0.317 C 
ATOM      8  O   UNL A   1      34.741  22.892  27.418  1.00  0.00    -0.251 OA
BRANCH   7   9
ATOM      9  C   UNL A   1      33.293  23.601  25.549  1.00  0.00     0.175 C 
BRANCH   9  10
ATOM     10  C   UNL A   1      32.058  23.977  26.346  1.00  0.00     0.171 C 
ATOM     11  O   UNL A   1      31.744  23.449  27.411  1.00  0.00    -0.294 OA
BRANCH  10  12
ATOM     12  C   UNL A   1      31.149  25.031  25.837  1.00  0.00     0.069 C 
ATOM     13  C   UNL A   1      31.321  26.367  25.795  1.00  0.00     0.016 C 
BRANCH  13  14
ATOM     14  C   UNL A   1      30.456  27.054  24.736  1.00  0.00     0.050 C 
ATOM     15  C   UNL A   1      31.048  27.064  23.341  1.00  0.00     0.010 C 
ENDBRANCH  13  14
BRANCH  13  16
ATOM     16  N   UNL A   1      32.234  27.140  26.534  1.00  0.00    -0.381 N 
ATOM     17  C   UNL A   1      33.633  27.355  26.138  1.00  0.00     0.143 C 
ATOM     18  C   UNL A   1      31.793  28.089  27.572  1.00  0.00     0.143 C 
ENDBRANCH  13  16
ENDBRANCH  10  12
ENDBRANCH   9  10
BRANCH   9  19
ATOM     19  C   UNL A   1      33.244  22.572  24.380  1.00  0.00     0.060 C 
BRANCH  19  20
ATOM     20  C   UNL A   1      32.992  21.080  24.417  1.00  0.00    -0.028 A 
ATOM     21  C   UNL A   1      33.240  20.458  25.666  1.00  0.00     0.007 A 
ATOM     22  C   UNL A   1      32.451  20.290  23.400  1.00  0.00     0.045 A 
ATOM     23  C   UNL A   1      33.056  19.090  25.859  1.00  0.00     0.021 A 
ATOM     24  C   UNL A   1      32.319  18.904  23.571  1.00  0.00     0.041 A 
ATOM     25  Cl  UNL A   1      31.850  20.961  21.933  1.00  0.00    -0.084 Cl
ATOM     26  C   UNL A   1      32.630  18.313  24.794  1.00  0.00     0.042 A 
ATOM     27  Cl  UNL A   1      32.452  16.615  25.000  1.00  0.00    -0.084 Cl
ENDBRANCH  19  20
ENDBRANCH   9  19
ENDBRANCH   7   9
ENDBRANCH   6   7
ENDBRANCH   5   6
ENDBRANCH   4   5
ENDBRANCH   3   4
ENDBRANCH   2   3
ENDBRANCH   1   2
BRANCH   1  28
ATOM     28  O   UNL A   1      41.638  21.303  27.146  1.00  0.00    -0.377 OA
BRANCH  28  29
ATOM     29  C   UNL A   1      42.520  22.101  26.368  1.00  0.00     0.188 C 
BRANCH  29  30
ATOM     30  C   UNL A   1      44.024  21.741  26.310  1.00  0.00     0.188 C 
BRANCH  30  31
ATOM     31  O   UNL A   1      44.522  21.485  25.003  1.00  0.00    -0.376 OA
BRANCH  31  32
ATOM     32  C   UNL A   1      45.479  22.379  24.456  1.00  0.00     0.202 C 
BRANCH  32  33
ATOM     33  C   UNL A   1      45.086  23.863  24.370  1.00  0.00     0.261 C 
BRANCH  33  34
ATOM     34  O   UNL A   1      45.204  24.623  25.581  1.00  0.00    -0.460 OA
BRANCH  34  35
ATOM     35  C   UNL A   1      45.360  25.964  25.473  1.00  0.00     0.338 C 
ATOM     36  O   UNL A   1      45.889  26.570  24.570  1.00  0.00    -0.246 OA
BRANCH  35  37
ATOM     37  C   UNL A   1      44.581  26.578  26.574  1.00  0.00     0.060 A 
ATOM     38  C   UNL A   1      44.744  27.944  26.844  1.00  0.00     0.016 A 
ATOM     39  C   UNL A   1      43.658  25.821  27.299  1.00  0.00     0.016 A 
ATOM     40  C   UNL A   1      43.984  28.556  27.844  1.00  0.00     0.010 A 
ATOM     41  C   UNL A   1      42.922  26.428  28.320  1.00  0.00     0.010 A 
ATOM     42  C   UNL A   1      43.094  27.793  28.610  1.00  0.00    -0.014 A 
BRANCH  42  43
ATOM     43  C   UNL A   1      42.480  28.364  29.834  1.00  0.00     0.031 A 
ATOM     44  C   UNL A   1      41.160  29.069  29.702  1.00  0.00     0.074 A 
ATOM     45  C   UNL A   1      43.079  28.271  31.034  1.00  0.00     0.049 A 
ATOM     46  N   UNL A   1      40.475  29.730  30.599  1.00  0.00    -0.248 NA
ATOM     47  C   UNL A   1      40.532  29.023  28.373  1.00  0.00     0.031 C 
ATOM     48  C   UNL A   1      44.330  27.569  31.306  1.00  0.00     0.029 A 
ATOM     49  N   UNL A   1      42.712  28.792  32.251  1.00  0.00    -0.354 N 
ATOM     50  C   UNL A   1      39.338  30.183  29.942  1.00  0.00     0.074 A 
ATOM     51  C   UNL A   1      39.443  29.751  28.565  1.00  0.00     0.031 C 
ATOM     52  C   UNL A   1      44.636  27.715  32.609  1.00  0.00     0.029 A 
ATOM     53  C   UNL A   1      43.623  28.554  33.249  1.00  0.00     0.049 A 
ATOM     54  H   UNL A   1      41.874  29.290  32.393  1.00  0.00     0.167 HD
ATOM     55  C   UNL A   1      38.296  30.889  30.441  1.00  0.00     0.037 A 
ATOM     56  C   UNL A   1      43.650  28.991  34.525  1.00  0.00     0.037 A 
ATOM     57  C   UNL A   1      38.203  31.335  31.806  1.00  0.00     0.049 A 
ATOM     58  C   UNL A   1      42.540  29.879  35.028  1.00  0.00     0.074 A 
ATOM     59  C   UNL A   1      37.187  32.051  32.412  1.00  0.00     0.029 A 
ATOM     60  N   UNL A   1      39.175  31.120  32.773  1.00  0.00    -0.354 N 
ATOM     61  N   UNL A   1      41.456  30.283  34.410  1.00  0.00    -0.248 NA
ATOM     62  C   UNL A   1      42.661  30.376  36.407  1.00  0.00     0.031 C 
ATOM     63  C   UNL A   1      37.572  32.324  33.729  1.00  0.00     0.029 A 
ATOM     64  C   UNL A   1      38.799  31.724  33.962  1.00  0.00     0.049 A 
ATOM     65  H   UNL A   1      40.008  30.615  32.636  1.00  0.00     0.167 HD
ATOM     66  C   UNL A   1      40.756  31.057  35.330  1.00  0.00     0.074 A 
ATOM     67  C   UNL A   1      41.530  31.053  36.554  1.00  0.00     0.031 C 
ATOM     68  C   UNL A   1      39.578  31.711  35.176  1.00  0.00     0.037 A 
BRANCH  55  69
ATOM     69  C   UNL A   1      37.195  31.253  29.488  1.00  0.00     0.057 A 
ATOM     70  C   UNL A   1      37.147  32.501  28.851  1.00  0.00     0.134 A 
ATOM     71  C   UNL A   1      36.171  30.343  29.200  1.00  0.00     0.134 A 
ATOM     72  F   UNL A   1      38.088  33.426  29.094  1.00  0.00    -0.206 F 
ATOM     73  C   UNL A   1      36.102  32.842  27.990  1.00  0.00     0.040 A 
ATOM     74  C   UNL A   1      35.137  30.660  28.318  1.00  0.00     0.040 A 
ATOM     75  F   UNL A   1      36.156  29.129  29.773  1.00  0.00    -0.206 F 
ATOM     76  C   UNL A   1      35.096  31.917  27.717  1.00  0.00     0.006 A 
ENDBRANCH  55  69
BRANCH  56  77
ATOM     77  C   UNL A   1      44.775  28.616  35.420  1.00  0.00     0.057 A 
ATOM     78  C   UNL A   1      44.712  27.469  36.220  1.00  0.00     0.134 A 
ATOM     79  C   UNL A   1      45.926  29.408  35.522  1.00  0.00     0.134 A 
ATOM     80  F   UNL A   1      43.624  26.685  36.189  1.00  0.00    -0.206 F 
ATOM     81  C   UNL A   1      45.742  27.129  37.098  1.00  0.00     0.040 A 
ATOM     82  C   UNL A   1      46.977  29.066  36.376  1.00  0.00     0.040 A 
ATOM     83  F   UNL A   1      46.050  30.524  34.789  1.00  0.00    -0.206 F 
ATOM     84  C   UNL A   1      46.883  27.926  37.173  1.00  0.00     0.006 A 
ENDBRANCH  56  77
BRANCH  68  85
ATOM     85  C   UNL A   1      39.033  32.456  36.362  1.00  0.00     0.057 A 
ATOM     86  C   UNL A   1      38.126  31.868  37.253  1.00  0.00     0.134 A 
ATOM     87  C   UNL A   1      39.466  33.757  36.649  1.00  0.00     0.134 A 
ATOM     88  F   UNL A   1      37.660  30.629  37.032  1.00  0.00    -0.206 F 
ATOM     89  C   UNL A   1      37.658  32.553  38.377  1.00  0.00     0.040 A 
ATOM     90  C   UNL A   1      39.030  34.440  37.785  1.00  0.00     0.040 A 
ATOM     91  F   UNL A   1      40.343  34.376  35.844  1.00  0.00    -0.206 F 
ATOM     92  C   UNL A   1      38.118  33.840  38.650  1.00  0.00     0.006 A 
ENDBRANCH  68  85
ENDBRANCH  42  43
ENDBRANCH  35  37
ENDBRANCH  34  35
ENDBRANCH  33  34
ENDBRANCH  32  33
ENDBRANCH  31  32
ENDBRANCH  30  31
ENDBRANCH  29  30
ENDBRANCH  28  29
ENDBRANCH   1  28
TORSDOF 26
ENDMDL
MODEL 3
REMARK VINA RESULT:      -8.5      1.689      6.439
REMARK SMILES CC/C(=C/C(=O)[C@H](Cc1ccc(Cl)cc1Cl)C(=O)OCCOCCOCCOCCOC(=O)c1ccc(-c2c3nc(c(-c4c(F)cccc4F)c4ccc([nH]4)c(-c4c(F)cccc4F)c4nc(c(-c5c(F)cccc5F)c5ccc2[nH]5)C=C4)C=C3)cc1)N(C)C
REMARK SMILES IDX 24 1 23 2 22 3 21 4 20 5 19 6 17 7 18 8 7 9 5 10 6 11 4 12
REMARK SMILES IDX 3 13 2 14 1 15 88 16 89 17 90 18 8 19 9 20 10 21 15 22 11 23
REMARK SMILES IDX 14 24 16 25 12 26 13 27 25 28 26 29 27 30 28 31 29 32 30 33
REMARK SMILES IDX 31 34 32 35 33 36 34 37 35 38 87 39 36 40 86 41 37 42 38 43
REMARK SMILES IDX 39 44 80 45 40 46 85 47 79 48 81 49 41 50 84 51 78 52 77 53
REMARK SMILES IDX 42 55 68 56 51 57 67 58 52 59 55 60 66 61 82 62 53 63 54 64
REMARK SMILES IDX 65 66 83 67 56 68 43 69 44 70 49 71 45 72 46 73 48 74 50 75
REMARK SMILES IDX 47 76 69 77 70 78 75 79 71 80 72 81 74 82 76 83 73 84 57 85
REMARK SMILES IDX 58 86 63 87 59 88 60 89 62 90 64 91 61 92
REMARK H PARENT 81 54 55 65
REMARK Flexibility Score: inf
ROOT
ATOM      1  C   UNL A   1      38.305  22.826  25.590  1.00  0.00     0.188 C 
ENDROOT
BRANCH   1   2
ATOM      2  C   UNL A   1      36.965  23.323  26.162  1.00  0.00     0.188 C 
BRANCH   2   3
ATOM      3  O   UNL A   1      36.351  24.491  25.638  1.00  0.00    -0.376 OA
BRANCH   3   4
ATOM      4  C   UNL A   1      34.936  24.664  25.670  1.00  0.00     0.202 C 
BRANCH   4   5
ATOM      5  C   UNL A   1      34.021  23.909  26.652  1.00  0.00     0.261 C 
BRANCH   5   6
ATOM      6  O   UNL A   1      32.632  24.214  26.503  1.00  0.00    -0.463 OA
BRANCH   6   7
ATOM      7  C   UNL A   1      31.826  23.304  25.874  1.00  0.00     0.317 C 
ATOM      8  O   UNL A   1      31.019  22.606  26.467  1.00  0.00    -0.251 OA
BRANCH   7   9
ATOM      9  C   UNL A   1      31.988  23.458  24.362  1.00  0.00     0.175 C 
BRANCH   9  10
ATOM     10  C   UNL A   1      30.774  23.975  23.614  1.00  0.00     0.171 C 
ATOM     11  O   UNL A   1      30.152  23.318  22.781  1.00  0.00    -0.294 OA
BRANCH  10  12
ATOM     12  C   UNL A   1      30.286  25.350  23.869  1.00  0.00     0.069 C 
ATOM     13  C   UNL A   1      30.738  26.526  23.389  1.00  0.00     0.016 C 
BRANCH  13  14
ATOM     14  C   UNL A   1      29.686  27.636  23.422  1.00  0.00     0.050 C 
ATOM     15  C   UNL A   1      28.265  27.158  23.641  1.00  0.00     0.010 C 
ENDBRANCH  13  14
BRANCH  13  16
ATOM     16  N   UNL A   1      31.992  26.793  22.810  1.00  0.00    -0.381 N 
ATOM     17  C   UNL A   1      33.130  27.358  23.548  1.00  0.00     0.143 C 
ATOM     18  C   UNL A   1      32.396  26.210  21.518  1.00  0.00     0.143 C 
ENDBRANCH  13  16
ENDBRANCH  10  12
ENDBRANCH   9  10
BRANCH   9  19
ATOM     19  C   UNL A   1      32.906  22.340  23.781  1.00  0.00     0.060 C 
BRANCH  19  20
ATOM     20  C   UNL A   1      32.795  20.836  23.911  1.00  0.00    -0.028 A 
ATOM     21  C   UNL A   1      33.081  20.319  25.200  1.00  0.00     0.007 A 
ATOM     22  C   UNL A   1      32.346  19.936  22.941  1.00  0.00     0.045 A 
ATOM     23  C   UNL A   1      33.024  18.955  25.478  1.00  0.00     0.021 A 
ATOM     24  C   UNL A   1      32.343  18.558  23.199  1.00  0.00     0.041 A 
ATOM     25  Cl  UNL A   1      31.708  20.455  21.429  1.00  0.00    -0.084 Cl
ATOM     26  C   UNL A   1      32.689  18.076  24.460  1.00  0.00     0.042 A 
ATOM     27  Cl  UNL A   1      32.669  16.385  24.772  1.00  0.00    -0.084 Cl
ENDBRANCH  19  20
ENDBRANCH   9  19
ENDBRANCH   7   9
ENDBRANCH   6   7
ENDBRANCH   5   6
ENDBRANCH   4   5
ENDBRANCH   3   4
ENDBRANCH   2   3
ENDBRANCH   1   2
BRANCH   1  28
ATOM     28  O   UNL A   1      38.412  21.421  25.515  1.00  0.00    -0.377 OA
BRANCH  28  29
ATOM     29  C   UNL A   1      39.622  20.853  25.998  1.00  0.00     0.188 C 
BRANCH  29  30
ATOM     30  C   UNL A   1      40.720  21.777  26.576  1.00  0.00     0.188 C 
BRANCH  30  31
ATOM     31  O   UNL A   1      42.028  21.527  26.077  1.00  0.00    -0.376 OA
BRANCH  31  32
ATOM     32  C   UNL A   1      42.711  22.579  25.412  1.00  0.00     0.202 C 
BRANCH  32  33
ATOM     33  C   UNL A   1      42.823  23.922  26.153  1.00  0.00     0.261 C 
BRANCH  33  34
ATOM     34  O   UNL A   1      41.811  24.896  25.860  1.00  0.00    -0.460 OA
BRANCH  34  35
ATOM     35  C   UNL A   1      42.205  26.178  25.671  1.00  0.00     0.338 C 
ATOM     36  O   UNL A   1      42.481  26.714  24.623  1.00  0.00    -0.246 OA
BRANCH  35  37
ATOM     37  C   UNL A   1      42.042  26.874  26.970  1.00  0.00     0.060 A 
ATOM     38  C   UNL A   1      41.179  26.328  27.931  1.00  0.00     0.016 A 
ATOM     39  C   UNL A   1      42.778  28.026  27.255  1.00  0.00     0.016 A 
ATOM     40  C   UNL A   1      41.048  26.938  29.181  1.00  0.00     0.010 A 
ATOM     41  C   UNL A   1      42.621  28.653  28.494  1.00  0.00     0.010 A 
ATOM     42  C   UNL A   1      41.742  28.123  29.456  1.00  0.00    -0.014 A 
BRANCH  42  43
ATOM     43  C   UNL A   1      41.418  28.918  30.666  1.00  0.00     0.031 A 
ATOM     44  C   UNL A   1      40.256  29.867  30.601  1.00  0.00     0.074 A 
ATOM     45  C   UNL A   1      42.142  28.813  31.795  1.00  0.00     0.049 A 
ATOM     46  N   UNL A   1      39.837  30.735  31.486  1.00  0.00    -0.248 NA
ATOM     47  C   UNL A   1      39.459  29.831  29.364  1.00  0.00     0.031 C 
ATOM     48  C   UNL A   1      43.257  27.895  32.005  1.00  0.00     0.029 A 
ATOM     49  N   UNL A   1      42.047  29.508  32.976  1.00  0.00    -0.354 N 
ATOM     50  C   UNL A   1      38.733  31.352  30.911  1.00  0.00     0.074 A 
ATOM     51  C   UNL A   1      38.568  30.783  29.590  1.00  0.00     0.031 C 
ATOM     52  C   UNL A   1      43.755  28.092  33.240  1.00  0.00     0.029 A 
ATOM     53  C   UNL A   1      43.019  29.179  33.888  1.00  0.00     0.049 A 
ATOM     54  H   UNL A   1      41.349  30.180  33.152  1.00  0.00     0.167 HD
ATOM     55  C   UNL A   1      37.924  32.301  31.438  1.00  0.00     0.037 A 
ATOM     56  C   UNL A   1      43.300  29.714  35.093  1.00  0.00     0.037 A 
ATOM     57  C   UNL A   1      38.101  32.879  32.743  1.00  0.00     0.049 A 
ATOM     58  C   UNL A   1      42.460  30.855  35.610  1.00  0.00     0.074 A 
ATOM     59  C   UNL A   1      37.333  33.843  33.371  1.00  0.00     0.029 A 
ATOM     60  N   UNL A   1      39.131  32.557  33.615  1.00  0.00    -0.354 N 
ATOM     61  N   UNL A   1      41.403  31.418  35.073  1.00  0.00    -0.248 NA
ATOM     62  C   UNL A   1      42.856  31.440  36.900  1.00  0.00     0.031 C 
ATOM     63  C   UNL A   1      37.934  34.149  34.597  1.00  0.00     0.029 A 
ATOM     64  C   UNL A   1      39.041  33.331  34.760  1.00  0.00     0.049 A 
ATOM     65  H   UNL A   1      39.825  31.879  33.445  1.00  0.00     0.167 HD
ATOM     66  C   UNL A   1      40.995  32.401  35.969  1.00  0.00     0.074 A 
ATOM     67  C   UNL A   1      41.909  32.348  37.092  1.00  0.00     0.031 C 
ATOM     68  C   UNL A   1      39.957  33.268  35.872  1.00  0.00     0.037 A 
BRANCH  55  69
ATOM     69  C   UNL A   1      36.798  32.796  30.577  1.00  0.00     0.057 A 
ATOM     70  C   UNL A   1      36.999  33.751  29.570  1.00  0.00     0.134 A 
ATOM     71  C   UNL A   1      35.497  32.311  30.755  1.00  0.00     0.134 A 
ATOM     72  F   UNL A   1      38.217  34.270  29.357  1.00  0.00    -0.206 F 
ATOM     73  C   UNL A   1      35.940  34.229  28.795  1.00  0.00     0.040 A 
ATOM     74  C   UNL A   1      34.436  32.758  29.967  1.00  0.00     0.040 A 
ATOM     75  F   UNL A   1      35.234  31.394  31.699  1.00  0.00    -0.206 F 
ATOM     76  C   UNL A   1      34.654  33.727  28.990  1.00  0.00     0.006 A 
ENDBRANCH  55  69
BRANCH  56  77
ATOM     77  C   UNL A   1      44.439  29.198  35.895  1.00  0.00     0.057 A 
ATOM     78  C   UNL A   1      45.718  29.753  35.773  1.00  0.00     0.134 A 
ATOM     79  C   UNL A   1      44.286  28.122  36.778  1.00  0.00     0.134 A 
ATOM     80  F   UNL A   1      45.935  30.767  34.923  1.00  0.00    -0.206 F 
ATOM     81  C   UNL A   1      46.806  29.249  36.487  1.00  0.00     0.040 A 
ATOM     82  C   UNL A   1      45.360  27.625  37.519  1.00  0.00     0.040 A 
ATOM     83  F   UNL A   1      43.089  27.540  36.938  1.00  0.00    -0.206 F 
ATOM     84  C   UNL A   1      46.628  28.185  37.369  1.00  0.00     0.006 A 
ENDBRANCH  56  77
BRANCH  68  85
ATOM     85  C   UNL A   1      39.729  34.215  37.017  1.00  0.00     0.057 A 
ATOM     86  C   UNL A   1      40.152  35.549  36.970  1.00  0.00     0.134 A 
ATOM     87  C   UNL A   1      39.026  33.802  38.156  1.00  0.00     0.134 A 
ATOM     88  F   UNL A   1      40.842  36.008  35.914  1.00  0.00    -0.206 F 
ATOM     89  C   UNL A   1      39.899  36.433  38.021  1.00  0.00     0.040 A 
ATOM     90  C   UNL A   1      38.738  34.684  39.199  1.00  0.00     0.040 A 
ATOM     91  F   UNL A   1      38.581  32.540  38.263  1.00  0.00    -0.206 F 
ATOM     92  C   UNL A   1      39.181  36.003  39.136  1.00  0.00     0.006 A 
ENDBRANCH  68  85
ENDBRANCH  42  43
ENDBRANCH  35  37
ENDBRANCH  34  35
ENDBRANCH  33  34
ENDBRANCH  32  33
ENDBRANCH  31  32
ENDBRANCH  30  31
ENDBRANCH  29  30
ENDBRANCH  28  29
ENDBRANCH   1  28
TORSDOF 26
ENDMDL
