MODEL 1
REMARK VINA RESULT:      -8.0      0.000      0.000
REMARK SMILES C[C@@H](NC(=O)CN1C(=O)S/C(=C\c2c[nH]c3ccccc23)C1=O)C(=O)OCCOCCOCCOCCOC(=O)c1ccc(-c2c3nc(c(-c4c(F)cccc4F)c4ccc([nH]4)c(-c4c(F)cccc4F)c4nc(c(-c5c(F)cccc5F)c5ccc2[nH]5)C=C4)C=C3)cc1
REMARK SMILES IDX 31 1 30 2 29 3 28 4 27 5 26 6 24 7 25 8 2 9 1 10 3 11 4 12
REMARK SMILES IDX 5 14 6 15 7 16 8 17 22 18 9 19 10 20 11 21 23 22 12 23 13 24
REMARK SMILES IDX 14 25 21 26 15 27 16 28 20 29 17 31 19 32 18 33 32 34 33 35
REMARK SMILES IDX 34 36 35 37 36 38 37 39 38 40 39 41 40 42 41 43 42 44 94 45
REMARK SMILES IDX 43 46 93 47 44 48 45 49 46 50 87 51 47 52 92 53 86 54 88 55
REMARK SMILES IDX 48 56 91 57 85 58 84 59 49 61 75 62 58 63 74 64 59 65 62 66
REMARK SMILES IDX 73 67 89 68 60 69 61 70 72 72 90 73 63 74 50 75 51 76 56 77
REMARK SMILES IDX 52 78 53 79 55 80 57 81 54 82 76 83 77 84 82 85 78 86 79 87
REMARK SMILES IDX 81 88 83 89 80 90 64 91 65 92 70 93 66 94 67 95 69 96 71 97
REMARK SMILES IDX 68 98
REMARK H PARENT 3 13 15 30 88 60 62 71
REMARK Flexibility Score: inf
ROOT
ATOM      1  C   UNL A   1      43.403  18.467  25.882  1.00  0.00     0.188 C 
ENDROOT
BRANCH   1   2
ATOM      2  C   UNL A   1      44.150  18.839  24.600  1.00  0.00     0.188 C 
BRANCH   2   3
ATOM      3  O   UNL A   1      45.531  18.517  24.677  1.00  0.00    -0.376 OA
BRANCH   3   4
ATOM      4  C   UNL A   1      46.464  19.554  24.951  1.00  0.00     0.202 C 
BRANCH   4   5
ATOM      5  C   UNL A   1      45.897  20.899  25.416  1.00  0.00     0.261 C 
BRANCH   5   6
ATOM      6  O   UNL A   1      46.400  22.127  24.819  1.00  0.00    -0.462 OA
BRANCH   6   7
ATOM      7  C   UNL A   1      45.840  23.343  25.027  1.00  0.00     0.328 C 
ATOM      8  O   UNL A   1      45.195  23.891  24.128  1.00  0.00    -0.250 OA
BRANCH   7   9
ATOM      9  C   UNL A   1      46.194  24.155  26.323  1.00  0.00     0.189 C 
ATOM     10  C   UNL A   1      45.452  23.647  27.588  1.00  0.00     0.043 C 
BRANCH   9  11
ATOM     11  N   UNL A   1      47.451  24.860  26.684  1.00  0.00    -0.341 N 
ATOM     12  C   UNL A   1      48.118  25.994  26.350  1.00  0.00     0.240 C 
ATOM     13  H   UNL A   1      47.947  24.355  27.368  1.00  0.00     0.164 HD
ATOM     14  O   UNL A   1      49.342  25.982  26.518  1.00  0.00    -0.273 OA
BRANCH  12  15
ATOM     15  C   UNL A   1      47.441  27.233  25.794  1.00  0.00     0.229 C 
BRANCH  15  16
ATOM     16  N   UNL A   1      47.350  28.285  26.783  1.00  0.00    -0.259 N 
ATOM     17  C   UNL A   1      48.247  29.311  26.905  1.00  0.00     0.294 C 
ATOM     18  C   UNL A   1      46.472  28.166  27.805  1.00  0.00     0.268 C 
ATOM     19  O   UNL A   1      49.273  29.465  26.284  1.00  0.00    -0.261 OA
ATOM     20  S   UNL A   1      47.765  30.351  28.257  1.00  0.00    -0.022 SA
ATOM     21  C   UNL A   1      46.444  29.348  28.666  1.00  0.00     0.083 C 
ATOM     22  O   UNL A   1      45.797  27.175  28.022  1.00  0.00    -0.268 OA
ATOM     23  C   UNL A   1      45.445  29.429  29.553  1.00  0.00     0.031 C 
BRANCH  23  24
ATOM     24  C   UNL A   1      45.117  30.458  30.469  1.00  0.00     0.001 A 
ATOM     25  C   UNL A   1      45.721  30.566  31.701  1.00  0.00     0.091 A 
ATOM     26  C   UNL A   1      44.098  31.440  30.400  1.00  0.00     0.007 A 
ATOM     27  N   UNL A   1      45.214  31.675  32.316  1.00  0.00    -0.361 N 
ATOM     28  C   UNL A   1      44.248  32.252  31.526  1.00  0.00     0.046 A 
ATOM     29  C   UNL A   1      43.045  31.717  29.509  1.00  0.00     0.011 A 
ATOM     30  H   UNL A   1      45.498  32.012  33.197  1.00  0.00     0.166 HD
ATOM     31  C   UNL A   1      43.482  33.401  31.734  1.00  0.00     0.027 A 
ATOM     32  C   UNL A   1      42.242  32.837  29.721  1.00  0.00     0.001 A 
ATOM     33  C   UNL A   1      42.478  33.681  30.803  1.00  0.00     0.002 A 
ENDBRANCH  23  24
ENDBRANCH  15  16
ENDBRANCH  12  15
ENDBRANCH   9  11
ENDBRANCH   7   9
ENDBRANCH   6   7
ENDBRANCH   5   6
ENDBRANCH   4   5
ENDBRANCH   3   4
ENDBRANCH   2   3
ENDBRANCH   1   2
BRANCH   1  34
ATOM     34  O   UNL A   1      42.006  18.202  25.815  1.00  0.00    -0.377 OA
BRANCH  34  35
ATOM     35  C   UNL A   1      41.113  19.281  26.040  1.00  0.00     0.188 C 
BRANCH  35  36
ATOM     36  C   UNL A   1      41.369  20.087  27.332  1.00  0.00     0.188 C 
BRANCH  36  37
ATOM     37  O   UNL A   1      40.583  21.225  27.674  1.00  0.00    -0.376 OA
BRANCH  37  38
ATOM     38  C   UNL A   1      39.980  22.011  26.664  1.00  0.00     0.202 C 
BRANCH  38  39
ATOM     39  C   UNL A   1      40.394  23.481  26.523  1.00  0.00     0.261 C 
BRANCH  39  40
ATOM     40  O   UNL A   1      41.804  23.741  26.497  1.00  0.00    -0.460 OA
BRANCH  40  41
ATOM     41  C   UNL A   1      42.178  24.979  26.101  1.00  0.00     0.338 C 
ATOM     42  O   UNL A   1      42.439  25.355  24.973  1.00  0.00    -0.246 OA
BRANCH  41  43
ATOM     43  C   UNL A   1      42.232  25.857  27.287  1.00  0.00     0.060 A 
ATOM     44  C   UNL A   1      42.026  25.337  28.567  1.00  0.00     0.016 A 
ATOM     45  C   UNL A   1      42.387  27.229  27.104  1.00  0.00     0.016 A 
ATOM     46  C   UNL A   1      41.921  26.206  29.660  1.00  0.00     0.010 A 
ATOM     47  C   UNL A   1      42.342  28.090  28.203  1.00  0.00     0.010 A 
ATOM     48  C   UNL A   1      42.033  27.594  29.481  1.00  0.00    -0.014 A 
BRANCH  48  49
ATOM     49  C   UNL A   1      41.620  28.537  30.561  1.00  0.00     0.031 A 
ATOM     50  C   UNL A   1      42.380  28.527  31.868  1.00  0.00     0.074 A 
ATOM     51  C   UNL A   1      40.599  29.401  30.398  1.00  0.00     0.049 A 
ATOM     52  N   UNL A   1      42.172  29.218  32.962  1.00  0.00    -0.248 NA
ATOM     53  C   UNL A   1      43.512  27.590  31.966  1.00  0.00     0.031 C 
ATOM     54  C   UNL A   1      39.770  29.515  29.202  1.00  0.00     0.029 A 
ATOM     55  N   UNL A   1      40.085  30.344  31.255  1.00  0.00    -0.354 N 
ATOM     56  C   UNL A   1      43.121  28.774  33.877  1.00  0.00     0.074 A 
ATOM     57  C   UNL A   1      43.866  27.716  33.234  1.00  0.00     0.031 C 
ATOM     58  C   UNL A   1      38.851  30.478  29.397  1.00  0.00     0.029 A 
ATOM     59  C   UNL A   1      39.011  31.031  30.741  1.00  0.00     0.049 A 
ATOM     60  H   UNL A   1      40.450  30.511  32.154  1.00  0.00     0.167 HD
ATOM     61  C   UNL A   1      43.376  29.223  35.129  1.00  0.00     0.037 A 
ATOM     62  C   UNL A   1      38.243  31.993  31.293  1.00  0.00     0.037 A 
ATOM     63  C   UNL A   1      42.676  30.311  35.757  1.00  0.00     0.049 A 
ATOM     64  C   UNL A   1      38.546  32.482  32.687  1.00  0.00     0.074 A 
ATOM     65  C   UNL A   1      42.907  30.885  36.995  1.00  0.00     0.029 A 
ATOM     66  N   UNL A   1      41.610  30.994  35.191  1.00  0.00    -0.354 N 
ATOM     67  N   UNL A   1      39.483  32.092  33.517  1.00  0.00    -0.248 NA
ATOM     68  C   UNL A   1      37.690  33.555  33.215  1.00  0.00     0.031 C 
ATOM     69  C   UNL A   1      41.948  31.881  37.200  1.00  0.00     0.029 A 
ATOM     70  C   UNL A   1      41.159  31.969  36.065  1.00  0.00     0.049 A 
ATOM     71  H   UNL A   1      41.230  30.812  34.300  1.00  0.00     0.167 HD
ATOM     72  C   UNL A   1      39.348  32.890  34.648  1.00  0.00     0.074 A 
ATOM     73  C   UNL A   1      38.250  33.797  34.392  1.00  0.00     0.031 C 
ATOM     74  C   UNL A   1      40.072  32.874  35.795  1.00  0.00     0.037 A 
BRANCH  61  75
ATOM     75  C   UNL A   1      44.464  28.536  35.907  1.00  0.00     0.057 A 
ATOM     76  C   UNL A   1      44.202  27.442  36.745  1.00  0.00     0.134 A 
ATOM     77  C   UNL A   1      45.796  28.954  35.793  1.00  0.00     0.134 A 
ATOM     78  F   UNL A   1      42.948  26.996  36.911  1.00  0.00    -0.206 F 
ATOM     79  C   UNL A   1      45.220  26.812  37.466  1.00  0.00     0.040 A 
ATOM     80  C   UNL A   1      46.826  28.311  36.482  1.00  0.00     0.040 A 
ATOM     81  F   UNL A   1      46.120  29.988  35.003  1.00  0.00    -0.206 F 
ATOM     82  C   UNL A   1      46.538  27.242  37.328  1.00  0.00     0.006 A 
ENDBRANCH  61  75
BRANCH  62  83
ATOM     83  C   UNL A   1      37.117  32.579  30.519  1.00  0.00     0.057 A 
ATOM     84  C   UNL A   1      37.327  33.622  29.608  1.00  0.00     0.134 A 
ATOM     85  C   UNL A   1      35.803  32.124  30.684  1.00  0.00     0.134 A 
ATOM     86  F   UNL A   1      38.559  34.119  29.424  1.00  0.00    -0.206 F 
ATOM     87  C   UNL A   1      36.271  34.203  28.903  1.00  0.00     0.040 A 
ATOM     88  C   UNL A   1      34.742  32.677  29.964  1.00  0.00     0.040 A 
ATOM     89  F   UNL A   1      35.532  31.131  31.543  1.00  0.00    -0.206 F 
ATOM     90  C   UNL A   1      34.974  33.725  29.076  1.00  0.00     0.006 A 
ENDBRANCH  62  83
BRANCH  74  91
ATOM     91  C   UNL A   1      39.732  33.891  36.847  1.00  0.00     0.057 A 
ATOM     92  C   UNL A   1      38.820  33.622  37.875  1.00  0.00     0.134 A 
ATOM     93  C   UNL A   1      40.368  35.140  36.860  1.00  0.00     0.134 A 
ATOM     94  F   UNL A   1      38.170  32.448  37.918  1.00  0.00    -0.206 F 
ATOM     95  C   UNL A   1      38.534  34.566  38.863  1.00  0.00     0.040 A 
ATOM     96  C   UNL A   1      40.114  36.081  37.860  1.00  0.00     0.040 A 
ATOM     97  F   UNL A   1      41.264  35.459  35.914  1.00  0.00    -0.206 F 
ATOM     98  C   UNL A   1      39.188  35.798  38.861  1.00  0.00     0.006 A 
ENDBRANCH  74  91
ENDBRANCH  48  49
ENDBRANCH  41  43
ENDBRANCH  40  41
ENDBRANCH  39  40
ENDBRANCH  38  39
ENDBRANCH  37  38
ENDBRANCH  36  37
ENDBRANCH  35  36
ENDBRANCH  34  35
ENDBRANCH   1  34
TORSDOF 24
ENDMDL
MODEL 2
REMARK VINA RESULT:      -7.8      6.665     12.706
REMARK SMILES C[C@@H](NC(=O)CN1C(=O)S/C(=C\c2c[nH]c3ccccc23)C1=O)C(=O)OCCOCCOCCOCCOC(=O)c1ccc(-c2c3nc(c(-c4c(F)cccc4F)c4ccc([nH]4)c(-c4c(F)cccc4F)c4nc(c(-c5c(F)cccc5F)c5ccc2[nH]5)C=C4)C=C3)cc1
REMARK SMILES IDX 31 1 30 2 29 3 28 4 27 5 26 6 24 7 25 8 2 9 1 10 3 11 4 12
REMARK SMILES IDX 5 14 6 15 7 16 8 17 22 18 9 19 10 20 11 21 23 22 12 23 13 24
REMARK SMILES IDX 14 25 21 26 15 27 16 28 20 29 17 31 19 32 18 33 32 34 33 35
REMARK SMILES IDX 34 36 35 37 36 38 37 39 38 40 39 41 40 42 41 43 42 44 94 45
REMARK SMILES IDX 43 46 93 47 44 48 45 49 46 50 87 51 47 52 92 53 86 54 88 55
REMARK SMILES IDX 48 56 91 57 85 58 84 59 49 61 75 62 58 63 74 64 59 65 62 66
REMARK SMILES IDX 73 67 89 68 60 69 61 70 72 72 90 73 63 74 50 75 51 76 56 77
REMARK SMILES IDX 52 78 53 79 55 80 57 81 54 82 76 83 77 84 82 85 78 86 79 87
REMARK SMILES IDX 81 88 83 89 80 90 64 91 65 92 70 93 66 94 67 95 69 96 71 97
REMARK SMILES IDX 68 98
REMARK H PARENT 3 13 15 30 88 60 62 71
REMARK Flexibility Score: inf
ROOT
ATOM      1  C   UNL A   1      43.841  22.455  25.126  1.00  0.00     0.188 C 
ENDROOT
BRANCH   1   2
ATOM      2  C   UNL A   1      42.676  22.173  26.075  1.00  0.00     0.188 C 
BRANCH   2   3
ATOM      3  O   UNL A   1      42.065  20.919  25.809  1.00  0.00    -0.376 OA
BRANCH   3   4
ATOM      4  C   UNL A   1      40.828  20.609  26.438  1.00  0.00     0.202 C 
BRANCH   4   5
ATOM      5  C   UNL A   1      39.772  21.718  26.486  1.00  0.00     0.261 C 
BRANCH   5   6
ATOM      6  O   UNL A   1      38.587  21.609  25.649  1.00  0.00    -0.462 OA
BRANCH   6   7
ATOM      7  C   UNL A   1      37.776  22.655  25.363  1.00  0.00     0.328 C 
ATOM      8  O   UNL A   1      37.941  23.741  25.927  1.00  0.00    -0.250 OA
BRANCH   7   9
ATOM      9  C   UNL A   1      36.491  22.433  24.488  1.00  0.00     0.189 C 
ATOM     10  C   UNL A   1      36.611  23.027  23.059  1.00  0.00     0.043 C 
BRANCH   9  11
ATOM     11  N   UNL A   1      35.498  21.328  24.530  1.00  0.00    -0.341 N 
ATOM     12  C   UNL A   1      34.384  20.983  25.224  1.00  0.00     0.240 C 
ATOM     13  H   UNL A   1      35.711  20.646  23.854  1.00  0.00     0.164 HD
ATOM     14  O   UNL A   1      34.126  19.776  25.285  1.00  0.00    -0.273 OA
BRANCH  12  15
ATOM     15  C   UNL A   1      33.476  21.987  25.909  1.00  0.00     0.229 C 
BRANCH  15  16
ATOM     16  N   UNL A   1      32.975  22.979  24.981  1.00  0.00    -0.259 N 
ATOM     17  C   UNL A   1      32.275  22.688  23.843  1.00  0.00     0.294 C 
ATOM     18  C   UNL A   1      33.391  24.262  25.087  1.00  0.00     0.268 C 
ATOM     19  O   UNL A   1      32.032  21.592  23.391  1.00  0.00    -0.261 OA
ATOM     20  S   UNL A   1      31.883  24.195  22.997  1.00  0.00    -0.022 SA
ATOM     21  C   UNL A   1      32.730  25.150  24.132  1.00  0.00     0.083 C 
ATOM     22  O   UNL A   1      34.249  24.647  25.863  1.00  0.00    -0.268 OA
ATOM     23  C   UNL A   1      32.889  26.466  24.317  1.00  0.00     0.031 C 
BRANCH  23  24
ATOM     24  C   UNL A   1      32.338  27.562  23.609  1.00  0.00     0.001 A 
ATOM     25  C   UNL A   1      33.115  28.582  23.113  1.00  0.00     0.091 A 
ATOM     26  C   UNL A   1      30.981  27.904  23.385  1.00  0.00     0.007 A 
ATOM     27  N   UNL A   1      32.290  29.452  22.457  1.00  0.00    -0.361 N 
ATOM     28  C   UNL A   1      30.984  29.040  22.573  1.00  0.00     0.046 A 
ATOM     29  C   UNL A   1      29.743  27.381  23.802  1.00  0.00     0.011 A 
ATOM     30  H   UNL A   1      32.587  30.256  21.972  1.00  0.00     0.166 HD
ATOM     31  C   UNL A   1      29.813  29.598  22.054  1.00  0.00     0.027 A 
ATOM     32  C   UNL A   1      28.562  27.949  23.327  1.00  0.00     0.001 A 
ATOM     33  C   UNL A   1      28.601  29.023  22.443  1.00  0.00     0.002 A 
ENDBRANCH  23  24
ENDBRANCH  15  16
ENDBRANCH  12  15
ENDBRANCH   9  11
ENDBRANCH   7   9
ENDBRANCH   6   7
ENDBRANCH   5   6
ENDBRANCH   4   5
ENDBRANCH   3   4
ENDBRANCH   2   3
ENDBRANCH   1   2
BRANCH   1  34
ATOM     34  O   UNL A   1      45.155  22.574  25.662  1.00  0.00    -0.377 OA
BRANCH  34  35
ATOM     35  C   UNL A   1      45.656  23.878  25.911  1.00  0.00     0.188 C 
BRANCH  35  36
ATOM     36  C   UNL A   1      44.829  25.028  25.295  1.00  0.00     0.188 C 
BRANCH  36  37
ATOM     37  O   UNL A   1      43.985  25.854  26.091  1.00  0.00    -0.376 OA
BRANCH  37  38
ATOM     38  C   UNL A   1      43.769  27.208  25.741  1.00  0.00     0.202 C 
BRANCH  38  39
ATOM     39  C   UNL A   1      44.772  28.265  26.217  1.00  0.00     0.261 C 
BRANCH  39  40
ATOM     40  O   UNL A   1      46.124  28.101  25.771  1.00  0.00    -0.460 OA
BRANCH  40  41
ATOM     41  C   UNL A   1      47.086  28.620  26.567  1.00  0.00     0.338 C 
ATOM     42  O   UNL A   1      47.893  29.489  26.295  1.00  0.00    -0.246 OA
BRANCH  41  43
ATOM     43  C   UNL A   1      47.021  27.949  27.881  1.00  0.00     0.060 A 
ATOM     44  C   UNL A   1      47.097  28.690  29.063  1.00  0.00     0.016 A 
ATOM     45  C   UNL A   1      46.988  26.557  27.928  1.00  0.00     0.016 A 
ATOM     46  C   UNL A   1      47.196  28.027  30.293  1.00  0.00     0.010 A 
ATOM     47  C   UNL A   1      47.026  25.898  29.159  1.00  0.00     0.010 A 
ATOM     48  C   UNL A   1      47.207  26.625  30.348  1.00  0.00    -0.014 A 
BRANCH  48  49
ATOM     49  C   UNL A   1      47.619  25.914  31.593  1.00  0.00     0.031 A 
ATOM     50  C   UNL A   1      46.580  25.653  32.662  1.00  0.00     0.074 A 
ATOM     51  C   UNL A   1      48.883  25.492  31.786  1.00  0.00     0.049 A 
ATOM     52  N   UNL A   1      46.715  25.101  33.842  1.00  0.00    -0.248 NA
ATOM     53  C   UNL A   1      45.208  26.102  32.371  1.00  0.00     0.031 C 
ATOM     54  C   UNL A   1      49.991  25.683  30.854  1.00  0.00     0.029 A 
ATOM     55  N   UNL A   1      49.445  24.817  32.843  1.00  0.00    -0.354 N 
ATOM     56  C   UNL A   1      45.460  25.169  34.438  1.00  0.00     0.074 A 
ATOM     57  C   UNL A   1      44.591  25.866  33.517  1.00  0.00     0.031 C 
ATOM     58  C   UNL A   1      51.101  25.134  31.377  1.00  0.00     0.029 A 
ATOM     59  C   UNL A   1      50.790  24.574  32.691  1.00  0.00     0.049 A 
ATOM     60  H   UNL A   1      48.934  24.535  33.635  1.00  0.00     0.167 HD
ATOM     61  C   UNL A   1      45.051  24.670  35.629  1.00  0.00     0.037 A 
ATOM     62  C   UNL A   1      51.669  23.974  33.519  1.00  0.00     0.037 A 
ATOM     63  C   UNL A   1      45.894  23.927  36.527  1.00  0.00     0.049 A 
ATOM     64  C   UNL A   1      51.194  23.421  34.839  1.00  0.00     0.074 A 
ATOM     65  C   UNL A   1      45.555  23.321  37.724  1.00  0.00     0.029 A 
ATOM     66  N   UNL A   1      47.244  23.685  36.323  1.00  0.00    -0.354 N 
ATOM     67  N   UNL A   1      49.992  23.443  35.362  1.00  0.00    -0.248 NA
ATOM     68  C   UNL A   1      52.198  22.750  35.679  1.00  0.00     0.031 C 
ATOM     69  C   UNL A   1      46.711  22.756  38.270  1.00  0.00     0.029 A 
ATOM     70  C   UNL A   1      47.757  22.957  37.383  1.00  0.00     0.049 A 
ATOM     71  H   UNL A   1      47.760  23.986  35.540  1.00  0.00     0.167 HD
ATOM     72  C   UNL A   1      50.088  22.764  36.572  1.00  0.00     0.074 A 
ATOM     73  C   UNL A   1      51.463  22.329  36.699  1.00  0.00     0.031 C 
ATOM     74  C   UNL A   1      49.124  22.520  37.494  1.00  0.00     0.037 A 
BRANCH  61  75
ATOM     75  C   UNL A   1      43.622  24.910  36.031  1.00  0.00     0.057 A 
ATOM     76  C   UNL A   1      43.252  25.977  36.863  1.00  0.00     0.134 A 
ATOM     77  C   UNL A   1      42.598  24.081  35.555  1.00  0.00     0.134 A 
ATOM     78  F   UNL A   1      44.183  26.802  37.366  1.00  0.00    -0.206 F 
ATOM     79  C   UNL A   1      41.923  26.189  37.233  1.00  0.00     0.040 A 
ATOM     80  C   UNL A   1      41.261  24.304  35.890  1.00  0.00     0.040 A 
ATOM     81  F   UNL A   1      42.878  23.047  34.748  1.00  0.00    -0.206 F 
ATOM     82  C   UNL A   1      40.922  25.355  36.739  1.00  0.00     0.006 A 
ENDBRANCH  61  75
BRANCH  62  83
ATOM     83  C   UNL A   1      53.095  23.842  33.119  1.00  0.00     0.057 A 
ATOM     84  C   UNL A   1      53.568  22.686  32.486  1.00  0.00     0.134 A 
ATOM     85  C   UNL A   1      54.022  24.859  33.375  1.00  0.00     0.134 A 
ATOM     86  F   UNL A   1      52.734  21.665  32.236  1.00  0.00    -0.206 F 
ATOM     87  C   UNL A   1      54.912  22.537  32.139  1.00  0.00     0.040 A 
ATOM     88  C   UNL A   1      55.363  24.737  33.008  1.00  0.00     0.040 A 
ATOM     89  F   UNL A   1      53.636  25.992  33.982  1.00  0.00    -0.206 F 
ATOM     90  C   UNL A   1      55.814  23.569  32.395  1.00  0.00     0.006 A 
ENDBRANCH  62  83
BRANCH  74  91
ATOM     91  C   UNL A   1      49.505  21.714  38.704  1.00  0.00     0.057 A 
ATOM     92  C   UNL A   1      49.427  20.316  38.720  1.00  0.00     0.134 A 
ATOM     93  C   UNL A   1      50.007  22.346  39.849  1.00  0.00     0.134 A 
ATOM     94  F   UNL A   1      48.948  19.649  37.659  1.00  0.00    -0.206 F 
ATOM     95  C   UNL A   1      49.811  19.577  39.841  1.00  0.00     0.040 A 
ATOM     96  C   UNL A   1      50.423  21.616  40.965  1.00  0.00     0.040 A 
ATOM     97  F   UNL A   1      50.123  23.681  39.896  1.00  0.00    -0.206 F 
ATOM     98  C   UNL A   1      50.317  20.227  40.965  1.00  0.00     0.006 A 
ENDBRANCH  74  91
ENDBRANCH  48  49
ENDBRANCH  41  43
ENDBRANCH  40  41
ENDBRANCH  39  40
ENDBRANCH  38  39
ENDBRANCH  37  38
ENDBRANCH  36  37
ENDBRANCH  35  36
ENDBRANCH  34  35
ENDBRANCH   1  34
TORSDOF 24
ENDMDL
MODEL 3
REMARK VINA RESULT:      -7.8      6.074     13.341
REMARK SMILES C[C@@H](NC(=O)CN1C(=O)S/C(=C\c2c[nH]c3ccccc23)C1=O)C(=O)OCCOCCOCCOCCOC(=O)c1ccc(-c2c3nc(c(-c4c(F)cccc4F)c4ccc([nH]4)c(-c4c(F)cccc4F)c4nc(c(-c5c(F)cccc5F)c5ccc2[nH]5)C=C4)C=C3)cc1
REMARK SMILES IDX 31 1 30 2 29 3 28 4 27 5 26 6 24 7 25 8 2 9 1 10 3 11 4 12
REMARK SMILES IDX 5 14 6 15 7 16 8 17 22 18 9 19 10 20 11 21 23 22 12 23 13 24
REMARK SMILES IDX 14 25 21 26 15 27 16 28 20 29 17 31 19 32 18 33 32 34 33 35
REMARK SMILES IDX 34 36 35 37 36 38 37 39 38 40 39 41 40 42 41 43 42 44 94 45
REMARK SMILES IDX 43 46 93 47 44 48 45 49 46 50 87 51 47 52 92 53 86 54 88 55
REMARK SMILES IDX 48 56 91 57 85 58 84 59 49 61 75 62 58 63 74 64 59 65 62 66
REMARK SMILES IDX 73 67 89 68 60 69 61 70 72 72 90 73 63 74 50 75 51 76 56 77
REMARK SMILES IDX 52 78 53 79 55 80 57 81 54 82 76 83 77 84 82 85 78 86 79 87
REMARK SMILES IDX 81 88 83 89 80 90 64 91 65 92 70 93 66 94 67 95 69 96 71 97
REMARK SMILES IDX 68 98
REMARK H PARENT 3 13 15 30 88 60 62 71
REMARK Flexibility Score: inf
ROOT
ATOM      1  C   UNL A   1      36.421  33.334  30.375  1.00  0.00     0.188 C 
ENDROOT
BRANCH   1   2
ATOM      2  C   UNL A   1      37.155  33.147  29.046  1.00  0.00     0.188 C 
BRANCH   2   3
ATOM      3  O   UNL A   1      37.376  31.775  28.751  1.00  0.00    -0.376 OA
BRANCH   3   4
ATOM      4  C   UNL A   1      36.772  30.788  29.576  1.00  0.00     0.202 C 
BRANCH   4   5
ATOM      5  C   UNL A   1      36.032  29.646  28.873  1.00  0.00     0.261 C 
BRANCH   5   6
ATOM      6  O   UNL A   1      35.516  29.854  27.528  1.00  0.00    -0.462 OA
BRANCH   6   7
ATOM      7  C   UNL A   1      34.289  30.366  27.271  1.00  0.00     0.328 C 
ATOM      8  O   UNL A   1      33.873  31.335  27.913  1.00  0.00    -0.250 OA
BRANCH   7   9
ATOM      9  C   UNL A   1      33.304  29.597  26.320  1.00  0.00     0.189 C 
ATOM     10  C   UNL A   1      31.929  29.295  26.974  1.00  0.00     0.043 C 
BRANCH   9  11
ATOM     11  N   UNL A   1      33.198  29.632  24.838  1.00  0.00    -0.341 N 
ATOM     12  C   UNL A   1      32.741  28.850  23.829  1.00  0.00     0.240 C 
ATOM     13  H   UNL A   1      33.571  30.472  24.485  1.00  0.00     0.164 HD
ATOM     14  O   UNL A   1      33.262  29.020  22.722  1.00  0.00    -0.273 OA
BRANCH  12  15
ATOM     15  C   UNL A   1      31.652  27.807  24.001  1.00  0.00     0.229 C 
BRANCH  15  16
ATOM     16  N   UNL A   1      32.144  26.470  23.753  1.00  0.00    -0.259 N 
ATOM     17  C   UNL A   1      32.198  25.883  22.518  1.00  0.00     0.294 C 
ATOM     18  C   UNL A   1      32.364  25.635  24.794  1.00  0.00     0.268 C 
ATOM     19  O   UNL A   1      31.785  26.334  21.474  1.00  0.00    -0.261 OA
ATOM     20  S   UNL A   1      32.841  24.240  22.679  1.00  0.00    -0.022 SA
ATOM     21  C   UNL A   1      32.938  24.356  24.381  1.00  0.00     0.083 C 
ATOM     22  O   UNL A   1      32.087  25.891  25.953  1.00  0.00    -0.268 OA
ATOM     23  C   UNL A   1      33.415  23.564  25.348  1.00  0.00     0.031 C 
BRANCH  23  24
ATOM     24  C   UNL A   1      34.072  22.312  25.264  1.00  0.00     0.001 A 
ATOM     25  C   UNL A   1      35.383  22.143  25.645  1.00  0.00     0.091 A 
ATOM     26  C   UNL A   1      33.626  21.091  24.699  1.00  0.00     0.007 A 
ATOM     27  N   UNL A   1      35.698  20.824  25.478  1.00  0.00    -0.361 N 
ATOM     28  C   UNL A   1      34.629  20.149  24.938  1.00  0.00     0.046 A 
ATOM     29  C   UNL A   1      32.481  20.687  23.988  1.00  0.00     0.011 A 
ATOM     30  H   UNL A   1      36.564  20.415  25.709  1.00  0.00     0.166 HD
ATOM     31  C   UNL A   1      34.485  18.798  24.617  1.00  0.00     0.027 A 
ATOM     32  C   UNL A   1      32.336  19.349  23.623  1.00  0.00     0.001 A 
ATOM     33  C   UNL A   1      33.312  18.415  23.960  1.00  0.00     0.002 A 
ENDBRANCH  23  24
ENDBRANCH  15  16
ENDBRANCH  12  15
ENDBRANCH   9  11
ENDBRANCH   7   9
ENDBRANCH   6   7
ENDBRANCH   5   6
ENDBRANCH   4   5
ENDBRANCH   3   4
ENDBRANCH   2   3
ENDBRANCH   1   2
BRANCH   1  34
ATOM     34  O   UNL A   1      35.303  34.216  30.427  1.00  0.00    -0.377 OA
BRANCH  34  35
ATOM     35  C   UNL A   1      34.701  34.451  31.690  1.00  0.00     0.188 C 
BRANCH  35  36
ATOM     36  C   UNL A   1      34.408  33.185  32.524  1.00  0.00     0.188 C 
BRANCH  36  37
ATOM     37  O   UNL A   1      34.663  33.134  33.924  1.00  0.00    -0.376 OA
BRANCH  37  38
ATOM     38  C   UNL A   1      35.623  33.992  34.510  1.00  0.00     0.202 C 
BRANCH  38  39
ATOM     39  C   UNL A   1      36.996  33.421  34.885  1.00  0.00     0.261 C 
BRANCH  39  40
ATOM     40  O   UNL A   1      37.904  33.192  33.800  1.00  0.00    -0.460 OA
BRANCH  40  41
ATOM     41  C   UNL A   1      38.002  31.917  33.359  1.00  0.00     0.338 C 
ATOM     42  O   UNL A   1      37.141  31.057  33.360  1.00  0.00    -0.246 OA
BRANCH  41  43
ATOM     43  C   UNL A   1      39.372  31.698  32.852  1.00  0.00     0.060 A 
ATOM     44  C   UNL A   1      39.769  32.230  31.623  1.00  0.00     0.016 A 
ATOM     45  C   UNL A   1      40.232  30.867  33.567  1.00  0.00     0.016 A 
ATOM     46  C   UNL A   1      41.014  31.880  31.085  1.00  0.00     0.010 A 
ATOM     47  C   UNL A   1      41.497  30.566  33.057  1.00  0.00     0.010 A 
ATOM     48  C   UNL A   1      41.870  31.009  31.777  1.00  0.00    -0.014 A 
BRANCH  48  49
ATOM     49  C   UNL A   1      43.041  30.387  31.092  1.00  0.00     0.031 A 
ATOM     50  C   UNL A   1      42.834  29.109  30.310  1.00  0.00     0.074 A 
ATOM     51  C   UNL A   1      44.268  30.938  31.142  1.00  0.00     0.049 A 
ATOM     52  N   UNL A   1      43.708  28.365  29.677  1.00  0.00    -0.248 NA
ATOM     53  C   UNL A   1      41.460  28.582  30.258  1.00  0.00     0.031 C 
ATOM     54  C   UNL A   1      44.620  32.157  31.865  1.00  0.00     0.029 A 
ATOM     55  N   UNL A   1      45.452  30.531  30.574  1.00  0.00    -0.354 N 
ATOM     56  C   UNL A   1      42.995  27.276  29.188  1.00  0.00     0.074 A 
ATOM     57  C   UNL A   1      41.632  27.423  29.644  1.00  0.00     0.031 C 
ATOM     58  C   UNL A   1      45.931  32.404  31.694  1.00  0.00     0.029 A 
ATOM     59  C   UNL A   1      46.517  31.349  30.870  1.00  0.00     0.049 A 
ATOM     60  H   UNL A   1      45.530  29.730  30.009  1.00  0.00     0.167 HD
ATOM     61  C   UNL A   1      43.422  26.259  28.402  1.00  0.00     0.037 A 
ATOM     62  C   UNL A   1      47.816  31.252  30.521  1.00  0.00     0.037 A 
ATOM     63  C   UNL A   1      44.763  26.133  27.899  1.00  0.00     0.049 A 
ATOM     64  C   UNL A   1      48.271  30.114  29.642  1.00  0.00     0.074 A 
ATOM     65  C   UNL A   1      45.275  25.176  27.039  1.00  0.00     0.029 A 
ATOM     66  N   UNL A   1      45.805  26.996  28.206  1.00  0.00    -0.354 N 
ATOM     67  N   UNL A   1      47.573  29.124  29.140  1.00  0.00    -0.248 NA
ATOM     68  C   UNL A   1      49.694  30.088  29.272  1.00  0.00     0.031 C 
ATOM     69  C   UNL A   1      46.639  25.430  26.867  1.00  0.00     0.029 A 
ATOM     70  C   UNL A   1      46.962  26.580  27.569  1.00  0.00     0.049 A 
ATOM     71  H   UNL A   1      45.731  27.786  28.789  1.00  0.00     0.167 HD
ATOM     72  C   UNL A   1      48.462  28.379  28.373  1.00  0.00     0.074 A 
ATOM     73  C   UNL A   1      49.746  29.039  28.463  1.00  0.00     0.031 C 
ATOM     74  C   UNL A   1      48.233  27.250  27.656  1.00  0.00     0.037 A 
BRANCH  61  75
ATOM     75  C   UNL A   1      42.423  25.196  28.035  1.00  0.00     0.057 A 
ATOM     76  C   UNL A   1      41.505  25.366  26.989  1.00  0.00     0.134 A 
ATOM     77  C   UNL A   1      42.402  23.972  28.716  1.00  0.00     0.134 A 
ATOM     78  F   UNL A   1      41.462  26.518  26.302  1.00  0.00    -0.206 F 
ATOM     79  C   UNL A   1      40.580  24.374  26.658  1.00  0.00     0.040 A 
ATOM     80  C   UNL A   1      41.504  22.959  28.372  1.00  0.00     0.040 A 
ATOM     81  F   UNL A   1      43.257  23.736  29.722  1.00  0.00    -0.206 F 
ATOM     82  C   UNL A   1      40.584  23.162  27.346  1.00  0.00     0.006 A 
ENDBRANCH  61  75
BRANCH  62  83
ATOM     83  C   UNL A   1      48.787  32.277  30.986  1.00  0.00     0.057 A 
ATOM     84  C   UNL A   1      49.016  33.447  30.252  1.00  0.00     0.134 A 
ATOM     85  C   UNL A   1      49.524  32.103  32.164  1.00  0.00     0.134 A 
ATOM     86  F   UNL A   1      48.360  33.661  29.101  1.00  0.00    -0.206 F 
ATOM     87  C   UNL A   1      49.952  34.399  30.661  1.00  0.00     0.040 A 
ATOM     88  C   UNL A   1      50.443  33.060  32.600  1.00  0.00     0.040 A 
ATOM     89  F   UNL A   1      49.356  31.003  32.912  1.00  0.00    -0.206 F 
ATOM     90  C   UNL A   1      50.665  34.208  31.843  1.00  0.00     0.006 A 
ENDBRANCH  62  83
BRANCH  74  91
ATOM     91  C   UNL A   1      49.382  26.676  26.878  1.00  0.00     0.057 A 
ATOM     92  C   UNL A   1      49.639  27.042  25.550  1.00  0.00     0.134 A 
ATOM     93  C   UNL A   1      50.276  25.783  27.485  1.00  0.00     0.134 A 
ATOM     94  F   UNL A   1      48.818  27.887  24.908  1.00  0.00    -0.206 F 
ATOM     95  C   UNL A   1      50.727  26.522  24.847  1.00  0.00     0.040 A 
ATOM     96  C   UNL A   1      51.385  25.279  26.802  1.00  0.00     0.040 A 
ATOM     97  F   UNL A   1      50.099  25.401  28.759  1.00  0.00    -0.206 F 
ATOM     98  C   UNL A   1      51.608  25.642  25.476  1.00  0.00     0.006 A 
ENDBRANCH  74  91
ENDBRANCH  48  49
ENDBRANCH  41  43
ENDBRANCH  40  41
ENDBRANCH  39  40
ENDBRANCH  38  39
ENDBRANCH  37  38
ENDBRANCH  36  37
ENDBRANCH  35  36
ENDBRANCH  34  35
ENDBRANCH   1  34
TORSDOF 24
ENDMDL
