MODEL 1
REMARK VINA RESULT:     -10.7      0.000      0.000
REMARK SMILES CC(C)(C)c1cc2c(cc1Cl)C=C(C(=O)OCCOCCOCCOCCOC(=O)c1ccc(-c3c4nc(c(-c5c(F)cccc5F)c5ccc([nH]5)c(-c5c(F)cccc5F)c5nc(c(-c6c(F)cccc6F)c6ccc3[nH]6)C=C5)C=C4)cc1)[C@@H](C(F)(F)F)O2
REMARK SMILES IDX 23 1 22 2 21 3 20 4 19 5 18 6 17 7 16 8 14 9 15 10 13 11
REMARK SMILES IDX 5 12 6 13 10 14 7 15 9 16 11 17 8 18 90 19 12 20 85 21 2 22
REMARK SMILES IDX 1 23 3 24 4 25 86 26 87 27 88 28 89 29 24 30 25 31 26 32
REMARK SMILES IDX 27 33 28 34 29 35 30 36 31 37 32 38 84 39 33 40 83 41 34 42
REMARK SMILES IDX 35 43 36 44 77 45 37 46 82 47 76 48 78 49 38 50 81 51 75 52
REMARK SMILES IDX 74 53 39 55 65 56 48 57 64 58 49 59 52 60 63 61 79 62 50 63
REMARK SMILES IDX 51 64 62 66 80 67 53 68 40 69 41 70 46 71 42 72 43 73 45 74
REMARK SMILES IDX 47 75 44 76 66 77 67 78 72 79 68 80 69 81 71 82 73 83 70 84
REMARK SMILES IDX 54 85 55 86 60 87 56 88 57 89 59 90 61 91 58 92
REMARK H PARENT 78 54 52 65
REMARK Flexibility Score: inf
ROOT
ATOM      1  C   UNL A   1      35.907  33.208  28.120  1.00  0.00     0.188 C 
ENDROOT
BRANCH   1   2
ATOM      2  O   UNL A   1      34.681  32.834  27.490  1.00  0.00    -0.377 OA
BRANCH   2   3
ATOM      3  C   UNL A   1      34.152  31.554  27.795  1.00  0.00     0.188 C 
BRANCH   3   4
ATOM      4  C   UNL A   1      35.225  30.450  27.804  1.00  0.00     0.188 C 
BRANCH   4   5
ATOM      5  O   UNL A   1      34.677  29.138  27.689  1.00  0.00    -0.376 OA
BRANCH   5   6
ATOM      6  C   UNL A   1      34.118  28.773  26.432  1.00  0.00     0.202 C 
BRANCH   6   7
ATOM      7  C   UNL A   1      33.851  27.278  26.189  1.00  0.00     0.261 C 
BRANCH   7   8
ATOM      8  O   UNL A   1      32.812  26.992  25.240  1.00  0.00    -0.460 OA
BRANCH   8   9
ATOM      9  C   UNL A   1      33.168  26.390  24.090  1.00  0.00     0.338 C 
ATOM     10  O   UNL A   1      33.661  26.920  23.111  1.00  0.00    -0.246 OA
BRANCH   9  11
ATOM     11  C   UNL A   1      33.019  24.930  24.276  1.00  0.00     0.087 C 
ATOM     12  C   UNL A   1      33.788  19.938  24.610  1.00  0.00    -0.020 A 
ATOM     13  C   UNL A   1      32.660  20.799  24.626  1.00  0.00     0.053 A 
ATOM     14  C   UNL A   1      35.041  20.572  24.740  1.00  0.00     0.045 A 
ATOM     15  C   UNL A   1      32.771  22.193  24.596  1.00  0.00     0.128 A 
ATOM     16  C   UNL A   1      35.150  21.975  24.701  1.00  0.00     0.032 A 
ATOM     17  Cl  UNL A   1      36.543  19.758  24.999  1.00  0.00    -0.084 Cl
ATOM     18  C   UNL A   1      34.024  22.783  24.572  1.00  0.00     0.019 A 
ATOM     19  O   UNL A   1      31.599  22.891  24.562  1.00  0.00    -0.475 OA
ATOM     20  C   UNL A   1      34.148  24.216  24.376  1.00  0.00     0.027 C 
ATOM     21  C   UNL A   1      31.639  24.339  24.427  1.00  0.00     0.316 C 
BRANCH  12  22
ATOM     22  C   UNL A   1      33.527  18.418  24.436  1.00  0.00    -0.012 C 
ATOM     23  C   UNL A   1      32.656  18.005  23.228  1.00  0.00     0.016 C 
ATOM     24  C   UNL A   1      32.758  17.861  25.670  1.00  0.00     0.016 C 
ATOM     25  C   UNL A   1      34.877  17.685  24.324  1.00  0.00     0.016 C 
ENDBRANCH  12  22
BRANCH  21  26
ATOM     26  C   UNL A   1      30.706  24.728  23.270  1.00  0.00     0.430 C 
ATOM     27  F   UNL A   1      29.902  23.695  22.919  1.00  0.00    -0.167 F 
ATOM     28  F   UNL A   1      29.891  25.758  23.593  1.00  0.00    -0.167 F 
ATOM     29  F   UNL A   1      31.400  25.095  22.168  1.00  0.00    -0.167 F 
ENDBRANCH  21  26
ENDBRANCH   9  11
ENDBRANCH   8   9
ENDBRANCH   7   8
ENDBRANCH   6   7
ENDBRANCH   5   6
ENDBRANCH   4   5
ENDBRANCH   3   4
ENDBRANCH   2   3
ENDBRANCH   1   2
BRANCH   1  30
ATOM     30  C   UNL A   1      35.933  33.965  29.469  1.00  0.00     0.188 C 
BRANCH  30  31
ATOM     31  O   UNL A   1      34.851  33.636  30.336  1.00  0.00    -0.376 OA
BRANCH  31  32
ATOM     32  C   UNL A   1      34.660  34.470  31.469  1.00  0.00     0.202 C 
BRANCH  32  33
ATOM     33  C   UNL A   1      35.470  34.038  32.695  1.00  0.00     0.261 C 
BRANCH  33  34
ATOM     34  O   UNL A   1      35.722  32.627  32.791  1.00  0.00    -0.460 OA
BRANCH  34  35
ATOM     35  C   UNL A   1      36.739  32.222  33.582  1.00  0.00     0.338 C 
ATOM     36  O   UNL A   1      36.763  32.188  34.799  1.00  0.00    -0.246 OA
BRANCH  35  37
ATOM     37  C   UNL A   1      37.768  31.628  32.702  1.00  0.00     0.060 A 
ATOM     38  C   UNL A   1      37.582  31.607  31.317  1.00  0.00     0.016 A 
ATOM     39  C   UNL A   1      38.910  31.053  33.275  1.00  0.00     0.016 A 
ATOM     40  C   UNL A   1      38.559  31.040  30.501  1.00  0.00     0.010 A 
ATOM     41  C   UNL A   1      39.885  30.479  32.455  1.00  0.00     0.010 A 
ATOM     42  C   UNL A   1      39.727  30.493  31.062  1.00  0.00    -0.014 A 
BRANCH  42  43
ATOM     43  C   UNL A   1      40.852  30.122  30.173  1.00  0.00     0.031 A 
ATOM     44  C   UNL A   1      41.955  31.076  29.835  1.00  0.00     0.074 A 
ATOM     45  C   UNL A   1      40.860  28.873  29.672  1.00  0.00     0.049 A 
ATOM     46  N   UNL A   1      43.051  30.853  29.155  1.00  0.00    -0.248 NA
ATOM     47  C   UNL A   1      41.808  32.457  30.314  1.00  0.00     0.031 C 
ATOM     48  C   UNL A   1      39.820  27.869  29.909  1.00  0.00     0.029 A 
ATOM     49  N   UNL A   1      41.768  28.233  28.871  1.00  0.00    -0.354 N 
ATOM     50  C   UNL A   1      43.743  32.056  29.142  1.00  0.00     0.074 A 
ATOM     51  C   UNL A   1      42.915  33.020  29.842  1.00  0.00     0.031 C 
ATOM     52  C   UNL A   1      40.161  26.731  29.285  1.00  0.00     0.029 A 
ATOM     53  C   UNL A   1      41.428  26.933  28.591  1.00  0.00     0.049 A 
ATOM     54  H   UNL A   1      42.585  28.663  28.530  1.00  0.00     0.167 HD
ATOM     55  C   UNL A   1      44.961  32.322  28.609  1.00  0.00     0.037 A 
ATOM     56  C   UNL A   1      42.069  26.004  27.861  1.00  0.00     0.037 A 
ATOM     57  C   UNL A   1      45.764  31.364  27.886  1.00  0.00     0.049 A 
ATOM     58  C   UNL A   1      43.392  26.344  27.238  1.00  0.00     0.074 A 
ATOM     59  C   UNL A   1      47.028  31.529  27.344  1.00  0.00     0.029 A 
ATOM     60  N   UNL A   1      45.372  30.067  27.586  1.00  0.00    -0.354 N 
ATOM     61  N   UNL A   1      44.078  27.457  27.311  1.00  0.00    -0.248 NA
ATOM     62  C   UNL A   1      44.032  25.291  26.439  1.00  0.00     0.031 C 
ATOM     63  C   UNL A   1      47.378  30.351  26.673  1.00  0.00     0.029 A 
ATOM     64  C   UNL A   1      46.355  29.433  26.841  1.00  0.00     0.049 A 
ATOM     65  H   UNL A   1      44.522  29.656  27.864  1.00  0.00     0.167 HD
ATOM     66  C   UNL A   1      45.243  27.232  26.592  1.00  0.00     0.074 A 
ATOM     67  C   UNL A   1      45.176  25.869  26.105  1.00  0.00     0.031 C 
ATOM     68  C   UNL A   1      46.275  28.078  26.354  1.00  0.00     0.037 A 
BRANCH  55  69
ATOM     69  C   UNL A   1      45.505  33.711  28.784  1.00  0.00     0.057 A 
ATOM     70  C   UNL A   1      45.251  34.710  27.836  1.00  0.00     0.134 A 
ATOM     71  C   UNL A   1      46.327  34.046  29.869  1.00  0.00     0.134 A 
ATOM     72  F   UNL A   1      44.484  34.456  26.766  1.00  0.00    -0.206 F 
ATOM     73  C   UNL A   1      45.794  35.991  27.961  1.00  0.00     0.040 A 
ATOM     74  C   UNL A   1      46.855  35.330  30.018  1.00  0.00     0.040 A 
ATOM     75  F   UNL A   1      46.607  33.136  30.815  1.00  0.00    -0.206 F 
ATOM     76  C   UNL A   1      46.593  36.305  29.059  1.00  0.00     0.006 A 
ENDBRANCH  55  69
BRANCH  56  77
ATOM     77  C   UNL A   1      41.480  24.652  27.702  1.00  0.00     0.057 A 
ATOM     78  C   UNL A   1      41.929  23.568  28.464  1.00  0.00     0.134 A 
ATOM     79  C   UNL A   1      40.444  24.420  26.790  1.00  0.00     0.134 A 
ATOM     80  F   UNL A   1      42.926  23.726  29.346  1.00  0.00    -0.206 F 
ATOM     81  C   UNL A   1      41.369  22.297  28.324  1.00  0.00     0.040 A 
ATOM     82  C   UNL A   1      39.859  23.161  26.658  1.00  0.00     0.040 A 
ATOM     83  F   UNL A   1      39.964  25.425  26.043  1.00  0.00    -0.206 F 
ATOM     84  C   UNL A   1      40.324  22.095  27.425  1.00  0.00     0.006 A 
ENDBRANCH  56  77
BRANCH  68  85
ATOM     85  C   UNL A   1      47.423  27.536  25.551  1.00  0.00     0.057 A 
ATOM     86  C   UNL A   1      48.525  26.949  26.186  1.00  0.00     0.134 A 
ATOM     87  C   UNL A   1      47.439  27.592  24.151  1.00  0.00     0.134 A 
ATOM     88  F   UNL A   1      48.577  26.866  27.524  1.00  0.00    -0.206 F 
ATOM     89  C   UNL A   1      49.598  26.433  25.458  1.00  0.00     0.040 A 
ATOM     90  C   UNL A   1      48.493  27.054  23.411  1.00  0.00     0.040 A 
ATOM     91  F   UNL A   1      46.406  28.124  23.481  1.00  0.00    -0.206 F 
ATOM     92  C   UNL A   1      49.579  26.476  24.065  1.00  0.00     0.006 A 
ENDBRANCH  68  85
ENDBRANCH  42  43
ENDBRANCH  35  37
ENDBRANCH  34  35
ENDBRANCH  33  34
ENDBRANCH  32  33
ENDBRANCH  31  32
ENDBRANCH  30  31
ENDBRANCH   1  30
TORSDOF 22
ENDMDL
MODEL 2
REMARK VINA RESULT:     -10.6      4.711     10.226
REMARK SMILES CC(C)(C)c1cc2c(cc1Cl)C=C(C(=O)OCCOCCOCCOCCOC(=O)c1ccc(-c3c4nc(c(-c5c(F)cccc5F)c5ccc([nH]5)c(-c5c(F)cccc5F)c5nc(c(-c6c(F)cccc6F)c6ccc3[nH]6)C=C5)C=C4)cc1)[C@@H](C(F)(F)F)O2
REMARK SMILES IDX 23 1 22 2 21 3 20 4 19 5 18 6 17 7 16 8 14 9 15 10 13 11
REMARK SMILES IDX 5 12 6 13 10 14 7 15 9 16 11 17 8 18 90 19 12 20 85 21 2 22
REMARK SMILES IDX 1 23 3 24 4 25 86 26 87 27 88 28 89 29 24 30 25 31 26 32
REMARK SMILES IDX 27 33 28 34 29 35 30 36 31 37 32 38 84 39 33 40 83 41 34 42
REMARK SMILES IDX 35 43 36 44 77 45 37 46 82 47 76 48 78 49 38 50 81 51 75 52
REMARK SMILES IDX 74 53 39 55 65 56 48 57 64 58 49 59 52 60 63 61 79 62 50 63
REMARK SMILES IDX 51 64 62 66 80 67 53 68 40 69 41 70 46 71 42 72 43 73 45 74
REMARK SMILES IDX 47 75 44 76 66 77 67 78 72 79 68 80 69 81 71 82 73 83 70 84
REMARK SMILES IDX 54 85 55 86 60 87 56 88 57 89 59 90 61 91 58 92
REMARK H PARENT 78 54 52 65
REMARK Flexibility Score: inf
ROOT
ATOM      1  C   UNL A   1      39.568  20.365  25.746  1.00  0.00     0.188 C 
ENDROOT
BRANCH   1   2
ATOM      2  O   UNL A   1      38.209  20.560  25.352  1.00  0.00    -0.377 OA
BRANCH   2   3
ATOM      3  C   UNL A   1      37.469  19.414  24.961  1.00  0.00     0.188 C 
BRANCH   3   4
ATOM      4  C   UNL A   1      35.948  19.651  24.979  1.00  0.00     0.188 C 
BRANCH   4   5
ATOM      5  O   UNL A   1      35.199  18.489  24.625  1.00  0.00    -0.376 OA
BRANCH   5   6
ATOM      6  C   UNL A   1      33.827  18.673  24.298  1.00  0.00     0.202 C 
BRANCH   6   7
ATOM      7  C   UNL A   1      32.927  19.306  25.372  1.00  0.00     0.261 C 
BRANCH   7   8
ATOM      8  O   UNL A   1      32.765  20.729  25.270  1.00  0.00    -0.460 OA
BRANCH   8   9
ATOM      9  C   UNL A   1      33.138  21.475  26.327  1.00  0.00     0.338 C 
ATOM     10  O   UNL A   1      33.672  21.079  27.347  1.00  0.00    -0.246 OA
BRANCH   9  11
ATOM     11  C   UNL A   1      32.945  22.897  25.970  1.00  0.00     0.087 C 
ATOM     12  C   UNL A   1      31.188  27.303  24.202  1.00  0.00    -0.020 A 
ATOM     13  C   UNL A   1      32.397  26.850  24.790  1.00  0.00     0.053 A 
ATOM     14  C   UNL A   1      30.098  26.412  24.288  1.00  0.00     0.045 A 
ATOM     15  C   UNL A   1      32.565  25.546  25.270  1.00  0.00     0.128 A 
ATOM     16  C   UNL A   1      30.272  25.098  24.763  1.00  0.00     0.032 A 
ATOM     17  Cl  UNL A   1      28.464  26.801  23.883  1.00  0.00    -0.084 Cl
ATOM     18  C   UNL A   1      31.514  24.647  25.200  1.00  0.00     0.019 A 
ATOM     19  O   UNL A   1      33.800  25.239  25.760  1.00  0.00    -0.475 OA
ATOM     20  C   UNL A   1      31.727  23.253  25.542  1.00  0.00     0.027 C 
ATOM     21  C   UNL A   1      34.077  23.873  26.181  1.00  0.00     0.316 C 
BRANCH  12  22
ATOM     22  C   UNL A   1      31.199  28.698  23.524  1.00  0.00    -0.012 C 
ATOM     23  C   UNL A   1      30.133  28.940  22.432  1.00  0.00     0.016 C 
ATOM     24  C   UNL A   1      32.555  28.929  22.793  1.00  0.00     0.016 C 
ATOM     25  C   UNL A   1      31.030  29.784  24.604  1.00  0.00     0.016 C 
ENDBRANCH  12  22
BRANCH  21  26
ATOM     26  C   UNL A   1      35.374  23.424  25.493  1.00  0.00     0.430 C 
ATOM     27  F   UNL A   1      36.195  22.786  26.362  1.00  0.00    -0.167 F 
ATOM     28  F   UNL A   1      35.143  22.561  24.476  1.00  0.00    -0.167 F 
ATOM     29  F   UNL A   1      36.060  24.472  24.982  1.00  0.00    -0.167 F 
ENDBRANCH  21  26
ENDBRANCH   9  11
ENDBRANCH   8   9
ENDBRANCH   7   8
ENDBRANCH   6   7
ENDBRANCH   5   6
ENDBRANCH   4   5
ENDBRANCH   3   4
ENDBRANCH   2   3
ENDBRANCH   1   2
BRANCH   1  30
ATOM     30  C   UNL A   1      40.328  21.410  26.597  1.00  0.00     0.188 C 
BRANCH  30  31
ATOM     31  O   UNL A   1      41.539  20.920  27.166  1.00  0.00    -0.376 OA
BRANCH  31  32
ATOM     32  C   UNL A   1      42.518  20.425  26.263  1.00  0.00     0.202 C 
BRANCH  32  33
ATOM     33  C   UNL A   1      43.359  21.523  25.604  1.00  0.00     0.261 C 
BRANCH  33  34
ATOM     34  O   UNL A   1      43.573  22.692  26.410  1.00  0.00    -0.460 OA
BRANCH  34  35
ATOM     35  C   UNL A   1      43.603  23.889  25.786  1.00  0.00     0.338 C 
ATOM     36  O   UNL A   1      43.895  24.112  24.624  1.00  0.00    -0.246 OA
BRANCH  35  37
ATOM     37  C   UNL A   1      43.021  24.882  26.713  1.00  0.00     0.060 A 
ATOM     38  C   UNL A   1      41.940  24.534  27.528  1.00  0.00     0.016 A 
ATOM     39  C   UNL A   1      43.537  26.183  26.736  1.00  0.00     0.016 A 
ATOM     40  C   UNL A   1      41.399  25.481  28.394  1.00  0.00     0.010 A 
ATOM     41  C   UNL A   1      42.988  27.134  27.600  1.00  0.00     0.010 A 
ATOM     42  C   UNL A   1      41.933  26.781  28.453  1.00  0.00    -0.014 A 
BRANCH  42  43
ATOM     43  C   UNL A   1      41.509  27.690  29.543  1.00  0.00     0.031 A 
ATOM     44  C   UNL A   1      40.355  28.631  29.398  1.00  0.00     0.074 A 
ATOM     45  C   UNL A   1      42.202  27.641  30.696  1.00  0.00     0.049 A 
ATOM     46  N   UNL A   1      39.812  29.407  30.302  1.00  0.00    -0.248 NA
ATOM     47  C   UNL A   1      39.732  28.719  28.071  1.00  0.00     0.031 C 
ATOM     48  C   UNL A   1      43.366  26.784  30.937  1.00  0.00     0.029 A 
ATOM     49  N   UNL A   1      42.030  28.313  31.876  1.00  0.00    -0.354 N 
ATOM     50  C   UNL A   1      38.767  30.060  29.666  1.00  0.00     0.074 A 
ATOM     51  C   UNL A   1      38.783  29.624  28.282  1.00  0.00     0.031 C 
ATOM     52  C   UNL A   1      43.789  26.967  32.197  1.00  0.00     0.029 A 
ATOM     53  C   UNL A   1      42.942  27.965  32.841  1.00  0.00     0.049 A 
ATOM     54  H   UNL A   1      41.321  28.982  32.018  1.00  0.00     0.167 HD
ATOM     55  C   UNL A   1      37.869  30.929  30.194  1.00  0.00     0.037 A 
ATOM     56  C   UNL A   1      43.077  28.397  34.107  1.00  0.00     0.037 A 
ATOM     57  C   UNL A   1      37.879  31.382  31.565  1.00  0.00     0.049 A 
ATOM     58  C   UNL A   1      42.100  29.399  34.648  1.00  0.00     0.074 A 
ATOM     59  C   UNL A   1      36.988  32.229  32.203  1.00  0.00     0.029 A 
ATOM     60  N   UNL A   1      38.840  31.040  32.506  1.00  0.00    -0.354 N 
ATOM     61  N   UNL A   1      41.060  29.940  34.063  1.00  0.00    -0.248 NA
ATOM     62  C   UNL A   1      42.313  29.843  36.032  1.00  0.00     0.031 C 
ATOM     63  C   UNL A   1      37.439  32.440  33.511  1.00  0.00     0.029 A 
ATOM     64  C   UNL A   1      38.582  31.684  33.707  1.00  0.00     0.049 A 
ATOM     65  H   UNL A   1      39.595  30.428  32.345  1.00  0.00     0.167 HD
ATOM     66  C   UNL A   1      40.478  30.766  35.014  1.00  0.00     0.074 A 
ATOM     67  C   UNL A   1      41.272  30.641  36.219  1.00  0.00     0.031 C 
ATOM     68  C   UNL A   1      39.384  31.559  34.898  1.00  0.00     0.037 A 
BRANCH  55  69
ATOM     69  C   UNL A   1      36.796  31.455  29.284  1.00  0.00     0.057 A 
ATOM     70  C   UNL A   1      36.840  32.767  28.798  1.00  0.00     0.134 A 
ATOM     71  C   UNL A   1      35.686  30.674  28.931  1.00  0.00     0.134 A 
ATOM     72  F   UNL A   1      37.866  33.574  29.106  1.00  0.00    -0.206 F 
ATOM     73  C   UNL A   1      35.822  33.283  27.993  1.00  0.00     0.040 A 
ATOM     74  C   UNL A   1      34.675  31.171  28.107  1.00  0.00     0.040 A 
ATOM     75  F   UNL A   1      35.583  29.407  29.361  1.00  0.00    -0.206 F 
ATOM     76  C   UNL A   1      34.739  32.482  27.641  1.00  0.00     0.006 A 
ENDBRANCH  55  69
BRANCH  56  77
ATOM     77  C   UNL A   1      44.166  27.861  34.959  1.00  0.00     0.057 A 
ATOM     78  C   UNL A   1      45.433  28.454  34.980  1.00  0.00     0.134 A 
ATOM     79  C   UNL A   1      43.956  26.749  35.782  1.00  0.00     0.134 A 
ATOM     80  F   UNL A   1      45.697  29.516  34.205  1.00  0.00    -0.206 F 
ATOM     81  C   UNL A   1      46.456  27.958  35.789  1.00  0.00     0.040 A 
ATOM     82  C   UNL A   1      44.962  26.259  36.615  1.00  0.00     0.040 A 
ATOM     83  F   UNL A   1      42.757  26.149  35.814  1.00  0.00    -0.206 F 
ATOM     84  C   UNL A   1      46.218  26.863  36.616  1.00  0.00     0.006 A 
ENDBRANCH  56  77
BRANCH  68  85
ATOM     85  C   UNL A   1      38.975  32.329  36.121  1.00  0.00     0.057 A 
ATOM     86  C   UNL A   1      38.163  31.741  37.099  1.00  0.00     0.134 A 
ATOM     87  C   UNL A   1      39.387  33.652  36.335  1.00  0.00     0.134 A 
ATOM     88  F   UNL A   1      37.730  30.479  36.956  1.00  0.00    -0.206 F 
ATOM     89  C   UNL A   1      37.779  32.438  38.246  1.00  0.00     0.040 A 
ATOM     90  C   UNL A   1      39.031  34.349  37.490  1.00  0.00     0.040 A 
ATOM     91  F   UNL A   1      40.181  34.268  35.447  1.00  0.00    -0.206 F 
ATOM     92  C   UNL A   1      38.221  33.743  38.448  1.00  0.00     0.006 A 
ENDBRANCH  68  85
ENDBRANCH  42  43
ENDBRANCH  35  37
ENDBRANCH  34  35
ENDBRANCH  33  34
ENDBRANCH  32  33
ENDBRANCH  31  32
ENDBRANCH  30  31
ENDBRANCH   1  30
TORSDOF 22
ENDMDL
MODEL 3
REMARK VINA RESULT:     -10.5      3.403      8.915
REMARK SMILES CC(C)(C)c1cc2c(cc1Cl)C=C(C(=O)OCCOCCOCCOCCOC(=O)c1ccc(-c3c4nc(c(-c5c(F)cccc5F)c5ccc([nH]5)c(-c5c(F)cccc5F)c5nc(c(-c6c(F)cccc6F)c6ccc3[nH]6)C=C5)C=C4)cc1)[C@@H](C(F)(F)F)O2
REMARK SMILES IDX 23 1 22 2 21 3 20 4 19 5 18 6 17 7 16 8 14 9 15 10 13 11
REMARK SMILES IDX 5 12 6 13 10 14 7 15 9 16 11 17 8 18 90 19 12 20 85 21 2 22
REMARK SMILES IDX 1 23 3 24 4 25 86 26 87 27 88 28 89 29 24 30 25 31 26 32
REMARK SMILES IDX 27 33 28 34 29 35 30 36 31 37 32 38 84 39 33 40 83 41 34 42
REMARK SMILES IDX 35 43 36 44 77 45 37 46 82 47 76 48 78 49 38 50 81 51 75 52
REMARK SMILES IDX 74 53 39 55 65 56 48 57 64 58 49 59 52 60 63 61 79 62 50 63
REMARK SMILES IDX 51 64 62 66 80 67 53 68 40 69 41 70 46 71 42 72 43 73 45 74
REMARK SMILES IDX 47 75 44 76 66 77 67 78 72 79 68 80 69 81 71 82 73 83 70 84
REMARK SMILES IDX 54 85 55 86 60 87 56 88 57 89 59 90 61 91 58 92
REMARK H PARENT 78 54 52 65
REMARK Flexibility Score: inf
ROOT
ATOM      1  C   UNL A   1      37.608  23.728  26.106  1.00  0.00     0.188 C 
ENDROOT
BRANCH   1   2
ATOM      2  O   UNL A   1      36.386  23.578  25.382  1.00  0.00    -0.377 OA
BRANCH   2   3
ATOM      3  C   UNL A   1      35.182  23.532  26.130  1.00  0.00     0.188 C 
BRANCH   3   4
ATOM      4  C   UNL A   1      34.797  22.102  26.552  1.00  0.00     0.188 C 
BRANCH   4   5
ATOM      5  O   UNL A   1      34.610  21.225  25.442  1.00  0.00    -0.376 OA
BRANCH   5   6
ATOM      6  C   UNL A   1      33.482  20.358  25.479  1.00  0.00     0.202 C 
BRANCH   6   7
ATOM      7  C   UNL A   1      32.120  20.959  25.092  1.00  0.00     0.261 C 
BRANCH   7   8
ATOM      8  O   UNL A   1      32.130  22.370  24.826  1.00  0.00    -0.460 OA
BRANCH   8   9
ATOM      9  C   UNL A   1      31.877  22.768  23.566  1.00  0.00     0.338 C 
ATOM     10  O   UNL A   1      31.805  22.060  22.578  1.00  0.00    -0.246 OA
BRANCH   9  11
ATOM     11  C   UNL A   1      31.527  24.204  23.604  1.00  0.00     0.087 C 
ATOM     12  C   UNL A   1      29.134  28.662  23.431  1.00  0.00    -0.020 A 
ATOM     13  C   UNL A   1      30.483  28.232  23.537  1.00  0.00     0.053 A 
ATOM     14  C   UNL A   1      28.159  27.662  23.620  1.00  0.00     0.045 A 
ATOM     15  C   UNL A   1      30.842  26.884  23.648  1.00  0.00     0.128 A 
ATOM     16  C   UNL A   1      28.523  26.306  23.722  1.00  0.00     0.032 A 
ATOM     17  Cl  UNL A   1      26.464  27.948  23.791  1.00  0.00    -0.084 Cl
ATOM     18  C   UNL A   1      29.857  25.911  23.679  1.00  0.00     0.019 A 
ATOM     19  O   UNL A   1      32.179  26.618  23.688  1.00  0.00    -0.475 OA
ATOM     20  C   UNL A   1      30.222  24.507  23.628  1.00  0.00     0.027 C 
ATOM     21  C   UNL A   1      32.626  25.233  23.699  1.00  0.00     0.316 C 
BRANCH  12  22
ATOM     22  C   UNL A   1      28.883  30.158  23.106  1.00  0.00    -0.012 C 
ATOM     23  C   UNL A   1      27.428  30.658  23.250  1.00  0.00     0.016 C 
ATOM     24  C   UNL A   1      29.242  30.452  21.619  1.00  0.00     0.016 C 
ATOM     25  C   UNL A   1      29.778  31.027  24.010  1.00  0.00     0.016 C 
ENDBRANCH  12  22
BRANCH  21  26
ATOM     26  C   UNL A   1      33.677  25.071  22.590  1.00  0.00     0.430 C 
ATOM     27  F   UNL A   1      33.105  24.680  21.425  1.00  0.00    -0.167 F 
ATOM     28  F   UNL A   1      34.331  26.227  22.330  1.00  0.00    -0.167 F 
ATOM     29  F   UNL A   1      34.609  24.146  22.914  1.00  0.00    -0.167 F 
ENDBRANCH  21  26
ENDBRANCH   9  11
ENDBRANCH   8   9
ENDBRANCH   7   8
ENDBRANCH   6   7
ENDBRANCH   5   6
ENDBRANCH   4   5
ENDBRANCH   3   4
ENDBRANCH   2   3
ENDBRANCH   1   2
BRANCH   1  30
ATOM     30  C   UNL A   1      38.723  22.656  26.055  1.00  0.00     0.188 C 
BRANCH  30  31
ATOM     31  O   UNL A   1      38.236  21.317  26.055  1.00  0.00    -0.376 OA
BRANCH  31  32
ATOM     32  C   UNL A   1      38.884  20.398  25.186  1.00  0.00     0.202 C 
BRANCH  32  33
ATOM     33  C   UNL A   1      39.629  19.278  25.920  1.00  0.00     0.261 C 
BRANCH  33  34
ATOM     34  O   UNL A   1      40.999  19.101  25.527  1.00  0.00    -0.460 OA
BRANCH  34  35
ATOM     35  C   UNL A   1      41.951  19.275  26.469  1.00  0.00     0.338 C 
ATOM     36  O   UNL A   1      42.681  18.427  26.950  1.00  0.00    -0.246 OA
BRANCH  35  37
ATOM     37  C   UNL A   1      42.098  20.731  26.679  1.00  0.00     0.060 A 
ATOM     38  C   UNL A   1      42.035  21.266  27.969  1.00  0.00     0.016 A 
ATOM     39  C   UNL A   1      42.261  21.570  25.569  1.00  0.00     0.016 A 
ATOM     40  C   UNL A   1      42.171  22.640  28.150  1.00  0.00     0.010 A 
ATOM     41  C   UNL A   1      42.390  22.949  25.753  1.00  0.00     0.010 A 
ATOM     42  C   UNL A   1      42.372  23.489  27.047  1.00  0.00    -0.014 A 
BRANCH  42  43
ATOM     43  C   UNL A   1      42.756  24.901  27.279  1.00  0.00     0.031 A 
ATOM     44  C   UNL A   1      41.810  25.902  27.864  1.00  0.00     0.074 A 
ATOM     45  C   UNL A   1      44.009  25.264  26.949  1.00  0.00     0.049 A 
ATOM     46  N   UNL A   1      42.044  27.142  28.215  1.00  0.00    -0.248 NA
ATOM     47  C   UNL A   1      40.425  25.463  28.076  1.00  0.00     0.031 C 
ATOM     48  C   UNL A   1      45.006  24.379  26.342  1.00  0.00     0.029 A 
ATOM     49  N   UNL A   1      44.660  26.462  27.080  1.00  0.00    -0.354 N 
ATOM     50  C   UNL A   1      40.845  27.629  28.715  1.00  0.00     0.074 A 
ATOM     51  C   UNL A   1      39.871  26.563  28.575  1.00  0.00     0.031 C 
ATOM     52  C   UNL A   1      46.149  25.058  26.174  1.00  0.00     0.029 A 
ATOM     53  C   UNL A   1      45.960  26.427  26.641  1.00  0.00     0.049 A 
ATOM     54  H   UNL A   1      44.236  27.269  27.452  1.00  0.00     0.167 HD
ATOM     55  C   UNL A   1      40.589  28.846  29.255  1.00  0.00     0.037 A 
ATOM     56  C   UNL A   1      46.898  27.390  26.623  1.00  0.00     0.037 A 
ATOM     57  C   UNL A   1      41.557  29.913  29.361  1.00  0.00     0.049 A 
ATOM     58  C   UNL A   1      46.570  28.745  27.179  1.00  0.00     0.074 A 
ATOM     59  C   UNL A   1      41.403  31.167  29.928  1.00  0.00     0.029 A 
ATOM     60  N   UNL A   1      42.855  29.858  28.872  1.00  0.00    -0.354 N 
ATOM     61  N   UNL A   1      45.459  29.164  27.734  1.00  0.00    -0.248 NA
ATOM     62  C   UNL A   1      47.632  29.757  27.114  1.00  0.00     0.031 C 
ATOM     63  C   UNL A   1      42.588  31.888  29.736  1.00  0.00     0.029 A 
ATOM     64  C   UNL A   1      43.500  31.066  29.095  1.00  0.00     0.049 A 
ATOM     65  H   UNL A   1      43.259  29.076  28.431  1.00  0.00     0.167 HD
ATOM     66  C   UNL A   1      45.697  30.479  28.109  1.00  0.00     0.074 A 
ATOM     67  C   UNL A   1      47.063  30.781  27.733  1.00  0.00     0.031 C 
ATOM     68  C   UNL A   1      44.857  31.358  28.709  1.00  0.00     0.037 A 
BRANCH  55  69
ATOM     69  C   UNL A   1      39.202  29.097  29.772  1.00  0.00     0.057 A 
ATOM     70  C   UNL A   1      38.215  29.657  28.952  1.00  0.00     0.134 A 
ATOM     71  C   UNL A   1      38.857  28.831  31.105  1.00  0.00     0.134 A 
ATOM     72  F   UNL A   1      38.480  29.949  27.669  1.00  0.00    -0.206 F 
ATOM     73  C   UNL A   1      36.937  29.943  29.436  1.00  0.00     0.040 A 
ATOM     74  C   UNL A   1      37.575  29.089  31.594  1.00  0.00     0.040 A 
ATOM     75  F   UNL A   1      39.755  28.291  31.944  1.00  0.00    -0.206 F 
ATOM     76  C   UNL A   1      36.612  29.652  30.760  1.00  0.00     0.006 A 
ENDBRANCH  55  69
BRANCH  56  77
ATOM     77  C   UNL A   1      48.247  27.098  26.083  1.00  0.00     0.057 A 
ATOM     78  C   UNL A   1      48.542  27.268  24.726  1.00  0.00     0.134 A 
ATOM     79  C   UNL A   1      49.278  26.653  26.919  1.00  0.00     0.134 A 
ATOM     80  F   UNL A   1      47.593  27.681  23.873  1.00  0.00    -0.206 F 
ATOM     81  C   UNL A   1      49.814  27.004  24.217  1.00  0.00     0.040 A 
ATOM     82  C   UNL A   1      50.561  26.410  26.429  1.00  0.00     0.040 A 
ATOM     83  F   UNL A   1      49.058  26.486  28.232  1.00  0.00    -0.206 F 
ATOM     84  C   UNL A   1      50.830  26.583  25.072  1.00  0.00     0.006 A 
ENDBRANCH  56  77
BRANCH  68  85
ATOM     85  C   UNL A   1      45.411  32.720  29.016  1.00  0.00     0.057 A 
ATOM     86  C   UNL A   1      45.265  33.774  28.105  1.00  0.00     0.134 A 
ATOM     87  C   UNL A   1      46.086  32.992  30.214  1.00  0.00     0.134 A 
ATOM     88  F   UNL A   1      44.634  33.582  26.937  1.00  0.00    -0.206 F 
ATOM     89  C   UNL A   1      45.766  35.048  28.375  1.00  0.00     0.040 A 
ATOM     90  C   UNL A   1      46.566  34.270  30.508  1.00  0.00     0.040 A 
ATOM     91  F   UNL A   1      46.243  32.033  31.139  1.00  0.00    -0.206 F 
ATOM     92  C   UNL A   1      46.410  35.301  29.584  1.00  0.00     0.006 A 
ENDBRANCH  68  85
ENDBRANCH  42  43
ENDBRANCH  35  37
ENDBRANCH  34  35
ENDBRANCH  33  34
ENDBRANCH  32  33
ENDBRANCH  31  32
ENDBRANCH  30  31
ENDBRANCH   1  30
TORSDOF 22
ENDMDL
