MODEL 1
REMARK VINA RESULT:     -11.2      0.000      0.000
REMARK SMILES O=C(OCCOCCOCCOCCOC(=O)c1nccnc1C(=O)Nc1ccc2c(c1)OCO2)c1ccc(-c2c3nc(c(-c4c(F)cccc4F)c4ccc([nH]4)c(-c4c(F)cccc4F)c4nc(c(-c5c(F)cccc5F)c5ccc2[nH]5)C=C4)C=C3)cc1
REMARK SMILES IDX 9 1 8 2 7 3 6 4 5 5 4 6 3 7 2 8 1 9 36 10 37 11 89 12 38 13
REMARK SMILES IDX 88 14 39 15 40 16 41 17 82 18 42 19 87 20 81 21 83 22 43 23
REMARK SMILES IDX 86 24 80 25 79 26 44 28 70 29 53 30 69 31 54 32 57 33 68 34
REMARK SMILES IDX 84 35 55 36 56 37 67 39 85 40 58 41 45 42 46 43 51 44 47 45
REMARK SMILES IDX 48 46 50 47 52 48 49 49 71 50 72 51 77 52 73 53 74 54 76 55
REMARK SMILES IDX 78 56 75 57 59 58 60 59 65 60 61 61 62 62 64 63 66 64 63 65
REMARK SMILES IDX 10 66 11 67 12 68 13 69 14 70 15 71 16 72 17 73 18 74 19 75
REMARK SMILES IDX 23 76 20 77 22 78 21 79 24 80 25 81 26 82 27 84 28 85 32 86
REMARK SMILES IDX 29 87 31 88 30 89 33 90 35 91 34 92
REMARK H PARENT 83 27 57 38 26 83
REMARK Flexibility Score: inf
ROOT
ATOM      1  O   UNL A   1      34.303  34.011  28.477  1.00  0.00    -0.377 OA
ENDROOT
BRANCH   1   2
ATOM      2  C   UNL A   1      33.177  34.831  28.728  1.00  0.00     0.188 C 
BRANCH   2   3
ATOM      3  C   UNL A   1      33.266  35.732  29.944  1.00  0.00     0.188 C 
BRANCH   3   4
ATOM      4  O   UNL A   1      32.894  34.966  31.066  1.00  0.00    -0.376 OA
BRANCH   4   5
ATOM      5  C   UNL A   1      33.573  35.199  32.283  1.00  0.00     0.202 C 
BRANCH   5   6
ATOM      6  C   UNL A   1      35.054  34.873  32.141  1.00  0.00     0.261 C 
BRANCH   6   7
ATOM      7  O   UNL A   1      35.253  33.492  31.782  1.00  0.00    -0.460 OA
BRANCH   7   8
ATOM      8  C   UNL A   1      36.022  32.581  32.430  1.00  0.00     0.338 C 
ATOM      9  O   UNL A   1      35.757  32.290  33.596  1.00  0.00    -0.246 OA
BRANCH   8  10
ATOM     10  C   UNL A   1      37.144  31.841  31.788  1.00  0.00     0.060 A 
ATOM     11  C   UNL A   1      37.887  30.845  32.415  1.00  0.00     0.016 A 
ATOM     12  C   UNL A   1      37.363  32.050  30.424  1.00  0.00     0.016 A 
ATOM     13  C   UNL A   1      38.859  30.107  31.764  1.00  0.00     0.010 A 
ATOM     14  C   UNL A   1      38.332  31.305  29.740  1.00  0.00     0.010 A 
ATOM     15  C   UNL A   1      39.101  30.348  30.422  1.00  0.00    -0.014 A 
BRANCH  15  16
ATOM     16  C   UNL A   1      40.323  29.769  29.840  1.00  0.00     0.031 A 
ATOM     17  C   UNL A   1      41.540  30.642  29.830  1.00  0.00     0.074 A 
ATOM     18  C   UNL A   1      40.380  28.473  29.487  1.00  0.00     0.049 A 
ATOM     19  N   UNL A   1      42.677  30.479  29.218  1.00  0.00    -0.248 NA
ATOM     20  C   UNL A   1      41.453  31.883  30.623  1.00  0.00     0.031 C 
ATOM     21  C   UNL A   1      39.298  27.497  29.649  1.00  0.00     0.029 A 
ATOM     22  N   UNL A   1      41.400  27.747  28.935  1.00  0.00    -0.354 N 
ATOM     23  C   UNL A   1      43.415  31.620  29.502  1.00  0.00     0.074 A 
ATOM     24  C   UNL A   1      42.598  32.474  30.330  1.00  0.00     0.031 C 
ATOM     25  C   UNL A   1      39.715  26.300  29.205  1.00  0.00     0.029 A 
ATOM     26  C   UNL A   1      41.051  26.449  28.643  1.00  0.00     0.049 A 
ATOM     27  H   UNL A   1      42.296  28.117  28.763  1.00  0.00     0.167 HD
ATOM     28  C   UNL A   1      44.667  31.918  29.091  1.00  0.00     0.037 A 
ATOM     29  C   UNL A   1      41.726  25.522  27.939  1.00  0.00     0.037 A 
ATOM     30  C   UNL A   1      45.445  31.022  28.283  1.00  0.00     0.049 A 
ATOM     31  C   UNL A   1      43.066  25.922  27.378  1.00  0.00     0.074 A 
ATOM     32  C   UNL A   1      46.688  31.215  27.717  1.00  0.00     0.029 A 
ATOM     33  N   UNL A   1      45.035  29.737  27.940  1.00  0.00    -0.354 N 
ATOM     34  N   UNL A   1      43.724  27.050  27.530  1.00  0.00    -0.248 NA
ATOM     35  C   UNL A   1      43.749  24.937  26.533  1.00  0.00     0.031 C 
ATOM     36  C   UNL A   1      47.011  30.061  26.993  1.00  0.00     0.029 A 
ATOM     37  C   UNL A   1      45.997  29.127  27.161  1.00  0.00     0.049 A 
ATOM     38  H   UNL A   1      44.184  29.324  28.213  1.00  0.00     0.167 HD
ATOM     39  C   UNL A   1      44.908  26.902  26.823  1.00  0.00     0.074 A 
ATOM     40  C   UNL A   1      44.885  25.564  26.261  1.00  0.00     0.031 C 
ATOM     41  C   UNL A   1      45.926  27.781  26.645  1.00  0.00     0.037 A 
BRANCH  28  42
ATOM     42  C   UNL A   1      45.197  33.275  29.447  1.00  0.00     0.057 A 
ATOM     43  C   UNL A   1      44.907  34.418  28.690  1.00  0.00     0.134 A 
ATOM     44  C   UNL A   1      46.071  33.426  30.532  1.00  0.00     0.134 A 
ATOM     45  F   UNL A   1      44.111  34.337  27.613  1.00  0.00    -0.206 F 
ATOM     46  C   UNL A   1      45.491  35.654  28.979  1.00  0.00     0.040 A 
ATOM     47  C   UNL A   1      46.637  34.662  30.849  1.00  0.00     0.040 A 
ATOM     48  F   UNL A   1      46.405  32.372  31.290  1.00  0.00    -0.206 F 
ATOM     49  C   UNL A   1      46.356  35.779  30.065  1.00  0.00     0.006 A 
ENDBRANCH  28  42
BRANCH  29  50
ATOM     50  C   UNL A   1      41.127  24.190  27.648  1.00  0.00     0.057 A 
ATOM     51  C   UNL A   1      41.584  23.028  28.280  1.00  0.00     0.134 A 
ATOM     52  C   UNL A   1      40.109  24.037  26.695  1.00  0.00     0.134 A 
ATOM     53  F   UNL A   1      42.567  23.096  29.190  1.00  0.00    -0.206 F 
ATOM     54  C   UNL A   1      41.077  21.766  27.955  1.00  0.00     0.040 A 
ATOM     55  C   UNL A   1      39.570  22.786  26.384  1.00  0.00     0.040 A 
ATOM     56  F   UNL A   1      39.618  25.104  26.048  1.00  0.00    -0.206 F 
ATOM     57  C   UNL A   1      40.065  21.643  27.006  1.00  0.00     0.006 A 
ENDBRANCH  29  50
BRANCH  41  58
ATOM     58  C   UNL A   1      47.106  27.293  25.863  1.00  0.00     0.057 A 
ATOM     59  C   UNL A   1      48.148  26.575  26.460  1.00  0.00     0.134 A 
ATOM     60  C   UNL A   1      47.167  27.505  24.480  1.00  0.00     0.134 A 
ATOM     61  F   UNL A   1      48.151  26.353  27.783  1.00  0.00    -0.206 F 
ATOM     62  C   UNL A   1      49.228  26.109  25.711  1.00  0.00     0.040 A 
ATOM     63  C   UNL A   1      48.223  27.014  23.716  1.00  0.00     0.040 A 
ATOM     64  F   UNL A   1      46.190  28.176  23.849  1.00  0.00    -0.206 F 
ATOM     65  C   UNL A   1      49.262  26.321  24.334  1.00  0.00     0.006 A 
ENDBRANCH  41  58
ENDBRANCH  15  16
ENDBRANCH   8  10
ENDBRANCH   7   8
ENDBRANCH   6   7
ENDBRANCH   5   6
ENDBRANCH   4   5
ENDBRANCH   3   4
ENDBRANCH   2   3
ENDBRANCH   1   2
BRANCH   1  66
ATOM     66  C   UNL A   1      34.305  32.615  28.783  1.00  0.00     0.188 C 
BRANCH  66  67
ATOM     67  C   UNL A   1      34.251  31.453  27.749  1.00  0.00     0.188 C 
BRANCH  67  68
ATOM     68  O   UNL A   1      33.134  31.112  26.944  1.00  0.00    -0.376 OA
BRANCH  68  69
ATOM     69  C   UNL A   1      33.115  30.003  26.066  1.00  0.00     0.202 C 
BRANCH  69  70
ATOM     70  C   UNL A   1      31.692  29.362  25.470  1.00  0.00     0.261 C 
BRANCH  70  71
ATOM     71  O   UNL A   1      31.108  27.435  25.187  1.00  0.00    -0.458 OA
BRANCH  71  72
ATOM     72  C   UNL A   1      31.095  26.081  24.607  1.00  0.00     0.359 C 
ATOM     73  O   UNL A   1      30.792  25.940  23.422  1.00  0.00    -0.244 OA
BRANCH  72  74
ATOM     74  C   UNL A   1      31.409  24.800  25.431  1.00  0.00     0.179 A 
ATOM     75  N   UNL A   1      30.295  24.268  26.038  1.00  0.00    -0.245 NA
ATOM     76  C   UNL A   1      32.679  24.262  25.721  1.00  0.00     0.161 A 
ATOM     77  C   UNL A   1      30.502  23.252  26.917  1.00  0.00     0.132 A 
ATOM     78  N   UNL A   1      32.858  23.229  26.615  1.00  0.00    -0.247 NA
ATOM     79  C   UNL A   1      31.754  22.747  27.206  1.00  0.00     0.132 A 
BRANCH  76  80
ATOM     80  C   UNL A   1      33.993  24.791  25.262  1.00  0.00     0.276 C 
ATOM     81  O   UNL A   1      34.423  25.876  25.644  1.00  0.00    -0.267 OA
ATOM     82  N   UNL A   1      34.720  24.063  24.377  1.00  0.00    -0.320 N 
ATOM     83  H   UNL A   1      35.624  24.385  24.155  1.00  0.00     0.170 HD
BRANCH  82  84
ATOM     84  C   UNL A   1      34.285  22.902  23.762  1.00  0.00     0.045 A 
ATOM     85  C   UNL A   1      32.900  22.830  22.548  1.00  0.00     0.030 A 
ATOM     86  C   UNL A   1      34.795  21.404  24.646  1.00  0.00     0.076 A 
ATOM     87  C   UNL A   1      31.974  21.274  22.370  1.00  0.00     0.053 A 
ATOM     88  C   UNL A   1      33.873  19.931  24.387  1.00  0.00     0.167 A 
ATOM     89  C   UNL A   1      32.509  19.867  23.299  1.00  0.00     0.165 A 
ATOM     90  O   UNL A   1      34.132  18.666  24.795  1.00  0.00    -0.454 OA
ATOM     91  O   UNL A   1      32.143  18.564  23.201  1.00  0.00    -0.454 OA
ATOM     92  C   UNL A   1      33.181  17.881  23.996  1.00  0.00     0.468 C 
ENDBRANCH  82  84
ENDBRANCH  76  80
ENDBRANCH  72  74
ENDBRANCH  71  72
ENDBRANCH  70  71
ENDBRANCH  69  70
ENDBRANCH  68  69
ENDBRANCH  67  68
ENDBRANCH  66  67
ENDBRANCH   1  66
TORSDOF 22
ENDMDL
MODEL 2
REMARK VINA RESULT:     -11.0      1.059      2.167
REMARK SMILES O=C(OCCOCCOCCOCCOC(=O)c1nccnc1C(=O)Nc1ccc2c(c1)OCO2)c1ccc(-c2c3nc(c(-c4c(F)cccc4F)c4ccc([nH]4)c(-c4c(F)cccc4F)c4nc(c(-c5c(F)cccc5F)c5ccc2[nH]5)C=C4)C=C3)cc1
REMARK SMILES IDX 9 1 8 2 7 3 6 4 5 5 4 6 3 7 2 8 1 9 36 10 37 11 89 12 38 13
REMARK SMILES IDX 88 14 39 15 40 16 41 17 82 18 42 19 87 20 81 21 83 22 43 23
REMARK SMILES IDX 86 24 80 25 79 26 44 28 70 29 53 30 69 31 54 32 57 33 68 34
REMARK SMILES IDX 84 35 55 36 56 37 67 39 85 40 58 41 45 42 46 43 51 44 47 45
REMARK SMILES IDX 48 46 50 47 52 48 49 49 71 50 72 51 77 52 73 53 74 54 76 55
REMARK SMILES IDX 78 56 75 57 59 58 60 59 65 60 61 61 62 62 64 63 66 64 63 65
REMARK SMILES IDX 10 66 11 67 12 68 13 69 14 70 15 71 16 72 17 73 18 74 19 75
REMARK SMILES IDX 23 76 20 77 22 78 21 79 24 80 25 81 26 82 27 84 28 85 32 86
REMARK SMILES IDX 29 87 31 88 30 89 33 90 35 91 34 92
REMARK H PARENT 83 27 57 38 26 83
REMARK Flexibility Score: inf
ROOT
ATOM      1  O   UNL A   1      34.286  34.311  28.791  1.00  0.00    -0.377 OA
ENDROOT
BRANCH   1   2
ATOM      2  C   UNL A   1      33.145  35.102  29.067  1.00  0.00     0.188 C 
BRANCH   2   3
ATOM      3  C   UNL A   1      33.211  35.954  30.320  1.00  0.00     0.188 C 
BRANCH   3   4
ATOM      4  O   UNL A   1      33.025  35.096  31.422  1.00  0.00    -0.376 OA
BRANCH   4   5
ATOM      5  C   UNL A   1      33.827  35.305  32.567  1.00  0.00     0.202 C 
BRANCH   5   6
ATOM      6  C   UNL A   1      35.284  34.978  32.267  1.00  0.00     0.261 C 
BRANCH   6   7
ATOM      7  O   UNL A   1      35.444  33.595  31.898  1.00  0.00    -0.460 OA
BRANCH   7   8
ATOM      8  C   UNL A   1      36.200  32.662  32.530  1.00  0.00     0.338 C 
ATOM      9  O   UNL A   1      35.933  32.356  33.692  1.00  0.00    -0.246 OA
BRANCH   8  10
ATOM     10  C   UNL A   1      37.310  31.916  31.874  1.00  0.00     0.060 A 
ATOM     11  C   UNL A   1      38.140  31.010  32.529  1.00  0.00     0.016 A 
ATOM     12  C   UNL A   1      37.427  32.014  30.486  1.00  0.00     0.016 A 
ATOM     13  C   UNL A   1      39.099  30.258  31.875  1.00  0.00     0.010 A 
ATOM     14  C   UNL A   1      38.382  31.252  29.800  1.00  0.00     0.010 A 
ATOM     15  C   UNL A   1      39.239  30.392  30.504  1.00  0.00    -0.014 A 
BRANCH  15  16
ATOM     16  C   UNL A   1      40.445  29.814  29.888  1.00  0.00     0.031 A 
ATOM     17  C   UNL A   1      41.660  30.689  29.845  1.00  0.00     0.074 A 
ATOM     18  C   UNL A   1      40.493  28.519  29.531  1.00  0.00     0.049 A 
ATOM     19  N   UNL A   1      42.780  30.528  29.201  1.00  0.00    -0.248 NA
ATOM     20  C   UNL A   1      41.594  31.929  30.641  1.00  0.00     0.031 C 
ATOM     21  C   UNL A   1      39.418  27.542  29.722  1.00  0.00     0.029 A 
ATOM     22  N   UNL A   1      41.499  27.795  28.950  1.00  0.00    -0.354 N 
ATOM     23  C   UNL A   1      43.524  31.670  29.466  1.00  0.00     0.074 A 
ATOM     24  C   UNL A   1      42.730  32.521  30.318  1.00  0.00     0.031 C 
ATOM     25  C   UNL A   1      39.824  26.345  29.265  1.00  0.00     0.029 A 
ATOM     26  C   UNL A   1      41.143  26.497  28.666  1.00  0.00     0.049 A 
ATOM     27  H   UNL A   1      42.389  28.166  28.754  1.00  0.00     0.167 HD
ATOM     28  C   UNL A   1      44.764  31.970  29.021  1.00  0.00     0.037 A 
ATOM     29  C   UNL A   1      41.799  25.572  27.942  1.00  0.00     0.037 A 
ATOM     30  C   UNL A   1      45.520  31.075  28.190  1.00  0.00     0.049 A 
ATOM     31  C   UNL A   1      43.123  25.974  27.345  1.00  0.00     0.074 A 
ATOM     32  C   UNL A   1      46.747  31.271  27.590  1.00  0.00     0.029 A 
ATOM     33  N   UNL A   1      45.103  29.791  27.857  1.00  0.00    -0.354 N 
ATOM     34  N   UNL A   1      43.783  27.103  27.480  1.00  0.00    -0.248 NA
ATOM     35  C   UNL A   1      43.784  24.990  26.480  1.00  0.00     0.031 C 
ATOM     36  C   UNL A   1      47.052  30.118  26.856  1.00  0.00     0.029 A 
ATOM     37  C   UNL A   1      46.044  29.183  27.050  1.00  0.00     0.049 A 
ATOM     38  H   UNL A   1      44.260  29.376  28.153  1.00  0.00     0.167 HD
ATOM     39  C   UNL A   1      44.948  26.957  26.741  1.00  0.00     0.074 A 
ATOM     40  C   UNL A   1      44.911  25.620  26.177  1.00  0.00     0.031 C 
ATOM     41  C   UNL A   1      45.959  27.838  26.536  1.00  0.00     0.037 A 
BRANCH  28  42
ATOM     42  C   UNL A   1      45.303  33.327  29.364  1.00  0.00     0.057 A 
ATOM     43  C   UNL A   1      45.927  33.600  30.589  1.00  0.00     0.134 A 
ATOM     44  C   UNL A   1      45.132  34.397  28.477  1.00  0.00     0.134 A 
ATOM     45  F   UNL A   1      46.085  32.631  31.503  1.00  0.00    -0.206 F 
ATOM     46  C   UNL A   1      46.332  34.893  30.931  1.00  0.00     0.040 A 
ATOM     47  C   UNL A   1      45.560  35.687  28.794  1.00  0.00     0.040 A 
ATOM     48  F   UNL A   1      44.528  34.212  27.293  1.00  0.00    -0.206 F 
ATOM     49  C   UNL A   1      46.152  35.941  30.029  1.00  0.00     0.006 A 
ENDBRANCH  28  42
BRANCH  29  50
ATOM     50  C   UNL A   1      41.194  24.239  27.667  1.00  0.00     0.057 A 
ATOM     51  C   UNL A   1      41.641  23.083  28.317  1.00  0.00     0.134 A 
ATOM     52  C   UNL A   1      40.181  24.079  26.710  1.00  0.00     0.134 A 
ATOM     53  F   UNL A   1      42.620  23.158  29.232  1.00  0.00    -0.206 F 
ATOM     54  C   UNL A   1      41.128  21.820  28.007  1.00  0.00     0.040 A 
ATOM     55  C   UNL A   1      39.636  22.827  26.414  1.00  0.00     0.040 A 
ATOM     56  F   UNL A   1      39.699  25.140  26.046  1.00  0.00    -0.206 F 
ATOM     57  C   UNL A   1      40.121  21.690  27.054  1.00  0.00     0.006 A 
ENDBRANCH  29  50
BRANCH  41  58
ATOM     58  C   UNL A   1      47.118  27.352  25.720  1.00  0.00     0.057 A 
ATOM     59  C   UNL A   1      47.188  27.550  24.336  1.00  0.00     0.134 A 
ATOM     60  C   UNL A   1      48.200  26.720  26.345  1.00  0.00     0.134 A 
ATOM     61  F   UNL A   1      46.175  28.138  23.681  1.00  0.00    -0.206 F 
ATOM     62  C   UNL A   1      48.285  27.110  23.597  1.00  0.00     0.040 A 
ATOM     63  C   UNL A   1      49.317  26.307  25.622  1.00  0.00     0.040 A 
ATOM     64  F   UNL A   1      48.196  26.513  27.672  1.00  0.00    -0.206 F 
ATOM     65  C   UNL A   1      49.356  26.495  24.242  1.00  0.00     0.006 A 
ENDBRANCH  41  58
ENDBRANCH  15  16
ENDBRANCH   8  10
ENDBRANCH   7   8
ENDBRANCH   6   7
ENDBRANCH   5   6
ENDBRANCH   4   5
ENDBRANCH   3   4
ENDBRANCH   2   3
ENDBRANCH   1   2
BRANCH   1  66
ATOM     66  C   UNL A   1      34.284  32.893  28.972  1.00  0.00     0.188 C 
BRANCH  66  67
ATOM     67  C   UNL A   1      34.727  31.838  27.917  1.00  0.00     0.188 C 
BRANCH  67  68
ATOM     68  O   UNL A   1      34.167  30.544  27.754  1.00  0.00    -0.376 OA
BRANCH  68  69
ATOM     69  C   UNL A   1      34.563  29.648  26.734  1.00  0.00     0.202 C 
BRANCH  69  70
ATOM     70  C   UNL A   1      33.506  28.543  26.060  1.00  0.00     0.261 C 
BRANCH  70  71
ATOM     71  O   UNL A   1      33.581  26.513  25.953  1.00  0.00    -0.458 OA
BRANCH  71  72
ATOM     72  C   UNL A   1      33.225  25.153  25.516  1.00  0.00     0.359 C 
ATOM     73  O   UNL A   1      32.112  24.706  25.795  1.00  0.00    -0.244 OA
BRANCH  72  74
ATOM     74  C   UNL A   1      34.204  24.225  24.743  1.00  0.00     0.179 A 
ATOM     75  N   UNL A   1      35.440  24.134  25.341  1.00  0.00    -0.245 NA
ATOM     76  C   UNL A   1      34.002  23.633  23.479  1.00  0.00     0.161 A 
ATOM     77  C   UNL A   1      36.412  23.486  24.646  1.00  0.00     0.132 A 
ATOM     78  N   UNL A   1      35.005  22.979  22.800  1.00  0.00    -0.247 NA
ATOM     79  C   UNL A   1      36.203  22.927  23.401  1.00  0.00     0.132 A 
BRANCH  76  80
ATOM     80  C   UNL A   1      32.781  23.743  22.633  1.00  0.00     0.276 C 
ATOM     81  O   UNL A   1      32.518  24.766  22.006  1.00  0.00    -0.267 OA
ATOM     82  N   UNL A   1      31.926  22.692  22.577  1.00  0.00    -0.320 N 
ATOM     83  H   UNL A   1      31.173  22.749  21.944  1.00  0.00     0.170 HD
BRANCH  82  84
ATOM     84  C   UNL A   1      32.030  21.544  23.345  1.00  0.00     0.045 A 
ATOM     85  C   UNL A   1      32.523  21.529  25.121  1.00  0.00     0.030 A 
ATOM     86  C   UNL A   1      32.193  20.042  22.346  1.00  0.00     0.076 A 
ATOM     87  C   UNL A   1      33.304  20.032  25.798  1.00  0.00     0.053 A 
ATOM     88  C   UNL A   1      32.921  18.625  23.087  1.00  0.00     0.167 A 
ATOM     89  C   UNL A   1      33.465  18.619  24.746  1.00  0.00     0.165 A 
ATOM     90  O   UNL A   1      33.016  17.357  22.619  1.00  0.00    -0.454 OA
ATOM     91  O   UNL A   1      33.806  17.340  25.045  1.00  0.00    -0.454 OA
ATOM     92  C   UNL A   1      33.424  16.613  23.819  1.00  0.00     0.468 C 
ENDBRANCH  82  84
ENDBRANCH  76  80
ENDBRANCH  72  74
ENDBRANCH  71  72
ENDBRANCH  70  71
ENDBRANCH  69  70
ENDBRANCH  68  69
ENDBRANCH  67  68
ENDBRANCH  66  67
ENDBRANCH   1  66
TORSDOF 22
ENDMDL
MODEL 3
REMARK VINA RESULT:     -10.4      6.296     12.984
REMARK SMILES O=C(OCCOCCOCCOCCOC(=O)c1nccnc1C(=O)Nc1ccc2c(c1)OCO2)c1ccc(-c2c3nc(c(-c4c(F)cccc4F)c4ccc([nH]4)c(-c4c(F)cccc4F)c4nc(c(-c5c(F)cccc5F)c5ccc2[nH]5)C=C4)C=C3)cc1
REMARK SMILES IDX 9 1 8 2 7 3 6 4 5 5 4 6 3 7 2 8 1 9 36 10 37 11 89 12 38 13
REMARK SMILES IDX 88 14 39 15 40 16 41 17 82 18 42 19 87 20 81 21 83 22 43 23
REMARK SMILES IDX 86 24 80 25 79 26 44 28 70 29 53 30 69 31 54 32 57 33 68 34
REMARK SMILES IDX 84 35 55 36 56 37 67 39 85 40 58 41 45 42 46 43 51 44 47 45
REMARK SMILES IDX 48 46 50 47 52 48 49 49 71 50 72 51 77 52 73 53 74 54 76 55
REMARK SMILES IDX 78 56 75 57 59 58 60 59 65 60 61 61 62 62 64 63 66 64 63 65
REMARK SMILES IDX 10 66 11 67 12 68 13 69 14 70 15 71 16 72 17 73 18 74 19 75
REMARK SMILES IDX 23 76 20 77 22 78 21 79 24 80 25 81 26 82 27 84 28 85 32 86
REMARK SMILES IDX 29 87 31 88 30 89 33 90 35 91 34 92
REMARK H PARENT 83 27 57 38 26 83
REMARK Flexibility Score: inf
ROOT
ATOM      1  O   UNL A   1      45.543  18.675  25.443  1.00  0.00    -0.377 OA
ENDROOT
BRANCH   1   2
ATOM      2  C   UNL A   1      44.219  18.452  24.996  1.00  0.00     0.188 C 
BRANCH   2   3
ATOM      3  C   UNL A   1      43.114  18.903  25.931  1.00  0.00     0.188 C 
BRANCH   3   4
ATOM      4  O   UNL A   1      42.687  20.174  25.497  1.00  0.00    -0.376 OA
BRANCH   4   5
ATOM      5  C   UNL A   1      42.168  21.064  26.464  1.00  0.00     0.202 C 
BRANCH   5   6
ATOM      6  C   UNL A   1      40.998  21.854  25.893  1.00  0.00     0.261 C 
BRANCH   6   7
ATOM      7  O   UNL A   1      40.737  23.037  26.672  1.00  0.00    -0.460 OA
BRANCH   7   8
ATOM      8  C   UNL A   1      41.288  24.266  26.503  1.00  0.00     0.338 C 
ATOM      9  O   UNL A   1      41.977  24.485  25.508  1.00  0.00    -0.246 OA
BRANCH   8  10
ATOM     10  C   UNL A   1      41.050  25.412  27.425  1.00  0.00     0.060 A 
ATOM     11  C   UNL A   1      41.707  26.636  27.340  1.00  0.00     0.016 A 
ATOM     12  C   UNL A   1      39.993  25.306  28.333  1.00  0.00     0.016 A 
ATOM     13  C   UNL A   1      41.396  27.715  28.147  1.00  0.00     0.010 A 
ATOM     14  C   UNL A   1      39.652  26.390  29.151  1.00  0.00     0.010 A 
ATOM     15  C   UNL A   1      40.377  27.590  29.075  1.00  0.00    -0.014 A 
BRANCH  15  16
ATOM     16  C   UNL A   1      40.269  28.635  30.107  1.00  0.00     0.031 A 
ATOM     17  C   UNL A   1      41.282  28.595  31.209  1.00  0.00     0.074 A 
ATOM     18  C   UNL A   1      39.408  29.659  29.975  1.00  0.00     0.049 A 
ATOM     19  N   UNL A   1      41.314  29.248  32.335  1.00  0.00    -0.248 NA
ATOM     20  C   UNL A   1      42.419  27.677  31.011  1.00  0.00     0.031 C 
ATOM     21  C   UNL A   1      38.521  29.884  28.830  1.00  0.00     0.029 A 
ATOM     22  N   UNL A   1      39.152  30.717  30.805  1.00  0.00    -0.354 N 
ATOM     23  C   UNL A   1      42.438  28.777  33.002  1.00  0.00     0.074 A 
ATOM     24  C   UNL A   1      43.055  27.777  32.165  1.00  0.00     0.031 C 
ATOM     25  C   UNL A   1      37.818  31.012  29.033  1.00  0.00     0.029 A 
ATOM     26  C   UNL A   1      38.137  31.528  30.357  1.00  0.00     0.049 A 
ATOM     27  H   UNL A   1      39.645  30.880  31.641  1.00  0.00     0.167 HD
ATOM     28  C   UNL A   1      42.897  29.154  34.215  1.00  0.00     0.037 A 
ATOM     29  C   UNL A   1      37.504  32.532  30.992  1.00  0.00     0.037 A 
ATOM     30  C   UNL A   1      42.254  30.171  34.999  1.00  0.00     0.049 A 
ATOM     31  C   UNL A   1      37.948  32.848  32.396  1.00  0.00     0.074 A 
ATOM     32  C   UNL A   1      42.545  30.600  36.277  1.00  0.00     0.029 A 
ATOM     33  N   UNL A   1      41.179  30.930  34.548  1.00  0.00    -0.354 N 
ATOM     34  N   UNL A   1      38.929  32.320  33.093  1.00  0.00    -0.248 NA
ATOM     35  C   UNL A   1      37.189  33.879  33.113  1.00  0.00     0.031 C 
ATOM     36  C   UNL A   1      41.616  31.591  36.617  1.00  0.00     0.029 A 
ATOM     37  C   UNL A   1      40.786  31.821  35.527  1.00  0.00     0.049 A 
ATOM     38  H   UNL A   1      40.759  30.844  33.662  1.00  0.00     0.167 HD
ATOM     39  C   UNL A   1      38.924  32.971  34.318  1.00  0.00     0.074 A 
ATOM     40  C   UNL A   1      37.852  33.948  34.258  1.00  0.00     0.031 C 
ATOM     41  C   UNL A   1      39.721  32.786  35.400  1.00  0.00     0.037 A 
BRANCH  28  42
ATOM     42  C   UNL A   1      44.076  28.405  34.761  1.00  0.00     0.057 A 
ATOM     43  C   UNL A   1      43.936  27.268  35.569  1.00  0.00     0.134 A 
ATOM     44  C   UNL A   1      45.376  28.873  34.529  1.00  0.00     0.134 A 
ATOM     45  F   UNL A   1      42.719  26.790  35.866  1.00  0.00    -0.206 F 
ATOM     46  C   UNL A   1      45.043  26.644  36.150  1.00  0.00     0.040 A 
ATOM     47  C   UNL A   1      46.491  28.240  35.079  1.00  0.00     0.040 A 
ATOM     48  F   UNL A   1      45.583  29.966  33.779  1.00  0.00    -0.206 F 
ATOM     49  C   UNL A   1      46.326  27.128  35.902  1.00  0.00     0.006 A 
ENDBRANCH  28  42
BRANCH  29  50
ATOM     50  C   UNL A   1      36.351  33.234  30.363  1.00  0.00     0.057 A 
ATOM     51  C   UNL A   1      35.029  32.917  30.697  1.00  0.00     0.134 A 
ATOM     52  C   UNL A   1      36.539  34.212  29.376  1.00  0.00     0.134 A 
ATOM     53  F   UNL A   1      34.773  31.979  31.621  1.00  0.00    -0.206 F 
ATOM     54  C   UNL A   1      33.943  33.520  30.055  1.00  0.00     0.040 A 
ATOM     55  C   UNL A   1      35.464  34.847  28.749  1.00  0.00     0.040 A 
ATOM     56  F   UNL A   1      37.777  34.572  29.002  1.00  0.00    -0.206 F 
ATOM     57  C   UNL A   1      34.159  34.490  29.079  1.00  0.00     0.006 A 
ENDBRANCH  29  50
BRANCH  41  58
ATOM     58  C   UNL A   1      39.493  33.698  36.566  1.00  0.00     0.057 A 
ATOM     59  C   UNL A   1      38.711  33.319  37.664  1.00  0.00     0.134 A 
ATOM     60  C   UNL A   1      40.109  34.955  36.605  1.00  0.00     0.134 A 
ATOM     61  F   UNL A   1      38.085  32.132  37.677  1.00  0.00    -0.206 F 
ATOM     62  C   UNL A   1      38.528  34.173  38.751  1.00  0.00     0.040 A 
ATOM     63  C   UNL A   1      39.961  35.802  37.701  1.00  0.00     0.040 A 
ATOM     64  F   UNL A   1      40.881  35.368  35.588  1.00  0.00    -0.206 F 
ATOM     65  C   UNL A   1      39.161  35.415  38.774  1.00  0.00     0.006 A 
ENDBRANCH  41  58
ENDBRANCH  15  16
ENDBRANCH   8  10
ENDBRANCH   7   8
ENDBRANCH   6   7
ENDBRANCH   5   6
ENDBRANCH   4   5
ENDBRANCH   3   4
ENDBRANCH   2   3
ENDBRANCH   1   2
BRANCH   1  66
ATOM     66  C   UNL A   1      46.366  19.703  24.888  1.00  0.00     0.188 C 
BRANCH  66  67
ATOM     67  C   UNL A   1      46.034  21.223  24.860  1.00  0.00     0.188 C 
BRANCH  67  68
ATOM     68  O   UNL A   1      46.025  22.090  25.984  1.00  0.00    -0.376 OA
BRANCH  68  69
ATOM     69  C   UNL A   1      45.206  23.239  26.074  1.00  0.00     0.202 C 
BRANCH  69  70
ATOM     70  C   UNL A   1      45.379  24.540  25.040  1.00  0.00     0.261 C 
BRANCH  70  71
ATOM     71  O   UNL A   1      46.405  26.284  25.243  1.00  0.00    -0.458 OA
BRANCH  71  72
ATOM     72  C   UNL A   1      47.336  27.262  25.831  1.00  0.00     0.359 C 
ATOM     73  O   UNL A   1      47.268  28.440  25.480  1.00  0.00    -0.244 OA
BRANCH  72  74
ATOM     74  C   UNL A   1      48.440  26.875  26.856  1.00  0.00     0.179 A 
ATOM     75  N   UNL A   1      49.160  25.767  26.473  1.00  0.00    -0.245 NA
ATOM     76  C   UNL A   1      48.649  27.429  28.135  1.00  0.00     0.161 A 
ATOM     77  C   UNL A   1      50.028  25.254  27.386  1.00  0.00     0.132 A 
ATOM     78  N   UNL A   1      49.537  26.888  29.038  1.00  0.00    -0.247 NA
ATOM     79  C   UNL A   1      50.208  25.797  28.643  1.00  0.00     0.132 A 
BRANCH  76  80
ATOM     80  C   UNL A   1      47.874  28.535  28.760  1.00  0.00     0.276 C 
ATOM     81  O   UNL A   1      48.229  29.708  28.667  1.00  0.00    -0.267 OA
ATOM     82  N   UNL A   1      46.760  28.234  29.474  1.00  0.00    -0.320 N 
ATOM     83  H   UNL A   1      46.212  28.984  29.802  1.00  0.00     0.170 HD
BRANCH  82  84
ATOM     84  C   UNL A   1      46.336  26.951  29.775  1.00  0.00     0.045 A 
ATOM     85  C   UNL A   1      45.125  25.998  28.765  1.00  0.00     0.030 A 
ATOM     86  C   UNL A   1      46.622  26.505  31.508  1.00  0.00     0.076 A 
ATOM     87  C   UNL A   1      44.130  24.710  29.578  1.00  0.00     0.053 A 
ATOM     88  C   UNL A   1      45.647  25.222  32.208  1.00  0.00     0.167 A 
ATOM     89  C   UNL A   1      44.441  24.362  31.284  1.00  0.00     0.165 A 
ATOM     90  O   UNL A   1      45.764  24.603  33.407  1.00  0.00    -0.454 OA
ATOM     91  O   UNL A   1      44.005  23.337  32.061  1.00  0.00    -0.454 OA
ATOM     92  C   UNL A   1      44.879  23.441  33.245  1.00  0.00     0.468 C 
ENDBRANCH  82  84
ENDBRANCH  76  80
ENDBRANCH  72  74
ENDBRANCH  71  72
ENDBRANCH  70  71
ENDBRANCH  69  70
ENDBRANCH  68  69
ENDBRANCH  67  68
ENDBRANCH  66  67
ENDBRANCH   1  66
TORSDOF 22
ENDMDL
