MODEL 1
REMARK VINA RESULT:      -8.6      0.000      0.000
REMARK SMILES C[C@@H](C(=O)OCCOCCOCCOCCOC(=O)c1ccc(-c2c3nc(c(-c4c(F)cccc4F)c4ccc([nH]4)c(-c4c(F)cccc4F)c4nc(c(-c5c(F)cccc5F)c5ccc2[nH]5)C=C4)C=C3)cc1)c1ccc(-c2cccc(OC(=O)NC3CC3)c2)c(F)c1
REMARK SMILES IDX 9 1 8 2 7 3 6 4 5 5 3 6 4 7 2 8 1 9 74 10 75 11 93 12 76 13
REMARK SMILES IDX 91 14 77 15 92 16 78 17 79 18 90 19 80 20 82 21 81 22 83 23
REMARK SMILES IDX 84 24 85 25 86 26 87 28 88 29 89 30 10 31 11 32 12 33 13 34
REMARK SMILES IDX 14 35 15 36 16 37 17 38 18 39 19 40 20 41 21 42 73 43 22 44
REMARK SMILES IDX 72 45 23 46 24 47 25 48 66 49 26 50 71 51 65 52 67 53 27 54
REMARK SMILES IDX 70 55 64 56 63 57 28 59 54 60 37 61 53 62 38 63 41 64 52 65
REMARK SMILES IDX 68 66 39 67 40 68 51 70 69 71 42 72 29 73 30 74 35 75 31 76
REMARK SMILES IDX 32 77 34 78 36 79 33 80 55 81 56 82 61 83 57 84 58 85 60 86
REMARK SMILES IDX 62 87 59 88 43 89 44 90 49 91 45 92 46 93 48 94 50 95 47 96
REMARK H PARENT 86 27 67 58 41 69
REMARK Flexibility Score: inf
ROOT
ATOM      1  C   UNL A   1      41.916  19.294  26.128  1.00  0.00     0.188 C 
ENDROOT
BRANCH   1   2
ATOM      2  O   UNL A   1      42.267  20.601  26.537  1.00  0.00    -0.376 OA
BRANCH   2   3
ATOM      3  C   UNL A   1      41.572  21.262  27.584  1.00  0.00     0.202 C 
BRANCH   3   4
ATOM      4  C   UNL A   1      41.926  22.645  28.174  1.00  0.00     0.261 C 
BRANCH   4   5
ATOM      5  O   UNL A   1      41.692  23.783  27.342  1.00  0.00    -0.463 OA
BRANCH   5   6
ATOM      6  C   UNL A   1      40.406  24.105  27.073  1.00  0.00     0.313 C 
ATOM      7  O   UNL A   1      39.459  23.339  27.233  1.00  0.00    -0.252 OA
BRANCH   6   8
ATOM      8  C   UNL A   1      40.234  25.568  26.636  1.00  0.00     0.126 C 
ATOM      9  C   UNL A   1      41.216  25.991  25.530  1.00  0.00     0.025 C 
BRANCH   8  10
ATOM     10  C   UNL A   1      40.058  26.521  27.825  1.00  0.00    -0.031 A 
ATOM     11  C   UNL A   1      39.189  26.150  28.867  1.00  0.00     0.005 A 
ATOM     12  C   UNL A   1      40.663  27.784  27.919  1.00  0.00     0.044 A 
ATOM     13  C   UNL A   1      38.909  27.004  29.937  1.00  0.00     0.012 A 
ATOM     14  C   UNL A   1      40.374  28.640  28.993  1.00  0.00     0.131 A 
ATOM     15  C   UNL A   1      39.469  28.284  30.000  1.00  0.00     0.018 A 
ATOM     16  F   UNL A   1      40.960  29.848  29.011  1.00  0.00    -0.206 F 
BRANCH  15  17
ATOM     17  C   UNL A   1      38.961  29.245  30.990  1.00  0.00    -0.012 A 
ATOM     18  C   UNL A   1      39.672  29.581  32.153  1.00  0.00     0.009 A 
ATOM     19  C   UNL A   1      37.653  29.738  30.841  1.00  0.00     0.056 A 
ATOM     20  C   UNL A   1      39.085  30.373  33.145  1.00  0.00     0.004 A 
ATOM     21  C   UNL A   1      37.063  30.511  31.836  1.00  0.00     0.133 A 
ATOM     22  C   UNL A   1      37.776  30.830  32.991  1.00  0.00     0.047 A 
BRANCH  21  23
ATOM     23  O   UNL A   1      35.730  30.990  31.786  1.00  0.00    -0.410 OA
BRANCH  23  24
ATOM     24  C   UNL A   1      35.328  32.319  31.893  1.00  0.00     0.412 C 
ATOM     25  O   UNL A   1      35.179  32.953  32.933  1.00  0.00    -0.224 OA
ATOM     26  N   UNL A   1      35.076  32.927  30.692  1.00  0.00    -0.318 N 
ATOM     27  H   UNL A   1      34.732  33.848  30.757  1.00  0.00     0.167 HD
BRANCH  26  28
ATOM     28  C   UNL A   1      35.232  32.439  29.364  1.00  0.00     0.085 C 
ATOM     29  C   UNL A   1      35.169  33.230  28.090  1.00  0.00     0.027 C 
ATOM     30  C   UNL A   1      36.497  32.786  28.618  1.00  0.00     0.027 C 
ENDBRANCH  26  28
ENDBRANCH  23  24
ENDBRANCH  21  23
ENDBRANCH  15  17
ENDBRANCH   8  10
ENDBRANCH   6   8
ENDBRANCH   5   6
ENDBRANCH   4   5
ENDBRANCH   3   4
ENDBRANCH   2   3
ENDBRANCH   1   2
BRANCH   1  31
ATOM     31  C   UNL A   1      42.999  18.205  26.169  1.00  0.00     0.188 C 
BRANCH  31  32
ATOM     32  O   UNL A   1      43.986  18.293  25.161  1.00  0.00    -0.377 OA
BRANCH  32  33
ATOM     33  C   UNL A   1      45.294  18.715  25.524  1.00  0.00     0.188 C 
BRANCH  33  34
ATOM     34  C   UNL A   1      46.053  19.761  24.680  1.00  0.00     0.188 C 
BRANCH  34  35
ATOM     35  O   UNL A   1      46.404  20.949  25.370  1.00  0.00    -0.376 OA
BRANCH  35  36
ATOM     36  C   UNL A   1      45.512  22.052  25.332  1.00  0.00     0.202 C 
BRANCH  36  37
ATOM     37  C   UNL A   1      45.463  22.974  26.562  1.00  0.00     0.261 C 
BRANCH  37  38
ATOM     38  O   UNL A   1      46.465  24.001  26.631  1.00  0.00    -0.460 OA
BRANCH  38  39
ATOM     39  C   UNL A   1      46.319  25.078  25.826  1.00  0.00     0.338 C 
ATOM     40  O   UNL A   1      46.432  25.118  24.621  1.00  0.00    -0.246 OA
BRANCH  39  41
ATOM     41  C   UNL A   1      45.800  26.187  26.658  1.00  0.00     0.060 A 
ATOM     42  C   UNL A   1      46.707  26.958  27.397  1.00  0.00     0.016 A 
ATOM     43  C   UNL A   1      44.432  26.460  26.711  1.00  0.00     0.016 A 
ATOM     44  C   UNL A   1      46.242  27.980  28.225  1.00  0.00     0.010 A 
ATOM     45  C   UNL A   1      43.966  27.469  27.557  1.00  0.00     0.010 A 
ATOM     46  C   UNL A   1      44.866  28.210  28.347  1.00  0.00    -0.014 A 
BRANCH  46  47
ATOM     47  C   UNL A   1      44.358  29.068  29.445  1.00  0.00     0.031 A 
ATOM     48  C   UNL A   1      44.096  28.430  30.783  1.00  0.00     0.074 A 
ATOM     49  C   UNL A   1      44.156  30.386  29.274  1.00  0.00     0.049 A 
ATOM     50  N   UNL A   1      43.595  28.955  31.872  1.00  0.00    -0.248 NA
ATOM     51  C   UNL A   1      44.443  27.005  30.904  1.00  0.00     0.031 C 
ATOM     52  C   UNL A   1      44.415  31.130  28.044  1.00  0.00     0.029 A 
ATOM     53  N   UNL A   1      43.670  31.330  30.144  1.00  0.00    -0.354 N 
ATOM     54  C   UNL A   1      43.564  27.925  32.804  1.00  0.00     0.074 A 
ATOM     55  C   UNL A   1      44.059  26.737  32.142  1.00  0.00     0.031 C 
ATOM     56  C   UNL A   1      44.070  32.415  28.233  1.00  0.00     0.029 A 
ATOM     57  C   UNL A   1      43.532  32.576  29.584  1.00  0.00     0.049 A 
ATOM     58  H   UNL A   1      43.443  31.132  31.082  1.00  0.00     0.167 HD
ATOM     59  C   UNL A   1      43.166  27.966  34.097  1.00  0.00     0.037 A 
ATOM     60  C   UNL A   1      43.003  33.705  30.094  1.00  0.00     0.037 A 
ATOM     61  C   UNL A   1      42.666  29.146  34.751  1.00  0.00     0.049 A 
ATOM     62  C   UNL A   1      42.485  33.706  31.510  1.00  0.00     0.074 A 
ATOM     63  C   UNL A   1      42.243  29.293  36.060  1.00  0.00     0.029 A 
ATOM     64  N   UNL A   1      42.510  30.381  34.140  1.00  0.00    -0.354 N 
ATOM     65  N   UNL A   1      42.475  32.733  32.391  1.00  0.00    -0.248 NA
ATOM     66  C   UNL A   1      41.907  34.964  32.006  1.00  0.00     0.031 C 
ATOM     67  C   UNL A   1      41.777  30.600  36.225  1.00  0.00     0.029 A 
ATOM     68  C   UNL A   1      41.973  31.288  35.038  1.00  0.00     0.049 A 
ATOM     69  H   UNL A   1      42.748  30.583  33.205  1.00  0.00     0.167 HD
ATOM     70  C   UNL A   1      41.923  33.271  33.550  1.00  0.00     0.074 A 
ATOM     71  C   UNL A   1      41.624  34.657  33.264  1.00  0.00     0.031 C 
ATOM     72  C   UNL A   1      41.688  32.669  34.743  1.00  0.00     0.037 A 
BRANCH  59  73
ATOM     73  C   UNL A   1      43.229  26.685  34.881  1.00  0.00     0.057 A 
ATOM     74  C   UNL A   1      44.419  26.227  35.461  1.00  0.00     0.134 A 
ATOM     75  C   UNL A   1      42.077  25.913  35.076  1.00  0.00     0.134 A 
ATOM     76  F   UNL A   1      45.562  26.911  35.299  1.00  0.00    -0.206 F 
ATOM     77  C   UNL A   1      44.467  25.035  36.185  1.00  0.00     0.040 A 
ATOM     78  C   UNL A   1      42.105  24.735  35.824  1.00  0.00     0.040 A 
ATOM     79  F   UNL A   1      40.903  26.294  34.550  1.00  0.00    -0.206 F 
ATOM     80  C   UNL A   1      43.305  24.289  36.375  1.00  0.00     0.006 A 
ENDBRANCH  59  73
BRANCH  60  81
ATOM     81  C   UNL A   1      42.910  34.930  29.258  1.00  0.00     0.057 A 
ATOM     82  C   UNL A   1      44.036  35.720  28.992  1.00  0.00     0.134 A 
ATOM     83  C   UNL A   1      41.686  35.359  28.731  1.00  0.00     0.134 A 
ATOM     84  F   UNL A   1      45.233  35.378  29.490  1.00  0.00    -0.206 F 
ATOM     85  C   UNL A   1      43.944  36.901  28.253  1.00  0.00     0.040 A 
ATOM     86  C   UNL A   1      41.584  36.522  27.964  1.00  0.00     0.040 A 
ATOM     87  F   UNL A   1      40.568  34.651  28.949  1.00  0.00    -0.206 F 
ATOM     88  C   UNL A   1      42.715  37.301  27.732  1.00  0.00     0.006 A 
ENDBRANCH  60  81
BRANCH  72  89
ATOM     89  C   UNL A   1      41.122  33.518  35.848  1.00  0.00     0.057 A 
ATOM     90  C   UNL A   1      41.940  34.246  36.722  1.00  0.00     0.134 A 
ATOM     91  C   UNL A   1      39.736  33.643  36.009  1.00  0.00     0.134 A 
ATOM     92  F   UNL A   1      43.276  34.165  36.630  1.00  0.00    -0.206 F 
ATOM     93  C   UNL A   1      41.399  35.046  37.731  1.00  0.00     0.040 A 
ATOM     94  C   UNL A   1      39.184  34.464  36.993  1.00  0.00     0.040 A 
ATOM     95  F   UNL A   1      38.893  32.984  35.199  1.00  0.00    -0.206 F 
ATOM     96  C   UNL A   1      40.017  35.163  37.863  1.00  0.00     0.006 A 
ENDBRANCH  72  89
ENDBRANCH  46  47
ENDBRANCH  39  41
ENDBRANCH  38  39
ENDBRANCH  37  38
ENDBRANCH  36  37
ENDBRANCH  35  36
ENDBRANCH  34  35
ENDBRANCH  33  34
ENDBRANCH  32  33
ENDBRANCH  31  32
ENDBRANCH   1  31
TORSDOF 25
ENDMDL
MODEL 2
REMARK VINA RESULT:      -8.6      0.811      5.786
REMARK SMILES C[C@@H](C(=O)OCCOCCOCCOCCOC(=O)c1ccc(-c2c3nc(c(-c4c(F)cccc4F)c4ccc([nH]4)c(-c4c(F)cccc4F)c4nc(c(-c5c(F)cccc5F)c5ccc2[nH]5)C=C4)C=C3)cc1)c1ccc(-c2cccc(OC(=O)NC3CC3)c2)c(F)c1
REMARK SMILES IDX 9 1 8 2 7 3 6 4 5 5 3 6 4 7 2 8 1 9 74 10 75 11 93 12 76 13
REMARK SMILES IDX 91 14 77 15 92 16 78 17 79 18 90 19 80 20 82 21 81 22 83 23
REMARK SMILES IDX 84 24 85 25 86 26 87 28 88 29 89 30 10 31 11 32 12 33 13 34
REMARK SMILES IDX 14 35 15 36 16 37 17 38 18 39 19 40 20 41 21 42 73 43 22 44
REMARK SMILES IDX 72 45 23 46 24 47 25 48 66 49 26 50 71 51 65 52 67 53 27 54
REMARK SMILES IDX 70 55 64 56 63 57 28 59 54 60 37 61 53 62 38 63 41 64 52 65
REMARK SMILES IDX 68 66 39 67 40 68 51 70 69 71 42 72 29 73 30 74 35 75 31 76
REMARK SMILES IDX 32 77 34 78 36 79 33 80 55 81 56 82 61 83 57 84 58 85 60 86
REMARK SMILES IDX 62 87 59 88 43 89 44 90 49 91 45 92 46 93 48 94 50 95 47 96
REMARK H PARENT 86 27 67 58 41 69
REMARK Flexibility Score: inf
ROOT
ATOM      1  C   UNL A   1      41.602  19.328  26.137  1.00  0.00     0.188 C 
ENDROOT
BRANCH   1   2
ATOM      2  O   UNL A   1      41.850  20.687  26.437  1.00  0.00    -0.376 OA
BRANCH   2   3
ATOM      3  C   UNL A   1      41.201  21.340  27.517  1.00  0.00     0.202 C 
BRANCH   3   4
ATOM      4  C   UNL A   1      41.647  22.664  28.176  1.00  0.00     0.261 C 
BRANCH   4   5
ATOM      5  O   UNL A   1      41.460  23.860  27.415  1.00  0.00    -0.463 OA
BRANCH   5   6
ATOM      6  C   UNL A   1      40.197  24.328  27.289  1.00  0.00     0.313 C 
ATOM      7  O   UNL A   1      39.193  23.674  27.559  1.00  0.00    -0.252 OA
BRANCH   6   8
ATOM      8  C   UNL A   1      40.144  25.803  26.862  1.00  0.00     0.126 C 
ATOM      9  C   UNL A   1      41.172  26.157  25.775  1.00  0.00     0.025 C 
BRANCH   8  10
ATOM     10  C   UNL A   1      40.025  26.757  28.057  1.00  0.00    -0.031 A 
ATOM     11  C   UNL A   1      39.200  26.390  29.137  1.00  0.00     0.005 A 
ATOM     12  C   UNL A   1      40.639  28.017  28.124  1.00  0.00     0.044 A 
ATOM     13  C   UNL A   1      38.971  27.246  30.217  1.00  0.00     0.012 A 
ATOM     14  C   UNL A   1      40.400  28.875  29.208  1.00  0.00     0.131 A 
ATOM     15  C   UNL A   1      39.538  28.524  30.254  1.00  0.00     0.018 A 
ATOM     16  F   UNL A   1      40.991  30.081  29.200  1.00  0.00    -0.206 F 
BRANCH  15  17
ATOM     17  C   UNL A   1      39.078  29.488  31.265  1.00  0.00    -0.012 A 
ATOM     18  C   UNL A   1      39.341  29.331  32.635  1.00  0.00     0.009 A 
ATOM     19  C   UNL A   1      38.222  30.528  30.863  1.00  0.00     0.056 A 
ATOM     20  C   UNL A   1      38.750  30.181  33.577  1.00  0.00     0.004 A 
ATOM     21  C   UNL A   1      37.621  31.361  31.801  1.00  0.00     0.133 A 
ATOM     22  C   UNL A   1      37.882  31.190  33.161  1.00  0.00     0.047 A 
BRANCH  21  23
ATOM     23  O   UNL A   1      36.700  32.388  31.479  1.00  0.00    -0.410 OA
BRANCH  23  24
ATOM     24  C   UNL A   1      35.441  32.216  30.908  1.00  0.00     0.412 C 
ATOM     25  O   UNL A   1      35.203  31.750  29.798  1.00  0.00    -0.224 OA
ATOM     26  N   UNL A   1      34.404  32.636  31.699  1.00  0.00    -0.318 N 
ATOM     27  H   UNL A   1      33.514  32.576  31.282  1.00  0.00     0.167 HD
BRANCH  26  28
ATOM     28  C   UNL A   1      34.410  33.144  33.028  1.00  0.00     0.085 C 
ATOM     29  C   UNL A   1      35.440  34.036  33.657  1.00  0.00     0.027 C 
ATOM     30  C   UNL A   1      34.124  34.611  33.234  1.00  0.00     0.027 C 
ENDBRANCH  26  28
ENDBRANCH  23  24
ENDBRANCH  21  23
ENDBRANCH  15  17
ENDBRANCH   8  10
ENDBRANCH   6   8
ENDBRANCH   5   6
ENDBRANCH   4   5
ENDBRANCH   3   4
ENDBRANCH   2   3
ENDBRANCH   1   2
BRANCH   1  31
ATOM     31  C   UNL A   1      42.794  18.360  26.115  1.00  0.00     0.188 C 
BRANCH  31  32
ATOM     32  O   UNL A   1      43.741  18.588  25.090  1.00  0.00    -0.377 OA
BRANCH  32  33
ATOM     33  C   UNL A   1      45.037  19.047  25.452  1.00  0.00     0.188 C 
BRANCH  33  34
ATOM     34  C   UNL A   1      45.896  19.858  24.459  1.00  0.00     0.188 C 
BRANCH  34  35
ATOM     35  O   UNL A   1      46.441  21.060  24.980  1.00  0.00    -0.376 OA
BRANCH  35  36
ATOM     36  C   UNL A   1      45.693  22.260  24.856  1.00  0.00     0.202 C 
BRANCH  36  37
ATOM     37  C   UNL A   1      45.615  23.182  26.083  1.00  0.00     0.261 C 
BRANCH  37  38
ATOM     38  O   UNL A   1      46.642  24.180  26.199  1.00  0.00    -0.460 OA
BRANCH  38  39
ATOM     39  C   UNL A   1      46.516  25.303  25.458  1.00  0.00     0.338 C 
ATOM     40  O   UNL A   1      46.664  25.417  24.261  1.00  0.00    -0.246 OA
BRANCH  39  41
ATOM     41  C   UNL A   1      45.968  26.358  26.340  1.00  0.00     0.060 A 
ATOM     42  C   UNL A   1      46.816  26.961  27.278  1.00  0.00     0.016 A 
ATOM     43  C   UNL A   1      44.631  26.746  26.243  1.00  0.00     0.016 A 
ATOM     44  C   UNL A   1      46.316  27.925  28.154  1.00  0.00     0.010 A 
ATOM     45  C   UNL A   1      44.126  27.696  27.135  1.00  0.00     0.010 A 
ATOM     46  C   UNL A   1      44.957  28.263  28.119  1.00  0.00    -0.014 A 
BRANCH  46  47
ATOM     47  C   UNL A   1      44.365  29.040  29.234  1.00  0.00     0.031 A 
ATOM     48  C   UNL A   1      44.186  30.524  29.052  1.00  0.00     0.074 A 
ATOM     49  C   UNL A   1      43.969  28.448  30.374  1.00  0.00     0.049 A 
ATOM     50  N   UNL A   1      43.751  31.421  29.900  1.00  0.00    -0.248 NA
ATOM     51  C   UNL A   1      44.552  31.067  27.734  1.00  0.00     0.031 C 
ATOM     52  C   UNL A   1      44.045  27.016  30.656  1.00  0.00     0.029 A 
ATOM     53  N   UNL A   1      43.434  28.989  31.518  1.00  0.00    -0.354 N 
ATOM     54  C   UNL A   1      43.796  32.632  29.220  1.00  0.00     0.074 A 
ATOM     55  C   UNL A   1      44.335  32.362  27.905  1.00  0.00     0.031 C 
ATOM     56  C   UNL A   1      43.589  26.794  31.900  1.00  0.00     0.029 A 
ATOM     57  C   UNL A   1      43.223  28.070  32.515  1.00  0.00     0.049 A 
ATOM     58  H   UNL A   1      43.222  29.946  31.612  1.00  0.00     0.167 HD
ATOM     59  C   UNL A   1      43.415  33.858  29.648  1.00  0.00     0.037 A 
ATOM     60  C   UNL A   1      42.811  28.244  33.786  1.00  0.00     0.037 A 
ATOM     61  C   UNL A   1      42.886  34.126  30.960  1.00  0.00     0.049 A 
ATOM     62  C   UNL A   1      42.475  29.632  34.271  1.00  0.00     0.074 A 
ATOM     63  C   UNL A   1      42.465  35.333  31.489  1.00  0.00     0.029 A 
ATOM     64  N   UNL A   1      42.718  33.173  31.953  1.00  0.00    -0.354 N 
ATOM     65  N   UNL A   1      42.502  30.769  33.617  1.00  0.00    -0.248 NA
ATOM     66  C   UNL A   1      42.045  29.761  35.671  1.00  0.00     0.031 C 
ATOM     67  C   UNL A   1      42.097  35.121  32.821  1.00  0.00     0.029 A 
ATOM     68  C   UNL A   1      42.224  33.770  33.101  1.00  0.00     0.049 A 
ATOM     69  H   UNL A   1      42.919  32.214  31.855  1.00  0.00     0.167 HD
ATOM     70  C   UNL A   1      42.064  31.738  34.514  1.00  0.00     0.074 A 
ATOM     71  C   UNL A   1      41.764  31.054  35.753  1.00  0.00     0.031 C 
ATOM     72  C   UNL A   1      41.921  33.074  34.326  1.00  0.00     0.037 A 
BRANCH  59  73
ATOM     73  C   UNL A   1      43.585  35.007  28.696  1.00  0.00     0.057 A 
ATOM     74  C   UNL A   1      44.837  35.587  28.447  1.00  0.00     0.134 A 
ATOM     75  C   UNL A   1      42.485  35.526  28.003  1.00  0.00     0.134 A 
ATOM     76  F   UNL A   1      45.930  35.148  29.091  1.00  0.00    -0.206 F 
ATOM     77  C   UNL A   1      44.983  36.656  27.562  1.00  0.00     0.040 A 
ATOM     78  C   UNL A   1      42.623  36.575  27.092  1.00  0.00     0.040 A 
ATOM     79  F   UNL A   1      41.258  35.017  28.191  1.00  0.00    -0.206 F 
ATOM     80  C   UNL A   1      43.875  37.148  26.875  1.00  0.00     0.006 A 
ENDBRANCH  59  73
BRANCH  60  81
ATOM     81  C   UNL A   1      42.715  27.082  34.706  1.00  0.00     0.057 A 
ATOM     82  C   UNL A   1      43.816  26.654  35.460  1.00  0.00     0.134 A 
ATOM     83  C   UNL A   1      41.528  26.349  34.831  1.00  0.00     0.134 A 
ATOM     84  F   UNL A   1      44.989  27.296  35.366  1.00  0.00    -0.206 F 
ATOM     85  C   UNL A   1      43.746  25.530  36.285  1.00  0.00     0.040 A 
ATOM     86  C   UNL A   1      41.435  25.241  35.675  1.00  0.00     0.040 A 
ATOM     87  F   UNL A   1      40.437  26.704  34.137  1.00  0.00    -0.206 F 
ATOM     88  C   UNL A   1      42.550  24.823  36.398  1.00  0.00     0.006 A 
ENDBRANCH  60  81
BRANCH  72  89
ATOM     89  C   UNL A   1      41.371  33.881  35.471  1.00  0.00     0.057 A 
ATOM     90  C   UNL A   1      42.196  34.416  36.468  1.00  0.00     0.134 A 
ATOM     91  C   UNL A   1      40.001  34.163  35.547  1.00  0.00     0.134 A 
ATOM     92  F   UNL A   1      43.516  34.178  36.462  1.00  0.00    -0.206 F 
ATOM     93  C   UNL A   1      41.673  35.180  37.514  1.00  0.00     0.040 A 
ATOM     94  C   UNL A   1      39.472  34.952  36.569  1.00  0.00     0.040 A 
ATOM     95  F   UNL A   1      39.155  33.693  34.618  1.00  0.00    -0.206 F 
ATOM     96  C   UNL A   1      40.308  35.457  37.562  1.00  0.00     0.006 A 
ENDBRANCH  72  89
ENDBRANCH  46  47
ENDBRANCH  39  41
ENDBRANCH  38  39
ENDBRANCH  37  38
ENDBRANCH  36  37
ENDBRANCH  35  36
ENDBRANCH  34  35
ENDBRANCH  33  34
ENDBRANCH  32  33
ENDBRANCH  31  32
ENDBRANCH   1  31
TORSDOF 25
ENDMDL
MODEL 3
REMARK VINA RESULT:      -8.0      4.046      7.274
REMARK SMILES C[C@@H](C(=O)OCCOCCOCCOCCOC(=O)c1ccc(-c2c3nc(c(-c4c(F)cccc4F)c4ccc([nH]4)c(-c4c(F)cccc4F)c4nc(c(-c5c(F)cccc5F)c5ccc2[nH]5)C=C4)C=C3)cc1)c1ccc(-c2cccc(OC(=O)NC3CC3)c2)c(F)c1
REMARK SMILES IDX 9 1 8 2 7 3 6 4 5 5 3 6 4 7 2 8 1 9 74 10 75 11 93 12 76 13
REMARK SMILES IDX 91 14 77 15 92 16 78 17 79 18 90 19 80 20 82 21 81 22 83 23
REMARK SMILES IDX 84 24 85 25 86 26 87 28 88 29 89 30 10 31 11 32 12 33 13 34
REMARK SMILES IDX 14 35 15 36 16 37 17 38 18 39 19 40 20 41 21 42 73 43 22 44
REMARK SMILES IDX 72 45 23 46 24 47 25 48 66 49 26 50 71 51 65 52 67 53 27 54
REMARK SMILES IDX 70 55 64 56 63 57 28 59 54 60 37 61 53 62 38 63 41 64 52 65
REMARK SMILES IDX 68 66 39 67 40 68 51 70 69 71 42 72 29 73 30 74 35 75 31 76
REMARK SMILES IDX 32 77 34 78 36 79 33 80 55 81 56 82 61 83 57 84 58 85 60 86
REMARK SMILES IDX 62 87 59 88 43 89 44 90 49 91 45 92 46 93 48 94 50 95 47 96
REMARK H PARENT 86 27 67 58 41 69
REMARK Flexibility Score: inf
ROOT
ATOM      1  C   UNL A   1      42.048  19.188  25.791  1.00  0.00     0.188 C 
ENDROOT
BRANCH   1   2
ATOM      2  O   UNL A   1      42.276  20.515  26.222  1.00  0.00    -0.376 OA
BRANCH   2   3
ATOM      3  C   UNL A   1      42.062  20.906  27.570  1.00  0.00     0.202 C 
BRANCH   3   4
ATOM      4  C   UNL A   1      42.452  22.264  28.193  1.00  0.00     0.261 C 
BRANCH   4   5
ATOM      5  O   UNL A   1      41.467  23.298  28.158  1.00  0.00    -0.463 OA
BRANCH   5   6
ATOM      6  C   UNL A   1      41.207  23.872  26.960  1.00  0.00     0.313 C 
ATOM      7  O   UNL A   1      41.988  23.864  26.013  1.00  0.00    -0.252 OA
BRANCH   6   8
ATOM      8  C   UNL A   1      39.788  24.453  26.870  1.00  0.00     0.126 C 
ATOM      9  C   UNL A   1      39.351  25.189  28.148  1.00  0.00     0.025 C 
BRANCH   8  10
ATOM     10  C   UNL A   1      38.788  23.472  26.245  1.00  0.00    -0.031 A 
ATOM     11  C   UNL A   1      37.446  23.870  26.106  1.00  0.00     0.005 A 
ATOM     12  C   UNL A   1      39.108  22.163  25.854  1.00  0.00     0.044 A 
ATOM     13  C   UNL A   1      36.461  23.000  25.629  1.00  0.00     0.012 A 
ATOM     14  C   UNL A   1      38.115  21.291  25.382  1.00  0.00     0.131 A 
ATOM     15  C   UNL A   1      36.772  21.678  25.294  1.00  0.00     0.018 A 
ATOM     16  F   UNL A   1      38.477  20.040  25.054  1.00  0.00    -0.206 F 
BRANCH  15  17
ATOM     17  C   UNL A   1      35.682  20.722  25.046  1.00  0.00    -0.012 A 
ATOM     18  C   UNL A   1      35.887  19.334  25.009  1.00  0.00     0.009 A 
ATOM     19  C   UNL A   1      34.417  21.221  24.690  1.00  0.00     0.056 A 
ATOM     20  C   UNL A   1      34.860  18.471  24.611  1.00  0.00     0.004 A 
ATOM     21  C   UNL A   1      33.402  20.364  24.277  1.00  0.00     0.133 A 
ATOM     22  C   UNL A   1      33.620  18.987  24.235  1.00  0.00     0.047 A 
BRANCH  21  23
ATOM     23  O   UNL A   1      32.124  20.795  23.844  1.00  0.00    -0.410 OA
BRANCH  23  24
ATOM     24  C   UNL A   1      31.833  21.429  22.639  1.00  0.00     0.412 C 
ATOM     25  O   UNL A   1      31.911  20.935  21.518  1.00  0.00    -0.224 OA
ATOM     26  N   UNL A   1      31.440  22.735  22.772  1.00  0.00    -0.318 N 
ATOM     27  H   UNL A   1      31.291  23.213  21.924  1.00  0.00     0.167 HD
BRANCH  26  28
ATOM     28  C   UNL A   1      31.212  23.511  23.944  1.00  0.00     0.085 C 
ATOM     29  C   UNL A   1      32.192  23.814  25.040  1.00  0.00     0.027 C 
ATOM     30  C   UNL A   1      31.856  24.872  24.036  1.00  0.00     0.027 C 
ENDBRANCH  26  28
ENDBRANCH  23  24
ENDBRANCH  21  23
ENDBRANCH  15  17
ENDBRANCH   8  10
ENDBRANCH   6   8
ENDBRANCH   5   6
ENDBRANCH   4   5
ENDBRANCH   3   4
ENDBRANCH   2   3
ENDBRANCH   1   2
BRANCH   1  31
ATOM     31  C   UNL A   1      43.219  18.195  25.848  1.00  0.00     0.188 C 
BRANCH  31  32
ATOM     32  O   UNL A   1      44.371  18.576  25.122  1.00  0.00    -0.377 OA
BRANCH  32  33
ATOM     33  C   UNL A   1      45.114  19.703  25.569  1.00  0.00     0.188 C 
BRANCH  33  34
ATOM     34  C   UNL A   1      46.259  20.288  24.713  1.00  0.00     0.188 C 
BRANCH  34  35
ATOM     35  O   UNL A   1      46.455  21.686  24.849  1.00  0.00    -0.376 OA
BRANCH  35  36
ATOM     36  C   UNL A   1      45.355  22.499  25.226  1.00  0.00     0.202 C 
BRANCH  36  37
ATOM     37  C   UNL A   1      45.470  23.292  26.538  1.00  0.00     0.261 C 
BRANCH  37  38
ATOM     38  O   UNL A   1      46.304  24.461  26.506  1.00  0.00    -0.460 OA
BRANCH  38  39
ATOM     39  C   UNL A   1      45.838  25.551  25.855  1.00  0.00     0.338 C 
ATOM     40  O   UNL A   1      45.920  25.793  24.670  1.00  0.00    -0.246 OA
BRANCH  39  41
ATOM     41  C   UNL A   1      45.025  26.328  26.816  1.00  0.00     0.060 A 
ATOM     42  C   UNL A   1      45.022  27.726  26.721  1.00  0.00     0.016 A 
ATOM     43  C   UNL A   1      44.275  25.685  27.802  1.00  0.00     0.016 A 
ATOM     44  C   UNL A   1      44.301  28.487  27.642  1.00  0.00     0.010 A 
ATOM     45  C   UNL A   1      43.571  26.449  28.737  1.00  0.00     0.010 A 
ATOM     46  C   UNL A   1      43.611  27.854  28.684  1.00  0.00    -0.014 A 
BRANCH  46  47
ATOM     47  C   UNL A   1      43.113  28.655  29.829  1.00  0.00     0.031 A 
ATOM     48  C   UNL A   1      41.736  29.254  29.733  1.00  0.00     0.074 A 
ATOM     49  C   UNL A   1      43.849  28.831  30.940  1.00  0.00     0.049 A 
ATOM     50  N   UNL A   1      41.108  30.039  30.571  1.00  0.00    -0.248 NA
ATOM     51  C   UNL A   1      40.965  28.923  28.524  1.00  0.00     0.031 C 
ATOM     52  C   UNL A   1      45.176  28.266  31.175  1.00  0.00     0.029 A 
ATOM     53  N   UNL A   1      43.582  29.551  32.078  1.00  0.00    -0.354 N 
ATOM     54  C   UNL A   1      39.874  30.299  29.988  1.00  0.00     0.074 A 
ATOM     55  C   UNL A   1      39.855  29.620  28.711  1.00  0.00     0.031 C 
ATOM     56  C   UNL A   1      45.616  28.675  32.377  1.00  0.00     0.029 A 
ATOM     57  C   UNL A   1      44.617  29.559  32.979  1.00  0.00     0.049 A 
ATOM     58  H   UNL A   1      42.729  30.018  32.232  1.00  0.00     0.167 HD
ATOM     59  C   UNL A   1      38.844  31.029  30.477  1.00  0.00     0.037 A 
ATOM     60  C   UNL A   1      44.754  30.228  34.141  1.00  0.00     0.037 A 
ATOM     61  C   UNL A   1      38.868  31.710  31.745  1.00  0.00     0.049 A 
ATOM     62  C   UNL A   1      43.628  31.107  34.625  1.00  0.00     0.074 A 
ATOM     63  C   UNL A   1      37.874  32.472  32.333  1.00  0.00     0.029 A 
ATOM     64  N   UNL A   1      39.948  31.721  32.615  1.00  0.00    -0.354 N 
ATOM     65  N   UNL A   1      42.458  31.333  34.078  1.00  0.00    -0.248 NA
ATOM     66  C   UNL A   1      43.842  31.822  35.893  1.00  0.00     0.031 C 
ATOM     67  C   UNL A   1      38.373  32.991  33.531  1.00  0.00     0.029 A 
ATOM     68  C   UNL A   1      39.653  32.498  33.723  1.00  0.00     0.049 A 
ATOM     69  H   UNL A   1      40.797  31.245  32.466  1.00  0.00     0.167 HD
ATOM     70  C   UNL A   1      41.786  32.187  34.948  1.00  0.00     0.074 A 
ATOM     71  C   UNL A   1      42.675  32.426  36.065  1.00  0.00     0.031 C 
ATOM     72  C   UNL A   1      40.545  32.721  34.833  1.00  0.00     0.037 A 
BRANCH  59  73
ATOM     73  C   UNL A   1      37.616  31.153  29.621  1.00  0.00     0.057 A 
ATOM     74  C   UNL A   1      37.359  32.296  28.851  1.00  0.00     0.134 A 
ATOM     75  C   UNL A   1      36.691  30.105  29.547  1.00  0.00     0.134 A 
ATOM     76  F   UNL A   1      38.197  33.344  28.888  1.00  0.00    -0.206 F 
ATOM     77  C   UNL A   1      36.213  32.402  28.061  1.00  0.00     0.040 A 
ATOM     78  C   UNL A   1      35.557  30.186  28.737  1.00  0.00     0.040 A 
ATOM     79  F   UNL A   1      36.876  28.981  30.256  1.00  0.00    -0.206 F 
ATOM     80  C   UNL A   1      35.312  31.341  27.996  1.00  0.00     0.006 A 
ENDBRANCH  59  73
BRANCH  60  81
ATOM     81  C   UNL A   1      46.013  30.118  34.923  1.00  0.00     0.057 A 
ATOM     82  C   UNL A   1      47.095  30.975  34.689  1.00  0.00     0.134 A 
ATOM     83  C   UNL A   1      46.176  29.130  35.903  1.00  0.00     0.134 A 
ATOM     84  F   UNL A   1      47.012  31.925  33.746  1.00  0.00    -0.206 F 
ATOM     85  C   UNL A   1      48.299  30.841  35.383  1.00  0.00     0.040 A 
ATOM     86  C   UNL A   1      47.363  29.004  36.626  1.00  0.00     0.040 A 
ATOM     87  F   UNL A   1      45.180  28.276  36.177  1.00  0.00    -0.206 F 
ATOM     88  C   UNL A   1      48.433  29.856  36.359  1.00  0.00     0.006 A 
ENDBRANCH  60  81
BRANCH  72  89
ATOM     89  C   UNL A   1      40.051  33.580  35.964  1.00  0.00     0.057 A 
ATOM     90  C   UNL A   1      40.319  34.953  36.030  1.00  0.00     0.134 A 
ATOM     91  C   UNL A   1      39.255  33.030  36.978  1.00  0.00     0.134 A 
ATOM     92  F   UNL A   1      41.082  35.543  35.097  1.00  0.00    -0.206 F 
ATOM     93  C   UNL A   1      39.837  35.742  37.077  1.00  0.00     0.040 A 
ATOM     94  C   UNL A   1      38.741  33.814  38.011  1.00  0.00     0.040 A 
ATOM     95  F   UNL A   1      38.948  31.724  36.971  1.00  0.00    -0.206 F 
ATOM     96  C   UNL A   1      39.038  35.174  38.067  1.00  0.00     0.006 A 
ENDBRANCH  72  89
ENDBRANCH  46  47
ENDBRANCH  39  41
ENDBRANCH  38  39
ENDBRANCH  37  38
ENDBRANCH  36  37
ENDBRANCH  35  36
ENDBRANCH  34  35
ENDBRANCH  33  34
ENDBRANCH  32  33
ENDBRANCH  31  32
ENDBRANCH   1  31
TORSDOF 25
ENDMDL
