MODEL 1
REMARK VINA RESULT:     -10.3      0.000      0.000
REMARK SMILES Cc1cc2c(c(C)c1Cl)C=C(C(=O)OCCOCCOCCOCCOC(=O)c1ccc(-c3c4nc(c(-c5c(F)cccc5F)c5ccc([nH]5)c(-c5c(F)cccc5F)c5nc(c(-c6c(F)cccc6F)c6ccc3[nH]6)C=C5)C=C4)cc1)[C@@H](C(F)(F)F)O2
REMARK SMILES IDX 21 1 20 2 19 3 18 4 17 5 16 6 15 7 14 8 12 9 13 10 11 11
REMARK SMILES IDX 1 12 2 13 3 14 8 15 4 16 6 17 9 18 5 19 88 20 7 21 10 22
REMARK SMILES IDX 83 23 84 24 85 25 86 26 87 27 22 28 23 29 24 30 25 31 26 32
REMARK SMILES IDX 27 33 28 34 29 35 30 36 82 37 31 38 81 39 32 40 33 41 34 42
REMARK SMILES IDX 75 43 35 44 80 45 74 46 76 47 36 48 79 49 73 50 72 51 37 53
REMARK SMILES IDX 63 54 46 55 62 56 47 57 50 58 61 59 77 60 48 61 49 62 60 64
REMARK SMILES IDX 78 65 51 66 38 67 39 68 44 69 40 70 41 71 43 72 45 73 42 74
REMARK SMILES IDX 64 75 65 76 70 77 66 78 67 79 69 80 71 81 68 82 52 83 53 84
REMARK SMILES IDX 58 85 54 86 55 87 57 88 59 89 56 90
REMARK H PARENT 76 52 50 63
REMARK Flexibility Score: inf
ROOT
ATOM      1  C   UNL A   1      32.275  27.898  23.710  1.00  0.00     0.188 C 
ENDROOT
BRANCH   1   2
ATOM      2  O   UNL A   1      33.031  27.328  22.640  1.00  0.00    -0.377 OA
BRANCH   2   3
ATOM      3  C   UNL A   1      33.582  26.034  22.815  1.00  0.00     0.188 C 
BRANCH   3   4
ATOM      4  C   UNL A   1      32.685  24.884  22.316  1.00  0.00     0.188 C 
BRANCH   4   5
ATOM      5  O   UNL A   1      33.399  23.906  21.569  1.00  0.00    -0.376 OA
BRANCH   5   6
ATOM      6  C   UNL A   1      32.903  22.576  21.566  1.00  0.00     0.202 C 
BRANCH   6   7
ATOM      7  C   UNL A   1      32.126  22.094  22.801  1.00  0.00     0.261 C 
BRANCH   7   8
ATOM      8  O   UNL A   1      32.500  20.803  23.302  1.00  0.00    -0.460 OA
BRANCH   8   9
ATOM      9  C   UNL A   1      32.695  20.683  24.628  1.00  0.00     0.338 C 
ATOM     10  O   UNL A   1      32.152  19.889  25.376  1.00  0.00    -0.246 OA
BRANCH   9  11
ATOM     11  C   UNL A   1      33.817  21.572  25.003  1.00  0.00     0.087 C 
ATOM     12  C   UNL A   1      39.269  24.330  27.131  1.00  0.00     0.046 C 
ATOM     13  C   UNL A   1      38.237  23.481  26.438  1.00  0.00    -0.028 A 
ATOM     14  C   UNL A   1      36.937  23.978  26.305  1.00  0.00     0.052 A 
ATOM     15  C   UNL A   1      38.533  22.203  25.923  1.00  0.00     0.047 A 
ATOM     16  C   UNL A   1      35.921  23.185  25.773  1.00  0.00     0.128 A 
ATOM     17  C   UNL A   1      37.518  21.393  25.359  1.00  0.00    -0.021 A 
ATOM     18  Cl  UNL A   1      40.173  21.635  26.018  1.00  0.00    -0.084 Cl
ATOM     19  C   UNL A   1      36.186  21.878  25.354  1.00  0.00     0.022 A 
ATOM     20  O   UNL A   1      34.695  23.783  25.727  1.00  0.00    -0.475 OA
ATOM     21  C   UNL A   1      37.826  20.043  24.751  1.00  0.00     0.047 C 
ATOM     22  C   UNL A   1      35.045  21.037  24.991  1.00  0.00     0.027 C 
ATOM     23  C   UNL A   1      33.540  23.021  25.292  1.00  0.00     0.316 C 
BRANCH  23  24
ATOM     24  C   UNL A   1      32.437  23.212  26.342  1.00  0.00     0.430 C 
ATOM     25  F   UNL A   1      32.653  22.431  27.429  1.00  0.00    -0.167 F 
ATOM     26  F   UNL A   1      32.368  24.487  26.791  1.00  0.00    -0.167 F 
ATOM     27  F   UNL A   1      31.217  22.893  25.852  1.00  0.00    -0.167 F 
ENDBRANCH  23  24
ENDBRANCH   9  11
ENDBRANCH   8   9
ENDBRANCH   7   8
ENDBRANCH   6   7
ENDBRANCH   5   6
ENDBRANCH   4   5
ENDBRANCH   3   4
ENDBRANCH   2   3
ENDBRANCH   1   2
BRANCH   1  28
ATOM     28  C   UNL A   1      31.022  28.781  23.478  1.00  0.00     0.188 C 
BRANCH  28  29
ATOM     29  O   UNL A   1      30.886  29.865  24.388  1.00  0.00    -0.376 OA
BRANCH  29  30
ATOM     30  C   UNL A   1      31.481  29.710  25.666  1.00  0.00     0.202 C 
BRANCH  30  31
ATOM     31  C   UNL A   1      31.832  31.026  26.370  1.00  0.00     0.261 C 
BRANCH  31  32
ATOM     32  O   UNL A   1      32.827  30.927  27.401  1.00  0.00    -0.460 OA
BRANCH  32  33
ATOM     33  C   UNL A   1      33.600  32.018  27.628  1.00  0.00     0.338 C 
ATOM     34  O   UNL A   1      33.262  33.176  27.614  1.00  0.00    -0.246 OA
BRANCH  33  35
ATOM     35  C   UNL A   1      34.910  31.519  28.107  1.00  0.00     0.060 A 
ATOM     36  C   UNL A   1      35.058  30.153  28.375  1.00  0.00     0.016 A 
ATOM     37  C   UNL A   1      35.992  32.392  28.246  1.00  0.00     0.016 A 
ATOM     38  C   UNL A   1      36.288  29.658  28.805  1.00  0.00     0.010 A 
ATOM     39  C   UNL A   1      37.217  31.900  28.704  1.00  0.00     0.010 A 
ATOM     40  C   UNL A   1      37.361  30.537  29.013  1.00  0.00    -0.014 A 
BRANCH  40  41
ATOM     41  C   UNL A   1      38.538  30.068  29.782  1.00  0.00     0.031 A 
ATOM     42  C   UNL A   1      38.697  30.572  31.191  1.00  0.00     0.074 A 
ATOM     43  C   UNL A   1      39.415  29.186  29.274  1.00  0.00     0.049 A 
ATOM     44  N   UNL A   1      39.616  30.290  32.075  1.00  0.00    -0.248 NA
ATOM     45  C   UNL A   1      37.673  31.521  31.665  1.00  0.00     0.031 C 
ATOM     46  C   UNL A   1      39.348  28.593  27.941  1.00  0.00     0.029 A 
ATOM     47  N   UNL A   1      40.540  28.630  29.835  1.00  0.00    -0.354 N 
ATOM     48  C   UNL A   1      39.272  31.009  33.212  1.00  0.00     0.074 A 
ATOM     49  C   UNL A   1      38.091  31.777  32.894  1.00  0.00     0.031 C 
ATOM     50  C   UNL A   1      40.386  27.752  27.787  1.00  0.00     0.029 A 
ATOM     51  C   UNL A   1      41.203  27.763  29.001  1.00  0.00     0.049 A 
ATOM     52  H   UNL A   1      40.842  28.834  30.750  1.00  0.00     0.167 HD
ATOM     53  C   UNL A   1      39.875  31.013  34.423  1.00  0.00     0.037 A 
ATOM     54  C   UNL A   1      42.341  27.067  29.198  1.00  0.00     0.037 A 
ATOM     55  C   UNL A   1      41.055  30.258  34.738  1.00  0.00     0.049 A 
ATOM     56  C   UNL A   1      43.061  27.180  30.518  1.00  0.00     0.074 A 
ATOM     57  C   UNL A   1      41.733  30.189  35.941  1.00  0.00     0.029 A 
ATOM     58  N   UNL A   1      41.740  29.455  33.840  1.00  0.00    -0.354 N 
ATOM     59  N   UNL A   1      42.705  27.827  31.602  1.00  0.00    -0.248 NA
ATOM     60  C   UNL A   1      44.346  26.473  30.642  1.00  0.00     0.031 C 
ATOM     61  C   UNL A   1      42.860  29.384  35.757  1.00  0.00     0.029 A 
ATOM     62  C   UNL A   1      42.858  28.916  34.452  1.00  0.00     0.049 A 
ATOM     63  H   UNL A   1      41.472  29.292  32.907  1.00  0.00     0.167 HD
ATOM     64  C   UNL A   1      43.709  27.593  32.536  1.00  0.00     0.074 A 
ATOM     65  C   UNL A   1      44.680  26.729  31.900  1.00  0.00     0.031 C 
ATOM     66  C   UNL A   1      43.816  28.056  33.805  1.00  0.00     0.037 A 
BRANCH  53  67
ATOM     67  C   UNL A   1      39.266  31.865  35.494  1.00  0.00     0.057 A 
ATOM     68  C   UNL A   1      38.324  31.350  36.394  1.00  0.00     0.134 A 
ATOM     69  C   UNL A   1      39.656  33.199  35.654  1.00  0.00     0.134 A 
ATOM     70  F   UNL A   1      37.897  30.083  36.280  1.00  0.00    -0.206 F 
ATOM     71  C   UNL A   1      37.780  32.138  37.409  1.00  0.00     0.040 A 
ATOM     72  C   UNL A   1      39.138  33.991  36.681  1.00  0.00     0.040 A 
ATOM     73  F   UNL A   1      40.555  33.752  34.825  1.00  0.00    -0.206 F 
ATOM     74  C   UNL A   1      38.195  33.461  37.559  1.00  0.00     0.006 A 
ENDBRANCH  53  67
BRANCH  54  75
ATOM     75  C   UNL A   1      42.882  26.201  28.118  1.00  0.00     0.057 A 
ATOM     76  C   UNL A   1      43.624  26.739  27.060  1.00  0.00     0.134 A 
ATOM     77  C   UNL A   1      42.656  24.818  28.108  1.00  0.00     0.134 A 
ATOM     78  F   UNL A   1      43.850  28.060  27.000  1.00  0.00    -0.206 F 
ATOM     79  C   UNL A   1      44.116  25.938  26.028  1.00  0.00     0.040 A 
ATOM     80  C   UNL A   1      43.162  24.002  27.094  1.00  0.00     0.040 A 
ATOM     81  F   UNL A   1      41.946  24.240  29.087  1.00  0.00    -0.206 F 
ATOM     82  C   UNL A   1      43.891  24.562  26.047  1.00  0.00     0.006 A 
ENDBRANCH  54  75
BRANCH  66  83
ATOM     83  C   UNL A   1      45.022  27.658  34.604  1.00  0.00     0.057 A 
ATOM     84  C   UNL A   1      46.149  28.485  34.686  1.00  0.00     0.134 A 
ATOM     85  C   UNL A   1      45.010  26.500  35.395  1.00  0.00     0.134 A 
ATOM     86  F   UNL A   1      46.224  29.603  33.948  1.00  0.00    -0.206 F 
ATOM     87  C   UNL A   1      47.218  28.178  35.527  1.00  0.00     0.040 A 
ATOM     88  C   UNL A   1      46.063  26.196  36.259  1.00  0.00     0.040 A 
ATOM     89  F   UNL A   1      43.955  25.672  35.374  1.00  0.00    -0.206 F 
ATOM     90  C   UNL A   1      47.170  27.038  36.328  1.00  0.00     0.006 A 
ENDBRANCH  66  83
ENDBRANCH  40  41
ENDBRANCH  33  35
ENDBRANCH  32  33
ENDBRANCH  31  32
ENDBRANCH  30  31
ENDBRANCH  29  30
ENDBRANCH  28  29
ENDBRANCH   1  28
TORSDOF 21
ENDMDL
MODEL 2
REMARK VINA RESULT:     -10.3      1.847      3.239
REMARK SMILES Cc1cc2c(c(C)c1Cl)C=C(C(=O)OCCOCCOCCOCCOC(=O)c1ccc(-c3c4nc(c(-c5c(F)cccc5F)c5ccc([nH]5)c(-c5c(F)cccc5F)c5nc(c(-c6c(F)cccc6F)c6ccc3[nH]6)C=C5)C=C4)cc1)[C@@H](C(F)(F)F)O2
REMARK SMILES IDX 21 1 20 2 19 3 18 4 17 5 16 6 15 7 14 8 12 9 13 10 11 11
REMARK SMILES IDX 1 12 2 13 3 14 8 15 4 16 6 17 9 18 5 19 88 20 7 21 10 22
REMARK SMILES IDX 83 23 84 24 85 25 86 26 87 27 22 28 23 29 24 30 25 31 26 32
REMARK SMILES IDX 27 33 28 34 29 35 30 36 82 37 31 38 81 39 32 40 33 41 34 42
REMARK SMILES IDX 75 43 35 44 80 45 74 46 76 47 36 48 79 49 73 50 72 51 37 53
REMARK SMILES IDX 63 54 46 55 62 56 47 57 50 58 61 59 77 60 48 61 49 62 60 64
REMARK SMILES IDX 78 65 51 66 38 67 39 68 44 69 40 70 41 71 43 72 45 73 42 74
REMARK SMILES IDX 64 75 65 76 70 77 66 78 67 79 69 80 71 81 68 82 52 83 53 84
REMARK SMILES IDX 58 85 54 86 55 87 57 88 59 89 56 90
REMARK H PARENT 76 52 50 63
REMARK Flexibility Score: inf
ROOT
ATOM      1  C   UNL A   1      33.617  28.547  26.942  1.00  0.00     0.188 C 
ENDROOT
BRANCH   1   2
ATOM      2  O   UNL A   1      32.613  28.468  25.928  1.00  0.00    -0.377 OA
BRANCH   2   3
ATOM      3  C   UNL A   1      32.706  29.342  24.816  1.00  0.00     0.188 C 
BRANCH   3   4
ATOM      4  C   UNL A   1      33.672  28.872  23.712  1.00  0.00     0.188 C 
BRANCH   4   5
ATOM      5  O   UNL A   1      33.007  28.504  22.509  1.00  0.00    -0.376 OA
BRANCH   5   6
ATOM      6  C   UNL A   1      31.865  27.667  22.607  1.00  0.00     0.202 C 
BRANCH   6   7
ATOM      7  C   UNL A   1      32.068  26.152  22.461  1.00  0.00     0.261 C 
BRANCH   7   8
ATOM      8  O   UNL A   1      33.079  25.579  23.301  1.00  0.00    -0.460 OA
BRANCH   8   9
ATOM      9  C   UNL A   1      32.675  24.957  24.425  1.00  0.00     0.338 C 
ATOM     10  O   UNL A   1      31.715  25.251  25.116  1.00  0.00    -0.246 OA
BRANCH   9  11
ATOM     11  C   UNL A   1      33.499  23.740  24.591  1.00  0.00     0.087 C 
ATOM     12  C   UNL A   1      38.115  19.219  24.937  1.00  0.00     0.046 C 
ATOM     13  C   UNL A   1      37.258  20.446  25.102  1.00  0.00    -0.028 A 
ATOM     14  C   UNL A   1      35.894  20.358  24.805  1.00  0.00     0.052 A 
ATOM     15  C   UNL A   1      37.781  21.678  25.542  1.00  0.00     0.047 A 
ATOM     16  C   UNL A   1      35.083  21.492  24.834  1.00  0.00     0.128 A 
ATOM     17  C   UNL A   1      36.967  22.835  25.599  1.00  0.00    -0.021 A 
ATOM     18  Cl  UNL A   1      39.458  21.750  25.991  1.00  0.00    -0.084 Cl
ATOM     19  C   UNL A   1      35.619  22.739  25.170  1.00  0.00     0.022 A 
ATOM     20  O   UNL A   1      33.780  21.271  24.495  1.00  0.00    -0.475 OA
ATOM     21  C   UNL A   1      37.494  24.152  26.120  1.00  0.00     0.047 C 
ATOM     22  C   UNL A   1      34.765  23.914  24.992  1.00  0.00     0.027 C 
ATOM     23  C   UNL A   1      32.865  22.391  24.387  1.00  0.00     0.316 C 
BRANCH  23  24
ATOM     24  C   UNL A   1      32.149  22.276  23.035  1.00  0.00     0.430 C 
ATOM     25  F   UNL A   1      31.875  20.983  22.733  1.00  0.00    -0.167 F 
ATOM     26  F   UNL A   1      30.967  22.934  23.020  1.00  0.00    -0.167 F 
ATOM     27  F   UNL A   1      32.900  22.775  22.026  1.00  0.00    -0.167 F 
ENDBRANCH  23  24
ENDBRANCH   9  11
ENDBRANCH   8   9
ENDBRANCH   7   8
ENDBRANCH   6   7
ENDBRANCH   5   6
ENDBRANCH   4   5
ENDBRANCH   3   4
ENDBRANCH   2   3
ENDBRANCH   1   2
BRANCH   1  28
ATOM     28  C   UNL A   1      34.582  29.752  27.082  1.00  0.00     0.188 C 
BRANCH  28  29
ATOM     29  O   UNL A   1      34.137  30.766  27.973  1.00  0.00    -0.376 OA
BRANCH  29  30
ATOM     30  C   UNL A   1      32.995  31.511  27.582  1.00  0.00     0.202 C 
BRANCH  30  31
ATOM     31  C   UNL A   1      33.260  33.001  27.336  1.00  0.00     0.261 C 
BRANCH  31  32
ATOM     32  O   UNL A   1      32.393  33.905  28.040  1.00  0.00    -0.460 OA
BRANCH  32  33
ATOM     33  C   UNL A   1      32.971  34.956  28.671  1.00  0.00     0.338 C 
ATOM     34  O   UNL A   1      32.535  36.075  28.790  1.00  0.00    -0.246 OA
BRANCH  33  35
ATOM     35  C   UNL A   1      34.161  34.427  29.378  1.00  0.00     0.060 A 
ATOM     36  C   UNL A   1      35.424  34.595  28.796  1.00  0.00     0.016 A 
ATOM     37  C   UNL A   1      34.028  33.810  30.624  1.00  0.00     0.016 A 
ATOM     38  C   UNL A   1      36.559  34.124  29.454  1.00  0.00     0.010 A 
ATOM     39  C   UNL A   1      35.163  33.314  31.269  1.00  0.00     0.010 A 
ATOM     40  C   UNL A   1      36.429  33.442  30.672  1.00  0.00    -0.014 A 
BRANCH  40  41
ATOM     41  C   UNL A   1      37.578  32.659  31.186  1.00  0.00     0.031 A 
ATOM     42  C   UNL A   1      38.096  32.999  32.557  1.00  0.00     0.074 A 
ATOM     43  C   UNL A   1      38.119  31.646  30.488  1.00  0.00     0.049 A 
ATOM     44  N   UNL A   1      39.063  32.445  33.240  1.00  0.00    -0.248 NA
ATOM     45  C   UNL A   1      37.425  34.112  33.252  1.00  0.00     0.031 C 
ATOM     46  C   UNL A   1      37.681  31.194  29.170  1.00  0.00     0.029 A 
ATOM     47  N   UNL A   1      39.160  30.807  30.805  1.00  0.00    -0.354 N 
ATOM     48  C   UNL A   1      39.103  33.129  34.448  1.00  0.00     0.074 A 
ATOM     49  C   UNL A   1      38.100  34.167  34.389  1.00  0.00     0.031 C 
ATOM     50  C   UNL A   1      38.447  30.155  28.790  1.00  0.00     0.029 A 
ATOM     51  C   UNL A   1      39.442  29.884  29.828  1.00  0.00     0.049 A 
ATOM     52  H   UNL A   1      39.657  30.862  31.653  1.00  0.00     0.167 HD
ATOM     53  C   UNL A   1      39.892  32.898  35.522  1.00  0.00     0.037 A 
ATOM     54  C   UNL A   1      40.400  28.935  29.779  1.00  0.00     0.037 A 
ATOM     55  C   UNL A   1      40.896  31.874  35.580  1.00  0.00     0.049 A 
ATOM     56  C   UNL A   1      41.346  28.775  30.943  1.00  0.00     0.074 A 
ATOM     57  C   UNL A   1      41.738  31.555  36.629  1.00  0.00     0.029 A 
ATOM     58  N   UNL A   1      41.203  31.012  34.539  1.00  0.00    -0.354 N 
ATOM     59  N   UNL A   1      41.349  29.395  32.098  1.00  0.00    -0.248 NA
ATOM     60  C   UNL A   1      42.428  27.788  30.794  1.00  0.00     0.031 C 
ATOM     61  C   UNL A   1      42.593  30.535  36.206  1.00  0.00     0.029 A 
ATOM     62  C   UNL A   1      42.251  30.187  34.907  1.00  0.00     0.049 A 
ATOM     63  H   UNL A   1      40.746  30.991  33.668  1.00  0.00     0.167 HD
ATOM     64  C   UNL A   1      42.416  28.866  32.816  1.00  0.00     0.074 A 
ATOM     65  C   UNL A   1      43.028  27.860  31.975  1.00  0.00     0.031 C 
ATOM     66  C   UNL A   1      42.850  29.189  34.059  1.00  0.00     0.037 A 
BRANCH  53  67
ATOM     67  C   UNL A   1      39.699  33.776  36.721  1.00  0.00     0.057 A 
ATOM     68  C   UNL A   1      38.902  33.377  37.801  1.00  0.00     0.134 A 
ATOM     69  C   UNL A   1      40.351  35.011  36.815  1.00  0.00     0.134 A 
ATOM     70  F   UNL A   1      38.238  32.212  37.763  1.00  0.00    -0.206 F 
ATOM     71  C   UNL A   1      38.747  34.185  38.929  1.00  0.00     0.040 A 
ATOM     72  C   UNL A   1      40.224  35.817  37.948  1.00  0.00     0.040 A 
ATOM     73  F   UNL A   1      41.129  35.450  35.814  1.00  0.00    -0.206 F 
ATOM     74  C   UNL A   1      39.417  35.404  39.008  1.00  0.00     0.006 A 
ENDBRANCH  53  67
BRANCH  54  75
ATOM     75  C   UNL A   1      40.522  28.059  28.585  1.00  0.00     0.057 A 
ATOM     76  C   UNL A   1      39.892  26.811  28.535  1.00  0.00     0.134 A 
ATOM     77  C   UNL A   1      41.286  28.439  27.473  1.00  0.00     0.134 A 
ATOM     78  F   UNL A   1      39.169  26.378  29.579  1.00  0.00    -0.206 F 
ATOM     79  C   UNL A   1      40.019  25.969  27.428  1.00  0.00     0.040 A 
ATOM     80  C   UNL A   1      41.403  27.617  26.350  1.00  0.00     0.040 A 
ATOM     81  F   UNL A   1      41.923  29.619  27.460  1.00  0.00    -0.206 F 
ATOM     82  C   UNL A   1      40.772  26.375  26.328  1.00  0.00     0.006 A 
ENDBRANCH  54  75
BRANCH  66  83
ATOM     83  C   UNL A   1      44.048  28.465  34.599  1.00  0.00     0.057 A 
ATOM     84  C   UNL A   1      45.331  29.019  34.521  1.00  0.00     0.134 A 
ATOM     85  C   UNL A   1      43.902  27.265  35.312  1.00  0.00     0.134 A 
ATOM     86  F   UNL A   1      45.538  30.160  33.846  1.00  0.00    -0.206 F 
ATOM     87  C   UNL A   1      46.427  28.409  35.133  1.00  0.00     0.040 A 
ATOM     88  C   UNL A   1      44.986  26.660  35.950  1.00  0.00     0.040 A 
ATOM     89  F   UNL A   1      42.697  26.690  35.436  1.00  0.00    -0.206 F 
ATOM     90  C   UNL A   1      46.253  27.234  35.863  1.00  0.00     0.006 A 
ENDBRANCH  66  83
ENDBRANCH  40  41
ENDBRANCH  33  35
ENDBRANCH  32  33
ENDBRANCH  31  32
ENDBRANCH  30  31
ENDBRANCH  29  30
ENDBRANCH  28  29
ENDBRANCH   1  28
TORSDOF 21
ENDMDL
MODEL 3
REMARK VINA RESULT:     -10.2      2.847      8.047
REMARK SMILES Cc1cc2c(c(C)c1Cl)C=C(C(=O)OCCOCCOCCOCCOC(=O)c1ccc(-c3c4nc(c(-c5c(F)cccc5F)c5ccc([nH]5)c(-c5c(F)cccc5F)c5nc(c(-c6c(F)cccc6F)c6ccc3[nH]6)C=C5)C=C4)cc1)[C@@H](C(F)(F)F)O2
REMARK SMILES IDX 21 1 20 2 19 3 18 4 17 5 16 6 15 7 14 8 12 9 13 10 11 11
REMARK SMILES IDX 1 12 2 13 3 14 8 15 4 16 6 17 9 18 5 19 88 20 7 21 10 22
REMARK SMILES IDX 83 23 84 24 85 25 86 26 87 27 22 28 23 29 24 30 25 31 26 32
REMARK SMILES IDX 27 33 28 34 29 35 30 36 82 37 31 38 81 39 32 40 33 41 34 42
REMARK SMILES IDX 75 43 35 44 80 45 74 46 76 47 36 48 79 49 73 50 72 51 37 53
REMARK SMILES IDX 63 54 46 55 62 56 47 57 50 58 61 59 77 60 48 61 49 62 60 64
REMARK SMILES IDX 78 65 51 66 38 67 39 68 44 69 40 70 41 71 43 72 45 73 42 74
REMARK SMILES IDX 64 75 65 76 70 77 66 78 67 79 69 80 71 81 68 82 52 83 53 84
REMARK SMILES IDX 58 85 54 86 55 87 57 88 59 89 56 90
REMARK H PARENT 76 52 50 63
REMARK Flexibility Score: inf
ROOT
ATOM      1  C   UNL A   1      41.747  21.775  27.624  1.00  0.00     0.188 C 
ENDROOT
BRANCH   1   2
ATOM      2  O   UNL A   1      40.399  21.302  27.597  1.00  0.00    -0.377 OA
BRANCH   2   3
ATOM      3  C   UNL A   1      39.703  21.312  26.362  1.00  0.00     0.188 C 
BRANCH   3   4
ATOM      4  C   UNL A   1      38.831  22.561  26.129  1.00  0.00     0.188 C 
BRANCH   4   5
ATOM      5  O   UNL A   1      37.490  22.245  25.778  1.00  0.00    -0.376 OA
BRANCH   5   6
ATOM      6  C   UNL A   1      37.225  20.958  25.243  1.00  0.00     0.202 C 
BRANCH   6   7
ATOM      7  C   UNL A   1      35.769  20.607  24.896  1.00  0.00     0.261 C 
BRANCH   7   8
ATOM      8  O   UNL A   1      34.996  21.670  24.323  1.00  0.00    -0.460 OA
BRANCH   8   9
ATOM      9  C   UNL A   1      33.655  21.569  24.386  1.00  0.00     0.338 C 
ATOM     10  O   UNL A   1      32.988  20.576  24.155  1.00  0.00    -0.246 OA
BRANCH   9  11
ATOM     11  C   UNL A   1      33.132  22.830  24.956  1.00  0.00     0.087 C 
ATOM     12  C   UNL A   1      31.796  28.918  26.691  1.00  0.00     0.046 C 
ATOM     13  C   UNL A   1      32.038  27.632  25.947  1.00  0.00    -0.028 A 
ATOM     14  C   UNL A   1      31.912  26.422  26.636  1.00  0.00     0.052 A 
ATOM     15  C   UNL A   1      32.389  27.604  24.582  1.00  0.00     0.047 A 
ATOM     16  C   UNL A   1      32.234  25.213  26.022  1.00  0.00     0.128 A 
ATOM     17  C   UNL A   1      32.699  26.383  23.936  1.00  0.00    -0.021 A 
ATOM     18  Cl  UNL A   1      32.457  29.110  23.717  1.00  0.00    -0.084 Cl
ATOM     19  C   UNL A   1      32.683  25.188  24.697  1.00  0.00     0.022 A 
ATOM     20  O   UNL A   1      32.094  24.113  26.816  1.00  0.00    -0.475 OA
ATOM     21  C   UNL A   1      33.023  26.327  22.460  1.00  0.00     0.047 C 
ATOM     22  C   UNL A   1      33.189  23.918  24.177  1.00  0.00     0.027 C 
ATOM     23  C   UNL A   1      32.500  22.811  26.320  1.00  0.00     0.316 C 
BRANCH  23  24
ATOM     24  C   UNL A   1      33.407  22.174  27.381  1.00  0.00     0.430 C 
ATOM     25  F   UNL A   1      32.948  22.422  28.633  1.00  0.00    -0.167 F 
ATOM     26  F   UNL A   1      33.478  20.829  27.257  1.00  0.00    -0.167 F 
ATOM     27  F   UNL A   1      34.671  22.652  27.313  1.00  0.00    -0.167 F 
ENDBRANCH  23  24
ENDBRANCH   9  11
ENDBRANCH   8   9
ENDBRANCH   7   8
ENDBRANCH   6   7
ENDBRANCH   5   6
ENDBRANCH   4   5
ENDBRANCH   3   4
ENDBRANCH   2   3
ENDBRANCH   1   2
BRANCH   1  28
ATOM     28  C   UNL A   1      42.446  22.399  26.389  1.00  0.00     0.188 C 
BRANCH  28  29
ATOM     29  O   UNL A   1      43.793  21.986  26.201  1.00  0.00    -0.376 OA
BRANCH  29  30
ATOM     30  C   UNL A   1      44.339  22.142  24.900  1.00  0.00     0.202 C 
BRANCH  30  31
ATOM     31  C   UNL A   1      45.096  23.456  24.680  1.00  0.00     0.261 C 
BRANCH  31  32
ATOM     32  O   UNL A   1      44.338  24.652  24.922  1.00  0.00    -0.460 OA
BRANCH  32  33
ATOM     33  C   UNL A   1      45.028  25.770  25.257  1.00  0.00     0.338 C 
ATOM     34  O   UNL A   1      46.001  26.227  24.710  1.00  0.00    -0.246 OA
BRANCH  33  35
ATOM     35  C   UNL A   1      44.243  26.456  26.309  1.00  0.00     0.060 A 
ATOM     36  C   UNL A   1      44.353  27.847  26.438  1.00  0.00     0.016 A 
ATOM     37  C   UNL A   1      43.375  25.733  27.131  1.00  0.00     0.016 A 
ATOM     38  C   UNL A   1      43.606  28.516  27.407  1.00  0.00     0.010 A 
ATOM     39  C   UNL A   1      42.649  26.400  28.119  1.00  0.00     0.010 A 
ATOM     40  C   UNL A   1      42.785  27.790  28.280  1.00  0.00    -0.014 A 
BRANCH  40  41
ATOM     41  C   UNL A   1      42.270  28.452  29.503  1.00  0.00     0.031 A 
ATOM     42  C   UNL A   1      40.953  29.171  29.405  1.00  0.00     0.074 A 
ATOM     43  C   UNL A   1      42.919  28.381  30.678  1.00  0.00     0.049 A 
ATOM     44  N   UNL A   1      40.279  29.798  30.332  1.00  0.00    -0.248 NA
ATOM     45  C   UNL A   1      40.308  29.177  28.080  1.00  0.00     0.031 C 
ATOM     46  C   UNL A   1      44.180  27.680  30.911  1.00  0.00     0.029 A 
ATOM     47  N   UNL A   1      42.593  28.907  31.905  1.00  0.00    -0.354 N 
ATOM     48  C   UNL A   1      39.125  30.255  29.708  1.00  0.00     0.074 A 
ATOM     49  C   UNL A   1      39.211  29.878  28.316  1.00  0.00     0.031 C 
ATOM     50  C   UNL A   1      44.520  27.817  32.205  1.00  0.00     0.029 A 
ATOM     51  C   UNL A   1      43.514  28.632  32.886  1.00  0.00     0.049 A 
ATOM     52  H   UNL A   1      41.775  29.430  32.065  1.00  0.00     0.167 HD
ATOM     53  C   UNL A   1      38.076  30.912  30.251  1.00  0.00     0.037 A 
ATOM     54  C   UNL A   1      43.540  29.005  34.182  1.00  0.00     0.037 A 
ATOM     55  C   UNL A   1      37.992  31.297  31.632  1.00  0.00     0.049 A 
ATOM     56  C   UNL A   1      42.413  29.840  34.737  1.00  0.00     0.074 A 
ATOM     57  C   UNL A   1      36.963  31.957  32.279  1.00  0.00     0.029 A 
ATOM     58  N   UNL A   1      38.983  31.069  32.574  1.00  0.00    -0.354 N 
ATOM     59  N   UNL A   1      41.307  30.230  34.152  1.00  0.00    -0.248 NA
ATOM     60  C   UNL A   1      42.542  30.295  36.131  1.00  0.00     0.031 C 
ATOM     61  C   UNL A   1      37.353  32.176  33.602  1.00  0.00     0.029 A 
ATOM     62  C   UNL A   1      38.606  31.612  33.790  1.00  0.00     0.049 A 
ATOM     63  H   UNL A   1      39.828  30.594  32.404  1.00  0.00     0.167 HD
ATOM     64  C   UNL A   1      40.603  30.958  35.106  1.00  0.00     0.074 A 
ATOM     65  C   UNL A   1      41.398  30.942  36.314  1.00  0.00     0.031 C 
ATOM     66  C   UNL A   1      39.409  31.587  34.987  1.00  0.00     0.037 A 
BRANCH  53  67
ATOM     67  C   UNL A   1      36.935  31.260  29.345  1.00  0.00     0.057 A 
ATOM     68  C   UNL A   1      36.821  32.528  28.763  1.00  0.00     0.134 A 
ATOM     69  C   UNL A   1      35.965  30.305  29.017  1.00  0.00     0.134 A 
ATOM     70  F   UNL A   1      37.709  33.491  29.052  1.00  0.00    -0.206 F 
ATOM     71  C   UNL A   1      35.773  32.840  27.896  1.00  0.00     0.040 A 
ATOM     72  C   UNL A   1      34.926  30.597  28.132  1.00  0.00     0.040 A 
ATOM     73  F   UNL A   1      36.019  29.071  29.541  1.00  0.00    -0.206 F 
ATOM     74  C   UNL A   1      34.827  31.869  27.572  1.00  0.00     0.006 A 
ENDBRANCH  53  67
BRANCH  54  75
ATOM     75  C   UNL A   1      44.673  28.598  35.053  1.00  0.00     0.057 A 
ATOM     76  C   UNL A   1      44.667  27.368  35.722  1.00  0.00     0.134 A 
ATOM     77  C   UNL A   1      45.780  29.432  35.252  1.00  0.00     0.134 A 
ATOM     78  F   UNL A   1      43.623  26.537  35.594  1.00  0.00    -0.206 F 
ATOM     79  C   UNL A   1      45.714  26.985  36.562  1.00  0.00     0.040 A 
ATOM     80  C   UNL A   1      46.846  29.053  36.071  1.00  0.00     0.040 A 
ATOM     81  F   UNL A   1      45.845  30.628  34.647  1.00  0.00    -0.206 F 
ATOM     82  C   UNL A   1      46.813  27.827  36.733  1.00  0.00     0.006 A 
ENDBRANCH  54  75
BRANCH  66  83
ATOM     83  C   UNL A   1      38.875  32.322  36.181  1.00  0.00     0.057 A 
ATOM     84  C   UNL A   1      38.098  31.674  37.148  1.00  0.00     0.134 A 
ATOM     85  C   UNL A   1      39.242  33.653  36.428  1.00  0.00     0.134 A 
ATOM     86  F   UNL A   1      37.708  30.404  36.966  1.00  0.00    -0.206 F 
ATOM     87  C   UNL A   1      37.707  32.321  38.321  1.00  0.00     0.040 A 
ATOM     88  C   UNL A   1      38.878  34.301  37.610  1.00  0.00     0.040 A 
ATOM     89  F   UNL A   1      39.997  34.326  35.548  1.00  0.00    -0.206 F 
ATOM     90  C   UNL A   1      38.110  33.634  38.561  1.00  0.00     0.006 A 
ENDBRANCH  66  83
ENDBRANCH  40  41
ENDBRANCH  33  35
ENDBRANCH  32  33
ENDBRANCH  31  32
ENDBRANCH  30  31
ENDBRANCH  29  30
ENDBRANCH  28  29
ENDBRANCH   1  28
TORSDOF 21
ENDMDL
