MODEL 1
REMARK VINA RESULT:     -11.1      0.000      0.000
REMARK SMILES Cc1c(C(=O)OCCOCCOCCOCCOC(=O)c2ccc(-c3c4nc(c(-c5c(F)cccc5F)c5ccc([nH]5)c(-c5c(F)cccc5F)c5nc(c(-c6c(F)cccc6F)c6ccc3[nH]6)C=C5)C=C4)cc2)cccc1-n1c(C)cc(/C=C2/C(=O)NC(=S)N=C2O)c1C
REMARK SMILES IDX 11 1 10 2 9 3 8 4 7 5 6 6 4 7 5 8 3 9 1 10 2 11 78 12 75 13
REMARK SMILES IDX 77 14 76 15 79 16 80 17 94 18 81 19 82 20 83 21 95 22 84 23
REMARK SMILES IDX 85 24 86 25 92 26 87 27 88 28 91 29 89 30 90 32 93 33 12 35
REMARK SMILES IDX 13 36 14 37 15 38 16 39 17 40 18 41 19 42 20 43 21 44 22 45
REMARK SMILES IDX 74 46 23 47 73 48 24 49 25 50 26 51 67 52 27 53 72 54 66 55
REMARK SMILES IDX 68 56 28 57 71 58 65 59 64 60 29 62 55 63 38 64 54 65 39 66
REMARK SMILES IDX 42 67 53 68 69 69 40 70 41 71 52 73 70 74 43 75 30 76 31 77
REMARK SMILES IDX 36 78 32 79 33 80 35 81 37 82 34 83 56 84 57 85 62 86 58 87
REMARK SMILES IDX 59 88 61 89 63 90 60 91 44 92 45 93 50 94 46 95 47 96 49 97
REMARK SMILES IDX 51 98 48 99
REMARK H PARENT 88 31 93 34 68 61 42 72
REMARK Flexibility Score: inf
ROOT
ATOM      1  C   UNL A   1      44.401  22.993  27.772  1.00  0.00     0.188 C 
ENDROOT
BRANCH   1   2
ATOM      2  C   UNL A   1      42.968  23.086  27.241  1.00  0.00     0.188 C 
BRANCH   2   3
ATOM      3  O   UNL A   1      42.275  21.875  26.974  1.00  0.00    -0.376 OA
BRANCH   3   4
ATOM      4  C   UNL A   1      41.146  22.001  26.110  1.00  0.00     0.202 C 
BRANCH   4   5
ATOM      5  C   UNL A   1      39.974  21.103  26.472  1.00  0.00     0.261 C 
BRANCH   5   6
ATOM      6  O   UNL A   1      38.895  21.416  25.585  1.00  0.00    -0.460 OA
BRANCH   6   7
ATOM      7  C   UNL A   1      38.201  20.366  25.128  1.00  0.00     0.338 C 
ATOM      8  O   UNL A   1      38.631  19.236  25.008  1.00  0.00    -0.246 OA
BRANCH   7   9
ATOM      9  C   UNL A   1      36.744  20.702  25.035  1.00  0.00     0.065 A 
ATOM     10  C   UNL A   1      36.690  23.156  25.883  1.00  0.00     0.047 C 
ATOM     11  C   UNL A   1      36.099  21.949  25.208  1.00  0.00    -0.012 A 
ATOM     12  C   UNL A   1      34.720  22.005  24.940  1.00  0.00     0.049 A 
ATOM     13  C   UNL A   1      35.956  19.541  24.896  1.00  0.00     0.016 A 
ATOM     14  C   UNL A   1      33.954  20.843  24.780  1.00  0.00     0.027 A 
ATOM     15  C   UNL A   1      34.572  19.604  24.816  1.00  0.00     0.003 A 
BRANCH  12  16
ATOM     16  N   UNL A   1      34.018  23.234  24.990  1.00  0.00    -0.318 N 
ATOM     17  C   UNL A   1      33.341  23.768  26.074  1.00  0.00     0.020 A 
ATOM     18  C   UNL A   1      33.937  24.124  23.927  1.00  0.00     0.027 A 
ATOM     19  C   UNL A   1      33.022  23.042  27.337  1.00  0.00     0.065 C 
ATOM     20  C   UNL A   1      33.135  25.104  25.778  1.00  0.00     0.031 A 
ATOM     21  C   UNL A   1      33.620  25.357  24.466  1.00  0.00    -0.003 A 
ATOM     22  C   UNL A   1      34.142  23.649  22.526  1.00  0.00     0.065 C 
BRANCH  21  23
ATOM     23  C   UNL A   1      33.601  26.647  23.855  1.00  0.00     0.029 C 
ATOM     24  C   UNL A   1      32.665  27.285  23.124  1.00  0.00     0.102 C 
ATOM     25  C   UNL A   1      33.000  28.672  22.713  1.00  0.00     0.262 C 
ATOM     26  C   UNL A   1      31.323  26.874  22.710  1.00  0.00     0.226 C 
ATOM     27  O   UNL A   1      34.133  29.140  22.703  1.00  0.00    -0.269 OA
ATOM     28  N   UNL A   1      31.909  29.424  22.363  1.00  0.00    -0.297 N 
ATOM     29  N   UNL A   1      30.362  27.642  22.347  1.00  0.00    -0.184 NA
ATOM     30  C   UNL A   1      30.612  28.986  22.269  1.00  0.00     0.203 C 
ATOM     31  H   UNL A   1      32.072  30.373  22.159  1.00  0.00     0.172 HD
ATOM     32  S   UNL A   1      29.420  30.128  21.984  1.00  0.00    -0.038 S 
BRANCH  26  33
ATOM     33  O   UNL A   1      31.091  25.564  22.620  1.00  0.00    -0.493 OA
ATOM     34  H   UNL A   1      31.084  25.146  21.781  1.00  0.00     0.295 HD
ENDBRANCH  26  33
ENDBRANCH  21  23
ENDBRANCH  12  16
ENDBRANCH   7   9
ENDBRANCH   6   7
ENDBRANCH   5   6
ENDBRANCH   4   5
ENDBRANCH   3   4
ENDBRANCH   2   3
ENDBRANCH   1   2
BRANCH   1  35
ATOM     35  O   UNL A   1      44.850  24.141  28.484  1.00  0.00    -0.377 OA
BRANCH  35  36
ATOM     36  C   UNL A   1      43.951  25.237  28.375  1.00  0.00     0.188 C 
BRANCH  36  37
ATOM     37  C   UNL A   1      44.509  26.307  27.463  1.00  0.00     0.188 C 
BRANCH  37  38
ATOM     38  O   UNL A   1      44.218  26.222  26.077  1.00  0.00    -0.376 OA
BRANCH  38  39
ATOM     39  C   UNL A   1      43.434  27.241  25.469  1.00  0.00     0.202 C 
BRANCH  39  40
ATOM     40  C   UNL A   1      42.519  28.022  26.420  1.00  0.00     0.261 C 
BRANCH  40  41
ATOM     41  O   UNL A   1      41.146  27.670  26.145  1.00  0.00    -0.460 OA
BRANCH  41  42
ATOM     42  C   UNL A   1      40.521  26.915  27.094  1.00  0.00     0.338 C 
ATOM     43  O   UNL A   1      40.464  25.696  27.094  1.00  0.00    -0.246 OA
BRANCH  42  44
ATOM     44  C   UNL A   1      39.584  27.786  27.884  1.00  0.00     0.060 A 
ATOM     45  C   UNL A   1      39.531  29.159  27.582  1.00  0.00     0.016 A 
ATOM     46  C   UNL A   1      39.153  27.353  29.136  1.00  0.00     0.016 A 
ATOM     47  C   UNL A   1      39.266  30.102  28.593  1.00  0.00     0.010 A 
ATOM     48  C   UNL A   1      38.972  28.295  30.143  1.00  0.00     0.010 A 
ATOM     49  C   UNL A   1      39.102  29.678  29.912  1.00  0.00    -0.014 A 
BRANCH  49  50
ATOM     50  C   UNL A   1      39.277  30.555  31.103  1.00  0.00     0.031 A 
ATOM     51  C   UNL A   1      40.337  30.240  32.124  1.00  0.00     0.074 A 
ATOM     52  C   UNL A   1      38.752  31.813  31.100  1.00  0.00     0.049 A 
ATOM     53  N   UNL A   1      40.653  30.976  33.137  1.00  0.00    -0.248 NA
ATOM     54  C   UNL A   1      41.200  29.075  32.036  1.00  0.00     0.031 C 
ATOM     55  C   UNL A   1      39.216  32.941  31.898  1.00  0.00     0.029 A 
ATOM     56  N   UNL A   1      37.710  32.395  30.356  1.00  0.00    -0.354 N 
ATOM     57  C   UNL A   1      41.934  30.656  33.553  1.00  0.00     0.074 A 
ATOM     58  C   UNL A   1      42.183  29.403  32.883  1.00  0.00     0.031 C 
ATOM     59  C   UNL A   1      38.428  34.007  31.754  1.00  0.00     0.029 A 
ATOM     60  C   UNL A   1      37.258  33.522  31.097  1.00  0.00     0.049 A 
ATOM     61  H   UNL A   1      37.361  32.082  29.489  1.00  0.00     0.167 HD
ATOM     62  C   UNL A   1      42.650  31.572  34.294  1.00  0.00     0.037 A 
ATOM     63  C   UNL A   1      36.044  33.551  31.720  1.00  0.00     0.037 A 
ATOM     64  C   UNL A   1      41.821  32.770  34.640  1.00  0.00     0.049 A 
ATOM     65  C   UNL A   1      36.206  33.616  33.245  1.00  0.00     0.074 A 
ATOM     66  C   UNL A   1      41.948  34.147  34.508  1.00  0.00     0.029 A 
ATOM     67  N   UNL A   1      40.500  32.588  35.068  1.00  0.00    -0.354 N 
ATOM     68  N   UNL A   1      37.331  33.293  33.850  1.00  0.00    -0.248 NA
ATOM     69  C   UNL A   1      35.249  34.147  34.207  1.00  0.00     0.031 C 
ATOM     70  C   UNL A   1      40.705  34.767  34.849  1.00  0.00     0.029 A 
ATOM     71  C   UNL A   1      39.813  33.776  35.222  1.00  0.00     0.049 A 
ATOM     72  H   UNL A   1      40.102  31.705  35.242  1.00  0.00     0.167 HD
ATOM     73  C   UNL A   1      37.354  33.737  35.140  1.00  0.00     0.074 A 
ATOM     74  C   UNL A   1      35.967  34.130  35.353  1.00  0.00     0.031 C 
ATOM     75  C   UNL A   1      38.507  33.797  35.890  1.00  0.00     0.037 A 
BRANCH  62  76
ATOM     76  C   UNL A   1      44.177  31.510  34.572  1.00  0.00     0.057 A 
ATOM     77  C   UNL A   1      44.697  31.386  35.884  1.00  0.00     0.134 A 
ATOM     78  C   UNL A   1      45.204  31.581  33.606  1.00  0.00     0.134 A 
ATOM     79  F   UNL A   1      43.909  31.187  36.945  1.00  0.00    -0.206 F 
ATOM     80  C   UNL A   1      46.074  31.413  36.195  1.00  0.00     0.040 A 
ATOM     81  C   UNL A   1      46.582  31.609  33.901  1.00  0.00     0.040 A 
ATOM     82  F   UNL A   1      44.965  31.571  32.298  1.00  0.00    -0.206 F 
ATOM     83  C   UNL A   1      47.027  31.537  35.203  1.00  0.00     0.006 A 
ENDBRANCH  62  76
BRANCH  63  84
ATOM     84  C   UNL A   1      35.000  33.050  30.776  1.00  0.00     0.057 A 
ATOM     85  C   UNL A   1      34.516  34.033  29.875  1.00  0.00     0.134 A 
ATOM     86  C   UNL A   1      35.098  31.749  30.267  1.00  0.00     0.134 A 
ATOM     87  F   UNL A   1      34.359  35.300  30.292  1.00  0.00    -0.206 F 
ATOM     88  C   UNL A   1      34.420  33.797  28.496  1.00  0.00     0.040 A 
ATOM     89  C   UNL A   1      34.959  31.496  28.891  1.00  0.00     0.040 A 
ATOM     90  F   UNL A   1      35.544  30.752  31.045  1.00  0.00    -0.206 F 
ATOM     91  C   UNL A   1      34.703  32.534  27.994  1.00  0.00     0.006 A 
ENDBRANCH  63  84
BRANCH  75  92
ATOM     92  C   UNL A   1      38.561  33.846  37.399  1.00  0.00     0.057 A 
ATOM     93  C   UNL A   1      38.952  34.946  38.154  1.00  0.00     0.134 A 
ATOM     94  C   UNL A   1      38.151  32.717  38.159  1.00  0.00     0.134 A 
ATOM     95  F   UNL A   1      39.584  35.986  37.595  1.00  0.00    -0.206 F 
ATOM     96  C   UNL A   1      38.750  34.999  39.539  1.00  0.00     0.040 A 
ATOM     97  C   UNL A   1      37.999  32.736  39.541  1.00  0.00     0.040 A 
ATOM     98  F   UNL A   1      37.850  31.535  37.606  1.00  0.00    -0.206 F 
ATOM     99  C   UNL A   1      38.244  33.904  40.232  1.00  0.00     0.006 A 
ENDBRANCH  75  92
ENDBRANCH  49  50
ENDBRANCH  42  44
ENDBRANCH  41  42
ENDBRANCH  40  41
ENDBRANCH  39  40
ENDBRANCH  38  39
ENDBRANCH  37  38
ENDBRANCH  36  37
ENDBRANCH  35  36
ENDBRANCH   1  35
TORSDOF 23
ENDMDL
MODEL 2
REMARK VINA RESULT:     -10.8      4.669      9.604
REMARK SMILES Cc1c(C(=O)OCCOCCOCCOCCOC(=O)c2ccc(-c3c4nc(c(-c5c(F)cccc5F)c5ccc([nH]5)c(-c5c(F)cccc5F)c5nc(c(-c6c(F)cccc6F)c6ccc3[nH]6)C=C5)C=C4)cc2)cccc1-n1c(C)cc(/C=C2/C(=O)NC(=S)N=C2O)c1C
REMARK SMILES IDX 11 1 10 2 9 3 8 4 7 5 6 6 4 7 5 8 3 9 1 10 2 11 78 12 75 13
REMARK SMILES IDX 77 14 76 15 79 16 80 17 94 18 81 19 82 20 83 21 95 22 84 23
REMARK SMILES IDX 85 24 86 25 92 26 87 27 88 28 91 29 89 30 90 32 93 33 12 35
REMARK SMILES IDX 13 36 14 37 15 38 16 39 17 40 18 41 19 42 20 43 21 44 22 45
REMARK SMILES IDX 74 46 23 47 73 48 24 49 25 50 26 51 67 52 27 53 72 54 66 55
REMARK SMILES IDX 68 56 28 57 71 58 65 59 64 60 29 62 55 63 38 64 54 65 39 66
REMARK SMILES IDX 42 67 53 68 69 69 40 70 41 71 52 73 70 74 43 75 30 76 31 77
REMARK SMILES IDX 36 78 32 79 33 80 35 81 37 82 34 83 56 84 57 85 62 86 58 87
REMARK SMILES IDX 59 88 61 89 63 90 60 91 44 92 45 93 50 94 46 95 47 96 49 97
REMARK SMILES IDX 51 98 48 99
REMARK H PARENT 88 31 93 34 68 61 42 72
REMARK Flexibility Score: inf
ROOT
ATOM      1  C   UNL A   1      49.951  20.326  34.578  1.00  0.00     0.188 C 
ENDROOT
BRANCH   1   2
ATOM      2  C   UNL A   1      51.081  20.433  33.551  1.00  0.00     0.188 C 
BRANCH   2   3
ATOM      3  O   UNL A   1      51.138  21.598  32.740  1.00  0.00    -0.376 OA
BRANCH   3   4
ATOM      4  C   UNL A   1      51.894  22.679  33.284  1.00  0.00     0.202 C 
BRANCH   4   5
ATOM      5  C   UNL A   1      51.210  24.033  33.195  1.00  0.00     0.261 C 
BRANCH   5   6
ATOM      6  O   UNL A   1      50.360  24.018  32.044  1.00  0.00    -0.460 OA
BRANCH   6   7
ATOM      7  C   UNL A   1      50.196  25.198  31.433  1.00  0.00     0.338 C 
ATOM      8  O   UNL A   1      51.055  25.796  30.814  1.00  0.00    -0.246 OA
BRANCH   7   9
ATOM      9  C   UNL A   1      48.744  25.564  31.380  1.00  0.00     0.065 A 
ATOM     10  C   UNL A   1      48.258  25.517  28.830  1.00  0.00     0.047 C 
ATOM     11  C   UNL A   1      47.857  25.553  30.278  1.00  0.00    -0.012 A 
ATOM     12  C   UNL A   1      46.503  25.829  30.538  1.00  0.00     0.049 A 
ATOM     13  C   UNL A   1      48.310  26.124  32.599  1.00  0.00     0.016 A 
ATOM     14  C   UNL A   1      46.083  26.363  31.763  1.00  0.00     0.027 A 
ATOM     15  C   UNL A   1      47.005  26.562  32.777  1.00  0.00     0.003 A 
BRANCH  12  16
ATOM     16  N   UNL A   1      45.532  25.739  29.510  1.00  0.00    -0.318 N 
ATOM     17  C   UNL A   1      45.015  26.778  28.754  1.00  0.00     0.020 A 
ATOM     18  C   UNL A   1      44.966  24.546  29.081  1.00  0.00     0.027 A 
ATOM     19  C   UNL A   1      45.211  28.230  29.031  1.00  0.00     0.065 C 
ATOM     20  C   UNL A   1      44.397  26.189  27.665  1.00  0.00     0.031 A 
ATOM     21  C   UNL A   1      44.471  24.776  27.811  1.00  0.00    -0.003 A 
ATOM     22  C   UNL A   1      44.951  23.351  29.976  1.00  0.00     0.065 C 
BRANCH  21  23
ATOM     23  C   UNL A   1      43.964  23.857  26.843  1.00  0.00     0.029 C 
ATOM     24  C   UNL A   1      42.881  23.056  26.842  1.00  0.00     0.102 C 
ATOM     25  C   UNL A   1      42.653  22.279  25.597  1.00  0.00     0.262 C 
ATOM     26  C   UNL A   1      41.830  22.857  27.841  1.00  0.00     0.226 C 
ATOM     27  O   UNL A   1      43.506  22.069  24.743  1.00  0.00    -0.269 OA
ATOM     28  N   UNL A   1      41.367  21.826  25.455  1.00  0.00    -0.297 N 
ATOM     29  N   UNL A   1      40.656  22.379  27.637  1.00  0.00    -0.184 NA
ATOM     30  C   UNL A   1      40.355  21.940  26.376  1.00  0.00     0.203 C 
ATOM     31  H   UNL A   1      41.148  21.374  24.609  1.00  0.00     0.172 HD
ATOM     32  S   UNL A   1      38.820  21.457  25.912  1.00  0.00    -0.038 S 
BRANCH  26  33
ATOM     33  O   UNL A   1      42.140  23.124  29.109  1.00  0.00    -0.493 OA
ATOM     34  H   UNL A   1      42.273  22.423  29.716  1.00  0.00     0.295 HD
ENDBRANCH  26  33
ENDBRANCH  21  23
ENDBRANCH  12  16
ENDBRANCH   7   9
ENDBRANCH   6   7
ENDBRANCH   5   6
ENDBRANCH   4   5
ENDBRANCH   3   4
ENDBRANCH   2   3
ENDBRANCH   1   2
BRANCH   1  35
ATOM     35  O   UNL A   1      48.669  20.721  34.099  1.00  0.00    -0.377 OA
BRANCH  35  36
ATOM     36  C   UNL A   1      48.194  21.905  34.727  1.00  0.00     0.188 C 
BRANCH  36  37
ATOM     37  C   UNL A   1      46.682  21.950  34.723  1.00  0.00     0.188 C 
BRANCH  37  38
ATOM     38  O   UNL A   1      46.040  22.900  35.559  1.00  0.00    -0.376 OA
BRANCH  38  39
ATOM     39  C   UNL A   1      46.757  24.058  35.971  1.00  0.00     0.202 C 
BRANCH  39  40
ATOM     40  C   UNL A   1      45.906  25.165  36.606  1.00  0.00     0.261 C 
BRANCH  40  41
ATOM     41  O   UNL A   1      44.533  24.723  36.671  1.00  0.00    -0.460 OA
BRANCH  41  42
ATOM     42  C   UNL A   1      43.594  25.705  36.792  1.00  0.00     0.338 C 
ATOM     43  O   UNL A   1      42.982  25.967  37.815  1.00  0.00    -0.246 OA
BRANCH  42  44
ATOM     44  C   UNL A   1      43.134  26.125  35.424  1.00  0.00     0.060 A 
ATOM     45  C   UNL A   1      43.901  27.072  34.721  1.00  0.00     0.016 A 
ATOM     46  C   UNL A   1      41.797  25.948  35.077  1.00  0.00     0.016 A 
ATOM     47  C   UNL A   1      43.281  27.982  33.844  1.00  0.00     0.010 A 
ATOM     48  C   UNL A   1      41.184  26.900  34.271  1.00  0.00     0.010 A 
ATOM     49  C   UNL A   1      41.894  27.977  33.705  1.00  0.00    -0.014 A 
BRANCH  49  50
ATOM     50  C   UNL A   1      41.097  29.130  33.201  1.00  0.00     0.031 A 
ATOM     51  C   UNL A   1      40.440  30.076  34.170  1.00  0.00     0.074 A 
ATOM     52  C   UNL A   1      41.250  29.547  31.912  1.00  0.00     0.049 A 
ATOM     53  N   UNL A   1      39.815  31.163  33.861  1.00  0.00    -0.248 NA
ATOM     54  C   UNL A   1      40.505  29.905  35.612  1.00  0.00     0.031 C 
ATOM     55  C   UNL A   1      40.970  30.883  31.401  1.00  0.00     0.029 A 
ATOM     56  N   UNL A   1      41.730  28.892  30.764  1.00  0.00    -0.354 N 
ATOM     57  C   UNL A   1      39.780  32.000  34.962  1.00  0.00     0.074 A 
ATOM     58  C   UNL A   1      40.147  31.119  36.044  1.00  0.00     0.031 C 
ATOM     59  C   UNL A   1      41.115  30.946  30.077  1.00  0.00     0.029 A 
ATOM     60  C   UNL A   1      41.198  29.590  29.643  1.00  0.00     0.049 A 
ATOM     61  H   UNL A   1      42.320  28.104  30.740  1.00  0.00     0.167 HD
ATOM     62  C   UNL A   1      39.581  33.352  34.774  1.00  0.00     0.037 A 
ATOM     63  C   UNL A   1      40.238  29.054  28.835  1.00  0.00     0.037 A 
ATOM     64  C   UNL A   1      39.301  33.673  33.339  1.00  0.00     0.049 A 
ATOM     65  C   UNL A   1      38.924  29.841  28.939  1.00  0.00     0.074 A 
ATOM     66  C   UNL A   1      39.818  34.547  32.390  1.00  0.00     0.029 A 
ATOM     67  N   UNL A   1      38.428  32.856  32.612  1.00  0.00    -0.354 N 
ATOM     68  N   UNL A   1      38.665  30.651  29.945  1.00  0.00    -0.248 NA
ATOM     69  C   UNL A   1      37.871  29.927  27.936  1.00  0.00     0.031 C 
ATOM     70  C   UNL A   1      39.257  34.236  31.112  1.00  0.00     0.029 A 
ATOM     71  C   UNL A   1      38.367  33.187  31.272  1.00  0.00     0.049 A 
ATOM     72  H   UNL A   1      37.910  32.121  33.012  1.00  0.00     0.167 HD
ATOM     73  C   UNL A   1      37.616  31.479  29.667  1.00  0.00     0.074 A 
ATOM     74  C   UNL A   1      37.064  30.879  28.459  1.00  0.00     0.031 C 
ATOM     75  C   UNL A   1      37.334  32.604  30.410  1.00  0.00     0.037 A 
BRANCH  62  76
ATOM     76  C   UNL A   1      39.818  34.454  35.842  1.00  0.00     0.057 A 
ATOM     77  C   UNL A   1      39.013  34.562  37.003  1.00  0.00     0.134 A 
ATOM     78  C   UNL A   1      40.809  35.460  35.797  1.00  0.00     0.134 A 
ATOM     79  F   UNL A   1      38.087  33.649  37.313  1.00  0.00    -0.206 F 
ATOM     80  C   UNL A   1      39.133  35.596  37.957  1.00  0.00     0.040 A 
ATOM     81  C   UNL A   1      40.941  36.499  36.740  1.00  0.00     0.040 A 
ATOM     82  F   UNL A   1      41.764  35.488  34.873  1.00  0.00    -0.206 F 
ATOM     83  C   UNL A   1      40.094  36.580  37.823  1.00  0.00     0.006 A 
ENDBRANCH  62  76
BRANCH  63  84
ATOM     84  C   UNL A   1      40.619  27.652  28.488  1.00  0.00     0.057 A 
ATOM     85  C   UNL A   1      39.730  26.669  28.994  1.00  0.00     0.134 A 
ATOM     86  C   UNL A   1      41.183  27.380  27.235  1.00  0.00     0.134 A 
ATOM     87  F   UNL A   1      39.172  26.834  30.204  1.00  0.00    -0.206 F 
ATOM     88  C   UNL A   1      39.215  25.644  28.187  1.00  0.00     0.040 A 
ATOM     89  C   UNL A   1      40.703  26.326  26.437  1.00  0.00     0.040 A 
ATOM     90  F   UNL A   1      42.037  28.250  26.676  1.00  0.00    -0.206 F 
ATOM     91  C   UNL A   1      39.661  25.510  26.879  1.00  0.00     0.006 A 
ENDBRANCH  63  84
BRANCH  75  92
ATOM     92  C   UNL A   1      35.995  33.301  30.454  1.00  0.00     0.057 A 
ATOM     93  C   UNL A   1      35.154  33.357  31.560  1.00  0.00     0.134 A 
ATOM     94  C   UNL A   1      35.525  34.006  29.311  1.00  0.00     0.134 A 
ATOM     95  F   UNL A   1      35.338  32.557  32.616  1.00  0.00    -0.206 F 
ATOM     96  C   UNL A   1      34.047  34.216  31.602  1.00  0.00     0.040 A 
ATOM     97  C   UNL A   1      34.397  34.818  29.322  1.00  0.00     0.040 A 
ATOM     98  F   UNL A   1      36.145  33.968  28.126  1.00  0.00    -0.206 F 
ATOM     99  C   UNL A   1      33.685  34.973  30.492  1.00  0.00     0.006 A 
ENDBRANCH  75  92
ENDBRANCH  49  50
ENDBRANCH  42  44
ENDBRANCH  41  42
ENDBRANCH  40  41
ENDBRANCH  39  40
ENDBRANCH  38  39
ENDBRANCH  37  38
ENDBRANCH  36  37
ENDBRANCH  35  36
ENDBRANCH   1  35
TORSDOF 23
ENDMDL
MODEL 3
REMARK VINA RESULT:     -10.6      2.567      6.931
REMARK SMILES Cc1c(C(=O)OCCOCCOCCOCCOC(=O)c2ccc(-c3c4nc(c(-c5c(F)cccc5F)c5ccc([nH]5)c(-c5c(F)cccc5F)c5nc(c(-c6c(F)cccc6F)c6ccc3[nH]6)C=C5)C=C4)cc2)cccc1-n1c(C)cc(/C=C2/C(=O)NC(=S)N=C2O)c1C
REMARK SMILES IDX 11 1 10 2 9 3 8 4 7 5 6 6 4 7 5 8 3 9 1 10 2 11 78 12 75 13
REMARK SMILES IDX 77 14 76 15 79 16 80 17 94 18 81 19 82 20 83 21 95 22 84 23
REMARK SMILES IDX 85 24 86 25 92 26 87 27 88 28 91 29 89 30 90 32 93 33 12 35
REMARK SMILES IDX 13 36 14 37 15 38 16 39 17 40 18 41 19 42 20 43 21 44 22 45
REMARK SMILES IDX 74 46 23 47 73 48 24 49 25 50 26 51 67 52 27 53 72 54 66 55
REMARK SMILES IDX 68 56 28 57 71 58 65 59 64 60 29 62 55 63 38 64 54 65 39 66
REMARK SMILES IDX 42 67 53 68 69 69 40 70 41 71 52 73 70 74 43 75 30 76 31 77
REMARK SMILES IDX 36 78 32 79 33 80 35 81 37 82 34 83 56 84 57 85 62 86 58 87
REMARK SMILES IDX 59 88 61 89 63 90 60 91 44 92 45 93 50 94 46 95 47 96 49 97
REMARK SMILES IDX 51 98 48 99
REMARK H PARENT 88 31 93 34 68 61 42 72
REMARK Flexibility Score: inf
ROOT
ATOM      1  C   UNL A   1      38.074  24.440  26.515  1.00  0.00     0.188 C 
ENDROOT
BRANCH   1   2
ATOM      2  C   UNL A   1      38.148  23.184  25.642  1.00  0.00     0.188 C 
BRANCH   2   3
ATOM      3  O   UNL A   1      38.933  22.094  26.105  1.00  0.00    -0.376 OA
BRANCH   3   4
ATOM      4  C   UNL A   1      38.739  20.867  25.403  1.00  0.00     0.202 C 
BRANCH   4   5
ATOM      5  C   UNL A   1      37.418  20.769  24.659  1.00  0.00     0.261 C 
BRANCH   5   6
ATOM      6  O   UNL A   1      36.367  20.813  25.628  1.00  0.00    -0.460 OA
BRANCH   6   7
ATOM      7  C   UNL A   1      35.134  20.599  25.151  1.00  0.00     0.338 C 
ATOM      8  O   UNL A   1      34.750  19.572  24.627  1.00  0.00    -0.246 OA
BRANCH   7   9
ATOM      9  C   UNL A   1      34.206  21.692  25.588  1.00  0.00     0.065 A 
ATOM     10  C   UNL A   1      34.293  23.324  23.570  1.00  0.00     0.047 C 
ATOM     11  C   UNL A   1      33.714  22.795  24.852  1.00  0.00    -0.012 A 
ATOM     12  C   UNL A   1      32.751  23.608  25.477  1.00  0.00     0.049 A 
ATOM     13  C   UNL A   1      33.949  21.626  26.973  1.00  0.00     0.016 A 
ATOM     14  C   UNL A   1      32.489  23.515  26.850  1.00  0.00     0.027 A 
ATOM     15  C   UNL A   1      33.136  22.554  27.608  1.00  0.00     0.003 A 
BRANCH  12  16
ATOM     16  N   UNL A   1      32.132  24.672  24.776  1.00  0.00    -0.318 N 
ATOM     17  C   UNL A   1      31.125  24.577  23.829  1.00  0.00     0.020 A 
ATOM     18  C   UNL A   1      32.439  26.012  24.972  1.00  0.00     0.027 A 
ATOM     19  C   UNL A   1      30.654  23.314  23.193  1.00  0.00     0.065 C 
ATOM     20  C   UNL A   1      30.602  25.851  23.697  1.00  0.00     0.031 A 
ATOM     21  C   UNL A   1      31.357  26.739  24.512  1.00  0.00    -0.003 A 
ATOM     22  C   UNL A   1      33.759  26.409  25.547  1.00  0.00     0.065 C 
BRANCH  21  23
ATOM     23  C   UNL A   1      31.063  28.129  24.643  1.00  0.00     0.029 C 
ATOM     24  C   UNL A   1      30.654  29.052  23.751  1.00  0.00     0.102 C 
ATOM     25  C   UNL A   1      30.388  30.408  24.298  1.00  0.00     0.262 C 
ATOM     26  C   UNL A   1      30.354  28.943  22.323  1.00  0.00     0.226 C 
ATOM     27  O   UNL A   1      30.805  30.816  25.375  1.00  0.00    -0.269 OA
ATOM     28  N   UNL A   1      29.589  31.180  23.496  1.00  0.00    -0.297 N 
ATOM     29  N   UNL A   1      29.630  29.742  21.626  1.00  0.00    -0.184 NA
ATOM     30  C   UNL A   1      29.127  30.854  22.246  1.00  0.00     0.203 C 
ATOM     31  H   UNL A   1      29.321  32.057  23.853  1.00  0.00     0.172 HD
ATOM     32  S   UNL A   1      28.027  31.891  21.524  1.00  0.00    -0.038 S 
BRANCH  26  33
ATOM     33  O   UNL A   1      30.955  27.962  21.650  1.00  0.00    -0.493 OA
ATOM     34  H   UNL A   1      30.505  27.530  20.951  1.00  0.00     0.295 HD
ENDBRANCH  26  33
ENDBRANCH  21  23
ENDBRANCH  12  16
ENDBRANCH   7   9
ENDBRANCH   6   7
ENDBRANCH   5   6
ENDBRANCH   4   5
ENDBRANCH   3   4
ENDBRANCH   2   3
ENDBRANCH   1   2
BRANCH   1  35
ATOM     35  O   UNL A   1      38.950  24.439  27.637  1.00  0.00    -0.377 OA
BRANCH  35  36
ATOM     36  C   UNL A   1      39.944  25.453  27.554  1.00  0.00     0.188 C 
BRANCH  36  37
ATOM     37  C   UNL A   1      41.333  24.855  27.597  1.00  0.00     0.188 C 
BRANCH  37  38
ATOM     38  O   UNL A   1      41.857  24.296  26.403  1.00  0.00    -0.376 OA
BRANCH  38  39
ATOM     39  C   UNL A   1      43.160  24.674  25.975  1.00  0.00     0.202 C 
BRANCH  39  40
ATOM     40  C   UNL A   1      43.863  25.718  26.852  1.00  0.00     0.261 C 
BRANCH  40  41
ATOM     41  O   UNL A   1      45.291  25.553  26.725  1.00  0.00    -0.460 OA
BRANCH  41  42
ATOM     42  C   UNL A   1      45.854  24.593  27.514  1.00  0.00     0.338 C 
ATOM     43  O   UNL A   1      46.200  23.486  27.132  1.00  0.00    -0.246 OA
BRANCH  42  44
ATOM     44  C   UNL A   1      45.609  24.929  28.959  1.00  0.00     0.060 A 
ATOM     45  C   UNL A   1      44.485  24.370  29.594  1.00  0.00     0.016 A 
ATOM     46  C   UNL A   1      46.182  26.082  29.491  1.00  0.00     0.016 A 
ATOM     47  C   UNL A   1      43.814  25.079  30.608  1.00  0.00     0.010 A 
ATOM     48  C   UNL A   1      45.466  26.808  30.436  1.00  0.00     0.010 A 
ATOM     49  C   UNL A   1      44.234  26.363  30.953  1.00  0.00    -0.014 A 
BRANCH  49  50
ATOM     50  C   UNL A   1      43.378  27.370  31.640  1.00  0.00     0.031 A 
ATOM     51  C   UNL A   1      42.580  28.359  30.833  1.00  0.00     0.074 A 
ATOM     52  C   UNL A   1      43.027  27.183  32.943  1.00  0.00     0.049 A 
ATOM     53  N   UNL A   1      41.727  29.207  31.305  1.00  0.00    -0.248 NA
ATOM     54  C   UNL A   1      42.626  28.418  29.382  1.00  0.00     0.031 C 
ATOM     55  C   UNL A   1      41.856  27.742  33.608  1.00  0.00     0.029 A 
ATOM     56  N   UNL A   1      43.606  26.419  33.972  1.00  0.00    -0.354 N 
ATOM     57  C   UNL A   1      40.856  29.587  30.300  1.00  0.00     0.074 A 
ATOM     58  C   UNL A   1      41.526  29.129  29.107  1.00  0.00     0.031 C 
ATOM     59  C   UNL A   1      41.848  27.466  34.912  1.00  0.00     0.029 A 
ATOM     60  C   UNL A   1      43.158  26.982  35.201  1.00  0.00     0.049 A 
ATOM     61  H   UNL A   1      44.205  25.644  33.864  1.00  0.00     0.167 HD
ATOM     62  C   UNL A   1      39.625  30.109  30.637  1.00  0.00     0.037 A 
ATOM     63  C   UNL A   1      43.989  27.668  36.038  1.00  0.00     0.037 A 
ATOM     64  C   UNL A   1      39.493  30.296  32.117  1.00  0.00     0.049 A 
ATOM     65  C   UNL A   1      43.582  29.145  36.134  1.00  0.00     0.074 A 
ATOM     66  C   UNL A   1      38.580  29.919  33.095  1.00  0.00     0.029 A 
ATOM     67  N   UNL A   1      40.565  30.834  32.838  1.00  0.00    -0.354 N 
ATOM     68  N   UNL A   1      42.804  29.722  35.241  1.00  0.00    -0.248 NA
ATOM     69  C   UNL A   1      43.855  30.060  37.234  1.00  0.00     0.031 C 
ATOM     70  C   UNL A   1      39.121  30.228  34.383  1.00  0.00     0.029 A 
ATOM     71  C   UNL A   1      40.357  30.824  34.203  1.00  0.00     0.049 A 
ATOM     72  H   UNL A   1      41.383  31.184  32.416  1.00  0.00     0.167 HD
ATOM     73  C   UNL A   1      42.313  30.911  35.695  1.00  0.00     0.074 A 
ATOM     74  C   UNL A   1      43.123  31.143  36.884  1.00  0.00     0.031 C 
ATOM     75  C   UNL A   1      41.257  31.562  35.096  1.00  0.00     0.037 A 
BRANCH  62  76
ATOM     76  C   UNL A   1      38.428  30.294  29.665  1.00  0.00     0.057 A 
ATOM     77  C   UNL A   1      37.837  29.202  28.984  1.00  0.00     0.134 A 
ATOM     78  C   UNL A   1      37.806  31.517  29.332  1.00  0.00     0.134 A 
ATOM     79  F   UNL A   1      38.187  27.936  29.232  1.00  0.00    -0.206 F 
ATOM     80  C   UNL A   1      36.806  29.329  28.027  1.00  0.00     0.040 A 
ATOM     81  C   UNL A   1      36.777  31.661  28.380  1.00  0.00     0.040 A 
ATOM     82  F   UNL A   1      38.099  32.663  29.940  1.00  0.00    -0.206 F 
ATOM     83  C   UNL A   1      36.277  30.565  27.710  1.00  0.00     0.006 A 
ENDBRANCH  62  76
BRANCH  63  84
ATOM     84  C   UNL A   1      45.256  26.895  36.208  1.00  0.00     0.057 A 
ATOM     85  C   UNL A   1      46.405  27.547  35.688  1.00  0.00     0.134 A 
ATOM     86  C   UNL A   1      45.455  26.143  37.373  1.00  0.00     0.134 A 
ATOM     87  F   UNL A   1      46.310  28.261  34.554  1.00  0.00    -0.206 F 
ATOM     88  C   UNL A   1      47.587  27.680  36.431  1.00  0.00     0.040 A 
ATOM     89  C   UNL A   1      46.654  26.237  38.101  1.00  0.00     0.040 A 
ATOM     90  F   UNL A   1      44.428  25.491  37.938  1.00  0.00    -0.206 F 
ATOM     91  C   UNL A   1      47.688  27.071  37.675  1.00  0.00     0.006 A 
ENDBRANCH  63  84
BRANCH  75  92
ATOM     92  C   UNL A   1      40.947  33.033  35.246  1.00  0.00     0.057 A 
ATOM     93  C   UNL A   1      41.722  34.072  34.743  1.00  0.00     0.134 A 
ATOM     94  C   UNL A   1      39.760  33.442  35.912  1.00  0.00     0.134 A 
ATOM     95  F   UNL A   1      42.970  33.864  34.308  1.00  0.00    -0.206 F 
ATOM     96  C   UNL A   1      41.253  35.393  34.712  1.00  0.00     0.040 A 
ATOM     97  C   UNL A   1      39.310  34.757  35.938  1.00  0.00     0.040 A 
ATOM     98  F   UNL A   1      38.954  32.589  36.556  1.00  0.00    -0.206 F 
ATOM     99  C   UNL A   1      40.031  35.733  35.283  1.00  0.00     0.006 A 
ENDBRANCH  75  92
ENDBRANCH  49  50
ENDBRANCH  42  44
ENDBRANCH  41  42
ENDBRANCH  40  41
ENDBRANCH  39  40
ENDBRANCH  38  39
ENDBRANCH  37  38
ENDBRANCH  36  37
ENDBRANCH  35  36
ENDBRANCH   1  35
TORSDOF 23
ENDMDL
