MODEL 1
REMARK VINA RESULT:      -9.5      0.000      0.000
REMARK SMILES C/C(Nc1ccc(C(=O)OCCOCCOCCOCCOC(=O)c2ccc(-c3c4nc(c(-c5c(F)cccc5F)c5ccc([nH]5)c(-c5c(F)cccc5F)c5nc(c(-c6c(F)cccc6F)c6ccc3[nH]6)C=C5)C=C4)cc2)c(O)c1)=C1/C(=O)O[C@H](C)C1=O
REMARK SMILES IDX 16 1 15 2 14 3 13 4 12 5 11 6 10 7 8 8 9 9 7 10 4 11 5 12
REMARK SMILES IDX 81 13 6 14 79 15 3 16 2 18 1 19 82 20 83 21 88 22 84 23
REMARK SMILES IDX 85 24 86 25 89 26 87 27 80 28 17 30 18 31 19 32 20 33 21 34
REMARK SMILES IDX 22 35 23 36 24 37 25 38 26 39 78 40 27 41 77 42 28 43 29 44
REMARK SMILES IDX 30 45 71 46 31 47 76 48 70 49 72 50 32 51 75 52 69 53 68 54
REMARK SMILES IDX 33 56 59 57 42 58 58 59 43 60 46 61 57 62 73 63 44 64 45 65
REMARK SMILES IDX 56 67 74 68 47 69 34 70 35 71 40 72 36 73 37 74 39 75 41 76
REMARK SMILES IDX 38 77 60 78 61 79 66 80 62 81 63 82 65 83 67 84 64 85 48 86
REMARK SMILES IDX 49 87 54 88 50 89 51 90 53 91 55 92 52 93
REMARK H PARENT 3 17 80 29 72 55 46 66
REMARK Flexibility Score: inf
ROOT
ATOM      1  O   UNL A   1      37.049  23.601  24.543  1.00  0.00    -0.377 OA
ENDROOT
BRANCH   1   2
ATOM      2  C   UNL A   1      35.650  23.795  24.714  1.00  0.00     0.188 C 
BRANCH   2   3
ATOM      3  C   UNL A   1      35.196  23.601  26.173  1.00  0.00     0.188 C 
BRANCH   3   4
ATOM      4  O   UNL A   1      34.366  22.467  26.359  1.00  0.00    -0.376 OA
BRANCH   4   5
ATOM      5  C   UNL A   1      34.857  21.152  26.162  1.00  0.00     0.202 C 
BRANCH   5   6
ATOM      6  C   UNL A   1      34.430  20.217  25.013  1.00  0.00     0.261 C 
BRANCH   6   7
ATOM      7  O   UNL A   1      33.034  19.962  24.838  1.00  0.00    -0.460 OA
BRANCH   7   8
ATOM      8  C   UNL A   1      32.455  20.382  23.692  1.00  0.00     0.341 C 
ATOM      9  O   UNL A   1      32.066  19.677  22.779  1.00  0.00    -0.246 OA
BRANCH   8  10
ATOM     10  C   UNL A   1      32.171  21.835  23.831  1.00  0.00     0.101 A 
ATOM     11  C   UNL A   1      31.515  24.581  23.858  1.00  0.00     0.042 A 
ATOM     12  C   UNL A   1      32.223  24.026  22.785  1.00  0.00     0.027 A 
ATOM     13  C   UNL A   1      31.162  23.750  24.929  1.00  0.00     0.073 A 
ATOM     14  C   UNL A   1      32.565  22.668  22.777  1.00  0.00     0.022 A 
ATOM     15  C   UNL A   1      31.450  22.385  24.898  1.00  0.00     0.132 A 
BRANCH  11  16
ATOM     16  N   UNL A   1      31.060  25.910  23.862  1.00  0.00    -0.358 N 
ATOM     17  H   UNL A   1      30.091  26.018  23.724  1.00  0.00     0.166 HD
BRANCH  16  18
ATOM     18  C   UNL A   1      31.762  27.094  24.030  1.00  0.00     0.030 C 
ATOM     19  C   UNL A   1      32.426  27.572  22.746  1.00  0.00     0.065 C 
ATOM     20  C   UNL A   1      31.944  27.798  25.173  1.00  0.00     0.125 C 
ATOM     21  C   UNL A   1      31.491  27.498  26.547  1.00  0.00     0.344 C 
ATOM     22  C   UNL A   1      32.632  29.099  25.269  1.00  0.00     0.212 C 
ATOM     23  O   UNL A   1      31.141  26.430  27.025  1.00  0.00    -0.246 OA
ATOM     24  O   UNL A   1      31.594  28.644  27.284  1.00  0.00    -0.451 OA
ATOM     25  C   UNL A   1      32.312  29.693  26.605  1.00  0.00     0.245 C 
ATOM     26  O   UNL A   1      33.333  29.624  24.418  1.00  0.00    -0.290 OA
ATOM     27  C   UNL A   1      31.449  30.936  26.478  1.00  0.00     0.062 C 
ENDBRANCH  16  18
ENDBRANCH  11  16
BRANCH  15  28
ATOM     28  O   UNL A   1      30.924  21.636  25.917  1.00  0.00    -0.507 OA
ATOM     29  H   UNL A   1      30.688  20.742  25.767  1.00  0.00     0.293 HD
ENDBRANCH  15  28
ENDBRANCH   8  10
ENDBRANCH   7   8
ENDBRANCH   6   7
ENDBRANCH   5   6
ENDBRANCH   4   5
ENDBRANCH   3   4
ENDBRANCH   2   3
ENDBRANCH   1   2
BRANCH   1  30
ATOM     30  C   UNL A   1      37.801  23.158  25.674  1.00  0.00     0.188 C 
BRANCH  30  31
ATOM     31  C   UNL A   1      38.512  21.781  25.708  1.00  0.00     0.188 C 
BRANCH  31  32
ATOM     32  O   UNL A   1      39.420  21.615  26.785  1.00  0.00    -0.376 OA
BRANCH  32  33
ATOM     33  C   UNL A   1      40.729  21.146  26.524  1.00  0.00     0.202 C 
BRANCH  33  34
ATOM     34  C   UNL A   1      41.872  22.166  26.610  1.00  0.00     0.261 C 
BRANCH  34  35
ATOM     35  O   UNL A   1      41.667  23.400  25.910  1.00  0.00    -0.460 OA
BRANCH  35  36
ATOM     36  C   UNL A   1      41.481  24.513  26.653  1.00  0.00     0.338 C 
ATOM     37  O   UNL A   1      40.522  24.782  27.352  1.00  0.00    -0.246 OA
BRANCH  36  38
ATOM     38  C   UNL A   1      42.742  25.283  26.614  1.00  0.00     0.060 A 
ATOM     39  C   UNL A   1      43.379  25.612  27.818  1.00  0.00     0.016 A 
ATOM     40  C   UNL A   1      43.297  25.667  25.391  1.00  0.00     0.016 A 
ATOM     41  C   UNL A   1      44.557  26.360  27.802  1.00  0.00     0.010 A 
ATOM     42  C   UNL A   1      44.466  26.431  25.377  1.00  0.00     0.010 A 
ATOM     43  C   UNL A   1      45.082  26.811  26.583  1.00  0.00    -0.014 A 
BRANCH  43  44
ATOM     44  C   UNL A   1      46.156  27.831  26.572  1.00  0.00     0.031 A 
ATOM     45  C   UNL A   1      45.767  29.281  26.666  1.00  0.00     0.074 A 
ATOM     46  C   UNL A   1      47.453  27.486  26.487  1.00  0.00     0.049 A 
ATOM     47  N   UNL A   1      46.516  30.351  26.614  1.00  0.00    -0.248 NA
ATOM     48  C   UNL A   1      44.332  29.556  26.835  1.00  0.00     0.031 C 
ATOM     49  C   UNL A   1      47.961  26.118  26.427  1.00  0.00     0.029 A 
ATOM     50  N   UNL A   1      48.578  28.269  26.422  1.00  0.00    -0.354 N 
ATOM     51  C   UNL A   1      45.644  31.426  26.733  1.00  0.00     0.074 A 
ATOM     52  C   UNL A   1      44.308  30.880  26.824  1.00  0.00     0.031 C 
ATOM     53  C   UNL A   1      49.300  26.158  26.320  1.00  0.00     0.029 A 
ATOM     54  C   UNL A   1      49.738  27.552  26.266  1.00  0.00     0.049 A 
ATOM     55  H   UNL A   1      48.555  29.252  26.481  1.00  0.00     0.167 HD
ATOM     56  C   UNL A   1      45.932  32.749  26.770  1.00  0.00     0.037 A 
ATOM     57  C   UNL A   1      51.003  27.975  26.075  1.00  0.00     0.037 A 
ATOM     58  C   UNL A   1      47.262  33.289  26.670  1.00  0.00     0.049 A 
ATOM     59  C   UNL A   1      51.293  29.453  26.040  1.00  0.00     0.074 A 
ATOM     60  C   UNL A   1      47.662  34.612  26.718  1.00  0.00     0.029 A 
ATOM     61  N   UNL A   1      48.410  32.530  26.482  1.00  0.00    -0.354 N 
ATOM     62  N   UNL A   1      50.468  30.464  26.184  1.00  0.00    -0.248 NA
ATOM     63  C   UNL A   1      52.691  29.850  25.819  1.00  0.00     0.031 C 
ATOM     64  C   UNL A   1      49.042  34.660  26.493  1.00  0.00     0.029 A 
ATOM     65  C   UNL A   1      49.514  33.361  26.378  1.00  0.00     0.049 A 
ATOM     66  H   UNL A   1      48.435  31.548  26.431  1.00  0.00     0.167 HD
ATOM     67  C   UNL A   1      51.250  31.611  26.102  1.00  0.00     0.074 A 
ATOM     68  C   UNL A   1      52.616  31.171  25.907  1.00  0.00     0.031 C 
ATOM     69  C   UNL A   1      50.870  32.912  26.185  1.00  0.00     0.037 A 
BRANCH  56  70
ATOM     70  C   UNL A   1      44.775  33.701  26.885  1.00  0.00     0.057 A 
ATOM     71  C   UNL A   1      44.309  34.164  28.124  1.00  0.00     0.134 A 
ATOM     72  C   UNL A   1      44.118  34.164  25.737  1.00  0.00     0.134 A 
ATOM     73  F   UNL A   1      44.881  33.750  29.264  1.00  0.00    -0.206 F 
ATOM     74  C   UNL A   1      43.211  35.022  28.217  1.00  0.00     0.040 A 
ATOM     75  C   UNL A   1      43.041  35.047  25.815  1.00  0.00     0.040 A 
ATOM     76  F   UNL A   1      44.514  33.765  24.518  1.00  0.00    -0.206 F 
ATOM     77  C   UNL A   1      42.578  35.469  27.060  1.00  0.00     0.006 A 
ENDBRANCH  56  70
BRANCH  57  78
ATOM     78  C   UNL A   1      52.094  26.983  25.888  1.00  0.00     0.057 A 
ATOM     79  C   UNL A   1      52.386  26.453  24.627  1.00  0.00     0.134 A 
ATOM     80  C   UNL A   1      52.864  26.537  26.968  1.00  0.00     0.134 A 
ATOM     81  F   UNL A   1      51.667  26.821  23.556  1.00  0.00    -0.206 F 
ATOM     82  C   UNL A   1      53.399  25.509  24.446  1.00  0.00     0.040 A 
ATOM     83  C   UNL A   1      53.898  25.615  26.799  1.00  0.00     0.040 A 
ATOM     84  F   UNL A   1      52.633  27.003  28.205  1.00  0.00    -0.206 F 
ATOM     85  C   UNL A   1      54.163  25.093  25.535  1.00  0.00     0.006 A 
ENDBRANCH  57  78
BRANCH  69  86
ATOM     86  C   UNL A   1      51.949  33.955  26.108  1.00  0.00     0.057 A 
ATOM     87  C   UNL A   1      52.632  34.409  27.244  1.00  0.00     0.134 A 
ATOM     88  C   UNL A   1      52.344  34.479  24.869  1.00  0.00     0.134 A 
ATOM     89  F   UNL A   1      52.300  33.957  28.463  1.00  0.00    -0.206 F 
ATOM     90  C   UNL A   1      53.647  35.365  27.153  1.00  0.00     0.040 A 
ATOM     91  C   UNL A   1      53.378  35.411  24.762  1.00  0.00     0.040 A 
ATOM     92  F   UNL A   1      51.741  34.080  23.738  1.00  0.00    -0.206 F 
ATOM     93  C   UNL A   1      54.028  35.862  25.908  1.00  0.00     0.006 A 
ENDBRANCH  69  86
ENDBRANCH  43  44
ENDBRANCH  36  38
ENDBRANCH  35  36
ENDBRANCH  34  35
ENDBRANCH  33  34
ENDBRANCH  32  33
ENDBRANCH  31  32
ENDBRANCH  30  31
ENDBRANCH   1  30
TORSDOF 23
ENDMDL
MODEL 2
REMARK VINA RESULT:      -9.5      1.460      6.199
REMARK SMILES C/C(Nc1ccc(C(=O)OCCOCCOCCOCCOC(=O)c2ccc(-c3c4nc(c(-c5c(F)cccc5F)c5ccc([nH]5)c(-c5c(F)cccc5F)c5nc(c(-c6c(F)cccc6F)c6ccc3[nH]6)C=C5)C=C4)cc2)c(O)c1)=C1/C(=O)O[C@H](C)C1=O
REMARK SMILES IDX 16 1 15 2 14 3 13 4 12 5 11 6 10 7 8 8 9 9 7 10 4 11 5 12
REMARK SMILES IDX 81 13 6 14 79 15 3 16 2 18 1 19 82 20 83 21 88 22 84 23
REMARK SMILES IDX 85 24 86 25 89 26 87 27 80 28 17 30 18 31 19 32 20 33 21 34
REMARK SMILES IDX 22 35 23 36 24 37 25 38 26 39 78 40 27 41 77 42 28 43 29 44
REMARK SMILES IDX 30 45 71 46 31 47 76 48 70 49 72 50 32 51 75 52 69 53 68 54
REMARK SMILES IDX 33 56 59 57 42 58 58 59 43 60 46 61 57 62 73 63 44 64 45 65
REMARK SMILES IDX 56 67 74 68 47 69 34 70 35 71 40 72 36 73 37 74 39 75 41 76
REMARK SMILES IDX 38 77 60 78 61 79 66 80 62 81 63 82 65 83 67 84 64 85 48 86
REMARK SMILES IDX 49 87 54 88 50 89 51 90 53 91 55 92 52 93
REMARK H PARENT 3 17 80 29 72 55 46 66
REMARK Flexibility Score: inf
ROOT
ATOM      1  O   UNL A   1      36.950  23.487  24.430  1.00  0.00    -0.377 OA
ENDROOT
BRANCH   1   2
ATOM      2  C   UNL A   1      35.613  23.906  24.681  1.00  0.00     0.188 C 
BRANCH   2   3
ATOM      3  C   UNL A   1      35.174  23.657  26.136  1.00  0.00     0.188 C 
BRANCH   3   4
ATOM      4  O   UNL A   1      34.237  22.601  26.269  1.00  0.00    -0.376 OA
BRANCH   4   5
ATOM      5  C   UNL A   1      34.571  21.269  25.921  1.00  0.00     0.202 C 
BRANCH   5   6
ATOM      6  C   UNL A   1      33.920  20.469  24.775  1.00  0.00     0.261 C 
BRANCH   6   7
ATOM      7  O   UNL A   1      32.529  20.678  24.517  1.00  0.00    -0.460 OA
BRANCH   7   8
ATOM      8  C   UNL A   1      32.186  21.260  23.347  1.00  0.00     0.341 C 
ATOM      9  O   UNL A   1      31.967  20.690  22.293  1.00  0.00    -0.246 OA
BRANCH   8  10
ATOM     10  C   UNL A   1      31.902  22.694  23.618  1.00  0.00     0.101 A 
ATOM     11  C   UNL A   1      31.237  25.424  23.898  1.00  0.00     0.042 A 
ATOM     12  C   UNL A   1      31.909  24.965  22.757  1.00  0.00     0.027 A 
ATOM     13  C   UNL A   1      30.925  24.504  24.907  1.00  0.00     0.073 A 
ATOM     14  C   UNL A   1      32.255  23.615  22.624  1.00  0.00     0.022 A 
ATOM     15  C   UNL A   1      31.217  23.148  24.751  1.00  0.00     0.132 A 
BRANCH  11  16
ATOM     16  N   UNL A   1      30.778  26.745  24.029  1.00  0.00    -0.358 N 
ATOM     17  H   UNL A   1      31.436  27.378  24.399  1.00  0.00     0.166 HD
BRANCH  16  18
ATOM     18  C   UNL A   1      29.545  27.298  23.718  1.00  0.00     0.030 C 
ATOM     19  C   UNL A   1      28.381  26.404  24.122  1.00  0.00     0.065 C 
ATOM     20  C   UNL A   1      29.294  28.466  23.079  1.00  0.00     0.125 C 
ATOM     21  C   UNL A   1      30.238  29.449  22.509  1.00  0.00     0.344 C 
ATOM     22  C   UNL A   1      27.955  29.039  22.853  1.00  0.00     0.212 C 
ATOM     23  O   UNL A   1      31.409  29.300  22.197  1.00  0.00    -0.246 OA
ATOM     24  O   UNL A   1      29.553  30.613  22.293  1.00  0.00    -0.451 OA
ATOM     25  C   UNL A   1      28.127  30.469  22.445  1.00  0.00     0.245 C 
ATOM     26  O   UNL A   1      26.881  28.472  22.981  1.00  0.00    -0.290 OA
ATOM     27  C   UNL A   1      27.603  31.425  23.503  1.00  0.00     0.062 C 
ENDBRANCH  16  18
ENDBRANCH  11  16
BRANCH  15  28
ATOM     28  O   UNL A   1      30.730  22.313  25.721  1.00  0.00    -0.507 OA
ATOM     29  H   UNL A   1      30.278  21.529  25.480  1.00  0.00     0.293 HD
ENDBRANCH  15  28
ENDBRANCH   8  10
ENDBRANCH   7   8
ENDBRANCH   6   7
ENDBRANCH   5   6
ENDBRANCH   4   5
ENDBRANCH   3   4
ENDBRANCH   2   3
ENDBRANCH   1   2
BRANCH   1  30
ATOM     30  C   UNL A   1      37.741  23.087  25.550  1.00  0.00     0.188 C 
BRANCH  30  31
ATOM     31  C   UNL A   1      38.355  21.668  25.667  1.00  0.00     0.188 C 
BRANCH  31  32
ATOM     32  O   UNL A   1      39.345  21.538  26.676  1.00  0.00    -0.376 OA
BRANCH  32  33
ATOM     33  C   UNL A   1      40.569  20.896  26.369  1.00  0.00     0.202 C 
BRANCH  33  34
ATOM     34  C   UNL A   1      41.839  21.457  27.020  1.00  0.00     0.261 C 
BRANCH  34  35
ATOM     35  O   UNL A   1      42.330  22.692  26.481  1.00  0.00    -0.460 OA
BRANCH  35  36
ATOM     36  C   UNL A   1      42.005  23.829  27.134  1.00  0.00     0.338 C 
ATOM     37  O   UNL A   1      41.042  24.018  27.852  1.00  0.00    -0.246 OA
BRANCH  36  38
ATOM     38  C   UNL A   1      43.135  24.768  26.969  1.00  0.00     0.060 A 
ATOM     39  C   UNL A   1      43.794  25.250  28.107  1.00  0.00     0.016 A 
ATOM     40  C   UNL A   1      43.546  25.159  25.692  1.00  0.00     0.016 A 
ATOM     41  C   UNL A   1      44.846  26.157  27.972  1.00  0.00     0.010 A 
ATOM     42  C   UNL A   1      44.588  26.080  25.559  1.00  0.00     0.010 A 
ATOM     43  C   UNL A   1      45.219  26.610  26.699  1.00  0.00    -0.014 A 
BRANCH  43  44
ATOM     44  C   UNL A   1      46.129  27.771  26.563  1.00  0.00     0.031 A 
ATOM     45  C   UNL A   1      47.600  27.510  26.389  1.00  0.00     0.074 A 
ATOM     46  C   UNL A   1      45.667  29.033  26.586  1.00  0.00     0.049 A 
ATOM     47  N   UNL A   1      48.594  28.356  26.311  1.00  0.00    -0.248 NA
ATOM     48  C   UNL A   1      48.001  26.097  26.297  1.00  0.00     0.031 C 
ATOM     49  C   UNL A   1      44.264  29.417  26.712  1.00  0.00     0.029 A 
ATOM     50  N   UNL A   1      46.341  30.227  26.517  1.00  0.00    -0.354 N 
ATOM     51  C   UNL A   1      49.738  27.580  26.172  1.00  0.00     0.074 A 
ATOM     52  C   UNL A   1      49.319  26.196  26.212  1.00  0.00     0.031 C 
ATOM     53  C   UNL A   1      44.181  30.759  26.726  1.00  0.00     0.029 A 
ATOM     54  C   UNL A   1      45.527  31.325  26.647  1.00  0.00     0.049 A 
ATOM     55  H   UNL A   1      47.315  30.290  26.388  1.00  0.00     0.167 HD
ATOM     56  C   UNL A   1      51.021  27.983  26.019  1.00  0.00     0.037 A 
ATOM     57  C   UNL A   1      45.838  32.635  26.722  1.00  0.00     0.037 A 
ATOM     58  C   UNL A   1      51.436  29.362  25.990  1.00  0.00     0.049 A 
ATOM     59  C   UNL A   1      47.281  33.059  26.628  1.00  0.00     0.074 A 
ATOM     60  C   UNL A   1      52.709  29.876  25.818  1.00  0.00     0.029 A 
ATOM     61  N   UNL A   1      50.585  30.445  26.156  1.00  0.00    -0.354 N 
ATOM     62  N   UNL A   1      48.354  32.322  26.466  1.00  0.00    -0.248 NA
ATOM     63  C   UNL A   1      47.554  34.501  26.725  1.00  0.00     0.031 C 
ATOM     64  C   UNL A   1      52.638  31.267  25.945  1.00  0.00     0.029 A 
ATOM     65  C   UNL A   1      51.310  31.625  26.124  1.00  0.00     0.049 A 
ATOM     66  H   UNL A   1      49.610  30.384  26.277  1.00  0.00     0.167 HD
ATOM     67  C   UNL A   1      49.423  33.210  26.411  1.00  0.00     0.074 A 
ATOM     68  C   UNL A   1      48.868  34.540  26.545  1.00  0.00     0.031 C 
ATOM     69  C   UNL A   1      50.746  32.946  26.258  1.00  0.00     0.037 A 
BRANCH  56  70
ATOM     70  C   UNL A   1      52.071  26.913  25.913  1.00  0.00     0.057 A 
ATOM     71  C   UNL A   1      52.410  26.319  24.688  1.00  0.00     0.134 A 
ATOM     72  C   UNL A   1      52.754  26.471  27.053  1.00  0.00     0.134 A 
ATOM     73  F   UNL A   1      51.785  26.683  23.559  1.00  0.00    -0.206 F 
ATOM     74  C   UNL A   1      53.363  25.302  24.610  1.00  0.00     0.040 A 
ATOM     75  C   UNL A   1      53.732  25.479  26.982  1.00  0.00     0.040 A 
ATOM     76  F   UNL A   1      52.484  26.999  28.257  1.00  0.00    -0.206 F 
ATOM     77  C   UNL A   1      54.030  24.883  25.758  1.00  0.00     0.006 A 
ENDBRANCH  56  70
BRANCH  57  78
ATOM     78  C   UNL A   1      44.760  33.640  26.907  1.00  0.00     0.057 A 
ATOM     79  C   UNL A   1      44.406  34.100  28.180  1.00  0.00     0.134 A 
ATOM     80  C   UNL A   1      44.055  34.161  25.816  1.00  0.00     0.134 A 
ATOM     81  F   UNL A   1      45.028  33.621  29.268  1.00  0.00    -0.206 F 
ATOM     82  C   UNL A   1      43.384  35.034  28.364  1.00  0.00     0.040 A 
ATOM     83  C   UNL A   1      43.049  35.114  25.981  1.00  0.00     0.040 A 
ATOM     84  F   UNL A   1      44.343  33.759  24.569  1.00  0.00    -0.206 F 
ATOM     85  C   UNL A   1      42.708  35.549  27.260  1.00  0.00     0.006 A 
ENDBRANCH  57  78
BRANCH  69  86
ATOM     86  C   UNL A   1      51.684  34.118  26.185  1.00  0.00     0.057 A 
ATOM     87  C   UNL A   1      52.216  34.721  27.332  1.00  0.00     0.134 A 
ATOM     88  C   UNL A   1      52.097  34.622  24.944  1.00  0.00     0.134 A 
ATOM     89  F   UNL A   1      51.857  34.295  28.553  1.00  0.00    -0.206 F 
ATOM     90  C   UNL A   1      53.103  35.797  27.247  1.00  0.00     0.040 A 
ATOM     91  C   UNL A   1      53.007  35.676  24.846  1.00  0.00     0.040 A 
ATOM     92  F   UNL A   1      51.636  34.085  23.803  1.00  0.00    -0.206 F 
ATOM     93  C   UNL A   1      53.507  36.272  26.001  1.00  0.00     0.006 A 
ENDBRANCH  69  86
ENDBRANCH  43  44
ENDBRANCH  36  38
ENDBRANCH  35  36
ENDBRANCH  34  35
ENDBRANCH  33  34
ENDBRANCH  32  33
ENDBRANCH  31  32
ENDBRANCH  30  31
ENDBRANCH   1  30
TORSDOF 23
ENDMDL
MODEL 3
REMARK VINA RESULT:      -9.4      9.508     14.360
REMARK SMILES C/C(Nc1ccc(C(=O)OCCOCCOCCOCCOC(=O)c2ccc(-c3c4nc(c(-c5c(F)cccc5F)c5ccc([nH]5)c(-c5c(F)cccc5F)c5nc(c(-c6c(F)cccc6F)c6ccc3[nH]6)C=C5)C=C4)cc2)c(O)c1)=C1/C(=O)O[C@H](C)C1=O
REMARK SMILES IDX 16 1 15 2 14 3 13 4 12 5 11 6 10 7 8 8 9 9 7 10 4 11 5 12
REMARK SMILES IDX 81 13 6 14 79 15 3 16 2 18 1 19 82 20 83 21 88 22 84 23
REMARK SMILES IDX 85 24 86 25 89 26 87 27 80 28 17 30 18 31 19 32 20 33 21 34
REMARK SMILES IDX 22 35 23 36 24 37 25 38 26 39 78 40 27 41 77 42 28 43 29 44
REMARK SMILES IDX 30 45 71 46 31 47 76 48 70 49 72 50 32 51 75 52 69 53 68 54
REMARK SMILES IDX 33 56 59 57 42 58 58 59 43 60 46 61 57 62 73 63 44 64 45 65
REMARK SMILES IDX 56 67 74 68 47 69 34 70 35 71 40 72 36 73 37 74 39 75 41 76
REMARK SMILES IDX 38 77 60 78 61 79 66 80 62 81 63 82 65 83 67 84 64 85 48 86
REMARK SMILES IDX 49 87 54 88 50 89 51 90 53 91 55 92 52 93
REMARK H PARENT 3 17 80 29 72 55 46 66
REMARK Flexibility Score: inf
ROOT
ATOM      1  O   UNL A   1      35.654  35.469  33.291  1.00  0.00    -0.377 OA
ENDROOT
BRANCH   1   2
ATOM      2  C   UNL A   1      35.800  34.105  33.670  1.00  0.00     0.188 C 
BRANCH   2   3
ATOM      3  C   UNL A   1      35.715  33.899  35.194  1.00  0.00     0.188 C 
BRANCH   3   4
ATOM      4  O   UNL A   1      36.982  33.785  35.820  1.00  0.00    -0.376 OA
BRANCH   4   5
ATOM      5  C   UNL A   1      37.899  32.769  35.451  1.00  0.00     0.202 C 
BRANCH   5   6
ATOM      6  C   UNL A   1      38.683  31.890  36.446  1.00  0.00     0.261 C 
BRANCH   6   7
ATOM      7  O   UNL A   1      38.142  31.714  37.758  1.00  0.00    -0.460 OA
BRANCH   7   8
ATOM      8  C   UNL A   1      38.456  32.633  38.697  1.00  0.00     0.341 C 
ATOM      9  O   UNL A   1      39.487  33.277  38.760  1.00  0.00    -0.246 OA
BRANCH   8  10
ATOM     10  C   UNL A   1      37.238  32.885  39.513  1.00  0.00     0.101 A 
ATOM     11  C   UNL A   1      34.879  33.104  41.048  1.00  0.00     0.042 A 
ATOM     12  C   UNL A   1      34.860  32.482  39.793  1.00  0.00     0.027 A 
ATOM     13  C   UNL A   1      36.088  33.637  41.513  1.00  0.00     0.073 A 
ATOM     14  C   UNL A   1      36.025  32.387  39.022  1.00  0.00     0.022 A 
ATOM     15  C   UNL A   1      37.263  33.494  40.773  1.00  0.00     0.132 A 
BRANCH  11  16
ATOM     16  N   UNL A   1      33.762  33.129  41.899  1.00  0.00    -0.358 N 
ATOM     17  H   UNL A   1      33.770  32.452  42.615  1.00  0.00     0.166 HD
BRANCH  16  18
ATOM     18  C   UNL A   1      32.651  33.959  41.891  1.00  0.00     0.030 C 
ATOM     19  C   UNL A   1      32.585  34.844  40.654  1.00  0.00     0.065 C 
ATOM     20  C   UNL A   1      31.701  34.086  42.849  1.00  0.00     0.125 C 
ATOM     21  C   UNL A   1      31.594  33.421  44.164  1.00  0.00     0.344 C 
ATOM     22  C   UNL A   1      30.495  34.927  42.742  1.00  0.00     0.212 C 
ATOM     23  O   UNL A   1      32.463  32.868  44.819  1.00  0.00    -0.246 OA
ATOM     24  O   UNL A   1      30.313  33.584  44.614  1.00  0.00    -0.451 OA
ATOM     25  C   UNL A   1      29.550  34.521  43.830  1.00  0.00     0.245 C 
ATOM     26  O   UNL A   1      30.277  35.799  41.914  1.00  0.00    -0.290 OA
ATOM     27  C   UNL A   1      28.300  33.860  43.275  1.00  0.00     0.062 C 
ENDBRANCH  16  18
ENDBRANCH  11  16
BRANCH  15  28
ATOM     28  O   UNL A   1      38.414  33.908  41.387  1.00  0.00    -0.507 OA
ATOM     29  H   UNL A   1      39.211  33.964  40.899  1.00  0.00     0.293 HD
ENDBRANCH  15  28
ENDBRANCH   8  10
ENDBRANCH   7   8
ENDBRANCH   6   7
ENDBRANCH   5   6
ENDBRANCH   4   5
ENDBRANCH   3   4
ENDBRANCH   2   3
ENDBRANCH   1   2
BRANCH   1  30
ATOM     30  C   UNL A   1      34.412  36.110  33.584  1.00  0.00     0.188 C 
BRANCH  30  31
ATOM     31  C   UNL A   1      34.022  37.480  32.970  1.00  0.00     0.188 C 
BRANCH  31  32
ATOM     32  O   UNL A   1      32.648  37.605  32.639  1.00  0.00    -0.376 OA
BRANCH  32  33
ATOM     33  C   UNL A   1      32.013  36.573  31.909  1.00  0.00     0.202 C 
BRANCH  33  34
ATOM     34  C   UNL A   1      32.636  36.177  30.564  1.00  0.00     0.261 C 
BRANCH  34  35
ATOM     35  O   UNL A   1      32.776  34.770  30.326  1.00  0.00    -0.460 OA
BRANCH  35  36
ATOM     36  C   UNL A   1      33.199  34.385  29.102  1.00  0.00     0.338 C 
ATOM     37  O   UNL A   1      32.701  34.662  28.028  1.00  0.00    -0.246 OA
BRANCH  36  38
ATOM     38  C   UNL A   1      34.499  33.704  29.281  1.00  0.00     0.060 A 
ATOM     39  C   UNL A   1      34.641  32.761  30.308  1.00  0.00     0.016 A 
ATOM     40  C   UNL A   1      35.568  33.988  28.428  1.00  0.00     0.016 A 
ATOM     41  C   UNL A   1      35.868  32.127  30.508  1.00  0.00     0.010 A 
ATOM     42  C   UNL A   1      36.800  33.366  28.641  1.00  0.00     0.010 A 
ATOM     43  C   UNL A   1      36.965  32.459  29.703  1.00  0.00    -0.014 A 
BRANCH  43  44
ATOM     44  C   UNL A   1      38.326  32.011  30.083  1.00  0.00     0.031 A 
ATOM     45  C   UNL A   1      38.821  30.696  29.546  1.00  0.00     0.074 A 
ATOM     46  C   UNL A   1      39.113  32.752  30.881  1.00  0.00     0.049 A 
ATOM     47  N   UNL A   1      39.942  30.067  29.784  1.00  0.00    -0.248 NA
ATOM     48  C   UNL A   1      37.920  29.995  28.618  1.00  0.00     0.031 C 
ATOM     49  C   UNL A   1      38.764  34.057  31.436  1.00  0.00     0.029 A 
ATOM     50  N   UNL A   1      40.369  32.498  31.374  1.00  0.00    -0.354 N 
ATOM     51  C   UNL A   1      39.878  28.893  29.045  1.00  0.00     0.074 A 
ATOM     52  C   UNL A   1      38.594  28.880  28.379  1.00  0.00     0.031 C 
ATOM     53  C   UNL A   1      39.779  34.486  32.206  1.00  0.00     0.029 A 
ATOM     54  C   UNL A   1      40.830  33.469  32.228  1.00  0.00     0.049 A 
ATOM     55  H   UNL A   1      40.888  31.696  31.138  1.00  0.00     0.167 HD
ATOM     56  C   UNL A   1      40.808  27.915  28.926  1.00  0.00     0.037 A 
ATOM     57  C   UNL A   1      41.958  33.516  32.964  1.00  0.00     0.037 A 
ATOM     58  C   UNL A   1      42.081  27.927  29.598  1.00  0.00     0.049 A 
ATOM     59  C   UNL A   1      42.946  32.381  32.878  1.00  0.00     0.074 A 
ATOM     60  C   UNL A   1      43.102  26.996  29.527  1.00  0.00     0.029 A 
ATOM     61  N   UNL A   1      42.499  28.914  30.479  1.00  0.00    -0.354 N 
ATOM     62  N   UNL A   1      42.893  31.288  32.154  1.00  0.00    -0.248 NA
ATOM     63  C   UNL A   1      44.153  32.488  33.712  1.00  0.00     0.031 C 
ATOM     64  C   UNL A   1      44.110  27.385  30.416  1.00  0.00     0.029 A 
ATOM     65  C   UNL A   1      43.749  28.596  30.986  1.00  0.00     0.049 A 
ATOM     66  H   UNL A   1      41.984  29.720  30.710  1.00  0.00     0.167 HD
ATOM     67  C   UNL A   1      44.068  30.595  32.421  1.00  0.00     0.074 A 
ATOM     68  C   UNL A   1      44.820  31.396  33.363  1.00  0.00     0.031 C 
ATOM     69  C   UNL A   1      44.489  29.403  31.924  1.00  0.00     0.037 A 
BRANCH  56  70
ATOM     70  C   UNL A   1      40.458  26.733  28.066  1.00  0.00     0.057 A 
ATOM     71  C   UNL A   1      40.995  26.559  26.783  1.00  0.00     0.134 A 
ATOM     72  C   UNL A   1      39.571  25.754  28.531  1.00  0.00     0.134 A 
ATOM     73  F   UNL A   1      41.839  27.466  26.269  1.00  0.00    -0.206 F 
ATOM     74  C   UNL A   1      40.634  25.473  25.982  1.00  0.00     0.040 A 
ATOM     75  C   UNL A   1      39.228  24.648  27.753  1.00  0.00     0.040 A 
ATOM     76  F   UNL A   1      39.022  25.855  29.751  1.00  0.00    -0.206 F 
ATOM     77  C   UNL A   1      39.752  24.512  26.469  1.00  0.00     0.006 A 
ENDBRANCH  56  70
BRANCH  57  78
ATOM     78  C   UNL A   1      42.210  34.676  33.857  1.00  0.00     0.057 A 
ATOM     79  C   UNL A   1      42.750  35.869  33.364  1.00  0.00     0.134 A 
ATOM     80  C   UNL A   1      41.922  34.617  35.226  1.00  0.00     0.134 A 
ATOM     81  F   UNL A   1      43.070  35.980  32.066  1.00  0.00    -0.206 F 
ATOM     82  C   UNL A   1      43.003  36.959  34.200  1.00  0.00     0.040 A 
ATOM     83  C   UNL A   1      42.145  35.706  36.069  1.00  0.00     0.040 A 
ATOM     84  F   UNL A   1      41.406  33.501  35.762  1.00  0.00    -0.206 F 
ATOM     85  C   UNL A   1      42.692  36.881  35.556  1.00  0.00     0.006 A 
ENDBRANCH  57  78
BRANCH  69  86
ATOM     86  C   UNL A   1      45.842  28.910  32.357  1.00  0.00     0.057 A 
ATOM     87  C   UNL A   1      47.012  29.228  31.657  1.00  0.00     0.134 A 
ATOM     88  C   UNL A   1      45.978  28.144  33.523  1.00  0.00     0.134 A 
ATOM     89  F   UNL A   1      46.954  29.951  30.527  1.00  0.00    -0.206 F 
ATOM     90  C   UNL A   1      48.264  28.779  32.084  1.00  0.00     0.040 A 
ATOM     91  C   UNL A   1      47.227  27.717  33.977  1.00  0.00     0.040 A 
ATOM     92  F   UNL A   1      44.901  27.812  34.251  1.00  0.00    -0.206 F 
ATOM     93  C   UNL A   1      48.375  28.028  33.252  1.00  0.00     0.006 A 
ENDBRANCH  69  86
ENDBRANCH  43  44
ENDBRANCH  36  38
ENDBRANCH  35  36
ENDBRANCH  34  35
ENDBRANCH  33  34
ENDBRANCH  32  33
ENDBRANCH  31  32
ENDBRANCH  30  31
ENDBRANCH   1  30
TORSDOF 23
ENDMDL
