MODEL 1
REMARK VINA RESULT:     -10.7      0.000      0.000
REMARK SMILES Cc1nnc(SCC2=C(C(=O)OCCOCCOCCOCCOC(=O)c3ccc(-c4c5nc(c(-c6c(F)cccc6F)c6ccc([nH]6)c(-c6c(F)cccc6F)c6nc(c(-c7c(F)cccc7F)c7ccc4[nH]7)C=C6)C=C5)cc3)N3C(=O)[C@H](NC(=O)c4ccc(F)cc4F)[C@H]3SC2)s1
REMARK SMILES IDX 17 1 16 2 15 3 14 4 13 5 12 6 10 7 11 8 9 9 8 10 98 11 81 12
REMARK SMILES IDX 97 13 82 14 96 15 83 16 84 17 7 18 6 19 5 20 1 21 2 22 3 23
REMARK SMILES IDX 99 24 4 25 85 26 86 27 87 29 88 30 89 31 94 32 90 33 93 34
REMARK SMILES IDX 95 35 91 36 92 37 18 38 19 39 20 40 21 41 22 42 23 43 24 44
REMARK SMILES IDX 25 45 26 46 27 47 28 48 80 49 29 50 79 51 30 52 31 53 32 54
REMARK SMILES IDX 73 55 33 56 78 57 72 58 74 59 34 60 77 61 71 62 70 63 35 65
REMARK SMILES IDX 61 66 44 67 60 68 45 69 48 70 59 71 75 72 46 73 47 74 58 76
REMARK SMILES IDX 76 77 49 78 36 79 37 80 42 81 38 82 39 83 41 84 43 85 40 86
REMARK SMILES IDX 62 87 63 88 68 89 64 90 65 91 67 92 69 93 66 94 50 95 51 96
REMARK SMILES IDX 56 97 52 98 53 99 55 100 57 101 54 102
REMARK H PARENT 85 28 74 64 48 75
REMARK Flexibility Score: inf
ROOT
ATOM      1  C   UNL A   1      34.976  33.540  28.540  1.00  0.00     0.188 C 
ENDROOT
BRANCH   1   2
ATOM      2  C   UNL A   1      33.847  32.604  28.054  1.00  0.00     0.188 C 
BRANCH   2   3
ATOM      3  O   UNL A   1      34.300  31.319  27.634  1.00  0.00    -0.376 OA
BRANCH   3   4
ATOM      4  C   UNL A   1      33.310  30.466  27.090  1.00  0.00     0.202 C 
BRANCH   4   5
ATOM      5  C   UNL A   1      33.286  29.051  27.672  1.00  0.00     0.261 C 
BRANCH   5   6
ATOM      6  O   UNL A   1      33.427  28.004  26.706  1.00  0.00    -0.459 OA
BRANCH   6   7
ATOM      7  C   UNL A   1      32.363  27.191  26.528  1.00  0.00     0.355 C 
ATOM      8  O   UNL A   1      31.472  26.985  27.339  1.00  0.00    -0.244 OA
BRANCH   7   9
ATOM      9  C   UNL A   1      32.348  26.651  25.120  1.00  0.00     0.132 C 
ATOM     10  C   UNL A   1      33.151  25.670  24.625  1.00  0.00    -0.019 C 
ATOM     11  C   UNL A   1      33.132  25.232  23.156  1.00  0.00     0.106 C 
ATOM     12  N   UNL A   1      31.413  27.222  24.307  1.00  0.00    -0.289 N 
ATOM     13  S   UNL A   1      32.265  26.360  22.010  1.00  0.00    -0.129 SA
ATOM     14  C   UNL A   1      30.775  28.388  24.166  1.00  0.00     0.253 C 
ATOM     15  C   UNL A   1      30.874  26.576  23.148  1.00  0.00     0.181 C 
ATOM     16  O   UNL A   1      30.828  29.465  24.741  1.00  0.00    -0.272 OA
ATOM     17  C   UNL A   1      29.972  27.828  22.940  1.00  0.00     0.206 C 
BRANCH  10  18
ATOM     18  C   UNL A   1      34.234  24.939  25.409  1.00  0.00     0.111 C 
BRANCH  18  19
ATOM     19  S   UNL A   1      35.330  23.974  24.312  1.00  0.00    -0.089 SA
BRANCH  19  20
ATOM     20  C   UNL A   1      34.763  22.350  24.617  1.00  0.00     0.174 A 
ATOM     21  C   UNL A   1      32.890  19.220  25.799  1.00  0.00     0.081 C 
ATOM     22  C   UNL A   1      33.741  20.312  25.270  1.00  0.00     0.115 A 
ATOM     23  N   UNL A   1      34.929  20.123  24.746  1.00  0.00    -0.143 NA
ATOM     24  S   UNL A   1      33.233  21.958  25.282  1.00  0.00    -0.091 S 
ATOM     25  N   UNL A   1      35.504  21.303  24.354  1.00  0.00    -0.132 NA
ENDBRANCH  19  20
ENDBRANCH  18  19
ENDBRANCH  10  18
BRANCH  17  26
ATOM     26  N   UNL A   1      28.512  27.828  23.266  1.00  0.00    -0.338 N 
ATOM     27  C   UNL A   1      27.508  28.742  23.092  1.00  0.00     0.254 C 
ATOM     28  H   UNL A   1      28.209  26.995  23.695  1.00  0.00     0.164 HD
ATOM     29  O   UNL A   1      26.393  28.546  23.564  1.00  0.00    -0.269 OA
BRANCH  27  30
ATOM     30  C   UNL A   1      27.758  29.995  22.385  1.00  0.00     0.075 A 
ATOM     31  C   UNL A   1      27.775  30.001  20.989  1.00  0.00     0.020 A 
ATOM     32  C   UNL A   1      28.040  31.157  23.098  1.00  0.00     0.138 A 
ATOM     33  C   UNL A   1      27.963  31.212  20.321  1.00  0.00     0.040 A 
ATOM     34  C   UNL A   1      28.176  32.371  22.440  1.00  0.00     0.079 A 
ATOM     35  F   UNL A   1      28.094  31.139  24.439  1.00  0.00    -0.206 F 
ATOM     36  C   UNL A   1      28.127  32.387  21.053  1.00  0.00     0.126 A 
ATOM     37  F   UNL A   1      28.239  33.554  20.407  1.00  0.00    -0.207 F 
ENDBRANCH  27  30
ENDBRANCH  17  26
ENDBRANCH   7   9
ENDBRANCH   6   7
ENDBRANCH   5   6
ENDBRANCH   4   5
ENDBRANCH   3   4
ENDBRANCH   2   3
ENDBRANCH   1   2
BRANCH   1  38
ATOM     38  O   UNL A   1      34.696  34.910  28.802  1.00  0.00    -0.377 OA
BRANCH  38  39
ATOM     39  C   UNL A   1      33.377  35.272  29.197  1.00  0.00     0.188 C 
BRANCH  39  40
ATOM     40  C   UNL A   1      33.096  35.716  30.653  1.00  0.00     0.188 C 
BRANCH  40  41
ATOM     41  O   UNL A   1      33.285  34.712  31.636  1.00  0.00    -0.376 OA
BRANCH  41  42
ATOM     42  C   UNL A   1      34.275  34.923  32.627  1.00  0.00     0.202 C 
BRANCH  42  43
ATOM     43  C   UNL A   1      35.706  34.493  32.280  1.00  0.00     0.261 C 
BRANCH  43  44
ATOM     44  O   UNL A   1      36.115  33.215  32.786  1.00  0.00    -0.460 OA
BRANCH  44  45
ATOM     45  C   UNL A   1      35.948  32.139  31.989  1.00  0.00     0.338 C 
ATOM     46  O   UNL A   1      34.906  31.630  31.622  1.00  0.00    -0.246 OA
BRANCH  45  47
ATOM     47  C   UNL A   1      37.286  31.779  31.488  1.00  0.00     0.060 A 
ATOM     48  C   UNL A   1      37.646  32.091  30.168  1.00  0.00     0.016 A 
ATOM     49  C   UNL A   1      38.193  31.163  32.351  1.00  0.00     0.016 A 
ATOM     50  C   UNL A   1      38.919  31.764  29.701  1.00  0.00     0.010 A 
ATOM     51  C   UNL A   1      39.450  30.807  31.874  1.00  0.00     0.010 A 
ATOM     52  C   UNL A   1      39.804  31.077  30.540  1.00  0.00    -0.014 A 
BRANCH  52  53
ATOM     53  C   UNL A   1      40.995  30.399  29.987  1.00  0.00     0.031 A 
ATOM     54  C   UNL A   1      42.222  31.236  29.769  1.00  0.00     0.074 A 
ATOM     55  C   UNL A   1      40.970  29.105  29.630  1.00  0.00     0.049 A 
ATOM     56  N   UNL A   1      43.317  30.954  29.116  1.00  0.00    -0.248 NA
ATOM     57  C   UNL A   1      42.199  32.586  30.360  1.00  0.00     0.031 C 
ATOM     58  C   UNL A   1      39.859  28.183  29.848  1.00  0.00     0.029 A 
ATOM     59  N   UNL A   1      41.912  28.353  28.974  1.00  0.00    -0.354 N 
ATOM     60  C   UNL A   1      44.104  32.096  29.203  1.00  0.00     0.074 A 
ATOM     61  C   UNL A   1      43.358  33.080  29.953  1.00  0.00     0.031 C 
ATOM     62  C   UNL A   1      40.171  26.991  29.308  1.00  0.00     0.029 A 
ATOM     63  C   UNL A   1      41.481  27.086  28.665  1.00  0.00     0.049 A 
ATOM     64  H   UNL A   1      42.809  28.689  28.747  1.00  0.00     0.167 HD
ATOM     65  C   UNL A   1      45.342  32.303  28.698  1.00  0.00     0.037 A 
ATOM     66  C   UNL A   1      42.069  26.135  27.912  1.00  0.00     0.037 A 
ATOM     67  C   UNL A   1      46.068  31.322  27.941  1.00  0.00     0.049 A 
ATOM     68  C   UNL A   1      43.407  26.421  27.277  1.00  0.00     0.074 A 
ATOM     69  C   UNL A   1      47.323  31.430  27.371  1.00  0.00     0.029 A 
ATOM     70  N   UNL A   1      45.597  30.053  27.645  1.00  0.00    -0.354 N 
ATOM     71  N   UNL A   1      44.148  27.501  27.357  1.00  0.00    -0.248 NA
ATOM     72  C   UNL A   1      43.989  25.360  26.442  1.00  0.00     0.031 C 
ATOM     73  C   UNL A   1      47.592  30.239  26.690  1.00  0.00     0.029 A 
ATOM     74  C   UNL A   1      46.531  29.370  26.887  1.00  0.00     0.049 A 
ATOM     75  H   UNL A   1      44.727  29.691  27.930  1.00  0.00     0.167 HD
ATOM     76  C   UNL A   1      45.300  27.231  26.626  1.00  0.00     0.074 A 
ATOM     77  C   UNL A   1      45.156  25.889  26.102  1.00  0.00     0.031 C 
ATOM     78  C   UNL A   1      46.381  28.019  26.413  1.00  0.00     0.037 A 
BRANCH  65  79
ATOM     79  C   UNL A   1      45.963  33.648  28.923  1.00  0.00     0.057 A 
ATOM     80  C   UNL A   1      45.761  34.713  28.035  1.00  0.00     0.134 A 
ATOM     81  C   UNL A   1      46.760  33.886  30.049  1.00  0.00     0.134 A 
ATOM     82  F   UNL A   1      45.027  34.543  26.925  1.00  0.00    -0.206 F 
ATOM     83  C   UNL A   1      46.346  35.962  28.251  1.00  0.00     0.040 A 
ATOM     84  C   UNL A   1      47.326  35.138  30.290  1.00  0.00     0.040 A 
ATOM     85  F   UNL A   1      46.995  32.908  30.937  1.00  0.00    -0.206 F 
ATOM     86  C   UNL A   1      47.124  36.178  29.386  1.00  0.00     0.006 A 
ENDBRANCH  65  79
BRANCH  66  87
ATOM     87  C   UNL A   1      41.393  24.830  27.689  1.00  0.00     0.057 A 
ATOM     88  C   UNL A   1      40.356  24.706  26.758  1.00  0.00     0.134 A 
ATOM     89  C   UNL A   1      41.740  23.689  28.423  1.00  0.00     0.134 A 
ATOM     90  F   UNL A   1      39.960  25.768  26.042  1.00  0.00    -0.206 F 
ATOM     91  C   UNL A   1      39.672  23.501  26.579  1.00  0.00     0.040 A 
ATOM     92  C   UNL A   1      41.083  22.472  28.235  1.00  0.00     0.040 A 
ATOM     93  F   UNL A   1      42.724  23.740  29.332  1.00  0.00    -0.206 F 
ATOM     94  C   UNL A   1      40.039  22.377  27.317  1.00  0.00     0.006 A 
ENDBRANCH  66  87
BRANCH  78  95
ATOM     95  C   UNL A   1      47.535  27.435  25.652  1.00  0.00     0.057 A 
ATOM     96  C   UNL A   1      47.645  27.544  24.262  1.00  0.00     0.134 A 
ATOM     97  C   UNL A   1      48.599  26.836  26.342  1.00  0.00     0.134 A 
ATOM     98  F   UNL A   1      46.656  28.097  23.543  1.00  0.00    -0.206 F 
ATOM     99  C   UNL A   1      48.769  27.072  23.582  1.00  0.00     0.040 A 
ATOM    100  C   UNL A   1      49.738  26.385  25.678  1.00  0.00     0.040 A 
ATOM    101  F   UNL A   1      48.559  26.712  27.678  1.00  0.00    -0.206 F 
ATOM    102  C   UNL A   1      49.825  26.502  24.292  1.00  0.00     0.006 A 
ENDBRANCH  78  95
ENDBRANCH  52  53
ENDBRANCH  45  47
ENDBRANCH  44  45
ENDBRANCH  43  44
ENDBRANCH  42  43
ENDBRANCH  41  42
ENDBRANCH  40  41
ENDBRANCH  39  40
ENDBRANCH  38  39
ENDBRANCH   1  38
TORSDOF 25
ENDMDL
MODEL 2
REMARK VINA RESULT:     -10.3      2.375      7.696
REMARK SMILES Cc1nnc(SCC2=C(C(=O)OCCOCCOCCOCCOC(=O)c3ccc(-c4c5nc(c(-c6c(F)cccc6F)c6ccc([nH]6)c(-c6c(F)cccc6F)c6nc(c(-c7c(F)cccc7F)c7ccc4[nH]7)C=C6)C=C5)cc3)N3C(=O)[C@H](NC(=O)c4ccc(F)cc4F)[C@H]3SC2)s1
REMARK SMILES IDX 17 1 16 2 15 3 14 4 13 5 12 6 10 7 11 8 9 9 8 10 98 11 81 12
REMARK SMILES IDX 97 13 82 14 96 15 83 16 84 17 7 18 6 19 5 20 1 21 2 22 3 23
REMARK SMILES IDX 99 24 4 25 85 26 86 27 87 29 88 30 89 31 94 32 90 33 93 34
REMARK SMILES IDX 95 35 91 36 92 37 18 38 19 39 20 40 21 41 22 42 23 43 24 44
REMARK SMILES IDX 25 45 26 46 27 47 28 48 80 49 29 50 79 51 30 52 31 53 32 54
REMARK SMILES IDX 73 55 33 56 78 57 72 58 74 59 34 60 77 61 71 62 70 63 35 65
REMARK SMILES IDX 61 66 44 67 60 68 45 69 48 70 59 71 75 72 46 73 47 74 58 76
REMARK SMILES IDX 76 77 49 78 36 79 37 80 42 81 38 82 39 83 41 84 43 85 40 86
REMARK SMILES IDX 62 87 63 88 68 89 64 90 65 91 67 92 69 93 66 94 50 95 51 96
REMARK SMILES IDX 56 97 52 98 53 99 55 100 57 101 54 102
REMARK H PARENT 85 28 74 64 48 75
REMARK Flexibility Score: inf
ROOT
ATOM      1  C   UNL A   1      34.091  30.366  27.067  1.00  0.00     0.188 C 
ENDROOT
BRANCH   1   2
ATOM      2  C   UNL A   1      32.563  30.444  26.850  1.00  0.00     0.188 C 
BRANCH   2   3
ATOM      3  O   UNL A   1      31.959  29.192  26.537  1.00  0.00    -0.376 OA
BRANCH   3   4
ATOM      4  C   UNL A   1      32.769  28.049  26.747  1.00  0.00     0.202 C 
BRANCH   4   5
ATOM      5  C   UNL A   1      32.011  26.721  26.795  1.00  0.00     0.261 C 
BRANCH   5   6
ATOM      6  O   UNL A   1      30.588  26.846  26.889  1.00  0.00    -0.459 OA
BRANCH   6   7
ATOM      7  C   UNL A   1      29.854  25.793  26.469  1.00  0.00     0.355 C 
ATOM      8  O   UNL A   1      28.753  25.470  26.893  1.00  0.00    -0.244 OA
BRANCH   7   9
ATOM      9  C   UNL A   1      30.524  25.122  25.297  1.00  0.00     0.132 C 
ATOM     10  C   UNL A   1      30.748  25.674  24.073  1.00  0.00    -0.019 C 
ATOM     11  C   UNL A   1      31.362  24.898  22.903  1.00  0.00     0.106 C 
ATOM     12  N   UNL A   1      30.941  23.846  25.541  1.00  0.00    -0.289 N 
ATOM     13  S   UNL A   1      31.414  23.083  23.104  1.00  0.00    -0.129 SA
ATOM     14  C   UNL A   1      30.605  22.802  26.305  1.00  0.00     0.253 C 
ATOM     15  C   UNL A   1      31.998  23.208  24.813  1.00  0.00     0.181 C 
ATOM     16  O   UNL A   1      29.705  22.584  27.103  1.00  0.00    -0.272 OA
ATOM     17  C   UNL A   1      31.798  21.964  25.726  1.00  0.00     0.206 C 
BRANCH  10  18
ATOM     18  C   UNL A   1      30.344  27.083  23.656  1.00  0.00     0.111 C 
BRANCH  18  19
ATOM     19  S   UNL A   1      28.534  27.240  23.467  1.00  0.00    -0.089 SA
BRANCH  19  20
ATOM     20  C   UNL A   1      28.378  28.949  23.142  1.00  0.00     0.174 A 
ATOM     21  C   UNL A   1      28.850  32.743  22.855  1.00  0.00     0.081 C 
ATOM     22  C   UNL A   1      28.494  31.306  22.900  1.00  0.00     0.115 A 
ATOM     23  N   UNL A   1      27.286  30.845  22.679  1.00  0.00    -0.143 NA
ATOM     24  S   UNL A   1      29.659  30.083  23.239  1.00  0.00    -0.091 S 
ATOM     25  N   UNL A   1      27.231  29.482  22.802  1.00  0.00    -0.132 NA
ENDBRANCH  19  20
ENDBRANCH  18  19
ENDBRANCH  10  18
BRANCH  17  26
ATOM     26  N   UNL A   1      32.743  21.622  26.835  1.00  0.00    -0.338 N 
ATOM     27  C   UNL A   1      34.105  21.672  26.961  1.00  0.00     0.254 C 
ATOM     28  H   UNL A   1      32.289  21.290  27.644  1.00  0.00     0.164 HD
ATOM     29  O   UNL A   1      34.659  21.213  27.953  1.00  0.00    -0.269 OA
BRANCH  27  30
ATOM     30  C   UNL A   1      34.929  22.229  25.892  1.00  0.00     0.075 A 
ATOM     31  C   UNL A   1      35.319  23.568  25.954  1.00  0.00     0.020 A 
ATOM     32  C   UNL A   1      35.270  21.446  24.791  1.00  0.00     0.138 A 
ATOM     33  C   UNL A   1      36.149  24.077  24.956  1.00  0.00     0.040 A 
ATOM     34  C   UNL A   1      36.137  21.932  23.823  1.00  0.00     0.079 A 
ATOM     35  F   UNL A   1      34.839  20.179  24.695  1.00  0.00    -0.206 F 
ATOM     36  C   UNL A   1      36.577  23.245  23.921  1.00  0.00     0.126 A 
ATOM     37  F   UNL A   1      37.428  23.721  23.004  1.00  0.00    -0.207 F 
ENDBRANCH  27  30
ENDBRANCH  17  26
ENDBRANCH   7   9
ENDBRANCH   6   7
ENDBRANCH   5   6
ENDBRANCH   4   5
ENDBRANCH   3   4
ENDBRANCH   2   3
ENDBRANCH   1   2
BRANCH   1  38
ATOM     38  O   UNL A   1      34.749  31.367  27.836  1.00  0.00    -0.377 OA
BRANCH  38  39
ATOM     39  C   UNL A   1      33.955  32.325  28.528  1.00  0.00     0.188 C 
BRANCH  39  40
ATOM     40  C   UNL A   1      34.628  33.521  29.244  1.00  0.00     0.188 C 
BRANCH  40  41
ATOM     41  O   UNL A   1      33.938  34.005  30.386  1.00  0.00    -0.376 OA
BRANCH  41  42
ATOM     42  C   UNL A   1      34.672  34.186  31.584  1.00  0.00     0.202 C 
BRANCH  42  43
ATOM     43  C   UNL A   1      34.611  33.052  32.613  1.00  0.00     0.261 C 
BRANCH  43  44
ATOM     44  O   UNL A   1      35.471  31.932  32.362  1.00  0.00    -0.460 OA
BRANCH  44  45
ATOM     45  C   UNL A   1      36.571  31.796  33.132  1.00  0.00     0.338 C 
ATOM     46  O   UNL A   1      36.681  31.995  34.326  1.00  0.00    -0.246 OA
BRANCH  45  47
ATOM     47  C   UNL A   1      37.604  31.184  32.278  1.00  0.00     0.060 A 
ATOM     48  C   UNL A   1      38.760  30.639  32.860  1.00  0.00     0.016 A 
ATOM     49  C   UNL A   1      37.400  31.121  30.900  1.00  0.00     0.016 A 
ATOM     50  C   UNL A   1      39.729  30.046  32.052  1.00  0.00     0.010 A 
ATOM     51  C   UNL A   1      38.382  30.559  30.092  1.00  0.00     0.010 A 
ATOM     52  C   UNL A   1      39.562  30.050  30.662  1.00  0.00    -0.014 A 
BRANCH  52  53
ATOM     53  C   UNL A   1      40.703  29.773  29.764  1.00  0.00     0.031 A 
ATOM     54  C   UNL A   1      40.796  28.393  29.180  1.00  0.00     0.074 A 
ATOM     55  C   UNL A   1      41.657  30.687  29.529  1.00  0.00     0.049 A 
ATOM     56  N   UNL A   1      41.784  27.824  28.543  1.00  0.00    -0.248 NA
ATOM     57  C   UNL A   1      39.612  27.533  29.355  1.00  0.00     0.031 C 
ATOM     58  C   UNL A   1      41.641  32.073  29.992  1.00  0.00     0.029 A 
ATOM     59  N   UNL A   1      42.847  30.568  28.856  1.00  0.00    -0.354 N 
ATOM     60  C   UNL A   1      41.346  26.536  28.257  1.00  0.00     0.074 A 
ATOM     61  C   UNL A   1      40.017  26.399  28.804  1.00  0.00     0.031 C 
ATOM     62  C   UNL A   1      42.785  32.670  29.615  1.00  0.00     0.029 A 
ATOM     63  C   UNL A   1      43.630  31.693  28.928  1.00  0.00     0.049 A 
ATOM     64  H   UNL A   1      43.113  29.754  28.370  1.00  0.00     0.167 HD
ATOM     65  C   UNL A   1      42.001  25.554  27.596  1.00  0.00     0.037 A 
ATOM     66  C   UNL A   1      44.900  31.889  28.519  1.00  0.00     0.037 A 
ATOM     67  C   UNL A   1      43.330  25.697  27.069  1.00  0.00     0.049 A 
ATOM     68  C   UNL A   1      45.648  30.749  27.871  1.00  0.00     0.074 A 
ATOM     69  C   UNL A   1      44.094  24.763  26.394  1.00  0.00     0.029 A 
ATOM     70  N   UNL A   1      44.093  26.850  27.166  1.00  0.00    -0.354 N 
ATOM     71  N   UNL A   1      45.235  29.533  27.604  1.00  0.00    -0.248 NA
ATOM     72  C   UNL A   1      47.038  31.008  27.471  1.00  0.00     0.031 C 
ATOM     73  C   UNL A   1      45.338  25.338  26.121  1.00  0.00     0.029 A 
ATOM     74  C   UNL A   1      45.327  26.648  26.575  1.00  0.00     0.049 A 
ATOM     75  H   UNL A   1      43.801  27.688  27.593  1.00  0.00     0.167 HD
ATOM     76  C   UNL A   1      46.295  28.900  26.965  1.00  0.00     0.074 A 
ATOM     77  C   UNL A   1      47.374  29.863  26.891  1.00  0.00     0.031 C 
ATOM     78  C   UNL A   1      46.368  27.638  26.478  1.00  0.00     0.037 A 
BRANCH  65  79
ATOM     79  C   UNL A   1      41.300  24.239  27.441  1.00  0.00     0.057 A 
ATOM     80  C   UNL A   1      40.247  24.065  26.533  1.00  0.00     0.134 A 
ATOM     81  C   UNL A   1      41.693  23.129  28.198  1.00  0.00     0.134 A 
ATOM     82  F   UNL A   1      39.808  25.095  25.795  1.00  0.00    -0.206 F 
ATOM     83  C   UNL A   1      39.598  22.837  26.398  1.00  0.00     0.040 A 
ATOM     84  C   UNL A   1      41.070  21.889  28.051  1.00  0.00     0.040 A 
ATOM     85  F   UNL A   1      42.693  23.229  29.088  1.00  0.00    -0.206 F 
ATOM     86  C   UNL A   1      40.016  21.743  27.152  1.00  0.00     0.006 A 
ENDBRANCH  65  79
BRANCH  66  87
ATOM     87  C   UNL A   1      45.563  33.201  28.730  1.00  0.00     0.057 A 
ATOM     88  C   UNL A   1      45.503  34.204  27.755  1.00  0.00     0.134 A 
ATOM     89  C   UNL A   1      46.302  33.473  29.888  1.00  0.00     0.134 A 
ATOM     90  F   UNL A   1      44.832  33.996  26.614  1.00  0.00    -0.206 F 
ATOM     91  C   UNL A   1      46.170  35.422  27.914  1.00  0.00     0.040 A 
ATOM     92  C   UNL A   1      46.952  34.695  30.071  1.00  0.00     0.040 A 
ATOM     93  F   UNL A   1      46.402  32.555  30.861  1.00  0.00    -0.206 F 
ATOM     94  C   UNL A   1      46.894  35.670  29.078  1.00  0.00     0.006 A 
ENDBRANCH  66  87
BRANCH  78  95
ATOM     95  C   UNL A   1      47.616  27.240  25.746  1.00  0.00     0.057 A 
ATOM     96  C   UNL A   1      47.780  27.462  24.374  1.00  0.00     0.134 A 
ATOM     97  C   UNL A   1      48.706  26.711  26.453  1.00  0.00     0.134 A 
ATOM     98  F   UNL A   1      46.772  27.956  23.640  1.00  0.00    -0.206 F 
ATOM     99  C   UNL A   1      48.982  27.166  23.729  1.00  0.00     0.040 A 
ATOM    100  C   UNL A   1      49.919  26.437  25.825  1.00  0.00     0.040 A 
ATOM    101  F   UNL A   1      48.615  26.487  27.773  1.00  0.00    -0.206 F 
ATOM    102  C   UNL A   1      50.060  26.663  24.457  1.00  0.00     0.006 A 
ENDBRANCH  78  95
ENDBRANCH  52  53
ENDBRANCH  45  47
ENDBRANCH  44  45
ENDBRANCH  43  44
ENDBRANCH  42  43
ENDBRANCH  41  42
ENDBRANCH  40  41
ENDBRANCH  39  40
ENDBRANCH  38  39
ENDBRANCH   1  38
TORSDOF 25
ENDMDL
MODEL 3
REMARK VINA RESULT:     -10.1      2.456      5.829
REMARK SMILES Cc1nnc(SCC2=C(C(=O)OCCOCCOCCOCCOC(=O)c3ccc(-c4c5nc(c(-c6c(F)cccc6F)c6ccc([nH]6)c(-c6c(F)cccc6F)c6nc(c(-c7c(F)cccc7F)c7ccc4[nH]7)C=C6)C=C5)cc3)N3C(=O)[C@H](NC(=O)c4ccc(F)cc4F)[C@H]3SC2)s1
REMARK SMILES IDX 17 1 16 2 15 3 14 4 13 5 12 6 10 7 11 8 9 9 8 10 98 11 81 12
REMARK SMILES IDX 97 13 82 14 96 15 83 16 84 17 7 18 6 19 5 20 1 21 2 22 3 23
REMARK SMILES IDX 99 24 4 25 85 26 86 27 87 29 88 30 89 31 94 32 90 33 93 34
REMARK SMILES IDX 95 35 91 36 92 37 18 38 19 39 20 40 21 41 22 42 23 43 24 44
REMARK SMILES IDX 25 45 26 46 27 47 28 48 80 49 29 50 79 51 30 52 31 53 32 54
REMARK SMILES IDX 73 55 33 56 78 57 72 58 74 59 34 60 77 61 71 62 70 63 35 65
REMARK SMILES IDX 61 66 44 67 60 68 45 69 48 70 59 71 75 72 46 73 47 74 58 76
REMARK SMILES IDX 76 77 49 78 36 79 37 80 42 81 38 82 39 83 41 84 43 85 40 86
REMARK SMILES IDX 62 87 63 88 68 89 64 90 65 91 67 92 69 93 66 94 50 95 51 96
REMARK SMILES IDX 56 97 52 98 53 99 55 100 57 101 54 102
REMARK H PARENT 85 28 74 64 48 75
REMARK Flexibility Score: inf
ROOT
ATOM      1  C   UNL A   1      35.010  31.781  28.724  1.00  0.00     0.188 C 
ENDROOT
BRANCH   1   2
ATOM      2  C   UNL A   1      34.017  31.279  27.652  1.00  0.00     0.188 C 
BRANCH   2   3
ATOM      3  O   UNL A   1      34.057  29.870  27.440  1.00  0.00    -0.376 OA
BRANCH   3   4
ATOM      4  C   UNL A   1      33.056  29.349  26.585  1.00  0.00     0.202 C 
BRANCH   4   5
ATOM      5  C   UNL A   1      32.264  28.174  27.162  1.00  0.00     0.261 C 
BRANCH   5   6
ATOM      6  O   UNL A   1      32.651  26.889  26.664  1.00  0.00    -0.459 OA
BRANCH   6   7
ATOM      7  C   UNL A   1      31.694  26.156  26.055  1.00  0.00     0.355 C 
ATOM      8  O   UNL A   1      30.593  25.888  26.513  1.00  0.00    -0.244 OA
BRANCH   7   9
ATOM      9  C   UNL A   1      32.119  25.804  24.651  1.00  0.00     0.132 C 
ATOM     10  C   UNL A   1      31.989  26.593  23.549  1.00  0.00    -0.019 C 
ATOM     11  C   UNL A   1      32.370  26.131  22.139  1.00  0.00     0.106 C 
ATOM     12  N   UNL A   1      32.696  24.574  24.528  1.00  0.00    -0.289 N 
ATOM     13  S   UNL A   1      32.632  24.334  21.942  1.00  0.00    -0.129 SA
ATOM     14  C   UNL A   1      32.649  23.373  25.114  1.00  0.00     0.253 C 
ATOM     15  C   UNL A   1      33.597  24.227  23.470  1.00  0.00     0.181 C 
ATOM     16  O   UNL A   1      31.992  22.895  26.027  1.00  0.00    -0.272 OA
ATOM     17  C   UNL A   1      33.737  22.823  24.127  1.00  0.00     0.206 C 
BRANCH  10  18
ATOM     18  C   UNL A   1      31.372  27.986  23.532  1.00  0.00     0.111 C 
BRANCH  18  19
ATOM     19  S   UNL A   1      29.548  27.917  23.455  1.00  0.00    -0.089 SA
BRANCH  19  20
ATOM     20  C   UNL A   1      29.199  29.342  22.507  1.00  0.00     0.174 A 
ATOM     21  C   UNL A   1      27.611  32.403  20.833  1.00  0.00     0.081 C 
ATOM     22  C   UNL A   1      28.369  31.246  21.362  1.00  0.00     0.115 A 
ATOM     23  N   UNL A   1      29.473  30.787  20.822  1.00  0.00    -0.143 NA
ATOM     24  S   UNL A   1      27.868  30.389  22.769  1.00  0.00    -0.091 S 
ATOM     25  N   UNL A   1      29.957  29.700  21.500  1.00  0.00    -0.132 NA
ENDBRANCH  19  20
ENDBRANCH  18  19
ENDBRANCH  10  18
BRANCH  17  26
ATOM     26  N   UNL A   1      34.948  22.418  24.906  1.00  0.00    -0.338 N 
ATOM     27  C   UNL A   1      35.419  21.214  25.358  1.00  0.00     0.254 C 
ATOM     28  H   UNL A   1      35.529  23.176  25.144  1.00  0.00     0.164 HD
ATOM     29  O   UNL A   1      36.399  21.161  26.093  1.00  0.00    -0.269 OA
BRANCH  27  30
ATOM     30  C   UNL A   1      34.733  19.972  25.013  1.00  0.00     0.075 A 
ATOM     31  C   UNL A   1      33.340  19.918  25.080  1.00  0.00     0.020 A 
ATOM     32  C   UNL A   1      35.467  18.835  24.683  1.00  0.00     0.138 A 
ATOM     33  C   UNL A   1      32.690  18.744  24.699  1.00  0.00     0.040 A 
ATOM     34  C   UNL A   1      34.825  17.682  24.255  1.00  0.00     0.079 A 
ATOM     35  F   UNL A   1      36.808  18.864  24.687  1.00  0.00    -0.206 F 
ATOM     36  C   UNL A   1      33.437  17.651  24.259  1.00  0.00     0.126 A 
ATOM     37  F   UNL A   1      32.805  16.552  23.831  1.00  0.00    -0.207 F 
ENDBRANCH  27  30
ENDBRANCH  17  26
ENDBRANCH   7   9
ENDBRANCH   6   7
ENDBRANCH   5   6
ENDBRANCH   4   5
ENDBRANCH   3   4
ENDBRANCH   2   3
ENDBRANCH   1   2
BRANCH   1  38
ATOM     38  O   UNL A   1      35.447  33.136  28.706  1.00  0.00    -0.377 OA
BRANCH  38  39
ATOM     39  C   UNL A   1      34.480  34.160  28.501  1.00  0.00     0.188 C 
BRANCH  39  40
ATOM     40  C   UNL A   1      33.626  34.671  29.687  1.00  0.00     0.188 C 
BRANCH  40  41
ATOM     41  O   UNL A   1      33.927  34.084  30.943  1.00  0.00    -0.376 OA
BRANCH  41  42
ATOM     42  C   UNL A   1      34.742  34.812  31.844  1.00  0.00     0.202 C 
BRANCH  42  43
ATOM     43  C   UNL A   1      36.259  34.700  31.655  1.00  0.00     0.261 C 
BRANCH  43  44
ATOM     44  O   UNL A   1      36.958  33.936  32.646  1.00  0.00    -0.460 OA
BRANCH  44  45
ATOM     45  C   UNL A   1      36.560  32.664  32.860  1.00  0.00     0.338 C 
ATOM     46  O   UNL A   1      35.533  32.277  33.381  1.00  0.00    -0.246 OA
BRANCH  45  47
ATOM     47  C   UNL A   1      37.540  31.800  32.178  1.00  0.00     0.060 A 
ATOM     48  C   UNL A   1      38.193  30.785  32.892  1.00  0.00     0.016 A 
ATOM     49  C   UNL A   1      37.777  31.983  30.815  1.00  0.00     0.016 A 
ATOM     50  C   UNL A   1      39.109  29.958  32.242  1.00  0.00     0.010 A 
ATOM     51  C   UNL A   1      38.714  31.180  30.175  1.00  0.00     0.010 A 
ATOM     52  C   UNL A   1      39.405  30.188  30.893  1.00  0.00    -0.014 A 
BRANCH  52  53
ATOM     53  C   UNL A   1      40.608  29.594  30.273  1.00  0.00     0.031 A 
ATOM     54  C   UNL A   1      41.801  30.488  30.094  1.00  0.00     0.074 A 
ATOM     55  C   UNL A   1      40.621  28.329  29.824  1.00  0.00     0.049 A 
ATOM     56  N   UNL A   1      42.891  30.293  29.404  1.00  0.00    -0.248 NA
ATOM     57  C   UNL A   1      41.743  31.791  30.781  1.00  0.00     0.031 C 
ATOM     58  C   UNL A   1      39.547  27.354  29.995  1.00  0.00     0.029 A 
ATOM     59  N   UNL A   1      41.575  27.660  29.099  1.00  0.00    -0.354 N 
ATOM     60  C   UNL A   1      43.640  31.453  29.559  1.00  0.00     0.074 A 
ATOM     61  C   UNL A   1      42.875  32.353  30.390  1.00  0.00     0.031 C 
ATOM     62  C   UNL A   1      39.890  26.216  29.365  1.00  0.00     0.029 A 
ATOM     63  C   UNL A   1      41.183  26.403  28.708  1.00  0.00     0.049 A 
ATOM     64  H   UNL A   1      42.456  28.043  28.882  1.00  0.00     0.167 HD
ATOM     65  C   UNL A   1      44.860  31.740  29.049  1.00  0.00     0.037 A 
ATOM     66  C   UNL A   1      41.788  25.529  27.879  1.00  0.00     0.037 A 
ATOM     67  C   UNL A   1      45.604  30.842  28.211  1.00  0.00     0.049 A 
ATOM     68  C   UNL A   1      43.103  25.908  27.243  1.00  0.00     0.074 A 
ATOM     69  C   UNL A   1      46.844  31.035  27.629  1.00  0.00     0.029 A 
ATOM     70  N   UNL A   1      45.172  29.581  27.833  1.00  0.00    -0.354 N 
ATOM     71  N   UNL A   1      43.807  27.005  27.387  1.00  0.00    -0.248 NA
ATOM     72  C   UNL A   1      43.704  24.931  26.324  1.00  0.00     0.031 C 
ATOM     73  C   UNL A   1      47.141  29.906  26.860  1.00  0.00     0.029 A 
ATOM     74  C   UNL A   1      46.114  28.988  27.012  1.00  0.00     0.049 A 
ATOM     75  H   UNL A   1      44.320  29.169  28.106  1.00  0.00     0.167 HD
ATOM     76  C   UNL A   1      44.952  26.830  26.619  1.00  0.00     0.074 A 
ATOM     77  C   UNL A   1      44.845  25.524  26.002  1.00  0.00     0.031 C 
ATOM     78  C   UNL A   1      46.001  27.669  26.444  1.00  0.00     0.037 A 
BRANCH  65  79
ATOM     79  C   UNL A   1      45.438  33.087  29.359  1.00  0.00     0.057 A 
ATOM     80  C   UNL A   1      45.172  34.207  28.560  1.00  0.00     0.134 A 
ATOM     81  C   UNL A   1      46.259  33.270  30.478  1.00  0.00     0.134 A 
ATOM     82  F   UNL A   1      44.412  34.094  27.461  1.00  0.00    -0.206 F 
ATOM     83  C   UNL A   1      45.717  35.458  28.855  1.00  0.00     0.040 A 
ATOM     84  C   UNL A   1      46.787  34.521  30.798  1.00  0.00     0.040 A 
ATOM     85  F   UNL A   1      46.556  32.237  31.282  1.00  0.00    -0.206 F 
ATOM     86  C   UNL A   1      46.521  35.618  29.982  1.00  0.00     0.006 A 
ENDBRANCH  65  79
BRANCH  66  87
ATOM     87  C   UNL A   1      41.153  24.221  27.575  1.00  0.00     0.057 A 
ATOM     88  C   UNL A   1      41.611  23.041  28.174  1.00  0.00     0.134 A 
ATOM     89  C   UNL A   1      40.104  24.110  26.655  1.00  0.00     0.134 A 
ATOM     90  F   UNL A   1      42.630  23.078  29.044  1.00  0.00    -0.206 F 
ATOM     91  C   UNL A   1      41.064  21.796  27.854  1.00  0.00     0.040 A 
ATOM     92  C   UNL A   1      39.530  22.875  26.345  1.00  0.00     0.040 A 
ATOM     93  F   UNL A   1      39.618  25.200  26.044  1.00  0.00    -0.206 F 
ATOM     94  C   UNL A   1      40.016  21.713  26.939  1.00  0.00     0.006 A 
ENDBRANCH  66  87
BRANCH  78  95
ATOM     95  C   UNL A   1      47.160  27.183  25.624  1.00  0.00     0.057 A 
ATOM     96  C   UNL A   1      47.294  27.490  24.266  1.00  0.00     0.134 A 
ATOM     97  C   UNL A   1      48.204  26.473  26.236  1.00  0.00     0.134 A 
ATOM     98  F   UNL A   1      46.325  28.157  23.620  1.00  0.00    -0.206 F 
ATOM     99  C   UNL A   1      48.423  27.103  23.542  1.00  0.00     0.040 A 
ATOM    100  C   UNL A   1      49.347  26.105  25.530  1.00  0.00     0.040 A 
ATOM    101  F   UNL A   1      48.140  26.159  27.539  1.00  0.00    -0.206 F 
ATOM    102  C   UNL A   1      49.459  26.419  24.176  1.00  0.00     0.006 A 
ENDBRANCH  78  95
ENDBRANCH  52  53
ENDBRANCH  45  47
ENDBRANCH  44  45
ENDBRANCH  43  44
ENDBRANCH  42  43
ENDBRANCH  41  42
ENDBRANCH  40  41
ENDBRANCH  39  40
ENDBRANCH  38  39
ENDBRANCH   1  38
TORSDOF 25
ENDMDL
