MODEL 1
REMARK VINA RESULT:      -8.4      0.000      0.000
REMARK SMILES CC(C)CN(C)c1cc2c(cc1Cl)C=C(C(=O)OCCOCCOCCOCCOC(=O)c1ccc(-c3c4nc(c(-c5c(F)cccc5F)c5ccc([nH]5)c(-c5c(F)cccc5F)c5nc(c(-c6c(F)cccc6F)c6ccc3[nH]6)C=C5)C=C4)cc1)[C@@H](C(F)(F)F)O2
REMARK SMILES IDX 23 1 22 2 21 3 20 4 19 5 18 6 16 7 17 8 15 9 7 10 8 11 12 12
REMARK SMILES IDX 9 13 11 14 13 15 10 16 92 17 14 18 87 19 5 20 6 21 4 22 2 23
REMARK SMILES IDX 1 24 3 25 88 26 89 27 90 28 91 29 24 30 25 31 26 32 27 33
REMARK SMILES IDX 28 34 29 35 30 36 31 37 32 38 33 39 34 40 86 41 35 42 85 43
REMARK SMILES IDX 36 44 37 45 38 46 79 47 39 48 84 49 78 50 80 51 40 52 83 53
REMARK SMILES IDX 77 54 76 55 41 57 67 58 50 59 66 60 51 61 54 62 65 63 81 64
REMARK SMILES IDX 52 65 53 66 64 68 82 69 55 70 42 71 43 72 48 73 44 74 45 75
REMARK SMILES IDX 47 76 49 77 46 78 68 79 69 80 74 81 70 82 71 83 73 84 75 85
REMARK SMILES IDX 72 86 56 87 57 88 62 89 58 90 59 91 61 92 63 93 60 94
REMARK H PARENT 80 56 54 67
REMARK Flexibility Score: inf
ROOT
ATOM      1  C   UNL A   1      44.195  39.968  26.916  1.00  0.00     0.188 C 
ENDROOT
BRANCH   1   2
ATOM      2  C   UNL A   1      43.884  41.467  26.768  1.00  0.00     0.188 C 
BRANCH   2   3
ATOM      3  O   UNL A   1      45.055  42.275  26.665  1.00  0.00    -0.376 OA
BRANCH   3   4
ATOM      4  C   UNL A   1      44.870  43.681  26.571  1.00  0.00     0.202 C 
BRANCH   4   5
ATOM      5  C   UNL A   1      45.274  44.350  25.245  1.00  0.00     0.261 C 
BRANCH   5   6
ATOM      6  O   UNL A   1      44.305  44.240  24.190  1.00  0.00    -0.460 OA
BRANCH   6   7
ATOM      7  C   UNL A   1      44.480  43.228  23.323  1.00  0.00     0.338 C 
ATOM      8  O   UNL A   1      44.337  42.040  23.561  1.00  0.00    -0.246 OA
BRANCH   7   9
ATOM      9  C   UNL A   1      44.718  43.781  21.973  1.00  0.00     0.087 C 
ATOM     10  C   UNL A   1      45.535  46.926  18.128  1.00  0.00     0.059 A 
ATOM     11  C   UNL A   1      45.252  45.546  18.223  1.00  0.00     0.074 A 
ATOM     12  C   UNL A   1      45.733  47.625  19.339  1.00  0.00     0.065 A 
ATOM     13  C   UNL A   1      45.153  44.904  19.468  1.00  0.00     0.130 A 
ATOM     14  C   UNL A   1      45.748  46.963  20.567  1.00  0.00     0.034 A 
ATOM     15  Cl  UNL A   1      45.841  49.351  19.423  1.00  0.00    -0.082 Cl
ATOM     16  C   UNL A   1      45.433  45.610  20.635  1.00  0.00     0.019 A 
ATOM     17  O   UNL A   1      44.773  43.588  19.478  1.00  0.00    -0.475 OA
ATOM     18  C   UNL A   1      45.314  44.976  21.931  1.00  0.00     0.027 C 
ATOM     19  C   UNL A   1      44.288  43.026  20.741  1.00  0.00     0.316 C 
BRANCH  10  20
ATOM     20  N   UNL A   1      45.554  47.575  16.888  1.00  0.00    -0.373 N 
ATOM     21  C   UNL A   1      46.866  48.027  16.433  1.00  0.00     0.143 C 
BRANCH  20  22
ATOM     22  C   UNL A   1      44.386  48.382  16.478  1.00  0.00     0.119 C 
BRANCH  22  23
ATOM     23  C   UNL A   1      43.107  48.036  17.269  1.00  0.00     0.002 C 
ATOM     24  C   UNL A   1      42.603  49.231  18.083  1.00  0.00     0.009 C 
ATOM     25  C   UNL A   1      41.979  47.545  16.356  1.00  0.00     0.009 C 
ENDBRANCH  22  23
ENDBRANCH  20  22
ENDBRANCH  10  20
BRANCH  19  26
ATOM     26  C   UNL A   1      42.763  42.862  20.699  1.00  0.00     0.430 C 
ATOM     27  F   UNL A   1      42.297  42.852  19.428  1.00  0.00    -0.167 F 
ATOM     28  F   UNL A   1      42.374  41.694  21.266  1.00  0.00    -0.167 F 
ATOM     29  F   UNL A   1      42.127  43.857  21.358  1.00  0.00    -0.167 F 
ENDBRANCH  19  26
ENDBRANCH   7   9
ENDBRANCH   6   7
ENDBRANCH   5   6
ENDBRANCH   4   5
ENDBRANCH   3   4
ENDBRANCH   2   3
ENDBRANCH   1   2
BRANCH   1  30
ATOM     30  O   UNL A   1      45.567  39.655  26.739  1.00  0.00    -0.377 OA
BRANCH  30  31
ATOM     31  C   UNL A   1      45.925  38.284  26.559  1.00  0.00     0.188 C 
BRANCH  31  32
ATOM     32  C   UNL A   1      47.091  37.618  27.328  1.00  0.00     0.188 C 
BRANCH  32  33
ATOM     33  O   UNL A   1      47.040  36.196  27.349  1.00  0.00    -0.376 OA
BRANCH  33  34
ATOM     34  C   UNL A   1      47.785  35.515  26.348  1.00  0.00     0.202 C 
BRANCH  34  35
ATOM     35  C   UNL A   1      46.918  34.700  25.380  1.00  0.00     0.261 C 
BRANCH  35  36
ATOM     36  O   UNL A   1      45.519  35.023  25.396  1.00  0.00    -0.460 OA
BRANCH  36  37
ATOM     37  C   UNL A   1      44.647  34.036  25.699  1.00  0.00     0.338 C 
ATOM     38  O   UNL A   1      44.366  33.063  25.022  1.00  0.00    -0.246 OA
BRANCH  37  39
ATOM     39  C   UNL A   1      44.232  34.235  27.103  1.00  0.00     0.060 A 
ATOM     40  C   UNL A   1      43.729  35.470  27.520  1.00  0.00     0.016 A 
ATOM     41  C   UNL A   1      44.388  33.187  28.020  1.00  0.00     0.016 A 
ATOM     42  C   UNL A   1      43.349  35.647  28.850  1.00  0.00     0.010 A 
ATOM     43  C   UNL A   1      44.015  33.368  29.354  1.00  0.00     0.010 A 
ATOM     44  C   UNL A   1      43.468  34.591  29.770  1.00  0.00    -0.014 A 
BRANCH  44  45
ATOM     45  C   UNL A   1      42.839  34.718  31.107  1.00  0.00     0.031 A 
ATOM     46  C   UNL A   1      41.401  34.381  31.351  1.00  0.00     0.074 A 
ATOM     47  C   UNL A   1      43.618  35.145  32.119  1.00  0.00     0.049 A 
ATOM     48  N   UNL A   1      40.745  34.370  32.485  1.00  0.00    -0.248 NA
ATOM     49  C   UNL A   1      40.594  34.013  30.181  1.00  0.00     0.031 C 
ATOM     50  C   UNL A   1      45.027  35.527  31.990  1.00  0.00     0.029 A 
ATOM     51  N   UNL A   1      43.343  35.325  33.449  1.00  0.00    -0.354 N 
ATOM     52  C   UNL A   1      39.455  33.961  32.174  1.00  0.00     0.074 A 
ATOM     53  C   UNL A   1      39.409  33.785  30.736  1.00  0.00     0.031 C 
ATOM     54  C   UNL A   1      45.495  35.883  33.196  1.00  0.00     0.029 A 
ATOM     55  C   UNL A   1      44.419  35.774  34.174  1.00  0.00     0.049 A 
ATOM     56  H   UNL A   1      42.459  35.150  33.846  1.00  0.00     0.167 HD
ATOM     57  C   UNL A   1      38.417  33.733  33.017  1.00  0.00     0.037 A 
ATOM     58  C   UNL A   1      44.525  36.069  35.482  1.00  0.00     0.037 A 
ATOM     59  C   UNL A   1      38.460  33.944  34.444  1.00  0.00     0.049 A 
ATOM     60  C   UNL A   1      43.335  35.871  36.376  1.00  0.00     0.074 A 
ATOM     61  C   UNL A   1      37.461  33.727  35.380  1.00  0.00     0.029 A 
ATOM     62  N   UNL A   1      39.555  34.433  35.141  1.00  0.00    -0.354 N 
ATOM     63  N   UNL A   1      42.145  35.409  36.081  1.00  0.00    -0.248 NA
ATOM     64  C   UNL A   1      43.509  36.230  37.790  1.00  0.00     0.031 C 
ATOM     65  C   UNL A   1      37.938  34.126  36.634  1.00  0.00     0.029 A 
ATOM     66  C   UNL A   1      39.248  34.548  36.489  1.00  0.00     0.049 A 
ATOM     67  H   UNL A   1      40.423  34.666  34.738  1.00  0.00     0.167 HD
ATOM     68  C   UNL A   1      41.438  35.396  37.275  1.00  0.00     0.074 A 
ATOM     69  C   UNL A   1      42.341  35.873  38.303  1.00  0.00     0.031 C 
ATOM     70  C   UNL A   1      40.154  35.026  37.502  1.00  0.00     0.037 A 
BRANCH  57  71
ATOM     71  C   UNL A   1      37.140  33.213  32.422  1.00  0.00     0.057 A 
ATOM     72  C   UNL A   1      37.009  31.870  32.048  1.00  0.00     0.134 A 
ATOM     73  C   UNL A   1      36.064  34.068  32.149  1.00  0.00     0.134 A 
ATOM     74  F   UNL A   1      38.006  31.000  32.270  1.00  0.00    -0.206 F 
ATOM     75  C   UNL A   1      35.856  31.397  31.415  1.00  0.00     0.040 A 
ATOM     76  C   UNL A   1      34.898  33.603  31.537  1.00  0.00     0.040 A 
ATOM     77  F   UNL A   1      36.125  35.365  32.484  1.00  0.00    -0.206 F 
ATOM     78  C   UNL A   1      34.796  32.265  31.162  1.00  0.00     0.006 A 
ENDBRANCH  57  71
BRANCH  58  79
ATOM     79  C   UNL A   1      45.806  36.576  36.033  1.00  0.00     0.057 A 
ATOM     80  C   UNL A   1      46.088  37.946  36.069  1.00  0.00     0.134 A 
ATOM     81  C   UNL A   1      46.755  35.704  36.577  1.00  0.00     0.134 A 
ATOM     82  F   UNL A   1      45.222  38.831  35.554  1.00  0.00    -0.206 F 
ATOM     83  C   UNL A   1      47.265  38.433  36.636  1.00  0.00     0.040 A 
ATOM     84  C   UNL A   1      47.924  36.179  37.173  1.00  0.00     0.040 A 
ATOM     85  F   UNL A   1      46.531  34.381  36.585  1.00  0.00    -0.206 F 
ATOM     86  C   UNL A   1      48.181  37.548  37.202  1.00  0.00     0.006 A 
ENDBRANCH  58  79
BRANCH  70  87
ATOM     87  C   UNL A   1      39.669  35.101  38.921  1.00  0.00     0.057 A 
ATOM     88  C   UNL A   1      39.666  33.963  39.738  1.00  0.00     0.134 A 
ATOM     89  C   UNL A   1      39.211  36.300  39.482  1.00  0.00     0.134 A 
ATOM     90  F   UNL A   1      40.087  32.781  39.262  1.00  0.00    -0.206 F 
ATOM     91  C   UNL A   1      39.228  34.017  41.062  1.00  0.00     0.040 A 
ATOM     92  C   UNL A   1      38.798  36.372  40.814  1.00  0.00     0.040 A 
ATOM     93  F   UNL A   1      39.206  37.431  38.759  1.00  0.00    -0.206 F 
ATOM     94  C   UNL A   1      38.803  35.227  41.606  1.00  0.00     0.006 A 
ENDBRANCH  70  87
ENDBRANCH  44  45
ENDBRANCH  37  39
ENDBRANCH  36  37
ENDBRANCH  35  36
ENDBRANCH  34  35
ENDBRANCH  33  34
ENDBRANCH  32  33
ENDBRANCH  31  32
ENDBRANCH  30  31
ENDBRANCH   1  30
TORSDOF 24
ENDMDL
MODEL 2
REMARK VINA RESULT:      -8.2      8.424     15.370
REMARK SMILES CC(C)CN(C)c1cc2c(cc1Cl)C=C(C(=O)OCCOCCOCCOCCOC(=O)c1ccc(-c3c4nc(c(-c5c(F)cccc5F)c5ccc([nH]5)c(-c5c(F)cccc5F)c5nc(c(-c6c(F)cccc6F)c6ccc3[nH]6)C=C5)C=C4)cc1)[C@@H](C(F)(F)F)O2
REMARK SMILES IDX 23 1 22 2 21 3 20 4 19 5 18 6 16 7 17 8 15 9 7 10 8 11 12 12
REMARK SMILES IDX 9 13 11 14 13 15 10 16 92 17 14 18 87 19 5 20 6 21 4 22 2 23
REMARK SMILES IDX 1 24 3 25 88 26 89 27 90 28 91 29 24 30 25 31 26 32 27 33
REMARK SMILES IDX 28 34 29 35 30 36 31 37 32 38 33 39 34 40 86 41 35 42 85 43
REMARK SMILES IDX 36 44 37 45 38 46 79 47 39 48 84 49 78 50 80 51 40 52 83 53
REMARK SMILES IDX 77 54 76 55 41 57 67 58 50 59 66 60 51 61 54 62 65 63 81 64
REMARK SMILES IDX 52 65 53 66 64 68 82 69 55 70 42 71 43 72 48 73 44 74 45 75
REMARK SMILES IDX 47 76 49 77 46 78 68 79 69 80 74 81 70 82 71 83 73 84 75 85
REMARK SMILES IDX 72 86 56 87 57 88 62 89 58 90 59 91 61 92 63 93 60 94
REMARK H PARENT 80 56 54 67
REMARK Flexibility Score: inf
ROOT
ATOM      1  C   UNL A   1      36.697  30.712  28.481  1.00  0.00     0.188 C 
ENDROOT
BRANCH   1   2
ATOM      2  C   UNL A   1      36.176  32.082  28.014  1.00  0.00     0.188 C 
BRANCH   2   3
ATOM      3  O   UNL A   1      34.801  32.061  27.637  1.00  0.00    -0.376 OA
BRANCH   3   4
ATOM      4  C   UNL A   1      34.065  33.268  27.787  1.00  0.00     0.202 C 
BRANCH   4   5
ATOM      5  C   UNL A   1      34.851  34.512  28.238  1.00  0.00     0.261 C 
BRANCH   5   6
ATOM      6  O   UNL A   1      34.063  35.530  28.873  1.00  0.00    -0.460 OA
BRANCH   6   7
ATOM      7  C   UNL A   1      33.431  35.175  30.006  1.00  0.00     0.338 C 
ATOM      8  O   UNL A   1      32.238  34.952  30.127  1.00  0.00    -0.246 OA
BRANCH   7   9
ATOM      9  C   UNL A   1      34.433  34.934  31.065  1.00  0.00     0.087 C 
ATOM     10  C   UNL A   1      37.584  32.714  34.302  1.00  0.00     0.059 A 
ATOM     11  C   UNL A   1      37.139  34.042  34.121  1.00  0.00     0.074 A 
ATOM     12  C   UNL A   1      37.163  31.760  33.350  1.00  0.00     0.065 A 
ATOM     13  C   UNL A   1      36.300  34.391  33.052  1.00  0.00     0.130 A 
ATOM     14  C   UNL A   1      36.424  32.132  32.227  1.00  0.00     0.034 A 
ATOM     15  Cl  UNL A   1      37.404  30.058  33.552  1.00  0.00    -0.082 Cl
ATOM     16  C   UNL A   1      35.971  33.440  32.090  1.00  0.00     0.019 A 
ATOM     17  O   UNL A   1      35.828  35.677  33.006  1.00  0.00    -0.475 OA
ATOM     18  C   UNL A   1      35.087  33.771  30.992  1.00  0.00     0.027 C 
ATOM     19  C   UNL A   1      34.668  35.949  32.153  1.00  0.00     0.316 C 
BRANCH  10  20
ATOM     20  N   UNL A   1      38.357  32.357  35.415  1.00  0.00    -0.373 N 
ATOM     21  C   UNL A   1      37.963  32.972  36.679  1.00  0.00     0.143 C 
BRANCH  20  22
ATOM     22  C   UNL A   1      39.793  32.061  35.230  1.00  0.00     0.119 C 
BRANCH  22  23
ATOM     23  C   UNL A   1      40.456  32.939  34.148  1.00  0.00     0.002 C 
ATOM     24  C   UNL A   1      41.161  34.154  34.758  1.00  0.00     0.009 C 
ATOM     25  C   UNL A   1      41.462  32.153  33.303  1.00  0.00     0.009 C 
ENDBRANCH  22  23
ENDBRANCH  20  22
ENDBRANCH  10  20
BRANCH  19  26
ATOM     26  C   UNL A   1      33.411  36.138  33.013  1.00  0.00     0.430 C 
ATOM     27  F   UNL A   1      33.713  36.613  34.244  1.00  0.00    -0.167 F 
ATOM     28  F   UNL A   1      32.556  37.027  32.452  1.00  0.00    -0.167 F 
ATOM     29  F   UNL A   1      32.731  34.980  33.179  1.00  0.00    -0.167 F 
ENDBRANCH  19  26
ENDBRANCH   7   9
ENDBRANCH   6   7
ENDBRANCH   5   6
ENDBRANCH   4   5
ENDBRANCH   3   4
ENDBRANCH   2   3
ENDBRANCH   1   2
BRANCH   1  30
ATOM     30  O   UNL A   1      37.775  30.800  29.399  1.00  0.00    -0.377 OA
BRANCH  30  31
ATOM     31  C   UNL A   1      38.430  29.590  29.783  1.00  0.00     0.188 C 
BRANCH  31  32
ATOM     32  C   UNL A   1      39.759  29.122  29.143  1.00  0.00     0.188 C 
BRANCH  32  33
ATOM     33  O   UNL A   1      39.850  27.715  28.951  1.00  0.00    -0.376 OA
BRANCH  33  34
ATOM     34  C   UNL A   1      39.394  27.209  27.703  1.00  0.00     0.202 C 
BRANCH  34  35
ATOM     35  C   UNL A   1      39.365  25.678  27.631  1.00  0.00     0.261 C 
BRANCH  35  36
ATOM     36  O   UNL A   1      40.395  25.013  28.379  1.00  0.00    -0.460 OA
BRANCH  36  37
ATOM     37  C   UNL A   1      41.324  24.314  27.690  1.00  0.00     0.338 C 
ATOM     38  O   UNL A   1      41.196  23.218  27.177  1.00  0.00    -0.246 OA
BRANCH  37  39
ATOM     39  C   UNL A   1      42.483  25.210  27.489  1.00  0.00     0.060 A 
ATOM     40  C   UNL A   1      42.933  25.500  26.198  1.00  0.00     0.016 A 
ATOM     41  C   UNL A   1      43.151  25.728  28.606  1.00  0.00     0.016 A 
ATOM     42  C   UNL A   1      44.033  26.340  26.024  1.00  0.00     0.010 A 
ATOM     43  C   UNL A   1      44.258  26.562  28.431  1.00  0.00     0.010 A 
ATOM     44  C   UNL A   1      44.688  26.894  27.137  1.00  0.00    -0.014 A 
BRANCH  44  45
ATOM     45  C   UNL A   1      45.691  27.966  26.929  1.00  0.00     0.031 A 
ATOM     46  C   UNL A   1      45.319  29.415  26.891  1.00  0.00     0.074 A 
ATOM     47  C   UNL A   1      46.976  27.591  26.783  1.00  0.00     0.049 A 
ATOM     48  N   UNL A   1      46.104  30.460  26.797  1.00  0.00    -0.248 NA
ATOM     49  C   UNL A   1      43.888  29.739  26.964  1.00  0.00     0.031 C 
ATOM     50  C   UNL A   1      47.451  26.204  26.779  1.00  0.00     0.029 A 
ATOM     51  N   UNL A   1      48.115  28.334  26.618  1.00  0.00    -0.354 N 
ATOM     52  C   UNL A   1      45.270  31.569  26.833  1.00  0.00     0.074 A 
ATOM     53  C   UNL A   1      43.912  31.066  26.905  1.00  0.00     0.031 C 
ATOM     54  C   UNL A   1      48.784  26.199  26.631  1.00  0.00     0.029 A 
ATOM     55  C   UNL A   1      49.254  27.574  26.511  1.00  0.00     0.049 A 
ATOM     56  H   UNL A   1      48.117  29.318  26.578  1.00  0.00     0.167 HD
ATOM     57  C   UNL A   1      45.612  32.882  26.830  1.00  0.00     0.037 A 
ATOM     58  C   UNL A   1      50.534  27.945  26.334  1.00  0.00     0.037 A 
ATOM     59  C   UNL A   1      46.964  33.375  26.724  1.00  0.00     0.049 A 
ATOM     60  C   UNL A   1      50.870  29.408  26.265  1.00  0.00     0.074 A 
ATOM     61  C   UNL A   1      47.407  34.688  26.727  1.00  0.00     0.029 A 
ATOM     62  N   UNL A   1      48.090  32.578  26.583  1.00  0.00    -0.354 N 
ATOM     63  N   UNL A   1      50.079  30.445  26.380  1.00  0.00    -0.248 NA
ATOM     64  C   UNL A   1      52.283  29.747  26.049  1.00  0.00     0.031 C 
ATOM     65  C   UNL A   1      48.795  34.685  26.543  1.00  0.00     0.029 A 
ATOM     66  C   UNL A   1      49.223  33.371  26.472  1.00  0.00     0.049 A 
ATOM     67  H   UNL A   1      48.086  31.593  26.563  1.00  0.00     0.167 HD
ATOM     68  C   UNL A   1      50.901  31.559  26.278  1.00  0.00     0.074 A 
ATOM     69  C   UNL A   1      52.254  31.070  26.117  1.00  0.00     0.031 C 
ATOM     70  C   UNL A   1      50.564  32.872  26.311  1.00  0.00     0.037 A 
BRANCH  57  71
ATOM     71  C   UNL A   1      44.505  33.888  26.961  1.00  0.00     0.057 A 
ATOM     72  C   UNL A   1      44.019  34.273  28.216  1.00  0.00     0.134 A 
ATOM     73  C   UNL A   1      43.867  34.417  25.831  1.00  0.00     0.134 A 
ATOM     74  F   UNL A   1      44.576  33.794  29.339  1.00  0.00    -0.206 F 
ATOM     75  C   UNL A   1      42.933  35.143  28.343  1.00  0.00     0.040 A 
ATOM     76  C   UNL A   1      42.795  35.305  25.945  1.00  0.00     0.040 A 
ATOM     77  F   UNL A   1      44.285  34.090  24.599  1.00  0.00    -0.206 F 
ATOM     78  C   UNL A   1      42.320  35.663  27.205  1.00  0.00     0.006 A 
ENDBRANCH  57  71
BRANCH  58  79
ATOM     79  C   UNL A   1      51.600  26.921  26.215  1.00  0.00     0.057 A 
ATOM     80  C   UNL A   1      51.909  26.335  24.982  1.00  0.00     0.134 A 
ATOM     81  C   UNL A   1      52.364  26.539  27.323  1.00  0.00     0.134 A 
ATOM     82  F   UNL A   1      51.205  26.651  23.886  1.00  0.00    -0.206 F 
ATOM     83  C   UNL A   1      52.946  25.411  24.853  1.00  0.00     0.040 A 
ATOM     84  C   UNL A   1      53.423  25.639  27.203  1.00  0.00     0.040 A 
ATOM     85  F   UNL A   1      52.125  27.081  28.527  1.00  0.00    -0.206 F 
ATOM     86  C   UNL A   1      53.716  25.072  25.965  1.00  0.00     0.006 A 
ENDBRANCH  58  79
BRANCH  70  87
ATOM     87  C   UNL A   1      51.689  33.861  26.196  1.00  0.00     0.057 A 
ATOM     88  C   UNL A   1      52.281  34.408  27.341  1.00  0.00     0.134 A 
ATOM     89  C   UNL A   1      52.190  34.268  24.952  1.00  0.00     0.134 A 
ATOM     90  F   UNL A   1      51.846  34.065  28.564  1.00  0.00    -0.206 F 
ATOM     91  C   UNL A   1      53.333  35.320  27.253  1.00  0.00     0.040 A 
ATOM     92  C   UNL A   1      53.261  35.157  24.853  1.00  0.00     0.040 A 
ATOM     93  F   UNL A   1      51.679  33.767  23.817  1.00  0.00    -0.206 F 
ATOM     94  C   UNL A   1      53.834  35.689  26.006  1.00  0.00     0.006 A 
ENDBRANCH  70  87
ENDBRANCH  44  45
ENDBRANCH  37  39
ENDBRANCH  36  37
ENDBRANCH  35  36
ENDBRANCH  34  35
ENDBRANCH  33  34
ENDBRANCH  32  33
ENDBRANCH  31  32
ENDBRANCH  30  31
ENDBRANCH   1  30
TORSDOF 24
ENDMDL
MODEL 3
REMARK VINA RESULT:      -8.1      0.411      5.852
REMARK SMILES CC(C)CN(C)c1cc2c(cc1Cl)C=C(C(=O)OCCOCCOCCOCCOC(=O)c1ccc(-c3c4nc(c(-c5c(F)cccc5F)c5ccc([nH]5)c(-c5c(F)cccc5F)c5nc(c(-c6c(F)cccc6F)c6ccc3[nH]6)C=C5)C=C4)cc1)[C@@H](C(F)(F)F)O2
REMARK SMILES IDX 23 1 22 2 21 3 20 4 19 5 18 6 16 7 17 8 15 9 7 10 8 11 12 12
REMARK SMILES IDX 9 13 11 14 13 15 10 16 92 17 14 18 87 19 5 20 6 21 4 22 2 23
REMARK SMILES IDX 1 24 3 25 88 26 89 27 90 28 91 29 24 30 25 31 26 32 27 33
REMARK SMILES IDX 28 34 29 35 30 36 31 37 32 38 33 39 34 40 86 41 35 42 85 43
REMARK SMILES IDX 36 44 37 45 38 46 79 47 39 48 84 49 78 50 80 51 40 52 83 53
REMARK SMILES IDX 77 54 76 55 41 57 67 58 50 59 66 60 51 61 54 62 65 63 81 64
REMARK SMILES IDX 52 65 53 66 64 68 82 69 55 70 42 71 43 72 48 73 44 74 45 75
REMARK SMILES IDX 47 76 49 77 46 78 68 79 69 80 74 81 70 82 71 83 73 84 75 85
REMARK SMILES IDX 72 86 56 87 57 88 62 89 58 90 59 91 61 92 63 93 60 94
REMARK H PARENT 80 56 54 67
REMARK Flexibility Score: inf
ROOT
ATOM      1  C   UNL A   1      44.121  39.895  26.908  1.00  0.00     0.188 C 
ENDROOT
BRANCH   1   2
ATOM      2  C   UNL A   1      43.811  41.391  26.724  1.00  0.00     0.188 C 
BRANCH   2   3
ATOM      3  O   UNL A   1      44.981  42.192  26.575  1.00  0.00    -0.376 OA
BRANCH   3   4
ATOM      4  C   UNL A   1      44.803  43.601  26.509  1.00  0.00     0.202 C 
BRANCH   4   5
ATOM      5  C   UNL A   1      45.223  44.295  25.202  1.00  0.00     0.261 C 
BRANCH   5   6
ATOM      6  O   UNL A   1      44.287  44.168  24.119  1.00  0.00    -0.460 OA
BRANCH   6   7
ATOM      7  C   UNL A   1      44.527  43.182  23.237  1.00  0.00     0.338 C 
ATOM      8  O   UNL A   1      44.459  41.985  23.456  1.00  0.00    -0.246 OA
BRANCH   7   9
ATOM      9  C   UNL A   1      44.731  43.770  21.896  1.00  0.00     0.087 C 
ATOM     10  C   UNL A   1      45.514  47.008  18.122  1.00  0.00     0.059 A 
ATOM     11  C   UNL A   1      45.179  45.637  18.185  1.00  0.00     0.074 A 
ATOM     12  C   UNL A   1      45.789  47.658  19.345  1.00  0.00     0.065 A 
ATOM     13  C   UNL A   1      45.107  44.959  19.412  1.00  0.00     0.130 A 
ATOM     14  C   UNL A   1      45.828  46.955  20.549  1.00  0.00     0.034 A 
ATOM     15  Cl  UNL A   1      45.968  49.375  19.478  1.00  0.00    -0.082 Cl
ATOM     16  C   UNL A   1      45.462  45.614  20.587  1.00  0.00     0.019 A 
ATOM     17  O   UNL A   1      44.676  43.658  19.396  1.00  0.00    -0.475 OA
ATOM     18  C   UNL A   1      45.372  44.942  21.866  1.00  0.00     0.027 C 
ATOM     19  C   UNL A   1      44.221  43.074  20.661  1.00  0.00     0.316 C 
BRANCH  10  20
ATOM     20  N   UNL A   1      45.507  47.696  16.902  1.00  0.00    -0.373 N 
ATOM     21  C   UNL A   1      46.807  48.180  16.445  1.00  0.00     0.143 C 
BRANCH  20  22
ATOM     22  C   UNL A   1      44.324  48.502  16.535  1.00  0.00     0.119 C 
BRANCH  22  23
ATOM     23  C   UNL A   1      43.083  48.176  17.393  1.00  0.00     0.002 C 
ATOM     24  C   UNL A   1      42.653  49.373  18.245  1.00  0.00     0.009 C 
ATOM     25  C   UNL A   1      41.895  47.721  16.539  1.00  0.00     0.009 C 
ENDBRANCH  22  23
ENDBRANCH  20  22
ENDBRANCH  10  20
BRANCH  19  26
ATOM     26  C   UNL A   1      42.690  42.970  20.678  1.00  0.00     0.430 C 
ATOM     27  F   UNL A   1      42.171  43.035  19.429  1.00  0.00    -0.167 F 
ATOM     28  F   UNL A   1      42.279  41.793  21.210  1.00  0.00    -0.167 F 
ATOM     29  F   UNL A   1      42.122  43.958  21.406  1.00  0.00    -0.167 F 
ENDBRANCH  19  26
ENDBRANCH   7   9
ENDBRANCH   6   7
ENDBRANCH   5   6
ENDBRANCH   4   5
ENDBRANCH   3   4
ENDBRANCH   2   3
ENDBRANCH   1   2
BRANCH   1  30
ATOM     30  O   UNL A   1      45.493  39.578  26.741  1.00  0.00    -0.377 OA
BRANCH  30  31
ATOM     31  C   UNL A   1      45.844  38.211  26.521  1.00  0.00     0.188 C 
BRANCH  31  32
ATOM     32  C   UNL A   1      47.019  37.522  27.255  1.00  0.00     0.188 C 
BRANCH  32  33
ATOM     33  O   UNL A   1      46.990  36.100  27.199  1.00  0.00    -0.376 OA
BRANCH  33  34
ATOM     34  C   UNL A   1      47.668  35.489  26.109  1.00  0.00     0.202 C 
BRANCH  34  35
ATOM     35  C   UNL A   1      46.741  34.736  25.149  1.00  0.00     0.261 C 
BRANCH  35  36
ATOM     36  O   UNL A   1      45.337  34.957  25.358  1.00  0.00    -0.460 OA
BRANCH  36  37
ATOM     37  C   UNL A   1      44.572  33.893  25.686  1.00  0.00     0.338 C 
ATOM     38  O   UNL A   1      44.319  32.922  24.995  1.00  0.00    -0.246 OA
BRANCH  37  39
ATOM     39  C   UNL A   1      44.251  34.012  27.124  1.00  0.00     0.060 A 
ATOM     40  C   UNL A   1      43.874  35.246  27.660  1.00  0.00     0.016 A 
ATOM     41  C   UNL A   1      44.370  32.886  27.949  1.00  0.00     0.016 A 
ATOM     42  C   UNL A   1      43.582  35.346  29.020  1.00  0.00     0.010 A 
ATOM     43  C   UNL A   1      44.086  32.990  29.313  1.00  0.00     0.010 A 
ATOM     44  C   UNL A   1      43.664  34.215  29.851  1.00  0.00    -0.014 A 
BRANCH  44  45
ATOM     45  C   UNL A   1      43.121  34.285  31.228  1.00  0.00     0.031 A 
ATOM     46  C   UNL A   1      43.966  34.660  32.405  1.00  0.00     0.074 A 
ATOM     47  C   UNL A   1      41.814  34.005  31.393  1.00  0.00     0.049 A 
ATOM     48  N   UNL A   1      43.602  34.837  33.651  1.00  0.00    -0.248 NA
ATOM     49  C   UNL A   1      45.400  34.859  32.160  1.00  0.00     0.031 C 
ATOM     50  C   UNL A   1      40.900  33.603  30.320  1.00  0.00     0.029 A 
ATOM     51  N   UNL A   1      41.026  34.021  32.514  1.00  0.00    -0.354 N 
ATOM     52  C   UNL A   1      44.753  35.203  34.337  1.00  0.00     0.074 A 
ATOM     53  C   UNL A   1      45.838  35.170  33.376  1.00  0.00     0.031 C 
ATOM     54  C   UNL A   1      39.674  33.423  30.834  1.00  0.00     0.029 A 
ATOM     55  C   UNL A   1      39.720  33.676  32.270  1.00  0.00     0.049 A 
ATOM     56  H   UNL A   1      41.365  34.256  33.408  1.00  0.00     0.167 HD
ATOM     57  C   UNL A   1      44.882  35.555  35.640  1.00  0.00     0.037 A 
ATOM     58  C   UNL A   1      38.675  33.573  33.110  1.00  0.00     0.037 A 
ATOM     59  C   UNL A   1      43.803  35.552  36.599  1.00  0.00     0.049 A 
ATOM     60  C   UNL A   1      38.869  33.903  34.563  1.00  0.00     0.074 A 
ATOM     61  C   UNL A   1      43.837  35.907  37.938  1.00  0.00     0.029 A 
ATOM     62  N   UNL A   1      42.500  35.164  36.326  1.00  0.00    -0.354 N 
ATOM     63  N   UNL A   1      39.945  34.323  35.180  1.00  0.00    -0.248 NA
ATOM     64  C   UNL A   1      37.695  33.751  35.433  1.00  0.00     0.031 C 
ATOM     65  C   UNL A   1      42.566  35.691  38.484  1.00  0.00     0.029 A 
ATOM     66  C   UNL A   1      41.728  35.247  37.476  1.00  0.00     0.049 A 
ATOM     67  H   UNL A   1      42.170  34.872  35.445  1.00  0.00     0.167 HD
ATOM     68  C   UNL A   1      39.572  34.512  36.504  1.00  0.00     0.074 A 
ATOM     69  C   UNL A   1      38.164  34.184  36.594  1.00  0.00     0.031 C 
ATOM     70  C   UNL A   1      40.328  34.917  37.553  1.00  0.00     0.037 A 
BRANCH  57  71
ATOM     71  C   UNL A   1      46.240  35.989  36.112  1.00  0.00     0.057 A 
ATOM     72  C   UNL A   1      47.139  35.075  36.673  1.00  0.00     0.134 A 
ATOM     73  C   UNL A   1      46.624  37.336  36.079  1.00  0.00     0.134 A 
ATOM     74  F   UNL A   1      46.829  33.772  36.748  1.00  0.00    -0.206 F 
ATOM     75  C   UNL A   1      48.369  35.486  37.193  1.00  0.00     0.040 A 
ATOM     76  C   UNL A   1      47.860  37.756  36.575  1.00  0.00     0.040 A 
ATOM     77  F   UNL A   1      45.809  38.263  35.552  1.00  0.00    -0.206 F 
ATOM     78  C   UNL A   1      48.733  36.830  37.141  1.00  0.00     0.006 A 
ENDBRANCH  57  71
BRANCH  58  79
ATOM     79  C   UNL A   1      37.348  33.145  32.605  1.00  0.00     0.057 A 
ATOM     80  C   UNL A   1      37.041  31.792  32.429  1.00  0.00     0.134 A 
ATOM     81  C   UNL A   1      36.342  34.079  32.332  1.00  0.00     0.134 A 
ATOM     82  F   UNL A   1      37.965  30.850  32.665  1.00  0.00    -0.206 F 
ATOM     83  C   UNL A   1      35.777  31.380  32.007  1.00  0.00     0.040 A 
ATOM     84  C   UNL A   1      35.065  33.680  31.936  1.00  0.00     0.040 A 
ATOM     85  F   UNL A   1      36.575  35.390  32.498  1.00  0.00    -0.206 F 
ATOM     86  C   UNL A   1      34.780  32.327  31.773  1.00  0.00     0.006 A 
ENDBRANCH  58  79
BRANCH  70  87
ATOM     87  C   UNL A   1      39.632  35.049  38.877  1.00  0.00     0.057 A 
ATOM     88  C   UNL A   1      39.192  36.298  39.333  1.00  0.00     0.134 A 
ATOM     89  C   UNL A   1      39.390  33.940  39.699  1.00  0.00     0.134 A 
ATOM     90  F   UNL A   1      39.395  37.403  38.597  1.00  0.00    -0.206 F 
ATOM     91  C   UNL A   1      38.534  36.439  40.555  1.00  0.00     0.040 A 
ATOM     92  C   UNL A   1      38.707  34.064  40.910  1.00  0.00     0.040 A 
ATOM     93  F   UNL A   1      39.769  32.712  39.312  1.00  0.00    -0.206 F 
ATOM     94  C   UNL A   1      38.281  35.317  41.343  1.00  0.00     0.006 A 
ENDBRANCH  70  87
ENDBRANCH  44  45
ENDBRANCH  37  39
ENDBRANCH  36  37
ENDBRANCH  35  36
ENDBRANCH  34  35
ENDBRANCH  33  34
ENDBRANCH  32  33
ENDBRANCH  31  32
ENDBRANCH  30  31
ENDBRANCH   1  30
TORSDOF 24
ENDMDL
