MODEL 1
REMARK VINA RESULT:      -9.8      0.000      0.000
REMARK SMILES CN(CCS(C)(=O)=O)S(=O)(=O)c1cc(C(=O)OCCOCCOCCOCCOC(=O)c2ccc(-c3c4nc(c(-c5c(F)cccc5F)c5ccc([nH]5)c(-c5c(F)cccc5F)c5nc(c(-c6c(F)cccc6F)c6ccc3[nH]6)C=C5)C=C4)cc2)ccc1F
REMARK SMILES IDX 21 1 20 2 19 3 18 4 17 5 15 6 16 7 14 8 12 9 13 10 88 11
REMARK SMILES IDX 87 12 89 13 86 14 9 15 10 16 11 17 2 18 1 19 3 20 4 21 5 22
REMARK SMILES IDX 6 23 7 24 8 25 22 26 23 27 24 28 25 29 26 30 27 31 28 32
REMARK SMILES IDX 29 33 30 34 31 35 32 36 33 37 85 38 34 39 84 40 35 41 36 42
REMARK SMILES IDX 37 43 78 44 38 45 83 46 77 47 79 48 39 49 82 50 76 51 75 52
REMARK SMILES IDX 40 54 66 55 49 56 65 57 50 58 53 59 64 60 80 61 51 62 52 63
REMARK SMILES IDX 63 65 81 66 54 67 41 68 42 69 47 70 43 71 44 72 46 73 48 74
REMARK SMILES IDX 45 75 67 76 68 77 73 78 69 79 70 80 72 81 74 82 71 83 55 84
REMARK SMILES IDX 56 85 61 86 57 87 58 88 60 89 62 90 59 91
REMARK H PARENT 79 53 53 64
REMARK Flexibility Score: inf
ROOT
ATOM      1  C   UNL A   1      33.258  25.310  24.017  1.00  0.00     0.188 C 
ENDROOT
BRANCH   1   2
ATOM      2  O   UNL A   1      33.600  26.674  24.182  1.00  0.00    -0.376 OA
BRANCH   2   3
ATOM      3  C   UNL A   1      32.634  27.684  23.975  1.00  0.00     0.202 C 
BRANCH   3   4
ATOM      4  C   UNL A   1      31.454  27.909  24.939  1.00  0.00     0.261 C 
BRANCH   4   5
ATOM      5  O   UNL A   1      31.496  29.071  25.771  1.00  0.00    -0.460 OA
BRANCH   5   6
ATOM      6  C   UNL A   1      31.850  28.901  27.058  1.00  0.00     0.338 C 
ATOM      7  O   UNL A   1      31.387  28.116  27.866  1.00  0.00    -0.246 OA
BRANCH   6   8
ATOM      8  C   UNL A   1      33.091  29.671  27.290  1.00  0.00     0.061 A 
ATOM      9  C   UNL A   1      34.101  31.826  27.752  1.00  0.00     0.119 A 
ATOM     10  C   UNL A   1      32.963  31.039  27.563  1.00  0.00     0.040 A 
ATOM     11  C   UNL A   1      35.357  31.235  27.742  1.00  0.00     0.143 A 
ATOM     12  C   UNL A   1      35.484  29.860  27.519  1.00  0.00     0.041 A 
ATOM     13  F   UNL A   1      36.466  31.942  27.982  1.00  0.00    -0.206 F 
ATOM     14  C   UNL A   1      34.352  29.071  27.288  1.00  0.00     0.019 A 
BRANCH   9  15
ATOM     15  S   UNL A   1      33.935  33.554  28.033  1.00  0.00     0.245 S 
ATOM     16  O   UNL A   1      32.555  33.961  27.899  1.00  0.00    -0.207 OA
ATOM     17  O   UNL A   1      34.974  34.184  27.249  1.00  0.00    -0.207 OA
BRANCH  15  18
ATOM     18  N   UNL A   1      34.343  33.813  29.675  1.00  0.00    -0.200 NA
ATOM     19  C   UNL A   1      35.785  34.128  29.858  1.00  0.00     0.124 C 
BRANCH  18  20
ATOM     20  C   UNL A   1      33.456  34.487  30.667  1.00  0.00     0.118 C 
BRANCH  20  21
ATOM     21  C   UNL A   1      34.055  35.376  31.733  1.00  0.00     0.153 C 
BRANCH  21  22
ATOM     22  S   UNL A   1      33.063  36.719  32.368  1.00  0.00     0.148 S 
ATOM     23  C   UNL A   1      31.448  36.098  32.774  1.00  0.00     0.158 C 
ATOM     24  O   UNL A   1      33.665  37.125  33.625  1.00  0.00    -0.229 OA
ATOM     25  O   UNL A   1      32.869  37.689  31.313  1.00  0.00    -0.229 OA
ENDBRANCH  21  22
ENDBRANCH  20  21
ENDBRANCH  18  20
ENDBRANCH  15  18
ENDBRANCH   9  15
ENDBRANCH   6   8
ENDBRANCH   5   6
ENDBRANCH   4   5
ENDBRANCH   3   4
ENDBRANCH   2   3
ENDBRANCH   1   2
BRANCH   1  26
ATOM     26  C   UNL A   1      34.254  24.538  23.125  1.00  0.00     0.188 C 
BRANCH  26  27
ATOM     27  O   UNL A   1      33.731  23.429  22.412  1.00  0.00    -0.377 OA
BRANCH  27  28
ATOM     28  C   UNL A   1      32.993  22.433  23.118  1.00  0.00     0.188 C 
BRANCH  28  29
ATOM     29  C   UNL A   1      33.652  21.453  24.125  1.00  0.00     0.188 C 
BRANCH  29  30
ATOM     30  O   UNL A   1      33.827  21.958  25.436  1.00  0.00    -0.376 OA
BRANCH  30  31
ATOM     31  C   UNL A   1      35.090  21.812  26.057  1.00  0.00     0.202 C 
BRANCH  31  32
ATOM     32  C   UNL A   1      36.166  21.020  25.303  1.00  0.00     0.261 C 
BRANCH  32  33
ATOM     33  O   UNL A   1      37.415  21.694  25.086  1.00  0.00    -0.460 OA
BRANCH  33  34
ATOM     34  C   UNL A   1      38.515  21.193  25.689  1.00  0.00     0.338 C 
ATOM     35  O   UNL A   1      38.913  20.041  25.665  1.00  0.00    -0.246 OA
BRANCH  34  36
ATOM     36  C   UNL A   1      39.265  22.342  26.237  1.00  0.00     0.060 A 
ATOM     37  C   UNL A   1      38.845  23.648  25.945  1.00  0.00     0.016 A 
ATOM     38  C   UNL A   1      40.347  22.121  27.090  1.00  0.00     0.016 A 
ATOM     39  C   UNL A   1      39.509  24.739  26.514  1.00  0.00     0.010 A 
ATOM     40  C   UNL A   1      41.028  23.212  27.631  1.00  0.00     0.010 A 
ATOM     41  C   UNL A   1      40.621  24.525  27.337  1.00  0.00    -0.014 A 
BRANCH  41  42
ATOM     42  C   UNL A   1      41.461  25.658  27.794  1.00  0.00     0.031 A 
ATOM     43  C   UNL A   1      40.835  26.703  28.671  1.00  0.00     0.074 A 
ATOM     44  C   UNL A   1      42.743  25.777  27.406  1.00  0.00     0.049 A 
ATOM     45  N   UNL A   1      41.313  27.856  29.057  1.00  0.00    -0.248 NA
ATOM     46  C   UNL A   1      39.484  26.409  29.178  1.00  0.00     0.031 C 
ATOM     47  C   UNL A   1      43.480  24.798  26.609  1.00  0.00     0.029 A 
ATOM     48  N   UNL A   1      43.646  26.790  27.617  1.00  0.00    -0.354 N 
ATOM     49  C   UNL A   1      40.323  28.428  29.844  1.00  0.00     0.074 A 
ATOM     50  C   UNL A   1      39.207  27.508  29.863  1.00  0.00     0.031 C 
ATOM     51  C   UNL A   1      44.719  25.269  26.379  1.00  0.00     0.029 A 
ATOM     52  C   UNL A   1      44.844  26.602  26.969  1.00  0.00     0.049 A 
ATOM     53  H   UNL A   1      43.455  27.576  28.177  1.00  0.00     0.167 HD
ATOM     54  C   UNL A   1      40.348  29.613  30.493  1.00  0.00     0.037 A 
ATOM     55  C   UNL A   1      45.902  27.429  26.833  1.00  0.00     0.037 A 
ATOM     56  C   UNL A   1      41.462  30.523  30.468  1.00  0.00     0.049 A 
ATOM     57  C   UNL A   1      45.859  28.795  27.468  1.00  0.00     0.074 A 
ATOM     58  C   UNL A   1      41.584  31.744  31.106  1.00  0.00     0.029 A 
ATOM     59  N   UNL A   1      42.637  30.317  29.763  1.00  0.00    -0.354 N 
ATOM     60  N   UNL A   1      44.924  29.328  28.219  1.00  0.00    -0.248 NA
ATOM     61  C   UNL A   1      47.008  29.684  27.229  1.00  0.00     0.031 C 
ATOM     62  C   UNL A   1      42.808  32.304  30.738  1.00  0.00     0.029 A 
ATOM     63  C   UNL A   1      43.475  31.405  29.921  1.00  0.00     0.049 A 
ATOM     64  H   UNL A   1      42.843  29.515  29.229  1.00  0.00     0.167 HD
ATOM     65  C   UNL A   1      45.382  30.596  28.561  1.00  0.00     0.074 A 
ATOM     66  C   UNL A   1      46.682  30.753  27.944  1.00  0.00     0.031 C 
ATOM     67  C   UNL A   1      44.775  31.543  29.316  1.00  0.00     0.037 A 
BRANCH  54  68
ATOM     68  C   UNL A   1      39.136  30.013  31.281  1.00  0.00     0.057 A 
ATOM     69  C   UNL A   1      38.941  29.528  32.581  1.00  0.00     0.134 A 
ATOM     70  C   UNL A   1      38.120  30.795  30.721  1.00  0.00     0.134 A 
ATOM     71  F   UNL A   1      39.875  28.769  33.174  1.00  0.00    -0.206 F 
ATOM     72  C   UNL A   1      37.766  29.788  33.286  1.00  0.00     0.040 A 
ATOM     73  C   UNL A   1      36.951  31.083  31.427  1.00  0.00     0.040 A 
ATOM     74  F   UNL A   1      38.252  31.300  29.485  1.00  0.00    -0.206 F 
ATOM     75  C   UNL A   1      36.765  30.567  32.709  1.00  0.00     0.006 A 
ENDBRANCH  54  68
BRANCH  55  76
ATOM     76  C   UNL A   1      47.084  26.997  26.044  1.00  0.00     0.057 A 
ATOM     77  C   UNL A   1      48.153  26.312  26.635  1.00  0.00     0.134 A 
ATOM     78  C   UNL A   1      47.173  27.260  24.672  1.00  0.00     0.134 A 
ATOM     79  F   UNL A   1      48.132  26.023  27.945  1.00  0.00    -0.206 F 
ATOM     80  C   UNL A   1      49.276  25.927  25.900  1.00  0.00     0.040 A 
ATOM     81  C   UNL A   1      48.275  26.855  23.918  1.00  0.00     0.040 A 
ATOM     82  F   UNL A   1      46.170  27.888  24.040  1.00  0.00    -0.206 F 
ATOM     83  C   UNL A   1      49.336  26.195  24.534  1.00  0.00     0.006 A 
ENDBRANCH  55  76
BRANCH  67  84
ATOM     84  C   UNL A   1      45.498  32.837  29.554  1.00  0.00     0.057 A 
ATOM     85  C   UNL A   1      45.353  33.908  28.660  1.00  0.00     0.134 A 
ATOM     86  C   UNL A   1      46.443  32.971  30.577  1.00  0.00     0.134 A 
ATOM     87  F   UNL A   1      44.474  33.837  27.650  1.00  0.00    -0.206 F 
ATOM     88  C   UNL A   1      46.148  35.050  28.756  1.00  0.00     0.040 A 
ATOM     89  C   UNL A   1      47.226  34.121  30.699  1.00  0.00     0.040 A 
ATOM     90  F   UNL A   1      46.624  31.986  31.469  1.00  0.00    -0.206 F 
ATOM     91  C   UNL A   1      47.091  35.158  29.776  1.00  0.00     0.006 A 
ENDBRANCH  67  84
ENDBRANCH  41  42
ENDBRANCH  34  36
ENDBRANCH  33  34
ENDBRANCH  32  33
ENDBRANCH  31  32
ENDBRANCH  30  31
ENDBRANCH  29  30
ENDBRANCH  28  29
ENDBRANCH  27  28
ENDBRANCH  26  27
ENDBRANCH   1  26
TORSDOF 25
ENDMDL
MODEL 2
REMARK VINA RESULT:      -9.0      1.192      6.020
REMARK SMILES CN(CCS(C)(=O)=O)S(=O)(=O)c1cc(C(=O)OCCOCCOCCOCCOC(=O)c2ccc(-c3c4nc(c(-c5c(F)cccc5F)c5ccc([nH]5)c(-c5c(F)cccc5F)c5nc(c(-c6c(F)cccc6F)c6ccc3[nH]6)C=C5)C=C4)cc2)ccc1F
REMARK SMILES IDX 21 1 20 2 19 3 18 4 17 5 15 6 16 7 14 8 12 9 13 10 88 11
REMARK SMILES IDX 87 12 89 13 86 14 9 15 10 16 11 17 2 18 1 19 3 20 4 21 5 22
REMARK SMILES IDX 6 23 7 24 8 25 22 26 23 27 24 28 25 29 26 30 27 31 28 32
REMARK SMILES IDX 29 33 30 34 31 35 32 36 33 37 85 38 34 39 84 40 35 41 36 42
REMARK SMILES IDX 37 43 78 44 38 45 83 46 77 47 79 48 39 49 82 50 76 51 75 52
REMARK SMILES IDX 40 54 66 55 49 56 65 57 50 58 53 59 64 60 80 61 51 62 52 63
REMARK SMILES IDX 63 65 81 66 54 67 41 68 42 69 47 70 43 71 44 72 46 73 48 74
REMARK SMILES IDX 45 75 67 76 68 77 73 78 69 79 70 80 72 81 74 82 71 83 55 84
REMARK SMILES IDX 56 85 61 86 57 87 58 88 60 89 62 90 59 91
REMARK H PARENT 79 53 53 64
REMARK Flexibility Score: inf
ROOT
ATOM      1  C   UNL A   1      32.024  25.898  24.756  1.00  0.00     0.188 C 
ENDROOT
BRANCH   1   2
ATOM      2  O   UNL A   1      32.873  26.752  24.012  1.00  0.00    -0.376 OA
BRANCH   2   3
ATOM      3  C   UNL A   1      32.523  28.105  23.802  1.00  0.00     0.202 C 
BRANCH   3   4
ATOM      4  C   UNL A   1      31.285  28.748  24.453  1.00  0.00     0.261 C 
BRANCH   4   5
ATOM      5  O   UNL A   1      31.507  29.665  25.527  1.00  0.00    -0.460 OA
BRANCH   5   6
ATOM      6  C   UNL A   1      31.861  29.151  26.720  1.00  0.00     0.338 C 
ATOM      7  O   UNL A   1      31.341  28.229  27.322  1.00  0.00    -0.246 OA
BRANCH   6   8
ATOM      8  C   UNL A   1      33.167  29.735  27.093  1.00  0.00     0.061 A 
ATOM      9  C   UNL A   1      34.395  31.699  27.809  1.00  0.00     0.119 A 
ATOM     10  C   UNL A   1      33.187  31.081  27.482  1.00  0.00     0.040 A 
ATOM     11  C   UNL A   1      35.568  30.956  27.818  1.00  0.00     0.143 A 
ATOM     12  C   UNL A   1      35.543  29.599  27.479  1.00  0.00     0.041 A 
ATOM     13  F   UNL A   1      36.735  31.494  28.186  1.00  0.00    -0.206 F 
ATOM     14  C   UNL A   1      34.342  28.982  27.110  1.00  0.00     0.019 A 
BRANCH   9  15
ATOM     15  S   UNL A   1      34.421  33.404  28.236  1.00  0.00     0.245 S 
ATOM     16  O   UNL A   1      33.076  33.927  28.323  1.00  0.00    -0.207 OA
ATOM     17  O   UNL A   1      35.399  34.015  27.364  1.00  0.00    -0.207 OA
BRANCH  15  18
ATOM     18  N   UNL A   1      35.062  33.491  29.820  1.00  0.00    -0.200 NA
ATOM     19  C   UNL A   1      36.435  34.065  29.846  1.00  0.00     0.124 C 
BRANCH  18  20
ATOM     20  C   UNL A   1      34.261  33.811  31.037  1.00  0.00     0.118 C 
BRANCH  20  21
ATOM     21  C   UNL A   1      34.748  34.863  32.006  1.00  0.00     0.153 C 
BRANCH  21  22
ATOM     22  S   UNL A   1      33.713  36.291  32.294  1.00  0.00     0.148 S 
ATOM     23  C   UNL A   1      32.036  35.748  32.517  1.00  0.00     0.158 C 
ATOM     24  O   UNL A   1      34.125  36.855  33.567  1.00  0.00    -0.229 OA
ATOM     25  O   UNL A   1      33.718  37.112  31.104  1.00  0.00    -0.229 OA
ENDBRANCH  21  22
ENDBRANCH  20  21
ENDBRANCH  18  20
ENDBRANCH  15  18
ENDBRANCH   9  15
ENDBRANCH   6   8
ENDBRANCH   5   6
ENDBRANCH   4   5
ENDBRANCH   3   4
ENDBRANCH   2   3
ENDBRANCH   1   2
BRANCH   1  26
ATOM     26  C   UNL A   1      31.383  24.783  23.902  1.00  0.00     0.188 C 
BRANCH  26  27
ATOM     27  O   UNL A   1      32.275  23.857  23.304  1.00  0.00    -0.377 OA
BRANCH  27  28
ATOM     28  C   UNL A   1      32.413  22.556  23.874  1.00  0.00     0.188 C 
BRANCH  28  29
ATOM     29  C   UNL A   1      33.244  22.283  25.155  1.00  0.00     0.188 C 
BRANCH  29  30
ATOM     30  O   UNL A   1      34.189  21.234  25.050  1.00  0.00    -0.376 OA
BRANCH  30  31
ATOM     31  C   UNL A   1      35.493  21.538  24.588  1.00  0.00     0.202 C 
BRANCH  31  32
ATOM     32  C   UNL A   1      36.673  21.163  25.494  1.00  0.00     0.261 C 
BRANCH  32  33
ATOM     33  O   UNL A   1      37.653  22.188  25.717  1.00  0.00    -0.460 OA
BRANCH  33  34
ATOM     34  C   UNL A   1      38.871  21.810  26.163  1.00  0.00     0.338 C 
ATOM     35  O   UNL A   1      39.412  20.728  26.013  1.00  0.00    -0.246 OA
BRANCH  34  36
ATOM     36  C   UNL A   1      39.521  23.017  26.712  1.00  0.00     0.060 A 
ATOM     37  C   UNL A   1      39.031  24.287  26.370  1.00  0.00     0.016 A 
ATOM     38  C   UNL A   1      40.577  22.887  27.614  1.00  0.00     0.016 A 
ATOM     39  C   UNL A   1      39.598  25.431  26.937  1.00  0.00     0.010 A 
ATOM     40  C   UNL A   1      41.163  24.033  28.155  1.00  0.00     0.010 A 
ATOM     41  C   UNL A   1      40.685  25.310  27.811  1.00  0.00    -0.014 A 
BRANCH  41  42
ATOM     42  C   UNL A   1      41.431  26.504  28.273  1.00  0.00     0.031 A 
ATOM     43  C   UNL A   1      42.854  26.675  27.824  1.00  0.00     0.074 A 
ATOM     44  C   UNL A   1      40.870  27.400  29.104  1.00  0.00     0.049 A 
ATOM     45  N   UNL A   1      43.750  27.539  28.222  1.00  0.00    -0.248 NA
ATOM     46  C   UNL A   1      43.331  25.742  26.790  1.00  0.00     0.031 C 
ATOM     47  C   UNL A   1      39.481  27.377  29.558  1.00  0.00     0.029 A 
ATOM     48  N   UNL A   1      41.413  28.494  29.732  1.00  0.00    -0.354 N 
ATOM     49  C   UNL A   1      44.896  27.250  27.496  1.00  0.00     0.074 A 
ATOM     50  C   UNL A   1      44.593  26.118  26.649  1.00  0.00     0.031 C 
ATOM     51  C   UNL A   1      39.286  28.399  30.411  1.00  0.00     0.029 A 
ATOM     52  C   UNL A   1      40.547  29.116  30.600  1.00  0.00     0.049 A 
ATOM     53  H   UNL A   1      42.334  28.804  29.576  1.00  0.00     0.167 HD
ATOM     54  C   UNL A   1      46.093  27.879  27.532  1.00  0.00     0.037 A 
ATOM     55  C   UNL A   1      40.760  30.118  31.477  1.00  0.00     0.037 A 
ATOM     56  C   UNL A   1      46.387  29.004  28.378  1.00  0.00     0.049 A 
ATOM     57  C   UNL A   1      42.136  30.726  31.584  1.00  0.00     0.074 A 
ATOM     58  C   UNL A   1      47.569  29.717  28.475  1.00  0.00     0.029 A 
ATOM     59  N   UNL A   1      45.498  29.573  29.276  1.00  0.00    -0.354 N 
ATOM     60  N   UNL A   1      43.215  30.456  30.889  1.00  0.00    -0.248 NA
ATOM     61  C   UNL A   1      42.332  31.768  32.606  1.00  0.00     0.031 C 
ATOM     62  C   UNL A   1      47.414  30.678  29.475  1.00  0.00     0.029 A 
ATOM     63  C   UNL A   1      46.117  30.605  29.958  1.00  0.00     0.049 A 
ATOM     64  H   UNL A   1      44.565  29.285  29.408  1.00  0.00     0.167 HD
ATOM     65  C   UNL A   1      44.204  31.308  31.368  1.00  0.00     0.074 A 
ATOM     66  C   UNL A   1      43.599  32.111  32.408  1.00  0.00     0.031 C 
ATOM     67  C   UNL A   1      45.498  31.410  30.980  1.00  0.00     0.037 A 
BRANCH  54  68
ATOM     68  C   UNL A   1      47.188  27.367  26.645  1.00  0.00     0.057 A 
ATOM     69  C   UNL A   1      47.323  27.845  25.334  1.00  0.00     0.134 A 
ATOM     70  C   UNL A   1      48.043  26.336  27.050  1.00  0.00     0.134 A 
ATOM     71  F   UNL A   1      46.532  28.829  24.882  1.00  0.00    -0.206 F 
ATOM     72  C   UNL A   1      48.255  27.297  24.452  1.00  0.00     0.040 A 
ATOM     73  C   UNL A   1      48.996  25.798  26.184  1.00  0.00     0.040 A 
ATOM     74  F   UNL A   1      47.971  25.843  28.296  1.00  0.00    -0.206 F 
ATOM     75  C   UNL A   1      49.095  26.269  24.876  1.00  0.00     0.006 A 
ENDBRANCH  54  68
BRANCH  55  76
ATOM     76  C   UNL A   1      39.651  30.598  32.340  1.00  0.00     0.057 A 
ATOM     77  C   UNL A   1      39.452  30.093  33.632  1.00  0.00     0.134 A 
ATOM     78  C   UNL A   1      38.758  31.579  31.892  1.00  0.00     0.134 A 
ATOM     79  F   UNL A   1      40.273  29.155  34.126  1.00  0.00    -0.206 F 
ATOM     80  C   UNL A   1      38.395  30.525  34.435  1.00  0.00     0.040 A 
ATOM     81  C   UNL A   1      37.714  32.042  32.695  1.00  0.00     0.040 A 
ATOM     82  F   UNL A   1      38.910  32.122  30.676  1.00  0.00    -0.206 F 
ATOM     83  C   UNL A   1      37.525  31.508  33.967  1.00  0.00     0.006 A 
ENDBRANCH  55  76
BRANCH  67  84
ATOM     84  C   UNL A   1      46.366  32.435  31.651  1.00  0.00     0.057 A 
ATOM     85  C   UNL A   1      46.535  33.706  31.083  1.00  0.00     0.134 A 
ATOM     86  C   UNL A   1      47.143  32.117  32.771  1.00  0.00     0.134 A 
ATOM     87  F   UNL A   1      45.830  34.067  30.001  1.00  0.00    -0.206 F 
ATOM     88  C   UNL A   1      47.473  34.609  31.585  1.00  0.00     0.040 A 
ATOM     89  C   UNL A   1      48.066  33.023  33.297  1.00  0.00     0.040 A 
ATOM     90  F   UNL A   1      47.022  30.920  33.365  1.00  0.00    -0.206 F 
ATOM     91  C   UNL A   1      48.244  34.267  32.693  1.00  0.00     0.006 A 
ENDBRANCH  67  84
ENDBRANCH  41  42
ENDBRANCH  34  36
ENDBRANCH  33  34
ENDBRANCH  32  33
ENDBRANCH  31  32
ENDBRANCH  30  31
ENDBRANCH  29  30
ENDBRANCH  28  29
ENDBRANCH  27  28
ENDBRANCH  26  27
ENDBRANCH   1  26
TORSDOF 25
ENDMDL
MODEL 3
REMARK VINA RESULT:      -8.7      4.606      8.189
REMARK SMILES CN(CCS(C)(=O)=O)S(=O)(=O)c1cc(C(=O)OCCOCCOCCOCCOC(=O)c2ccc(-c3c4nc(c(-c5c(F)cccc5F)c5ccc([nH]5)c(-c5c(F)cccc5F)c5nc(c(-c6c(F)cccc6F)c6ccc3[nH]6)C=C5)C=C4)cc2)ccc1F
REMARK SMILES IDX 21 1 20 2 19 3 18 4 17 5 15 6 16 7 14 8 12 9 13 10 88 11
REMARK SMILES IDX 87 12 89 13 86 14 9 15 10 16 11 17 2 18 1 19 3 20 4 21 5 22
REMARK SMILES IDX 6 23 7 24 8 25 22 26 23 27 24 28 25 29 26 30 27 31 28 32
REMARK SMILES IDX 29 33 30 34 31 35 32 36 33 37 85 38 34 39 84 40 35 41 36 42
REMARK SMILES IDX 37 43 78 44 38 45 83 46 77 47 79 48 39 49 82 50 76 51 75 52
REMARK SMILES IDX 40 54 66 55 49 56 65 57 50 58 53 59 64 60 80 61 51 62 52 63
REMARK SMILES IDX 63 65 81 66 54 67 41 68 42 69 47 70 43 71 44 72 46 73 48 74
REMARK SMILES IDX 45 75 67 76 68 77 73 78 69 79 70 80 72 81 74 82 71 83 55 84
REMARK SMILES IDX 56 85 61 86 57 87 58 88 60 89 62 90 59 91
REMARK H PARENT 79 53 53 64
REMARK Flexibility Score: inf
ROOT
ATOM      1  C   UNL A   1      36.891  19.358  25.042  1.00  0.00     0.188 C 
ENDROOT
BRANCH   1   2
ATOM      2  O   UNL A   1      35.517  19.581  24.783  1.00  0.00    -0.376 OA
BRANCH   2   3
ATOM      3  C   UNL A   1      34.952  20.862  24.972  1.00  0.00     0.202 C 
BRANCH   3   4
ATOM      4  C   UNL A   1      33.431  21.089  25.061  1.00  0.00     0.261 C 
BRANCH   4   5
ATOM      5  O   UNL A   1      32.923  21.680  26.260  1.00  0.00    -0.460 OA
BRANCH   5   6
ATOM      6  C   UNL A   1      33.278  22.950  26.525  1.00  0.00     0.338 C 
ATOM      7  O   UNL A   1      34.369  23.368  26.869  1.00  0.00    -0.246 OA
BRANCH   6   8
ATOM      8  C   UNL A   1      32.170  23.828  26.093  1.00  0.00     0.061 A 
ATOM      9  C   UNL A   1      31.418  25.578  24.592  1.00  0.00     0.119 A 
ATOM     10  C   UNL A   1      32.413  24.697  25.021  1.00  0.00     0.040 A 
ATOM     11  C   UNL A   1      30.162  25.538  25.183  1.00  0.00     0.143 A 
ATOM     12  C   UNL A   1      29.901  24.636  26.219  1.00  0.00     0.041 A 
ATOM     13  F   UNL A   1      29.164  26.320  24.759  1.00  0.00    -0.206 F 
ATOM     14  C   UNL A   1      30.906  23.778  26.683  1.00  0.00     0.019 A 
BRANCH   9  15
ATOM     15  S   UNL A   1      31.751  26.709  23.288  1.00  0.00     0.245 S 
ATOM     16  O   UNL A   1      30.795  26.546  22.217  1.00  0.00    -0.207 OA
ATOM     17  O   UNL A   1      33.171  26.613  23.035  1.00  0.00    -0.207 OA
BRANCH  15  18
ATOM     18  N   UNL A   1      31.477  28.272  23.928  1.00  0.00    -0.200 NA
ATOM     19  C   UNL A   1      32.670  29.152  23.807  1.00  0.00     0.124 C 
BRANCH  18  20
ATOM     20  C   UNL A   1      30.184  29.007  23.830  1.00  0.00     0.118 C 
BRANCH  20  21
ATOM     21  C   UNL A   1      29.915  29.908  22.646  1.00  0.00     0.153 C 
BRANCH  21  22
ATOM     22  S   UNL A   1      28.485  30.977  22.705  1.00  0.00     0.148 S 
ATOM     23  C   UNL A   1      28.041  31.434  21.046  1.00  0.00     0.158 C 
ATOM     24  O   UNL A   1      27.384  30.176  23.209  1.00  0.00    -0.229 OA
ATOM     25  O   UNL A   1      28.852  32.204  23.376  1.00  0.00    -0.229 OA
ENDBRANCH  21  22
ENDBRANCH  20  21
ENDBRANCH  18  20
ENDBRANCH  15  18
ENDBRANCH   9  15
ENDBRANCH   6   8
ENDBRANCH   5   6
ENDBRANCH   4   5
ENDBRANCH   3   4
ENDBRANCH   2   3
ENDBRANCH   1   2
BRANCH   1  26
ATOM     26  C   UNL A   1      37.777  20.578  24.715  1.00  0.00     0.188 C 
BRANCH  26  27
ATOM     27  O   UNL A   1      38.344  21.260  25.822  1.00  0.00    -0.377 OA
BRANCH  27  28
ATOM     28  C   UNL A   1      39.739  21.118  26.086  1.00  0.00     0.188 C 
BRANCH  28  29
ATOM     29  C   UNL A   1      40.473  21.923  27.191  1.00  0.00     0.188 C 
BRANCH  29  30
ATOM     30  O   UNL A   1      41.254  23.010  26.729  1.00  0.00    -0.376 OA
BRANCH  30  31
ATOM     31  C   UNL A   1      42.657  22.844  26.630  1.00  0.00     0.202 C 
BRANCH  31  32
ATOM     32  C   UNL A   1      43.419  23.786  25.689  1.00  0.00     0.261 C 
BRANCH  32  33
ATOM     33  O   UNL A   1      43.542  25.150  26.118  1.00  0.00    -0.460 OA
BRANCH  33  34
ATOM     34  C   UNL A   1      42.498  25.979  25.893  1.00  0.00     0.338 C 
ATOM     35  O   UNL A   1      41.816  26.054  24.886  1.00  0.00    -0.246 OA
BRANCH  34  36
ATOM     36  C   UNL A   1      42.208  26.660  27.172  1.00  0.00     0.060 A 
ATOM     37  C   UNL A   1      41.222  26.144  28.026  1.00  0.00     0.016 A 
ATOM     38  C   UNL A   1      42.957  27.775  27.549  1.00  0.00     0.016 A 
ATOM     39  C   UNL A   1      40.988  26.745  29.266  1.00  0.00     0.010 A 
ATOM     40  C   UNL A   1      42.700  28.392  28.773  1.00  0.00     0.010 A 
ATOM     41  C   UNL A   1      41.707  27.889  29.633  1.00  0.00    -0.014 A 
BRANCH  41  42
ATOM     42  C   UNL A   1      41.348  28.660  30.846  1.00  0.00     0.031 A 
ATOM     43  C   UNL A   1      40.230  29.658  30.752  1.00  0.00     0.074 A 
ATOM     44  C   UNL A   1      42.026  28.506  31.998  1.00  0.00     0.049 A 
ATOM     45  N   UNL A   1      39.847  30.556  31.620  1.00  0.00    -0.248 NA
ATOM     46  C   UNL A   1      39.441  29.642  29.510  1.00  0.00     0.031 C 
ATOM     47  C   UNL A   1      43.086  27.528  32.230  1.00  0.00     0.029 A 
ATOM     48  N   UNL A   1      41.932  29.192  33.184  1.00  0.00    -0.354 N 
ATOM     49  C   UNL A   1      38.780  31.217  31.028  1.00  0.00     0.074 A 
ATOM     50  C   UNL A   1      38.589  30.635  29.719  1.00  0.00     0.031 C 
ATOM     51  C   UNL A   1      43.561  27.691  33.478  1.00  0.00     0.029 A 
ATOM     52  C   UNL A   1      42.874  28.816  34.112  1.00  0.00     0.049 A 
ATOM     53  H   UNL A   1      41.256  29.887  33.354  1.00  0.00     0.167 HD
ATOM     54  C   UNL A   1      38.027  32.218  31.537  1.00  0.00     0.037 A 
ATOM     55  C   UNL A   1      43.173  29.346  35.316  1.00  0.00     0.037 A 
ATOM     56  C   UNL A   1      38.224  32.793  32.841  1.00  0.00     0.049 A 
ATOM     57  C   UNL A   1      42.397  30.539  35.812  1.00  0.00     0.074 A 
ATOM     58  C   UNL A   1      37.502  33.804  33.449  1.00  0.00     0.029 A 
ATOM     59  N   UNL A   1      39.218  32.415  33.731  1.00  0.00    -0.354 N 
ATOM     60  N   UNL A   1      41.382  31.155  35.253  1.00  0.00    -0.248 NA
ATOM     61  C   UNL A   1      42.811  31.123  37.099  1.00  0.00     0.031 C 
ATOM     62  C   UNL A   1      38.096  34.080  34.681  1.00  0.00     0.029 A 
ATOM     63  C   UNL A   1      39.150  33.199  34.868  1.00  0.00     0.049 A 
ATOM     64  H   UNL A   1      39.873  31.697  33.575  1.00  0.00     0.167 HD
ATOM     65  C   UNL A   1      41.023  32.176  36.126  1.00  0.00     0.074 A 
ATOM     66  C   UNL A   1      41.921  32.094  37.259  1.00  0.00     0.031 C 
ATOM     67  C   UNL A   1      40.038  33.098  35.997  1.00  0.00     0.037 A 
BRANCH  54  68
ATOM     68  C   UNL A   1      36.923  32.774  30.688  1.00  0.00     0.057 A 
ATOM     69  C   UNL A   1      37.206  33.683  29.660  1.00  0.00     0.134 A 
ATOM     70  C   UNL A   1      35.578  32.488  30.949  1.00  0.00     0.134 A 
ATOM     71  F   UNL A   1      38.474  34.004  29.362  1.00  0.00    -0.206 F 
ATOM     72  C   UNL A   1      36.187  34.306  28.938  1.00  0.00     0.040 A 
ATOM     73  C   UNL A   1      34.552  33.086  30.216  1.00  0.00     0.040 A 
ATOM     74  F   UNL A   1      35.243  31.617  31.912  1.00  0.00    -0.206 F 
ATOM     75  C   UNL A   1      34.855  34.008  29.216  1.00  0.00     0.006 A 
ENDBRANCH  54  68
BRANCH  55  76
ATOM     76  C   UNL A   1      44.275  28.768  36.128  1.00  0.00     0.057 A 
ATOM     77  C   UNL A   1      44.071  27.663  36.965  1.00  0.00     0.134 A 
ATOM     78  C   UNL A   1      45.565  29.310  36.085  1.00  0.00     0.134 A 
ATOM     79  F   UNL A   1      42.860  27.092  37.050  1.00  0.00    -0.206 F 
ATOM     80  C   UNL A   1      45.099  27.134  37.747  1.00  0.00     0.040 A 
ATOM     81  C   UNL A   1      46.610  28.773  36.839  1.00  0.00     0.040 A 
ATOM     82  F   UNL A   1      45.833  30.350  35.284  1.00  0.00    -0.206 F 
ATOM     83  C   UNL A   1      46.376  27.688  37.681  1.00  0.00     0.006 A 
ENDBRANCH  55  76
BRANCH  67  84
ATOM     84  C   UNL A   1      39.842  34.092  37.104  1.00  0.00     0.057 A 
ATOM     85  C   UNL A   1      39.041  33.776  38.211  1.00  0.00     0.134 A 
ATOM     86  C   UNL A   1      40.321  35.403  37.005  1.00  0.00     0.134 A 
ATOM     87  F   UNL A   1      38.540  32.541  38.358  1.00  0.00    -0.206 F 
ATOM     88  C   UNL A   1      38.696  34.739  39.159  1.00  0.00     0.040 A 
ATOM     89  C   UNL A   1      40.004  36.368  37.962  1.00  0.00     0.040 A 
ATOM     90  F   UNL A   1      41.099  35.766  35.974  1.00  0.00    -0.206 F 
ATOM     91  C   UNL A   1      39.174  36.041  39.035  1.00  0.00     0.006 A 
ENDBRANCH  67  84
ENDBRANCH  41  42
ENDBRANCH  34  36
ENDBRANCH  33  34
ENDBRANCH  32  33
ENDBRANCH  31  32
ENDBRANCH  30  31
ENDBRANCH  29  30
ENDBRANCH  28  29
ENDBRANCH  27  28
ENDBRANCH  26  27
ENDBRANCH   1  26
TORSDOF 25
ENDMDL
