MODEL 1
REMARK VINA RESULT:      -9.2      0.000      0.000
REMARK SMILES CCS(=O)(=O)N[C@H]1C=C[C@@H](C(=O)OCCOCCOCCOCCOC(=O)c2ccc(-c3c4nc(c(-c5c(F)cccc5F)c5ccc([nH]5)c(-c5c(F)cccc5F)c5nc(c(-c6c(F)cccc6F)c6ccc3[nH]6)C=C5)C=C4)cc2)C1
REMARK SMILES IDX 18 1 17 2 16 3 15 4 14 5 13 6 11 7 12 8 10 9 7 10 8 11 82 12
REMARK SMILES IDX 9 13 6 14 3 16 4 17 5 18 2 19 1 20 19 21 20 22 21 23 22 24
REMARK SMILES IDX 23 25 24 26 25 27 26 28 27 29 28 30 29 31 81 32 30 33 80 34
REMARK SMILES IDX 31 35 32 36 33 37 74 38 34 39 79 40 73 41 75 42 35 43 78 44
REMARK SMILES IDX 72 45 71 46 36 48 62 49 45 50 61 51 46 52 49 53 60 54 76 55
REMARK SMILES IDX 47 56 48 57 59 59 77 60 50 61 37 62 38 63 43 64 39 65 40 66
REMARK SMILES IDX 42 67 44 68 41 69 63 70 64 71 69 72 65 73 66 74 68 75 70 76
REMARK SMILES IDX 67 77 51 78 52 79 57 80 53 81 54 82 56 83 58 84 55 85
REMARK H PARENT 6 15 75 47 49 58
REMARK Flexibility Score: inf
ROOT
ATOM      1  C   UNL A   1      34.915  29.614  27.469  1.00  0.00     0.188 C 
ENDROOT
BRANCH   1   2
ATOM      2  C   UNL A   1      34.143  29.080  26.257  1.00  0.00     0.188 C 
BRANCH   2   3
ATOM      3  O   UNL A   1      33.026  29.828  25.804  1.00  0.00    -0.376 OA
BRANCH   3   4
ATOM      4  C   UNL A   1      32.168  29.247  24.825  1.00  0.00     0.202 C 
BRANCH   4   5
ATOM      5  C   UNL A   1      32.782  28.674  23.538  1.00  0.00     0.261 C 
BRANCH   5   6
ATOM      6  O   UNL A   1      32.257  27.379  23.190  1.00  0.00    -0.463 OA
BRANCH   6   7
ATOM      7  C   UNL A   1      32.903  26.717  22.193  1.00  0.00     0.312 C 
ATOM      8  O   UNL A   1      33.882  27.159  21.599  1.00  0.00    -0.252 OA
BRANCH   7   9
ATOM      9  C   UNL A   1      32.378  25.299  21.961  1.00  0.00     0.123 C 
ATOM     10  C   UNL A   1      32.331  23.135  23.155  1.00  0.00     0.093 C 
ATOM     11  C   UNL A   1      31.105  23.949  23.411  1.00  0.00    -0.011 C 
ATOM     12  C   UNL A   1      33.246  24.120  22.417  1.00  0.00     0.043 C 
ATOM     13  C   UNL A   1      31.118  25.108  22.750  1.00  0.00    -0.015 C 
BRANCH  10  14
ATOM     14  N   UNL A   1      32.899  22.745  24.443  1.00  0.00    -0.208 NA
ATOM     15  H   UNL A   1      33.913  22.747  24.335  1.00  0.00     0.141 HD
BRANCH  14  16
ATOM     16  S   UNL A   1      32.477  21.259  25.097  1.00  0.00     0.211 S 
ATOM     17  O   UNL A   1      31.131  21.351  25.603  1.00  0.00    -0.212 OA
ATOM     18  O   UNL A   1      33.582  20.923  25.976  1.00  0.00    -0.212 OA
BRANCH  16  19
ATOM     19  C   UNL A   1      32.547  20.138  23.701  1.00  0.00     0.150 C 
ATOM     20  C   UNL A   1      32.435  18.685  24.100  1.00  0.00     0.022 C 
ENDBRANCH  16  19
ENDBRANCH  14  16
ENDBRANCH  10  14
ENDBRANCH   7   9
ENDBRANCH   6   7
ENDBRANCH   5   6
ENDBRANCH   4   5
ENDBRANCH   3   4
ENDBRANCH   2   3
ENDBRANCH   1   2
BRANCH   1  21
ATOM     21  O   UNL A   1      35.358  30.963  27.380  1.00  0.00    -0.377 OA
BRANCH  21  22
ATOM     22  C   UNL A   1      34.567  32.004  27.958  1.00  0.00     0.188 C 
BRANCH  22  23
ATOM     23  C   UNL A   1      35.124  33.429  28.013  1.00  0.00     0.188 C 
BRANCH  23  24
ATOM     24  O   UNL A   1      35.372  34.009  29.297  1.00  0.00    -0.376 OA
BRANCH  24  25
ATOM     25  C   UNL A   1      34.297  34.149  30.221  1.00  0.00     0.202 C 
BRANCH  25  26
ATOM     26  C   UNL A   1      34.611  33.701  31.646  1.00  0.00     0.261 C 
BRANCH  26  27
ATOM     27  O   UNL A   1      34.978  32.313  31.697  1.00  0.00    -0.460 OA
BRANCH  27  28
ATOM     28  C   UNL A   1      36.021  32.035  32.505  1.00  0.00     0.338 C 
ATOM     29  O   UNL A   1      36.124  32.289  33.698  1.00  0.00    -0.246 OA
BRANCH  28  30
ATOM     30  C   UNL A   1      37.020  31.234  31.781  1.00  0.00     0.060 A 
ATOM     31  C   UNL A   1      38.027  30.627  32.539  1.00  0.00     0.016 A 
ATOM     32  C   UNL A   1      37.039  31.162  30.384  1.00  0.00     0.016 A 
ATOM     33  C   UNL A   1      39.104  30.023  31.903  1.00  0.00     0.010 A 
ATOM     34  C   UNL A   1      38.123  30.553  29.744  1.00  0.00     0.010 A 
ATOM     35  C   UNL A   1      39.185  30.034  30.505  1.00  0.00    -0.014 A 
BRANCH  35  36
ATOM     36  C   UNL A   1      40.472  29.662  29.874  1.00  0.00     0.031 A 
ATOM     37  C   UNL A   1      40.635  28.273  29.318  1.00  0.00     0.074 A 
ATOM     38  C   UNL A   1      41.437  30.581  29.712  1.00  0.00     0.049 A 
ATOM     39  N   UNL A   1      41.638  27.758  28.653  1.00  0.00    -0.248 NA
ATOM     40  C   UNL A   1      39.518  27.340  29.538  1.00  0.00     0.031 C 
ATOM     41  C   UNL A   1      41.371  31.965  30.179  1.00  0.00     0.029 A 
ATOM     42  N   UNL A   1      42.657  30.491  29.094  1.00  0.00    -0.354 N 
ATOM     43  C   UNL A   1      41.272  26.447  28.375  1.00  0.00     0.074 A 
ATOM     44  C   UNL A   1      39.975  26.231  28.977  1.00  0.00     0.031 C 
ATOM     45  C   UNL A   1      42.500  32.600  29.821  1.00  0.00     0.029 A 
ATOM     46  C   UNL A   1      43.375  31.660  29.125  1.00  0.00     0.049 A 
ATOM     47  H   UNL A   1      42.987  29.666  28.668  1.00  0.00     0.167 HD
ATOM     48  C   UNL A   1      41.949  25.511  27.666  1.00  0.00     0.037 A 
ATOM     49  C   UNL A   1      44.603  31.934  28.647  1.00  0.00     0.037 A 
ATOM     50  C   UNL A   1      43.241  25.733  27.070  1.00  0.00     0.049 A 
ATOM     51  C   UNL A   1      45.359  30.860  27.911  1.00  0.00     0.074 A 
ATOM     52  C   UNL A   1      44.011  24.858  26.324  1.00  0.00     0.029 A 
ATOM     53  N   UNL A   1      43.958  26.917  27.163  1.00  0.00    -0.354 N 
ATOM     54  N   UNL A   1      44.992  29.633  27.629  1.00  0.00    -0.248 NA
ATOM     55  C   UNL A   1      46.695  31.217  27.417  1.00  0.00     0.031 C 
ATOM     56  C   UNL A   1      45.217  25.494  26.011  1.00  0.00     0.029 A 
ATOM     57  C   UNL A   1      45.173  26.788  26.508  1.00  0.00     0.049 A 
ATOM     58  H   UNL A   1      43.650  27.730  27.624  1.00  0.00     0.167 HD
ATOM     59  C   UNL A   1      46.039  29.080  26.902  1.00  0.00     0.074 A 
ATOM     60  C   UNL A   1      47.043  30.115  26.768  1.00  0.00     0.031 C 
ATOM     61  C   UNL A   1      46.162  27.829  26.390  1.00  0.00     0.037 A 
BRANCH  48  62
ATOM     62  C   UNL A   1      41.316  24.155  27.525  1.00  0.00     0.057 A 
ATOM     63  C   UNL A   1      40.219  23.930  26.681  1.00  0.00     0.134 A 
ATOM     64  C   UNL A   1      41.826  23.055  28.223  1.00  0.00     0.134 A 
ATOM     65  F   UNL A   1      39.669  24.943  25.995  1.00  0.00    -0.206 F 
ATOM     66  C   UNL A   1      39.639  22.665  26.558  1.00  0.00     0.040 A 
ATOM     67  C   UNL A   1      41.274  21.780  28.086  1.00  0.00     0.040 A 
ATOM     68  F   UNL A   1      42.876  23.197  29.047  1.00  0.00    -0.206 F 
ATOM     69  C   UNL A   1      40.173  21.584  27.257  1.00  0.00     0.006 A 
ENDBRANCH  48  62
BRANCH  49  70
ATOM     70  C   UNL A   1      45.194  33.283  28.845  1.00  0.00     0.057 A 
ATOM     71  C   UNL A   1      46.003  33.570  29.949  1.00  0.00     0.134 A 
ATOM     72  C   UNL A   1      44.945  34.322  27.940  1.00  0.00     0.134 A 
ATOM     73  F   UNL A   1      46.262  32.623  30.862  1.00  0.00    -0.206 F 
ATOM     74  C   UNL A   1      46.526  34.848  30.158  1.00  0.00     0.040 A 
ATOM     75  C   UNL A   1      45.485  35.596  28.121  1.00  0.00     0.040 A 
ATOM     76  F   UNL A   1      44.181  34.111  26.858  1.00  0.00    -0.206 F 
ATOM     77  C   UNL A   1      46.272  35.864  29.239  1.00  0.00     0.006 A 
ENDBRANCH  49  70
BRANCH  61  78
ATOM     78  C   UNL A   1      47.413  27.533  25.612  1.00  0.00     0.057 A 
ATOM     79  C   UNL A   1      47.476  27.678  24.219  1.00  0.00     0.134 A 
ATOM     80  C   UNL A   1      48.573  27.097  26.267  1.00  0.00     0.134 A 
ATOM     81  F   UNL A   1      46.398  28.081  23.528  1.00  0.00    -0.206 F 
ATOM     82  C   UNL A   1      48.630  27.356  23.503  1.00  0.00     0.040 A 
ATOM     83  C   UNL A   1      49.743  26.806  25.565  1.00  0.00     0.040 A 
ATOM     84  F   UNL A   1      48.589  26.951  27.601  1.00  0.00    -0.206 F 
ATOM     85  C   UNL A   1      49.769  26.922  24.177  1.00  0.00     0.006 A 
ENDBRANCH  61  78
ENDBRANCH  35  36
ENDBRANCH  28  30
ENDBRANCH  27  28
ENDBRANCH  26  27
ENDBRANCH  25  26
ENDBRANCH  24  25
ENDBRANCH  23  24
ENDBRANCH  22  23
ENDBRANCH  21  22
ENDBRANCH   1  21
TORSDOF 23
ENDMDL
MODEL 2
REMARK VINA RESULT:      -9.2      3.791      7.647
REMARK SMILES CCS(=O)(=O)N[C@H]1C=C[C@@H](C(=O)OCCOCCOCCOCCOC(=O)c2ccc(-c3c4nc(c(-c5c(F)cccc5F)c5ccc([nH]5)c(-c5c(F)cccc5F)c5nc(c(-c6c(F)cccc6F)c6ccc3[nH]6)C=C5)C=C4)cc2)C1
REMARK SMILES IDX 18 1 17 2 16 3 15 4 14 5 13 6 11 7 12 8 10 9 7 10 8 11 82 12
REMARK SMILES IDX 9 13 6 14 3 16 4 17 5 18 2 19 1 20 19 21 20 22 21 23 22 24
REMARK SMILES IDX 23 25 24 26 25 27 26 28 27 29 28 30 29 31 81 32 30 33 80 34
REMARK SMILES IDX 31 35 32 36 33 37 74 38 34 39 79 40 73 41 75 42 35 43 78 44
REMARK SMILES IDX 72 45 71 46 36 48 62 49 45 50 61 51 46 52 49 53 60 54 76 55
REMARK SMILES IDX 47 56 48 57 59 59 77 60 50 61 37 62 38 63 43 64 39 65 40 66
REMARK SMILES IDX 42 67 44 68 41 69 63 70 64 71 69 72 65 73 66 74 68 75 70 76
REMARK SMILES IDX 67 77 51 78 52 79 57 80 53 81 54 82 56 83 58 84 55 85
REMARK H PARENT 6 15 75 47 49 58
REMARK Flexibility Score: inf
ROOT
ATOM      1  C   UNL A   1      32.945  26.514  25.571  1.00  0.00     0.188 C 
ENDROOT
BRANCH   1   2
ATOM      2  C   UNL A   1      33.724  26.152  24.301  1.00  0.00     0.188 C 
BRANCH   2   3
ATOM      3  O   UNL A   1      33.031  26.207  23.063  1.00  0.00    -0.376 OA
BRANCH   3   4
ATOM      4  C   UNL A   1      33.154  25.107  22.165  1.00  0.00     0.202 C 
BRANCH   4   5
ATOM      5  C   UNL A   1      33.642  23.754  22.703  1.00  0.00     0.261 C 
BRANCH   5   6
ATOM      6  O   UNL A   1      32.572  22.818  22.932  1.00  0.00    -0.463 OA
BRANCH   6   7
ATOM      7  C   UNL A   1      31.801  23.043  24.029  1.00  0.00     0.312 C 
ATOM      8  O   UNL A   1      30.831  23.795  24.043  1.00  0.00    -0.252 OA
BRANCH   7   9
ATOM      9  C   UNL A   1      32.172  22.168  25.227  1.00  0.00     0.123 C 
ATOM     10  C   UNL A   1      33.449  20.098  25.670  1.00  0.00     0.093 C 
ATOM     11  C   UNL A   1      34.287  21.324  25.830  1.00  0.00    -0.011 C 
ATOM     12  C   UNL A   1      32.159  20.646  25.046  1.00  0.00     0.043 C 
ATOM     13  C   UNL A   1      33.594  22.445  25.614  1.00  0.00    -0.015 C 
BRANCH  10  14
ATOM     14  N   UNL A   1      34.137  19.190  24.756  1.00  0.00    -0.208 NA
ATOM     15  H   UNL A   1      33.989  19.545  23.813  1.00  0.00     0.141 HD
BRANCH  14  16
ATOM     16  S   UNL A   1      33.704  17.570  24.745  1.00  0.00     0.211 S 
ATOM     17  O   UNL A   1      32.555  17.399  25.598  1.00  0.00    -0.212 OA
ATOM     18  O   UNL A   1      34.942  16.861  25.012  1.00  0.00    -0.212 OA
BRANCH  16  19
ATOM     19  C   UNL A   1      33.269  17.253  23.036  1.00  0.00     0.150 C 
ATOM     20  C   UNL A   1      32.332  18.290  22.460  1.00  0.00     0.022 C 
ENDBRANCH  16  19
ENDBRANCH  14  16
ENDBRANCH  10  14
ENDBRANCH   7   9
ENDBRANCH   6   7
ENDBRANCH   5   6
ENDBRANCH   4   5
ENDBRANCH   3   4
ENDBRANCH   2   3
ENDBRANCH   1   2
BRANCH   1  21
ATOM     21  O   UNL A   1      33.621  27.352  26.499  1.00  0.00    -0.377 OA
BRANCH  21  22
ATOM     22  C   UNL A   1      34.047  28.655  26.091  1.00  0.00     0.188 C 
BRANCH  22  23
ATOM     23  C   UNL A   1      33.010  29.660  25.581  1.00  0.00     0.188 C 
BRANCH  23  24
ATOM     24  O   UNL A   1      32.070  30.194  26.517  1.00  0.00    -0.376 OA
BRANCH  24  25
ATOM     25  C   UNL A   1      31.272  31.313  26.145  1.00  0.00     0.202 C 
BRANCH  25  26
ATOM     26  C   UNL A   1      31.421  32.538  27.044  1.00  0.00     0.261 C 
BRANCH  26  27
ATOM     27  O   UNL A   1      32.719  33.140  26.909  1.00  0.00    -0.460 OA
BRANCH  27  28
ATOM     28  C   UNL A   1      33.275  33.545  28.069  1.00  0.00     0.338 C 
ATOM     29  O   UNL A   1      32.774  34.266  28.921  1.00  0.00    -0.246 OA
BRANCH  28  30
ATOM     30  C   UNL A   1      34.574  32.881  28.263  1.00  0.00     0.060 A 
ATOM     31  C   UNL A   1      34.555  31.538  28.653  1.00  0.00     0.016 A 
ATOM     32  C   UNL A   1      35.783  33.579  28.171  1.00  0.00     0.016 A 
ATOM     33  C   UNL A   1      35.733  30.912  29.039  1.00  0.00     0.010 A 
ATOM     34  C   UNL A   1      36.969  32.948  28.558  1.00  0.00     0.010 A 
ATOM     35  C   UNL A   1      36.936  31.631  29.048  1.00  0.00    -0.014 A 
BRANCH  35  36
ATOM     36  C   UNL A   1      38.101  31.039  29.745  1.00  0.00     0.031 A 
ATOM     37  C   UNL A   1      38.317  31.357  31.199  1.00  0.00     0.074 A 
ATOM     38  C   UNL A   1      38.890  30.155  29.114  1.00  0.00     0.049 A 
ATOM     39  N   UNL A   1      39.216  30.889  32.027  1.00  0.00    -0.248 NA
ATOM     40  C   UNL A   1      37.393  32.331  31.805  1.00  0.00     0.031 C 
ATOM     41  C   UNL A   1      38.750  29.746  27.716  1.00  0.00     0.029 A 
ATOM     42  N   UNL A   1      39.957  29.428  29.573  1.00  0.00    -0.354 N 
ATOM     43  C   UNL A   1      38.966  31.507  33.246  1.00  0.00     0.074 A 
ATOM     44  C   UNL A   1      37.859  32.415  33.042  1.00  0.00     0.031 C 
ATOM     45  C   UNL A   1      39.693  28.832  27.434  1.00  0.00     0.029 A 
ATOM     46  C   UNL A   1      40.515  28.612  28.621  1.00  0.00     0.049 A 
ATOM     47  H   UNL A   1      40.292  29.486  30.498  1.00  0.00     0.167 HD
ATOM     48  C   UNL A   1      39.593  31.323  34.433  1.00  0.00     0.037 A 
ATOM     49  C   UNL A   1      41.573  27.785  28.704  1.00  0.00     0.037 A 
ATOM     50  C   UNL A   1      40.696  30.418  34.627  1.00  0.00     0.049 A 
ATOM     51  C   UNL A   1      42.289  27.640  30.020  1.00  0.00     0.074 A 
ATOM     52  C   UNL A   1      41.397  30.148  35.789  1.00  0.00     0.029 A 
ATOM     53  N   UNL A   1      41.264  29.642  33.627  1.00  0.00    -0.354 N 
ATOM     54  N   UNL A   1      42.027  28.208  31.173  1.00  0.00    -0.248 NA
ATOM     55  C   UNL A   1      43.439  26.728  30.047  1.00  0.00     0.031 C 
ATOM     56  C   UNL A   1      42.424  29.249  35.481  1.00  0.00     0.029 A 
ATOM     57  C   UNL A   1      42.324  28.910  34.140  1.00  0.00     0.049 A 
ATOM     58  H   UNL A   1      40.959  29.613  32.692  1.00  0.00     0.167 HD
ATOM     59  C   UNL A   1      42.961  27.701  32.068  1.00  0.00     0.074 A 
ATOM     60  C   UNL A   1      43.779  26.763  31.328  1.00  0.00     0.031 C 
ATOM     61  C   UNL A   1      43.130  27.985  33.385  1.00  0.00     0.037 A 
BRANCH  48  62
ATOM     62  C   UNL A   1      39.118  32.138  35.602  1.00  0.00     0.057 A 
ATOM     63  C   UNL A   1      39.506  33.473  35.786  1.00  0.00     0.134 A 
ATOM     64  C   UNL A   1      38.242  31.588  36.545  1.00  0.00     0.134 A 
ATOM     65  F   UNL A   1      40.356  34.059  34.930  1.00  0.00    -0.206 F 
ATOM     66  C   UNL A   1      39.058  34.221  36.878  1.00  0.00     0.040 A 
ATOM     67  C   UNL A   1      37.764  32.334  37.624  1.00  0.00     0.040 A 
ATOM     68  F   UNL A   1      37.828  30.317  36.430  1.00  0.00    -0.206 F 
ATOM     69  C   UNL A   1      38.178  33.652  37.797  1.00  0.00     0.006 A 
ENDBRANCH  48  62
BRANCH  49  70
ATOM     70  C   UNL A   1      42.021  27.029  27.506  1.00  0.00     0.057 A 
ATOM     71  C   UNL A   1      42.851  27.610  26.542  1.00  0.00     0.134 A 
ATOM     72  C   UNL A   1      41.609  25.707  27.289  1.00  0.00     0.134 A 
ATOM     73  F   UNL A   1      43.263  28.878  26.682  1.00  0.00    -0.206 F 
ATOM     74  C   UNL A   1      43.240  26.914  25.396  1.00  0.00     0.040 A 
ATOM     75  C   UNL A   1      42.013  24.990  26.163  1.00  0.00     0.040 A 
ATOM     76  F   UNL A   1      40.816  25.090  28.178  1.00  0.00    -0.206 F 
ATOM     77  C   UNL A   1      42.825  25.597  25.207  1.00  0.00     0.006 A 
ENDBRANCH  49  70
BRANCH  61  78
ATOM     78  C   UNL A   1      44.220  27.243  34.106  1.00  0.00     0.057 A 
ATOM     79  C   UNL A   1      43.997  26.003  34.719  1.00  0.00     0.134 A 
ATOM     80  C   UNL A   1      45.513  27.777  34.186  1.00  0.00     0.134 A 
ATOM     81  F   UNL A   1      42.779  25.438  34.690  1.00  0.00    -0.206 F 
ATOM     82  C   UNL A   1      45.006  25.345  35.425  1.00  0.00     0.040 A 
ATOM     83  C   UNL A   1      46.539  27.112  34.859  1.00  0.00     0.040 A 
ATOM     84  F   UNL A   1      45.802  28.954  33.608  1.00  0.00    -0.206 F 
ATOM     85  C   UNL A   1      46.283  25.899  35.492  1.00  0.00     0.006 A 
ENDBRANCH  61  78
ENDBRANCH  35  36
ENDBRANCH  28  30
ENDBRANCH  27  28
ENDBRANCH  26  27
ENDBRANCH  25  26
ENDBRANCH  24  25
ENDBRANCH  23  24
ENDBRANCH  22  23
ENDBRANCH  21  22
ENDBRANCH   1  21
TORSDOF 23
ENDMDL
MODEL 3
REMARK VINA RESULT:      -9.1      4.791      9.082
REMARK SMILES CCS(=O)(=O)N[C@H]1C=C[C@@H](C(=O)OCCOCCOCCOCCOC(=O)c2ccc(-c3c4nc(c(-c5c(F)cccc5F)c5ccc([nH]5)c(-c5c(F)cccc5F)c5nc(c(-c6c(F)cccc6F)c6ccc3[nH]6)C=C5)C=C4)cc2)C1
REMARK SMILES IDX 18 1 17 2 16 3 15 4 14 5 13 6 11 7 12 8 10 9 7 10 8 11 82 12
REMARK SMILES IDX 9 13 6 14 3 16 4 17 5 18 2 19 1 20 19 21 20 22 21 23 22 24
REMARK SMILES IDX 23 25 24 26 25 27 26 28 27 29 28 30 29 31 81 32 30 33 80 34
REMARK SMILES IDX 31 35 32 36 33 37 74 38 34 39 79 40 73 41 75 42 35 43 78 44
REMARK SMILES IDX 72 45 71 46 36 48 62 49 45 50 61 51 46 52 49 53 60 54 76 55
REMARK SMILES IDX 47 56 48 57 59 59 77 60 50 61 37 62 38 63 43 64 39 65 40 66
REMARK SMILES IDX 42 67 44 68 41 69 63 70 64 71 69 72 65 73 66 74 68 75 70 76
REMARK SMILES IDX 67 77 51 78 52 79 57 80 53 81 54 82 56 83 58 84 55 85
REMARK H PARENT 6 15 75 47 49 58
REMARK Flexibility Score: inf
ROOT
ATOM      1  C   UNL A   1      32.775  27.060  26.765  1.00  0.00     0.188 C 
ENDROOT
BRANCH   1   2
ATOM      2  C   UNL A   1      32.666  25.680  26.103  1.00  0.00     0.188 C 
BRANCH   2   3
ATOM      3  O   UNL A   1      33.503  25.416  24.988  1.00  0.00    -0.376 OA
BRANCH   3   4
ATOM      4  C   UNL A   1      32.939  24.764  23.853  1.00  0.00     0.202 C 
BRANCH   4   5
ATOM      5  C   UNL A   1      31.442  24.940  23.557  1.00  0.00     0.261 C 
BRANCH   5   6
ATOM      6  O   UNL A   1      31.181  25.916  22.530  1.00  0.00    -0.463 OA
BRANCH   6   7
ATOM      7  C   UNL A   1      31.534  27.197  22.814  1.00  0.00     0.312 C 
ATOM      8  O   UNL A   1      32.554  27.736  22.394  1.00  0.00    -0.252 OA
BRANCH   7   9
ATOM      9  C   UNL A   1      30.474  27.962  23.607  1.00  0.00     0.123 C 
ATOM     10  C   UNL A   1      29.319  30.146  23.504  1.00  0.00     0.093 C 
ATOM     11  C   UNL A   1      28.556  29.070  22.804  1.00  0.00    -0.011 C 
ATOM     12  C   UNL A   1      30.663  29.471  23.804  1.00  0.00     0.043 C 
ATOM     13  C   UNL A   1      29.166  27.885  22.877  1.00  0.00    -0.015 C 
BRANCH  10  14
ATOM     14  N   UNL A   1      29.480  31.267  22.582  1.00  0.00    -0.208 NA
ATOM     15  H   UNL A   1      30.400  31.669  22.759  1.00  0.00     0.141 HD
BRANCH  14  16
ATOM     16  S   UNL A   1      28.374  32.527  22.637  1.00  0.00     0.211 S 
ATOM     17  O   UNL A   1      29.055  33.712  23.091  1.00  0.00    -0.212 OA
ATOM     18  O   UNL A   1      27.246  31.986  23.373  1.00  0.00    -0.212 OA
BRANCH  16  19
ATOM     19  C   UNL A   1      27.854  32.716  20.932  1.00  0.00     0.150 C 
ATOM     20  C   UNL A   1      27.935  31.430  20.140  1.00  0.00     0.022 C 
ENDBRANCH  16  19
ENDBRANCH  14  16
ENDBRANCH  10  14
ENDBRANCH   7   9
ENDBRANCH   6   7
ENDBRANCH   5   6
ENDBRANCH   4   5
ENDBRANCH   3   4
ENDBRANCH   2   3
ENDBRANCH   1   2
BRANCH   1  21
ATOM     21  O   UNL A   1      33.934  27.816  26.439  1.00  0.00    -0.377 OA
BRANCH  21  22
ATOM     22  C   UNL A   1      33.805  28.992  25.635  1.00  0.00     0.188 C 
BRANCH  22  23
ATOM     23  C   UNL A   1      33.052  30.204  26.191  1.00  0.00     0.188 C 
BRANCH  23  24
ATOM     24  O   UNL A   1      33.166  30.488  27.588  1.00  0.00    -0.376 OA
BRANCH  24  25
ATOM     25  C   UNL A   1      33.785  31.700  28.008  1.00  0.00     0.202 C 
BRANCH  25  26
ATOM     26  C   UNL A   1      33.156  32.972  27.444  1.00  0.00     0.261 C 
BRANCH  26  27
ATOM     27  O   UNL A   1      32.408  33.681  28.443  1.00  0.00    -0.460 OA
BRANCH  27  28
ATOM     28  C   UNL A   1      32.971  34.835  28.856  1.00  0.00     0.338 C 
ATOM     29  O   UNL A   1      32.529  35.968  28.720  1.00  0.00    -0.246 OA
BRANCH  28  30
ATOM     30  C   UNL A   1      34.180  34.550  29.646  1.00  0.00     0.060 A 
ATOM     31  C   UNL A   1      35.413  34.681  28.999  1.00  0.00     0.016 A 
ATOM     32  C   UNL A   1      34.110  34.062  30.955  1.00  0.00     0.016 A 
ATOM     33  C   UNL A   1      36.573  34.242  29.624  1.00  0.00     0.010 A 
ATOM     34  C   UNL A   1      35.279  33.623  31.585  1.00  0.00     0.010 A 
ATOM     35  C   UNL A   1      36.503  33.659  30.896  1.00  0.00    -0.014 A 
BRANCH  35  36
ATOM     36  C   UNL A   1      37.692  32.933  31.401  1.00  0.00     0.031 A 
ATOM     37  C   UNL A   1      38.304  33.359  32.707  1.00  0.00     0.074 A 
ATOM     38  C   UNL A   1      38.149  31.850  30.752  1.00  0.00     0.049 A 
ATOM     39  N   UNL A   1      39.289  32.819  33.377  1.00  0.00    -0.248 NA
ATOM     40  C   UNL A   1      37.726  34.552  33.348  1.00  0.00     0.031 C 
ATOM     41  C   UNL A   1      37.609  31.328  29.497  1.00  0.00     0.029 A 
ATOM     42  N   UNL A   1      39.164  30.986  31.069  1.00  0.00    -0.354 N 
ATOM     43  C   UNL A   1      39.447  33.602  34.514  1.00  0.00     0.074 A 
ATOM     44  C   UNL A   1      38.486  34.678  34.425  1.00  0.00     0.031 C 
ATOM     45  C   UNL A   1      38.294  30.224  29.155  1.00  0.00     0.029 A 
ATOM     46  C   UNL A   1      39.334  29.980  30.152  1.00  0.00     0.049 A 
ATOM     47  H   UNL A   1      39.719  31.078  31.878  1.00  0.00     0.167 HD
ATOM     48  C   UNL A   1      40.306  33.430  35.548  1.00  0.00     0.037 A 
ATOM     49  C   UNL A   1      40.232  28.978  30.123  1.00  0.00     0.037 A 
ATOM     50  C   UNL A   1      41.261  32.356  35.629  1.00  0.00     0.049 A 
ATOM     51  C   UNL A   1      41.214  28.841  31.256  1.00  0.00     0.074 A 
ATOM     52  C   UNL A   1      42.171  32.083  36.635  1.00  0.00     0.029 A 
ATOM     53  N   UNL A   1      41.436  31.381  34.657  1.00  0.00    -0.354 N 
ATOM     54  N   UNL A   1      41.335  29.570  32.339  1.00  0.00    -0.248 NA
ATOM     55  C   UNL A   1      42.172  27.733  31.166  1.00  0.00     0.031 C 
ATOM     56  C   UNL A   1      42.933  30.975  36.248  1.00  0.00     0.029 A 
ATOM     57  C   UNL A   1      42.456  30.519  35.029  1.00  0.00     0.049 A 
ATOM     58  H   UNL A   1      40.912  31.311  33.827  1.00  0.00     0.167 HD
ATOM     59  C   UNL A   1      42.365  28.993  33.073  1.00  0.00     0.074 A 
ATOM     60  C   UNL A   1      42.815  27.840  32.320  1.00  0.00     0.031 C 
ATOM     61  C   UNL A   1      42.893  29.379  34.262  1.00  0.00     0.037 A 
BRANCH  48  62
ATOM     62  C   UNL A   1      40.268  34.443  36.657  1.00  0.00     0.057 A 
ATOM     63  C   UNL A   1      39.451  34.282  37.785  1.00  0.00     0.134 A 
ATOM     64  C   UNL A   1      41.078  35.584  36.608  1.00  0.00     0.134 A 
ATOM     65  F   UNL A   1      38.637  33.221  37.890  1.00  0.00    -0.206 F 
ATOM     66  C   UNL A   1      39.424  35.231  38.810  1.00  0.00     0.040 A 
ATOM     67  C   UNL A   1      41.083  36.524  37.640  1.00  0.00     0.040 A 
ATOM     68  F   UNL A   1      41.887  35.800  35.559  1.00  0.00    -0.206 F 
ATOM     69  C   UNL A   1      40.248  36.353  38.742  1.00  0.00     0.006 A 
ENDBRANCH  48  62
BRANCH  49  70
ATOM     70  C   UNL A   1      40.246  28.025  28.983  1.00  0.00     0.057 A 
ATOM     71  C   UNL A   1      40.990  28.279  27.827  1.00  0.00     0.134 A 
ATOM     72  C   UNL A   1      39.496  26.842  29.021  1.00  0.00     0.134 A 
ATOM     73  F   UNL A   1      41.713  29.403  27.722  1.00  0.00    -0.206 F 
ATOM     74  C   UNL A   1      40.972  27.403  26.739  1.00  0.00     0.040 A 
ATOM     75  C   UNL A   1      39.492  25.944  27.953  1.00  0.00     0.040 A 
ATOM     76  F   UNL A   1      38.765  26.537  30.103  1.00  0.00    -0.206 F 
ATOM     77  C   UNL A   1      40.226  26.228  26.803  1.00  0.00     0.006 A 
ENDBRANCH  49  70
BRANCH  61  78
ATOM     78  C   UNL A   1      43.990  28.524  34.829  1.00  0.00     0.057 A 
ATOM     79  C   UNL A   1      45.334  28.705  34.475  1.00  0.00     0.134 A 
ATOM     80  C   UNL A   1      43.698  27.503  35.744  1.00  0.00     0.134 A 
ATOM     81  F   UNL A   1      45.683  29.656  33.595  1.00  0.00    -0.206 F 
ATOM     82  C   UNL A   1      46.339  27.874  34.973  1.00  0.00     0.040 A 
ATOM     83  C   UNL A   1      44.698  26.689  36.276  1.00  0.00     0.040 A 
ATOM     84  F   UNL A   1      42.434  27.284  36.139  1.00  0.00    -0.206 F 
ATOM     85  C   UNL A   1      46.022  26.865  35.880  1.00  0.00     0.006 A 
ENDBRANCH  61  78
ENDBRANCH  35  36
ENDBRANCH  28  30
ENDBRANCH  27  28
ENDBRANCH  26  27
ENDBRANCH  25  26
ENDBRANCH  24  25
ENDBRANCH  23  24
ENDBRANCH  22  23
ENDBRANCH  21  22
ENDBRANCH   1  21
TORSDOF 23
ENDMDL
