MODEL 1
REMARK VINA RESULT:      -9.1      0.000      0.000
REMARK SMILES O=C(CCN1C(=O)/C(=C/c2cc(Br)cc(Br)c2O)SC1=S)OCCOCCOCCOCCOC(=O)c1ccc(-c2c3nc(c(-c4c(F)cccc4F)c4ccc([nH]4)c(-c4c(F)cccc4F)c4nc(c(-c5c(F)cccc5F)c5ccc2[nH]5)C=C4)C=C3)cc1
REMARK SMILES IDX 27 1 26 2 25 3 24 4 23 5 22 6 2 7 1 8 3 9 4 10 5 11 6 12
REMARK SMILES IDX 20 13 7 14 8 15 19 16 21 17 9 18 10 19 11 20 17 21 12 22
REMARK SMILES IDX 15 23 13 24 14 25 16 26 18 27 28 29 29 30 30 31 31 32 32 33
REMARK SMILES IDX 33 34 34 35 35 36 36 37 37 38 38 39 90 40 39 41 89 42 40 43
REMARK SMILES IDX 41 44 42 45 83 46 43 47 88 48 82 49 84 50 44 51 87 52 81 53
REMARK SMILES IDX 80 54 45 56 71 57 54 58 70 59 55 60 58 61 69 62 85 63 56 64
REMARK SMILES IDX 57 65 68 67 86 68 59 69 46 70 47 71 52 72 48 73 49 74 51 75
REMARK SMILES IDX 53 76 50 77 72 78 73 79 78 80 74 81 75 82 77 83 79 84 76 85
REMARK SMILES IDX 60 86 61 87 66 88 62 89 63 90 65 91 67 92 64 93
REMARK H PARENT 18 28 84 55 58 66
REMARK Flexibility Score: inf
ROOT
ATOM      1  C   UNL A   1      35.074  30.390  27.616  1.00  0.00     0.188 C 
ENDROOT
BRANCH   1   2
ATOM      2  C   UNL A   1      33.733  30.394  26.884  1.00  0.00     0.188 C 
BRANCH   2   3
ATOM      3  O   UNL A   1      33.610  29.391  25.878  1.00  0.00    -0.376 OA
BRANCH   3   4
ATOM      4  C   UNL A   1      33.806  28.059  26.306  1.00  0.00     0.202 C 
BRANCH   4   5
ATOM      5  C   UNL A   1      32.740  27.181  25.684  1.00  0.00     0.261 C 
BRANCH   5   6
ATOM      6  O   UNL A   1      31.698  27.947  25.057  1.00  0.00    -0.463 OA
BRANCH   6   7
ATOM      7  C   UNL A   1      30.768  27.491  24.190  1.00  0.00     0.307 C 
ATOM      8  O   UNL A   1      30.469  28.200  23.227  1.00  0.00    -0.252 OA
BRANCH   7   9
ATOM      9  C   UNL A   1      29.992  26.212  24.433  1.00  0.00     0.144 C 
BRANCH   9  10
ATOM     10  C   UNL A   1      30.228  25.028  23.501  1.00  0.00     0.139 C 
BRANCH  10  11
ATOM     11  N   UNL A   1      31.559  24.408  23.564  1.00  0.00    -0.292 N 
ATOM     12  C   UNL A   1      31.855  23.501  24.575  1.00  0.00     0.266 C 
ATOM     13  C   UNL A   1      32.546  24.596  22.614  1.00  0.00     0.148 C 
ATOM     14  O   UNL A   1      31.073  23.026  25.385  1.00  0.00    -0.268 OA
ATOM     15  C   UNL A   1      33.307  23.157  24.541  1.00  0.00     0.081 C 
ATOM     16  S   UNL A   1      33.971  23.660  23.039  1.00  0.00    -0.054 SA
ATOM     17  S   UNL A   1      32.522  25.582  21.270  1.00  0.00    -0.052 S 
ATOM     18  C   UNL A   1      33.956  22.612  25.584  1.00  0.00     0.033 C 
BRANCH  18  19
ATOM     19  C   UNL A   1      35.408  22.340  25.659  1.00  0.00     0.020 A 
ATOM     20  C   UNL A   1      36.283  23.370  26.051  1.00  0.00     0.027 A 
ATOM     21  C   UNL A   1      35.956  21.077  25.373  1.00  0.00     0.137 A 
ATOM     22  C   UNL A   1      37.664  23.166  26.076  1.00  0.00     0.019 A 
ATOM     23  C   UNL A   1      37.346  20.879  25.420  1.00  0.00     0.061 A 
ATOM     24  Br  UNL A   1      38.811  24.609  26.505  1.00  0.00    -0.051 Br
ATOM     25  C   UNL A   1      38.203  21.926  25.760  1.00  0.00     0.035 A 
ATOM     26  Br  UNL A   1      38.125  19.198  24.999  1.00  0.00    -0.047 Br
BRANCH  21  27
ATOM     27  O   UNL A   1      35.164  20.008  25.037  1.00  0.00    -0.506 OA
ATOM     28  H   UNL A   1      35.289  19.574  24.216  1.00  0.00     0.293 HD
ENDBRANCH  21  27
ENDBRANCH  18  19
ENDBRANCH  10  11
ENDBRANCH   9  10
ENDBRANCH   7   9
ENDBRANCH   6   7
ENDBRANCH   5   6
ENDBRANCH   4   5
ENDBRANCH   3   4
ENDBRANCH   2   3
ENDBRANCH   1   2
BRANCH   1  29
ATOM     29  O   UNL A   1      35.462  31.562  28.332  1.00  0.00    -0.377 OA
BRANCH  29  30
ATOM     30  C   UNL A   1      34.616  32.078  29.350  1.00  0.00     0.188 C 
BRANCH  30  31
ATOM     31  C   UNL A   1      34.960  33.426  29.994  1.00  0.00     0.188 C 
BRANCH  31  32
ATOM     32  O   UNL A   1      34.534  33.564  31.330  1.00  0.00    -0.376 OA
BRANCH  32  33
ATOM     33  C   UNL A   1      35.240  32.909  32.375  1.00  0.00     0.202 C 
BRANCH  33  34
ATOM     34  C   UNL A   1      36.617  32.221  32.230  1.00  0.00     0.261 C 
BRANCH  34  35
ATOM     35  O   UNL A   1      36.705  30.838  32.597  1.00  0.00    -0.460 OA
BRANCH  35  36
ATOM     36  C   UNL A   1      36.865  29.973  31.559  1.00  0.00     0.338 C 
ATOM     37  O   UNL A   1      35.998  29.339  30.994  1.00  0.00    -0.246 OA
BRANCH  36  38
ATOM     38  C   UNL A   1      38.251  30.026  31.047  1.00  0.00     0.060 A 
ATOM     39  C   UNL A   1      38.438  30.275  29.680  1.00  0.00     0.016 A 
ATOM     40  C   UNL A   1      39.343  29.749  31.868  1.00  0.00     0.016 A 
ATOM     41  C   UNL A   1      39.718  30.244  29.126  1.00  0.00     0.010 A 
ATOM     42  C   UNL A   1      40.622  29.676  31.305  1.00  0.00     0.010 A 
ATOM     43  C   UNL A   1      40.812  29.898  29.928  1.00  0.00    -0.014 A 
BRANCH  43  44
ATOM     44  C   UNL A   1      42.102  29.543  29.288  1.00  0.00     0.031 A 
ATOM     45  C   UNL A   1      42.291  28.129  28.810  1.00  0.00     0.074 A 
ATOM     46  C   UNL A   1      43.085  30.445  29.117  1.00  0.00     0.049 A 
ATOM     47  N   UNL A   1      43.341  27.565  28.269  1.00  0.00    -0.248 NA
ATOM     48  C   UNL A   1      41.137  27.229  28.969  1.00  0.00     0.031 C 
ATOM     49  C   UNL A   1      43.016  31.853  29.497  1.00  0.00     0.029 A 
ATOM     50  N   UNL A   1      44.344  30.297  28.586  1.00  0.00    -0.354 N 
ATOM     51  C   UNL A   1      42.973  26.248  28.024  1.00  0.00     0.074 A 
ATOM     52  C   UNL A   1      41.617  26.088  28.501  1.00  0.00     0.031 C 
ATOM     53  C   UNL A   1      44.193  32.437  29.204  1.00  0.00     0.029 A 
ATOM     54  C   UNL A   1      45.100  31.441  28.633  1.00  0.00     0.049 A 
ATOM     55  H   UNL A   1      44.672  29.449  28.208  1.00  0.00     0.167 HD
ATOM     56  C   UNL A   1      43.698  25.258  27.450  1.00  0.00     0.037 A 
ATOM     57  C   UNL A   1      46.383  31.653  28.274  1.00  0.00     0.037 A 
ATOM     58  C   UNL A   1      45.054  25.405  26.994  1.00  0.00     0.049 A 
ATOM     59  C   UNL A   1      47.199  30.512  27.717  1.00  0.00     0.074 A 
ATOM     60  C   UNL A   1      45.871  24.457  26.404  1.00  0.00     0.029 A 
ATOM     61  N   UNL A   1      45.796  26.571  27.088  1.00  0.00    -0.354 N 
ATOM     62  N   UNL A   1      46.838  29.275  27.473  1.00  0.00    -0.248 NA
ATOM     63  C   UNL A   1      48.605  30.797  27.393  1.00  0.00     0.031 C 
ATOM     64  C   UNL A   1      47.126  25.037  26.187  1.00  0.00     0.029 A 
ATOM     65  C   UNL A   1      47.070  26.362  26.589  1.00  0.00     0.049 A 
ATOM     66  H   UNL A   1      45.465  27.423  27.456  1.00  0.00     0.167 HD
ATOM     67  C   UNL A   1      47.958  28.647  26.938  1.00  0.00     0.074 A 
ATOM     68  C   UNL A   1      49.009  29.642  26.884  1.00  0.00     0.031 C 
ATOM     69  C   UNL A   1      48.104  27.364  26.528  1.00  0.00     0.037 A 
BRANCH  56  70
ATOM     70  C   UNL A   1      43.038  23.919  27.314  1.00  0.00     0.057 A 
ATOM     71  C   UNL A   1      42.947  23.028  28.391  1.00  0.00     0.134 A 
ATOM     72  C   UNL A   1      42.474  23.521  26.096  1.00  0.00     0.134 A 
ATOM     73  F   UNL A   1      43.484  23.340  29.580  1.00  0.00    -0.206 F 
ATOM     74  C   UNL A   1      42.338  21.779  28.254  1.00  0.00     0.040 A 
ATOM     75  C   UNL A   1      41.839  22.286  25.954  1.00  0.00     0.040 A 
ATOM     76  F   UNL A   1      42.527  24.328  25.025  1.00  0.00    -0.206 F 
ATOM     77  C   UNL A   1      41.776  21.409  27.035  1.00  0.00     0.006 A 
ENDBRANCH  56  70
BRANCH  57  78
ATOM     78  C   UNL A   1      46.996  32.998  28.434  1.00  0.00     0.057 A 
ATOM     79  C   UNL A   1      46.984  33.929  27.389  1.00  0.00     0.134 A 
ATOM     80  C   UNL A   1      47.647  33.367  29.617  1.00  0.00     0.134 A 
ATOM     81  F   UNL A   1      46.399  33.623  26.221  1.00  0.00    -0.206 F 
ATOM     82  C   UNL A   1      47.613  35.169  27.506  1.00  0.00     0.040 A 
ATOM     83  C   UNL A   1      48.258  34.616  29.757  1.00  0.00     0.040 A 
ATOM     84  F   UNL A   1      47.700  32.521  30.656  1.00  0.00    -0.206 F 
ATOM     85  C   UNL A   1      48.248  35.517  28.695  1.00  0.00     0.006 A 
ENDBRANCH  57  78
BRANCH  69  86
ATOM     86  C   UNL A   1      49.429  26.964  25.941  1.00  0.00     0.057 A 
ATOM     87  C   UNL A   1      50.440  26.381  26.714  1.00  0.00     0.134 A 
ATOM     88  C   UNL A   1      49.673  27.117  24.569  1.00  0.00     0.134 A 
ATOM     89  F   UNL A   1      50.275  26.214  28.035  1.00  0.00    -0.206 F 
ATOM     90  C   UNL A   1      51.654  25.984  26.149  1.00  0.00     0.040 A 
ATOM     91  C   UNL A   1      50.871  26.700  23.988  1.00  0.00     0.040 A 
ATOM     92  F   UNL A   1      48.742  27.659  23.768  1.00  0.00    -0.206 F 
ATOM     93  C   UNL A   1      51.869  26.136  24.780  1.00  0.00     0.006 A 
ENDBRANCH  69  86
ENDBRANCH  43  44
ENDBRANCH  36  38
ENDBRANCH  35  36
ENDBRANCH  34  35
ENDBRANCH  33  34
ENDBRANCH  32  33
ENDBRANCH  31  32
ENDBRANCH  30  31
ENDBRANCH  29  30
ENDBRANCH   1  29
TORSDOF 24
ENDMDL
MODEL 2
REMARK VINA RESULT:      -8.6      5.310      9.313
REMARK SMILES O=C(CCN1C(=O)/C(=C/c2cc(Br)cc(Br)c2O)SC1=S)OCCOCCOCCOCCOC(=O)c1ccc(-c2c3nc(c(-c4c(F)cccc4F)c4ccc([nH]4)c(-c4c(F)cccc4F)c4nc(c(-c5c(F)cccc5F)c5ccc2[nH]5)C=C4)C=C3)cc1
REMARK SMILES IDX 27 1 26 2 25 3 24 4 23 5 22 6 2 7 1 8 3 9 4 10 5 11 6 12
REMARK SMILES IDX 20 13 7 14 8 15 19 16 21 17 9 18 10 19 11 20 17 21 12 22
REMARK SMILES IDX 15 23 13 24 14 25 16 26 18 27 28 29 29 30 30 31 31 32 32 33
REMARK SMILES IDX 33 34 34 35 35 36 36 37 37 38 38 39 90 40 39 41 89 42 40 43
REMARK SMILES IDX 41 44 42 45 83 46 43 47 88 48 82 49 84 50 44 51 87 52 81 53
REMARK SMILES IDX 80 54 45 56 71 57 54 58 70 59 55 60 58 61 69 62 85 63 56 64
REMARK SMILES IDX 57 65 68 67 86 68 59 69 46 70 47 71 52 72 48 73 49 74 51 75
REMARK SMILES IDX 53 76 50 77 72 78 73 79 78 80 74 81 75 82 77 83 79 84 76 85
REMARK SMILES IDX 60 86 61 87 66 88 62 89 63 90 65 91 67 92 64 93
REMARK H PARENT 18 28 84 55 58 66
REMARK Flexibility Score: inf
ROOT
ATOM      1  C   UNL A   1      36.207  33.530  29.744  1.00  0.00     0.188 C 
ENDROOT
BRANCH   1   2
ATOM      2  C   UNL A   1      35.147  32.770  30.541  1.00  0.00     0.188 C 
BRANCH   2   3
ATOM      3  O   UNL A   1      34.358  33.591  31.400  1.00  0.00    -0.376 OA
BRANCH   3   4
ATOM      4  C   UNL A   1      34.980  34.767  31.875  1.00  0.00     0.202 C 
BRANCH   4   5
ATOM      5  C   UNL A   1      34.605  34.968  33.328  1.00  0.00     0.261 C 
BRANCH   5   6
ATOM      6  O   UNL A   1      35.746  34.910  34.201  1.00  0.00    -0.463 OA
BRANCH   6   7
ATOM      7  C   UNL A   1      36.562  33.851  34.396  1.00  0.00     0.307 C 
ATOM      8  O   UNL A   1      36.072  32.720  34.355  1.00  0.00    -0.252 OA
BRANCH   7   9
ATOM      9  C   UNL A   1      38.017  34.010  34.789  1.00  0.00     0.144 C 
BRANCH   9  10
ATOM     10  C   UNL A   1      39.041  34.298  33.697  1.00  0.00     0.139 C 
BRANCH  10  11
ATOM     11  N   UNL A   1      40.124  33.315  33.547  1.00  0.00    -0.292 N 
ATOM     12  C   UNL A   1      39.857  32.068  32.990  1.00  0.00     0.266 C 
ATOM     13  C   UNL A   1      41.448  33.572  33.845  1.00  0.00     0.148 C 
ATOM     14  O   UNL A   1      38.815  31.709  32.462  1.00  0.00    -0.268 OA
ATOM     15  C   UNL A   1      41.056  31.188  33.117  1.00  0.00     0.081 C 
ATOM     16  S   UNL A   1      42.425  32.152  33.501  1.00  0.00    -0.054 SA
ATOM     17  S   UNL A   1      42.119  34.952  34.496  1.00  0.00    -0.052 S 
ATOM     18  C   UNL A   1      40.997  29.850  33.014  1.00  0.00     0.033 C 
BRANCH  18  19
ATOM     19  C   UNL A   1      42.119  28.911  33.228  1.00  0.00     0.020 A 
ATOM     20  C   UNL A   1      43.375  29.198  32.663  1.00  0.00     0.027 A 
ATOM     21  C   UNL A   1      41.989  27.741  33.998  1.00  0.00     0.137 A 
ATOM     22  C   UNL A   1      44.442  28.305  32.794  1.00  0.00     0.019 A 
ATOM     23  C   UNL A   1      43.075  26.859  34.138  1.00  0.00     0.061 A 
ATOM     24  Br  UNL A   1      46.082  28.679  31.929  1.00  0.00    -0.051 Br
ATOM     25  C   UNL A   1      44.299  27.134  33.527  1.00  0.00     0.035 A 
ATOM     26  Br  UNL A   1      42.924  25.250  35.135  1.00  0.00    -0.047 Br
BRANCH  21  27
ATOM     27  O   UNL A   1      40.813  27.419  34.625  1.00  0.00    -0.506 OA
ATOM     28  H   UNL A   1      40.518  27.926  35.356  1.00  0.00     0.293 HD
ENDBRANCH  21  27
ENDBRANCH  18  19
ENDBRANCH  10  11
ENDBRANCH   9  10
ENDBRANCH   7   9
ENDBRANCH   6   7
ENDBRANCH   5   6
ENDBRANCH   4   5
ENDBRANCH   3   4
ENDBRANCH   2   3
ENDBRANCH   1   2
BRANCH   1  29
ATOM     29  O   UNL A   1      37.582  33.281  30.031  1.00  0.00    -0.377 OA
BRANCH  29  30
ATOM     30  C   UNL A   1      38.440  34.365  30.361  1.00  0.00     0.188 C 
BRANCH  30  31
ATOM     31  C   UNL A   1      39.550  34.762  29.381  1.00  0.00     0.188 C 
BRANCH  31  32
ATOM     32  O   UNL A   1      40.853  34.436  29.805  1.00  0.00    -0.376 OA
BRANCH  32  33
ATOM     33  C   UNL A   1      41.929  35.329  29.554  1.00  0.00     0.202 C 
BRANCH  33  34
ATOM     34  C   UNL A   1      42.896  35.889  30.623  1.00  0.00     0.261 C 
BRANCH  34  35
ATOM     35  O   UNL A   1      44.046  36.607  30.160  1.00  0.00    -0.460 OA
BRANCH  35  36
ATOM     36  C   UNL A   1      45.245  36.093  30.547  1.00  0.00     0.338 C 
ATOM     37  O   UNL A   1      46.081  36.631  31.243  1.00  0.00    -0.246 OA
BRANCH  36  38
ATOM     38  C   UNL A   1      45.349  34.669  30.164  1.00  0.00     0.060 A 
ATOM     39  C   UNL A   1      45.288  34.349  28.800  1.00  0.00     0.016 A 
ATOM     40  C   UNL A   1      45.414  33.659  31.122  1.00  0.00     0.016 A 
ATOM     41  C   UNL A   1      45.289  33.016  28.388  1.00  0.00     0.010 A 
ATOM     42  C   UNL A   1      45.371  32.322  30.712  1.00  0.00     0.010 A 
ATOM     43  C   UNL A   1      45.283  31.995  29.345  1.00  0.00    -0.014 A 
BRANCH  43  44
ATOM     44  C   UNL A   1      44.951  30.609  28.931  1.00  0.00     0.031 A 
ATOM     45  C   UNL A   1      43.514  30.171  29.008  1.00  0.00     0.074 A 
ATOM     46  C   UNL A   1      45.889  29.756  28.484  1.00  0.00     0.049 A 
ATOM     47  N   UNL A   1      42.984  29.002  28.752  1.00  0.00    -0.248 NA
ATOM     48  C   UNL A   1      42.544  31.192  29.436  1.00  0.00     0.031 C 
ATOM     49  C   UNL A   1      47.307  30.065  28.323  1.00  0.00     0.029 A 
ATOM     50  N   UNL A   1      45.781  28.442  28.096  1.00  0.00    -0.354 N 
ATOM     51  C   UNL A   1      41.623  29.149  28.987  1.00  0.00     0.074 A 
ATOM     52  C   UNL A   1      41.412  30.508  29.434  1.00  0.00     0.031 C 
ATOM     53  C   UNL A   1      47.942  28.962  27.887  1.00  0.00     0.029 A 
ATOM     54  C   UNL A   1      46.980  27.868  27.754  1.00  0.00     0.049 A 
ATOM     55  H   UNL A   1      44.924  27.958  28.065  1.00  0.00     0.167 HD
ATOM     56  C   UNL A   1      40.634  28.235  28.843  1.00  0.00     0.037 A 
ATOM     57  C   UNL A   1      47.268  26.600  27.395  1.00  0.00     0.037 A 
ATOM     58  C   UNL A   1      40.840  26.876  28.420  1.00  0.00     0.049 A 
ATOM     59  C   UNL A   1      46.161  25.576  27.325  1.00  0.00     0.074 A 
ATOM     60  C   UNL A   1      39.900  25.875  28.250  1.00  0.00     0.029 A 
ATOM     61  N   UNL A   1      42.074  26.324  28.115  1.00  0.00    -0.354 N 
ATOM     62  N   UNL A   1      44.876  25.727  27.533  1.00  0.00    -0.248 NA
ATOM     63  C   UNL A   1      46.551  24.200  26.978  1.00  0.00     0.031 C 
ATOM     64  C   UNL A   1      40.572  24.702  27.888  1.00  0.00     0.029 A 
ATOM     65  C   UNL A   1      41.924  24.989  27.778  1.00  0.00     0.049 A 
ATOM     66  H   UNL A   1      42.931  26.809  28.134  1.00  0.00     0.167 HD
ATOM     67  C   UNL A   1      44.301  24.480  27.309  1.00  0.00     0.074 A 
ATOM     68  C   UNL A   1      45.377  23.585  26.941  1.00  0.00     0.031 C 
ATOM     69  C   UNL A   1      43.001  24.110  27.400  1.00  0.00     0.037 A 
BRANCH  56  70
ATOM     70  C   UNL A   1      39.240  28.677  29.176  1.00  0.00     0.057 A 
ATOM     71  C   UNL A   1      38.437  29.349  28.247  1.00  0.00     0.134 A 
ATOM     72  C   UNL A   1      38.691  28.413  30.436  1.00  0.00     0.134 A 
ATOM     73  F   UNL A   1      38.910  29.649  27.028  1.00  0.00    -0.206 F 
ATOM     74  C   UNL A   1      37.143  29.764  28.567  1.00  0.00     0.040 A 
ATOM     75  C   UNL A   1      37.388  28.799  30.759  1.00  0.00     0.040 A 
ATOM     76  F   UNL A   1      39.407  27.771  31.372  1.00  0.00    -0.206 F 
ATOM     77  C   UNL A   1      36.613  29.482  29.825  1.00  0.00     0.006 A 
ENDBRANCH  56  70
BRANCH  57  78
ATOM     78  C   UNL A   1      48.667  26.207  27.081  1.00  0.00     0.057 A 
ATOM     79  C   UNL A   1      49.177  26.322  25.783  1.00  0.00     0.134 A 
ATOM     80  C   UNL A   1      49.511  25.666  28.058  1.00  0.00     0.134 A 
ATOM     81  F   UNL A   1      48.408  26.807  24.797  1.00  0.00    -0.206 F 
ATOM     82  C   UNL A   1      50.467  25.895  25.462  1.00  0.00     0.040 A 
ATOM     83  C   UNL A   1      50.813  25.260  27.757  1.00  0.00     0.040 A 
ATOM     84  F   UNL A   1      49.083  25.524  29.321  1.00  0.00    -0.206 F 
ATOM     85  C   UNL A   1      51.291  25.367  26.453  1.00  0.00     0.006 A 
ENDBRANCH  57  78
BRANCH  69  86
ATOM     86  C   UNL A   1      42.653  22.690  27.053  1.00  0.00     0.057 A 
ATOM     87  C   UNL A   1      42.703  22.211  25.738  1.00  0.00     0.134 A 
ATOM     88  C   UNL A   1      42.316  21.774  28.060  1.00  0.00     0.134 A 
ATOM     89  F   UNL A   1      43.011  23.036  24.726  1.00  0.00    -0.206 F 
ATOM     90  C   UNL A   1      42.410  20.880  25.434  1.00  0.00     0.040 A 
ATOM     91  C   UNL A   1      42.048  20.436  27.772  1.00  0.00     0.040 A 
ATOM     92  F   UNL A   1      42.260  22.164  29.343  1.00  0.00    -0.206 F 
ATOM     93  C   UNL A   1      42.089  19.986  26.454  1.00  0.00     0.006 A 
ENDBRANCH  69  86
ENDBRANCH  43  44
ENDBRANCH  36  38
ENDBRANCH  35  36
ENDBRANCH  34  35
ENDBRANCH  33  34
ENDBRANCH  32  33
ENDBRANCH  31  32
ENDBRANCH  30  31
ENDBRANCH  29  30
ENDBRANCH   1  29
TORSDOF 24
ENDMDL
MODEL 3
REMARK VINA RESULT:      -8.4      2.783      6.682
REMARK SMILES O=C(CCN1C(=O)/C(=C/c2cc(Br)cc(Br)c2O)SC1=S)OCCOCCOCCOCCOC(=O)c1ccc(-c2c3nc(c(-c4c(F)cccc4F)c4ccc([nH]4)c(-c4c(F)cccc4F)c4nc(c(-c5c(F)cccc5F)c5ccc2[nH]5)C=C4)C=C3)cc1
REMARK SMILES IDX 27 1 26 2 25 3 24 4 23 5 22 6 2 7 1 8 3 9 4 10 5 11 6 12
REMARK SMILES IDX 20 13 7 14 8 15 19 16 21 17 9 18 10 19 11 20 17 21 12 22
REMARK SMILES IDX 15 23 13 24 14 25 16 26 18 27 28 29 29 30 30 31 31 32 32 33
REMARK SMILES IDX 33 34 34 35 35 36 36 37 37 38 38 39 90 40 39 41 89 42 40 43
REMARK SMILES IDX 41 44 42 45 83 46 43 47 88 48 82 49 84 50 44 51 87 52 81 53
REMARK SMILES IDX 80 54 45 56 71 57 54 58 70 59 55 60 58 61 69 62 85 63 56 64
REMARK SMILES IDX 57 65 68 67 86 68 59 69 46 70 47 71 52 72 48 73 49 74 51 75
REMARK SMILES IDX 53 76 50 77 72 78 73 79 78 80 74 81 75 82 77 83 79 84 76 85
REMARK SMILES IDX 60 86 61 87 66 88 62 89 63 90 65 91 67 92 64 93
REMARK H PARENT 18 28 84 55 58 66
REMARK Flexibility Score: inf
ROOT
ATOM      1  C   UNL A   1      33.669  30.077  27.126  1.00  0.00     0.188 C 
ENDROOT
BRANCH   1   2
ATOM      2  C   UNL A   1      32.158  30.145  26.907  1.00  0.00     0.188 C 
BRANCH   2   3
ATOM      3  O   UNL A   1      31.730  29.700  25.621  1.00  0.00    -0.376 OA
BRANCH   3   4
ATOM      4  C   UNL A   1      32.757  29.359  24.712  1.00  0.00     0.202 C 
BRANCH   4   5
ATOM      5  C   UNL A   1      32.139  28.694  23.500  1.00  0.00     0.261 C 
BRANCH   5   6
ATOM      6  O   UNL A   1      30.705  28.798  23.490  1.00  0.00    -0.463 OA
BRANCH   6   7
ATOM      7  C   UNL A   1      29.819  27.784  23.591  1.00  0.00     0.307 C 
ATOM      8  O   UNL A   1      28.689  27.946  23.125  1.00  0.00    -0.252 OA
BRANCH   7   9
ATOM      9  C   UNL A   1      30.121  26.518  24.367  1.00  0.00     0.144 C 
BRANCH   9  10
ATOM     10  C   UNL A   1      30.266  25.209  23.599  1.00  0.00     0.139 C 
BRANCH  10  11
ATOM     11  N   UNL A   1      31.589  24.568  23.652  1.00  0.00    -0.292 N 
ATOM     12  C   UNL A   1      31.896  23.696  24.691  1.00  0.00     0.266 C 
ATOM     13  C   UNL A   1      32.553  24.702  22.671  1.00  0.00     0.148 C 
ATOM     14  O   UNL A   1      31.128  23.266  25.539  1.00  0.00    -0.268 OA
ATOM     15  C   UNL A   1      33.340  23.326  24.634  1.00  0.00     0.081 C 
ATOM     16  S   UNL A   1      33.974  23.758  23.096  1.00  0.00    -0.054 SA
ATOM     17  S   UNL A   1      32.511  25.635  21.291  1.00  0.00    -0.052 S 
ATOM     18  C   UNL A   1      34.007  22.811  25.680  1.00  0.00     0.033 C 
BRANCH  18  19
ATOM     19  C   UNL A   1      35.456  22.517  25.729  1.00  0.00     0.020 A 
ATOM     20  C   UNL A   1      36.350  23.523  26.138  1.00  0.00     0.027 A 
ATOM     21  C   UNL A   1      35.982  21.254  25.402  1.00  0.00     0.137 A 
ATOM     22  C   UNL A   1      37.729  23.300  26.140  1.00  0.00     0.019 A 
ATOM     23  C   UNL A   1      37.370  21.036  25.425  1.00  0.00     0.061 A 
ATOM     24  Br  UNL A   1      38.901  24.713  26.594  1.00  0.00    -0.051 Br
ATOM     25  C   UNL A   1      38.246  22.061  25.783  1.00  0.00     0.035 A 
ATOM     26  Br  UNL A   1      38.120  19.357  24.948  1.00  0.00    -0.047 Br
BRANCH  21  27
ATOM     27  O   UNL A   1      35.172  20.206  25.046  1.00  0.00    -0.506 OA
ATOM     28  H   UNL A   1      34.756  20.200  24.206  1.00  0.00     0.293 HD
ENDBRANCH  21  27
ENDBRANCH  18  19
ENDBRANCH  10  11
ENDBRANCH   9  10
ENDBRANCH   7   9
ENDBRANCH   6   7
ENDBRANCH   5   6
ENDBRANCH   4   5
ENDBRANCH   3   4
ENDBRANCH   2   3
ENDBRANCH   1   2
BRANCH   1  29
ATOM     29  O   UNL A   1      34.353  31.264  27.524  1.00  0.00    -0.377 OA
BRANCH  29  30
ATOM     30  C   UNL A   1      33.692  32.217  28.344  1.00  0.00     0.188 C 
BRANCH  30  31
ATOM     31  C   UNL A   1      33.711  33.694  27.935  1.00  0.00     0.188 C 
BRANCH  31  32
ATOM     32  O   UNL A   1      32.856  34.523  28.687  1.00  0.00    -0.376 OA
BRANCH  32  33
ATOM     33  C   UNL A   1      33.315  35.113  29.896  1.00  0.00     0.202 C 
BRANCH  33  34
ATOM     34  C   UNL A   1      34.722  34.920  30.507  1.00  0.00     0.261 C 
BRANCH  34  35
ATOM     35  O   UNL A   1      34.793  34.473  31.867  1.00  0.00    -0.460 OA
BRANCH  35  36
ATOM     36  C   UNL A   1      34.843  33.123  32.031  1.00  0.00     0.338 C 
ATOM     37  O   UNL A   1      33.902  32.369  32.179  1.00  0.00    -0.246 OA
BRANCH  36  38
ATOM     38  C   UNL A   1      36.217  32.622  31.816  1.00  0.00     0.060 A 
ATOM     39  C   UNL A   1      37.177  32.895  32.802  1.00  0.00     0.016 A 
ATOM     40  C   UNL A   1      36.583  31.978  30.635  1.00  0.00     0.016 A 
ATOM     41  C   UNL A   1      38.509  32.527  32.609  1.00  0.00     0.010 A 
ATOM     42  C   UNL A   1      37.926  31.647  30.423  1.00  0.00     0.010 A 
ATOM     43  C   UNL A   1      38.898  31.943  31.397  1.00  0.00    -0.014 A 
BRANCH  43  44
ATOM     44  C   UNL A   1      40.340  31.858  31.059  1.00  0.00     0.031 A 
ATOM     45  C   UNL A   1      40.984  33.044  30.394  1.00  0.00     0.074 A 
ATOM     46  C   UNL A   1      41.074  30.766  31.341  1.00  0.00     0.049 A 
ATOM     47  N   UNL A   1      42.209  33.191  29.958  1.00  0.00    -0.248 NA
ATOM     48  C   UNL A   1      40.125  34.222  30.193  1.00  0.00     0.031 C 
ATOM     49  C   UNL A   1      40.585  29.568  32.016  1.00  0.00     0.029 A 
ATOM     50  N   UNL A   1      42.395  30.492  31.075  1.00  0.00    -0.354 N 
ATOM     51  C   UNL A   1      42.266  34.476  29.432  1.00  0.00     0.074 A 
ATOM     52  C   UNL A   1      40.948  35.055  29.576  1.00  0.00     0.031 C 
ATOM     53  C   UNL A   1      41.589  28.676  32.094  1.00  0.00     0.029 A 
ATOM     54  C   UNL A   1      42.785  29.234  31.461  1.00  0.00     0.049 A 
ATOM     55  H   UNL A   1      43.003  31.138  30.648  1.00  0.00     0.167 HD
ATOM     56  C   UNL A   1      43.322  35.120  28.880  1.00  0.00     0.037 A 
ATOM     57  C   UNL A   1      43.965  28.601  31.303  1.00  0.00     0.037 A 
ATOM     58  C   UNL A   1      44.628  34.542  28.713  1.00  0.00     0.049 A 
ATOM     59  C   UNL A   1      45.102  29.308  30.605  1.00  0.00     0.074 A 
ATOM     60  C   UNL A   1      45.759  35.116  28.159  1.00  0.00     0.029 A 
ATOM     61  N   UNL A   1      44.974  33.254  29.088  1.00  0.00    -0.354 N 
ATOM     62  N   UNL A   1      45.152  30.528  30.126  1.00  0.00    -0.248 NA
ATOM     63  C   UNL A   1      46.345  28.543  30.420  1.00  0.00     0.031 C 
ATOM     64  C   UNL A   1      46.777  34.157  28.154  1.00  0.00     0.029 A 
ATOM     65  C   UNL A   1      46.296  33.005  28.757  1.00  0.00     0.049 A 
ATOM     66  H   UNL A   1      44.370  32.611  29.525  1.00  0.00     0.167 HD
ATOM     67  C   UNL A   1      46.437  30.687  29.617  1.00  0.00     0.074 A 
ATOM     68  C   UNL A   1      47.137  29.442  29.852  1.00  0.00     0.031 C 
ATOM     69  C   UNL A   1      46.986  31.766  29.008  1.00  0.00     0.037 A 
BRANCH  56  70
ATOM     70  C   UNL A   1      43.089  36.517  28.388  1.00  0.00     0.057 A 
ATOM     71  C   UNL A   1      42.636  36.777  27.088  1.00  0.00     0.134 A 
ATOM     72  C   UNL A   1      43.306  37.615  29.228  1.00  0.00     0.134 A 
ATOM     73  F   UNL A   1      42.427  35.770  26.226  1.00  0.00    -0.206 F 
ATOM     74  C   UNL A   1      42.430  38.081  26.635  1.00  0.00     0.040 A 
ATOM     75  C   UNL A   1      43.077  38.922  28.796  1.00  0.00     0.040 A 
ATOM     76  F   UNL A   1      43.739  37.436  30.486  1.00  0.00    -0.206 F 
ATOM     77  C   UNL A   1      42.644  39.157  27.493  1.00  0.00     0.006 A 
ENDBRANCH  56  70
BRANCH  57  78
ATOM     78  C   UNL A   1      44.146  27.212  31.801  1.00  0.00     0.057 A 
ATOM     79  C   UNL A   1      44.448  26.958  33.144  1.00  0.00     0.134 A 
ATOM     80  C   UNL A   1      44.066  26.111  30.940  1.00  0.00     0.134 A 
ATOM     81  F   UNL A   1      44.566  27.974  34.012  1.00  0.00    -0.206 F 
ATOM     82  C   UNL A   1      44.685  25.663  33.609  1.00  0.00     0.040 A 
ATOM     83  C   UNL A   1      44.273  24.808  31.397  1.00  0.00     0.040 A 
ATOM     84  F   UNL A   1      43.784  26.285  29.641  1.00  0.00    -0.206 F 
ATOM     85  C   UNL A   1      44.592  24.583  32.735  1.00  0.00     0.006 A 
ENDBRANCH  57  78
BRANCH  69  86
ATOM     86  C   UNL A   1      48.428  31.674  28.593  1.00  0.00     0.057 A 
ATOM     87  C   UNL A   1      49.471  32.102  29.424  1.00  0.00     0.134 A 
ATOM     88  C   UNL A   1      48.778  31.098  27.364  1.00  0.00     0.134 A 
ATOM     89  F   UNL A   1      49.205  32.671  30.610  1.00  0.00    -0.206 F 
ATOM     90  C   UNL A   1      50.807  31.980  29.040  1.00  0.00     0.040 A 
ATOM     91  C   UNL A   1      50.111  30.946  26.981  1.00  0.00     0.040 A 
ATOM     92  F   UNL A   1      47.829  30.657  26.524  1.00  0.00    -0.206 F 
ATOM     93  C   UNL A   1      51.131  31.393  27.817  1.00  0.00     0.006 A 
ENDBRANCH  69  86
ENDBRANCH  43  44
ENDBRANCH  36  38
ENDBRANCH  35  36
ENDBRANCH  34  35
ENDBRANCH  33  34
ENDBRANCH  32  33
ENDBRANCH  31  32
ENDBRANCH  30  31
ENDBRANCH  29  30
ENDBRANCH   1  29
TORSDOF 24
ENDMDL
