MODEL 1
REMARK VINA RESULT:     -10.1      0.000      0.000
REMARK SMILES O=C(OCCOCCOCCOCCOC(=O)[C@H]1CCc2[nH]nc(C(F)(F)F)c2C1)c1ccc(-c2c3nc(c(-c4c(F)cccc4F)c4ccc([nH]4)c(-c4c(F)cccc4F)c4nc(c(-c5c(F)cccc5F)c5ccc2[nH]5)C=C4)C=C3)cc1
REMARK SMILES IDX 8 1 7 2 6 3 5 4 4 5 3 6 2 7 1 8 31 9 32 10 84 11 33 12 83 13
REMARK SMILES IDX 34 14 35 15 36 16 77 17 37 18 82 19 76 20 78 21 38 22 81 23
REMARK SMILES IDX 75 24 74 25 39 27 65 28 48 29 64 30 49 31 52 32 63 33 79 34
REMARK SMILES IDX 50 35 51 36 62 38 80 39 53 40 40 41 41 42 46 43 42 44 43 45
REMARK SMILES IDX 45 46 47 47 44 48 66 49 67 50 72 51 68 52 69 53 71 54 73 55
REMARK SMILES IDX 70 56 54 57 55 58 60 59 56 60 57 61 59 62 61 63 58 64 9 65
REMARK SMILES IDX 10 66 11 67 12 68 13 69 14 70 15 71 16 72 17 73 18 74 19 75
REMARK SMILES IDX 30 76 20 77 29 78 21 79 24 80 22 81 23 82 25 84 26 85 27 86
REMARK SMILES IDX 28 87
REMARK H PARENT 78 26 52 37 22 83
REMARK Flexibility Score: inf
ROOT
ATOM      1  C   UNL A   1      32.182  29.326  24.507  1.00  0.00     0.188 C 
ENDROOT
BRANCH   1   2
ATOM      2  C   UNL A   1      31.422  29.841  25.710  1.00  0.00     0.188 C 
BRANCH   2   3
ATOM      3  O   UNL A   1      32.231  29.707  26.865  1.00  0.00    -0.376 OA
BRANCH   3   4
ATOM      4  C   UNL A   1      32.953  30.849  27.301  1.00  0.00     0.202 C 
BRANCH   4   5
ATOM      5  C   UNL A   1      32.237  32.192  27.185  1.00  0.00     0.261 C 
BRANCH   5   6
ATOM      6  O   UNL A   1      33.002  33.397  27.419  1.00  0.00    -0.460 OA
BRANCH   6   7
ATOM      7  C   UNL A   1      33.406  34.090  28.499  1.00  0.00     0.338 C 
ATOM      8  O   UNL A   1      32.823  35.160  28.740  1.00  0.00    -0.246 OA
BRANCH   7   9
ATOM      9  C   UNL A   1      34.556  33.749  29.382  1.00  0.00     0.060 A 
ATOM     10  C   UNL A   1      35.829  34.291  29.269  1.00  0.00     0.016 A 
ATOM     11  C   UNL A   1      34.317  32.898  30.477  1.00  0.00     0.016 A 
ATOM     12  C   UNL A   1      36.828  34.066  30.191  1.00  0.00     0.010 A 
ATOM     13  C   UNL A   1      35.334  32.595  31.387  1.00  0.00     0.010 A 
ATOM     14  C   UNL A   1      36.595  33.176  31.223  1.00  0.00    -0.014 A 
BRANCH  14  15
ATOM     15  C   UNL A   1      37.794  32.656  31.881  1.00  0.00     0.031 A 
ATOM     16  C   UNL A   1      38.540  31.592  31.147  1.00  0.00     0.074 A 
ATOM     17  C   UNL A   1      38.289  33.270  32.965  1.00  0.00     0.049 A 
ATOM     18  N   UNL A   1      39.526  30.843  31.544  1.00  0.00    -0.248 NA
ATOM     19  C   UNL A   1      38.121  31.350  29.751  1.00  0.00     0.031 C 
ATOM     20  C   UNL A   1      37.741  34.484  33.573  1.00  0.00     0.029 A 
ATOM     21  N   UNL A   1      39.374  32.964  33.735  1.00  0.00    -0.354 N 
ATOM     22  C   UNL A   1      39.794  29.996  30.478  1.00  0.00     0.074 A 
ATOM     23  C   UNL A   1      38.901  30.343  29.402  1.00  0.00     0.031 C 
ATOM     24  C   UNL A   1      38.477  34.800  34.650  1.00  0.00     0.029 A 
ATOM     25  C   UNL A   1      39.475  33.757  34.849  1.00  0.00     0.049 A 
ATOM     26  H   UNL A   1      40.015  32.249  33.514  1.00  0.00     0.167 HD
ATOM     27  C   UNL A   1      40.689  28.983  30.444  1.00  0.00     0.037 A 
ATOM     28  C   UNL A   1      40.238  33.581  35.942  1.00  0.00     0.037 A 
ATOM     29  C   UNL A   1      41.532  28.688  31.567  1.00  0.00     0.049 A 
ATOM     30  C   UNL A   1      41.135  32.373  35.957  1.00  0.00     0.074 A 
ATOM     31  C   UNL A   1      42.415  27.647  31.749  1.00  0.00     0.029 A 
ATOM     32  N   UNL A   1      41.572  29.465  32.724  1.00  0.00    -0.354 N 
ATOM     33  N   UNL A   1      41.311  31.469  35.018  1.00  0.00    -0.248 NA
ATOM     34  C   UNL A   1      41.915  32.137  37.174  1.00  0.00     0.031 C 
ATOM     35  C   UNL A   1      42.946  27.762  33.040  1.00  0.00     0.029 A 
ATOM     36  C   UNL A   1      42.445  28.914  33.637  1.00  0.00     0.049 A 
ATOM     37  H   UNL A   1      41.050  30.288  32.868  1.00  0.00     0.167 HD
ATOM     38  C   UNL A   1      42.236  30.567  35.517  1.00  0.00     0.074 A 
ATOM     39  C   UNL A   1      42.585  31.038  36.847  1.00  0.00     0.031 C 
ATOM     40  C   UNL A   1      42.757  29.455  34.941  1.00  0.00     0.037 A 
BRANCH  27  41
ATOM     41  C   UNL A   1      40.646  28.090  29.239  1.00  0.00     0.057 A 
ATOM     42  C   UNL A   1      41.418  28.322  28.092  1.00  0.00     0.134 A 
ATOM     43  C   UNL A   1      39.706  27.053  29.180  1.00  0.00     0.134 A 
ATOM     44  F   UNL A   1      42.306  29.328  28.062  1.00  0.00    -0.206 F 
ATOM     45  C   UNL A   1      41.221  27.591  26.918  1.00  0.00     0.040 A 
ATOM     46  C   UNL A   1      39.520  26.296  28.022  1.00  0.00     0.040 A 
ATOM     47  F   UNL A   1      38.921  26.785  30.233  1.00  0.00    -0.206 F 
ATOM     48  C   UNL A   1      40.267  26.575  26.880  1.00  0.00     0.006 A 
ENDBRANCH  27  41
BRANCH  28  49
ATOM     49  C   UNL A   1      40.090  34.496  37.102  1.00  0.00     0.057 A 
ATOM     50  C   UNL A   1      39.176  34.241  38.128  1.00  0.00     0.134 A 
ATOM     51  C   UNL A   1      40.903  35.633  37.237  1.00  0.00     0.134 A 
ATOM     52  F   UNL A   1      38.361  33.179  38.057  1.00  0.00    -0.206 F 
ATOM     53  C   UNL A   1      39.076  35.077  39.244  1.00  0.00     0.040 A 
ATOM     54  C   UNL A   1      40.832  36.462  38.357  1.00  0.00     0.040 A 
ATOM     55  F   UNL A   1      41.805  35.937  36.292  1.00  0.00    -0.206 F 
ATOM     56  C   UNL A   1      39.913  36.187  39.364  1.00  0.00     0.006 A 
ENDBRANCH  28  49
BRANCH  40  57
ATOM     57  C   UNL A   1      43.796  28.713  35.720  1.00  0.00     0.057 A 
ATOM     58  C   UNL A   1      43.462  27.671  36.590  1.00  0.00     0.134 A 
ATOM     59  C   UNL A   1      45.153  28.973  35.491  1.00  0.00     0.134 A 
ATOM     60  F   UNL A   1      42.178  27.386  36.851  1.00  0.00    -0.206 F 
ATOM     61  C   UNL A   1      44.449  26.906  37.208  1.00  0.00     0.040 A 
ATOM     62  C   UNL A   1      46.147  28.198  36.081  1.00  0.00     0.040 A 
ATOM     63  F   UNL A   1      45.527  29.955  34.656  1.00  0.00    -0.206 F 
ATOM     64  C   UNL A   1      45.795  27.160  36.941  1.00  0.00     0.006 A 
ENDBRANCH  40  57
ENDBRANCH  14  15
ENDBRANCH   7   9
ENDBRANCH   6   7
ENDBRANCH   5   6
ENDBRANCH   4   5
ENDBRANCH   3   4
ENDBRANCH   2   3
ENDBRANCH   1   2
BRANCH   1  65
ATOM     65  O   UNL A   1      33.436  28.747  24.831  1.00  0.00    -0.377 OA
BRANCH  65  66
ATOM     66  C   UNL A   1      34.090  27.944  23.859  1.00  0.00     0.188 C 
BRANCH  66  67
ATOM     67  C   UNL A   1      34.039  28.354  22.392  1.00  0.00     0.188 C 
BRANCH  67  68
ATOM     68  O   UNL A   1      33.671  27.361  21.466  1.00  0.00    -0.376 OA
BRANCH  68  69
ATOM     69  C   UNL A   1      33.211  26.098  21.933  1.00  0.00     0.202 C 
BRANCH  69  70
ATOM     70  C   UNL A   1      32.839  24.903  21.023  1.00  0.00     0.261 C 
BRANCH  70  71
ATOM     71  O   UNL A   1      33.470  23.622  21.263  1.00  0.00    -0.463 OA
BRANCH  71  72
ATOM     72  C   UNL A   1      33.403  23.125  22.532  1.00  0.00     0.309 C 
ATOM     73  O   UNL A   1      34.308  23.234  23.348  1.00  0.00    -0.252 OA
BRANCH  72  74
ATOM     74  C   UNL A   1      32.093  22.404  22.894  1.00  0.00     0.104 C 
ATOM     75  C   UNL A   1      32.186  21.029  23.627  1.00  0.00     0.022 C 
ATOM     76  C   UNL A   1      31.044  23.337  23.509  1.00  0.00     0.055 C 
ATOM     77  C   UNL A   1      32.142  21.018  25.177  1.00  0.00     0.057 C 
ATOM     78  C   UNL A   1      31.178  23.373  24.983  1.00  0.00     0.006 A 
ATOM     79  C   UNL A   1      31.660  22.312  25.706  1.00  0.00     0.039 A 
ATOM     80  C   UNL A   1      30.934  24.401  25.929  1.00  0.00     0.169 A 
ATOM     81  N   UNL A   1      31.724  22.730  26.999  1.00  0.00    -0.282 N 
ATOM     82  N   UNL A   1      31.265  23.984  27.171  1.00  0.00    -0.171 NA
ATOM     83  H   UNL A   1      32.071  22.173  27.733  1.00  0.00     0.190 HD
BRANCH  80  84
ATOM     84  C   UNL A   1      30.415  25.785  25.638  1.00  0.00     0.435 C 
ATOM     85  F   UNL A   1      30.681  26.672  26.633  1.00  0.00    -0.164 F 
ATOM     86  F   UNL A   1      30.933  26.301  24.491  1.00  0.00    -0.164 F 
ATOM     87  F   UNL A   1      29.059  25.798  25.478  1.00  0.00    -0.164 F 
ENDBRANCH  80  84
ENDBRANCH  72  74
ENDBRANCH  71  72
ENDBRANCH  70  71
ENDBRANCH  69  70
ENDBRANCH  68  69
ENDBRANCH  67  68
ENDBRANCH  66  67
ENDBRANCH  65  66
ENDBRANCH   1  65
TORSDOF 21
ENDMDL
MODEL 2
REMARK VINA RESULT:     -10.0      2.493      4.094
REMARK SMILES O=C(OCCOCCOCCOCCOC(=O)[C@H]1CCc2[nH]nc(C(F)(F)F)c2C1)c1ccc(-c2c3nc(c(-c4c(F)cccc4F)c4ccc([nH]4)c(-c4c(F)cccc4F)c4nc(c(-c5c(F)cccc5F)c5ccc2[nH]5)C=C4)C=C3)cc1
REMARK SMILES IDX 8 1 7 2 6 3 5 4 4 5 3 6 2 7 1 8 31 9 32 10 84 11 33 12 83 13
REMARK SMILES IDX 34 14 35 15 36 16 77 17 37 18 82 19 76 20 78 21 38 22 81 23
REMARK SMILES IDX 75 24 74 25 39 27 65 28 48 29 64 30 49 31 52 32 63 33 79 34
REMARK SMILES IDX 50 35 51 36 62 38 80 39 53 40 40 41 41 42 46 43 42 44 43 45
REMARK SMILES IDX 45 46 47 47 44 48 66 49 67 50 72 51 68 52 69 53 71 54 73 55
REMARK SMILES IDX 70 56 54 57 55 58 60 59 56 60 57 61 59 62 61 63 58 64 9 65
REMARK SMILES IDX 10 66 11 67 12 68 13 69 14 70 15 71 16 72 17 73 18 74 19 75
REMARK SMILES IDX 30 76 20 77 29 78 21 79 24 80 22 81 23 82 25 84 26 85 27 86
REMARK SMILES IDX 28 87
REMARK H PARENT 78 26 52 37 22 83
REMARK Flexibility Score: inf
ROOT
ATOM      1  C   UNL A   1      33.825  25.881  25.471  1.00  0.00     0.188 C 
ENDROOT
BRANCH   1   2
ATOM      2  C   UNL A   1      34.242  27.332  25.563  1.00  0.00     0.188 C 
BRANCH   2   3
ATOM      3  O   UNL A   1      33.131  28.157  25.261  1.00  0.00    -0.376 OA
BRANCH   3   4
ATOM      4  C   UNL A   1      32.089  28.239  26.223  1.00  0.00     0.202 C 
BRANCH   4   5
ATOM      5  C   UNL A   1      31.763  29.631  26.756  1.00  0.00     0.261 C 
BRANCH   5   6
ATOM      6  O   UNL A   1      32.732  30.685  26.554  1.00  0.00    -0.460 OA
BRANCH   6   7
ATOM      7  C   UNL A   1      33.494  31.461  27.345  1.00  0.00     0.338 C 
ATOM      8  O   UNL A   1      33.107  32.624  27.547  1.00  0.00    -0.246 OA
BRANCH   7   9
ATOM      9  C   UNL A   1      34.815  31.092  27.926  1.00  0.00     0.060 A 
ATOM     10  C   UNL A   1      35.183  29.808  28.302  1.00  0.00     0.016 A 
ATOM     11  C   UNL A   1      35.804  32.090  28.005  1.00  0.00     0.016 A 
ATOM     12  C   UNL A   1      36.461  29.476  28.698  1.00  0.00     0.010 A 
ATOM     13  C   UNL A   1      37.088  31.795  28.472  1.00  0.00     0.010 A 
ATOM     14  C   UNL A   1      37.400  30.481  28.832  1.00  0.00    -0.014 A 
BRANCH  14  15
ATOM     15  C   UNL A   1      38.561  30.144  29.655  1.00  0.00     0.031 A 
ATOM     16  C   UNL A   1      39.605  29.295  29.008  1.00  0.00     0.074 A 
ATOM     17  C   UNL A   1      38.755  30.756  30.832  1.00  0.00     0.049 A 
ATOM     18  N   UNL A   1      40.645  28.714  29.530  1.00  0.00    -0.248 NA
ATOM     19  C   UNL A   1      39.460  29.085  27.554  1.00  0.00     0.031 C 
ATOM     20  C   UNL A   1      37.893  31.799  31.394  1.00  0.00     0.029 A 
ATOM     21  N   UNL A   1      39.747  30.600  31.756  1.00  0.00    -0.354 N 
ATOM     22  C   UNL A   1      41.234  28.014  28.486  1.00  0.00     0.074 A 
ATOM     23  C   UNL A   1      40.467  28.269  27.293  1.00  0.00     0.031 C 
ATOM     24  C   UNL A   1      38.379  32.164  32.591  1.00  0.00     0.029 A 
ATOM     25  C   UNL A   1      39.519  31.312  32.906  1.00  0.00     0.049 A 
ATOM     26  H   UNL A   1      40.541  30.035  31.613  1.00  0.00     0.167 HD
ATOM     27  C   UNL A   1      42.304  27.191  28.556  1.00  0.00     0.037 A 
ATOM     28  C   UNL A   1      40.124  31.199  34.101  1.00  0.00     0.037 A 
ATOM     29  C   UNL A   1      43.005  26.973  29.789  1.00  0.00     0.049 A 
ATOM     30  C   UNL A   1      41.226  30.181  34.211  1.00  0.00     0.074 A 
ATOM     31  C   UNL A   1      44.036  26.103  30.068  1.00  0.00     0.029 A 
ATOM     32  N   UNL A   1      42.714  27.655  30.969  1.00  0.00    -0.354 N 
ATOM     33  N   UNL A   1      41.717  29.398  33.275  1.00  0.00    -0.248 NA
ATOM     34  C   UNL A   1      41.841  30.003  35.529  1.00  0.00     0.031 C 
ATOM     35  C   UNL A   1      44.329  26.218  31.433  1.00  0.00     0.029 A 
ATOM     36  C   UNL A   1      43.527  27.208  31.989  1.00  0.00     0.049 A 
ATOM     37  H   UNL A   1      42.026  28.354  31.061  1.00  0.00     0.167 HD
ATOM     38  C   UNL A   1      42.713  28.649  33.880  1.00  0.00     0.074 A 
ATOM     39  C   UNL A   1      42.754  29.075  35.269  1.00  0.00     0.031 C 
ATOM     40  C   UNL A   1      43.523  27.698  33.349  1.00  0.00     0.037 A 
BRANCH  27  41
ATOM     41  C   UNL A   1      42.621  26.398  27.323  1.00  0.00     0.057 A 
ATOM     42  C   UNL A   1      42.093  25.121  27.082  1.00  0.00     0.134 A 
ATOM     43  C   UNL A   1      43.584  26.873  26.423  1.00  0.00     0.134 A 
ATOM     44  F   UNL A   1      41.200  24.584  27.927  1.00  0.00    -0.206 F 
ATOM     45  C   UNL A   1      42.550  24.329  26.025  1.00  0.00     0.040 A 
ATOM     46  C   UNL A   1      44.027  26.102  25.347  1.00  0.00     0.040 A 
ATOM     47  F   UNL A   1      44.145  28.078  26.599  1.00  0.00    -0.206 F 
ATOM     48  C   UNL A   1      43.521  24.819  25.155  1.00  0.00     0.006 A 
ENDBRANCH  27  41
BRANCH  28  49
ATOM     49  C   UNL A   1      39.624  31.981  35.260  1.00  0.00     0.057 A 
ATOM     50  C   UNL A   1      38.627  31.487  36.106  1.00  0.00     0.134 A 
ATOM     51  C   UNL A   1      40.172  33.233  35.581  1.00  0.00     0.134 A 
ATOM     52  F   UNL A   1      38.052  30.302  35.851  1.00  0.00    -0.206 F 
ATOM     53  C   UNL A   1      38.195  32.204  37.225  1.00  0.00     0.040 A 
ATOM     54  C   UNL A   1      39.769  33.949  36.709  1.00  0.00     0.040 A 
ATOM     55  F   UNL A   1      41.135  33.767  34.815  1.00  0.00    -0.206 F 
ATOM     56  C   UNL A   1      38.774  33.435  37.534  1.00  0.00     0.006 A 
ENDBRANCH  28  49
BRANCH  40  57
ATOM     57  C   UNL A   1      44.555  27.107  34.256  1.00  0.00     0.057 A 
ATOM     58  C   UNL A   1      45.794  27.721  34.462  1.00  0.00     0.134 A 
ATOM     59  C   UNL A   1      44.243  25.976  35.020  1.00  0.00     0.134 A 
ATOM     60  F   UNL A   1      46.147  28.801  33.750  1.00  0.00    -0.206 F 
ATOM     61  C   UNL A   1      46.692  27.227  35.406  1.00  0.00     0.040 A 
ATOM     62  C   UNL A   1      45.120  25.491  35.985  1.00  0.00     0.040 A 
ATOM     63  F   UNL A   1      43.062  25.356  34.869  1.00  0.00    -0.206 F 
ATOM     64  C   UNL A   1      46.349  26.119  36.182  1.00  0.00     0.006 A 
ENDBRANCH  40  57
ENDBRANCH  14  15
ENDBRANCH   7   9
ENDBRANCH   6   7
ENDBRANCH   5   6
ENDBRANCH   4   5
ENDBRANCH   3   4
ENDBRANCH   2   3
ENDBRANCH   1   2
BRANCH   1  65
ATOM     65  O   UNL A   1      34.866  25.015  25.047  1.00  0.00    -0.377 OA
BRANCH  65  66
ATOM     66  C   UNL A   1      35.336  24.020  25.945  1.00  0.00     0.188 C 
BRANCH  66  67
ATOM     67  C   UNL A   1      34.828  22.589  25.810  1.00  0.00     0.188 C 
BRANCH  67  68
ATOM     68  O   UNL A   1      33.497  22.424  25.384  1.00  0.00    -0.376 OA
BRANCH  68  69
ATOM     69  C   UNL A   1      32.451  22.372  26.347  1.00  0.00     0.202 C 
BRANCH  69  70
ATOM     70  C   UNL A   1      31.452  23.519  26.626  1.00  0.00     0.261 C 
BRANCH  70  71
ATOM     71  O   UNL A   1      31.339  24.596  25.665  1.00  0.00    -0.463 OA
BRANCH  71  72
ATOM     72  C   UNL A   1      30.129  25.221  25.571  1.00  0.00     0.309 C 
ATOM     73  O   UNL A   1      29.472  25.568  26.543  1.00  0.00    -0.252 OA
BRANCH  72  74
ATOM     74  C   UNL A   1      29.624  25.478  24.141  1.00  0.00     0.104 C 
ATOM     75  C   UNL A   1      29.406  26.956  23.690  1.00  0.00     0.022 C 
ATOM     76  C   UNL A   1      30.350  24.635  23.087  1.00  0.00     0.055 C 
ATOM     77  C   UNL A   1      30.572  27.685  22.971  1.00  0.00     0.057 C 
ATOM     78  C   UNL A   1      31.533  25.356  22.566  1.00  0.00     0.006 A 
ATOM     79  C   UNL A   1      31.599  26.724  22.513  1.00  0.00     0.039 A 
ATOM     80  C   UNL A   1      32.789  24.894  22.096  1.00  0.00     0.169 A 
ATOM     81  N   UNL A   1      32.847  27.029  22.069  1.00  0.00    -0.282 N 
ATOM     82  N   UNL A   1      33.585  25.940  21.780  1.00  0.00    -0.171 NA
ATOM     83  H   UNL A   1      33.178  27.951  21.969  1.00  0.00     0.190 HD
BRANCH  80  84
ATOM     84  C   UNL A   1      33.233  23.460  21.977  1.00  0.00     0.435 C 
ATOM     85  F   UNL A   1      34.476  23.244  22.483  1.00  0.00    -0.164 F 
ATOM     86  F   UNL A   1      32.387  22.604  22.611  1.00  0.00    -0.164 F 
ATOM     87  F   UNL A   1      33.281  23.047  20.676  1.00  0.00    -0.164 F 
ENDBRANCH  80  84
ENDBRANCH  72  74
ENDBRANCH  71  72
ENDBRANCH  70  71
ENDBRANCH  69  70
ENDBRANCH  68  69
ENDBRANCH  67  68
ENDBRANCH  66  67
ENDBRANCH  65  66
ENDBRANCH   1  65
TORSDOF 21
ENDMDL
MODEL 3
REMARK VINA RESULT:      -9.9      4.841      8.841
REMARK SMILES O=C(OCCOCCOCCOCCOC(=O)[C@H]1CCc2[nH]nc(C(F)(F)F)c2C1)c1ccc(-c2c3nc(c(-c4c(F)cccc4F)c4ccc([nH]4)c(-c4c(F)cccc4F)c4nc(c(-c5c(F)cccc5F)c5ccc2[nH]5)C=C4)C=C3)cc1
REMARK SMILES IDX 8 1 7 2 6 3 5 4 4 5 3 6 2 7 1 8 31 9 32 10 84 11 33 12 83 13
REMARK SMILES IDX 34 14 35 15 36 16 77 17 37 18 82 19 76 20 78 21 38 22 81 23
REMARK SMILES IDX 75 24 74 25 39 27 65 28 48 29 64 30 49 31 52 32 63 33 79 34
REMARK SMILES IDX 50 35 51 36 62 38 80 39 53 40 40 41 41 42 46 43 42 44 43 45
REMARK SMILES IDX 45 46 47 47 44 48 66 49 67 50 72 51 68 52 69 53 71 54 73 55
REMARK SMILES IDX 70 56 54 57 55 58 60 59 56 60 57 61 59 62 61 63 58 64 9 65
REMARK SMILES IDX 10 66 11 67 12 68 13 69 14 70 15 71 16 72 17 73 18 74 19 75
REMARK SMILES IDX 30 76 20 77 29 78 21 79 24 80 22 81 23 82 25 84 26 85 27 86
REMARK SMILES IDX 28 87
REMARK H PARENT 78 26 52 37 22 83
REMARK Flexibility Score: inf
ROOT
ATOM      1  C   UNL A   1      35.296  21.787  24.814  1.00  0.00     0.188 C 
ENDROOT
BRANCH   1   2
ATOM      2  C   UNL A   1      36.709  21.248  24.835  1.00  0.00     0.188 C 
BRANCH   2   3
ATOM      3  O   UNL A   1      36.671  19.844  25.016  1.00  0.00    -0.376 OA
BRANCH   3   4
ATOM      4  C   UNL A   1      37.909  19.149  25.046  1.00  0.00     0.202 C 
BRANCH   4   5
ATOM      5  C   UNL A   1      39.161  19.997  25.248  1.00  0.00     0.261 C 
BRANCH   5   6
ATOM      6  O   UNL A   1      40.186  19.501  26.141  1.00  0.00    -0.460 OA
BRANCH   6   7
ATOM      7  C   UNL A   1      41.146  20.049  26.906  1.00  0.00     0.338 C 
ATOM      8  O   UNL A   1      41.916  19.273  27.497  1.00  0.00    -0.246 OA
BRANCH   7   9
ATOM      9  C   UNL A   1      41.318  21.500  27.196  1.00  0.00     0.060 A 
ATOM     10  C   UNL A   1      40.642  22.522  26.544  1.00  0.00     0.016 A 
ATOM     11  C   UNL A   1      42.141  21.865  28.277  1.00  0.00     0.016 A 
ATOM     12  C   UNL A   1      40.713  23.841  26.936  1.00  0.00     0.010 A 
ATOM     13  C   UNL A   1      42.288  23.204  28.650  1.00  0.00     0.010 A 
ATOM     14  C   UNL A   1      41.577  24.189  27.957  1.00  0.00    -0.014 A 
BRANCH  14  15
ATOM     15  C   UNL A   1      41.930  25.607  28.021  1.00  0.00     0.031 A 
ATOM     16  C   UNL A   1      43.181  26.008  27.312  1.00  0.00     0.074 A 
ATOM     17  C   UNL A   1      41.053  26.500  28.501  1.00  0.00     0.049 A 
ATOM     18  N   UNL A   1      43.819  27.141  27.329  1.00  0.00    -0.248 NA
ATOM     19  C   UNL A   1      43.790  24.982  26.442  1.00  0.00     0.031 C 
ATOM     20  C   UNL A   1      39.699  26.189  28.967  1.00  0.00     0.029 A 
ATOM     21  N   UNL A   1      41.165  27.851  28.660  1.00  0.00    -0.354 N 
ATOM     22  C   UNL A   1      44.940  26.940  26.535  1.00  0.00     0.074 A 
ATOM     23  C   UNL A   1      44.881  25.597  26.017  1.00  0.00     0.031 C 
ATOM     24  C   UNL A   1      39.118  27.320  29.396  1.00  0.00     0.029 A 
ATOM     25  C   UNL A   1      40.095  28.399  29.319  1.00  0.00     0.049 A 
ATOM     26  H   UNL A   1      41.933  28.375  28.336  1.00  0.00     0.167 HD
ATOM     27  C   UNL A   1      45.950  27.811  26.312  1.00  0.00     0.037 A 
ATOM     28  C   UNL A   1      39.982  29.619  29.874  1.00  0.00     0.037 A 
ATOM     29  C   UNL A   1      45.945  29.128  26.882  1.00  0.00     0.049 A 
ATOM     30  C   UNL A   1      41.165  30.538  29.741  1.00  0.00     0.074 A 
ATOM     31  C   UNL A   1      46.922  30.099  26.849  1.00  0.00     0.029 A 
ATOM     32  N   UNL A   1      44.876  29.646  27.611  1.00  0.00    -0.354 N 
ATOM     33  N   UNL A   1      42.302  30.328  29.113  1.00  0.00    -0.248 NA
ATOM     34  C   UNL A   1      41.075  31.841  30.404  1.00  0.00     0.031 C 
ATOM     35  C   UNL A   1      46.466  31.183  27.610  1.00  0.00     0.029 A 
ATOM     36  C   UNL A   1      45.177  30.915  28.059  1.00  0.00     0.049 A 
ATOM     37  H   UNL A   1      44.030  29.174  27.783  1.00  0.00     0.167 HD
ATOM     38  C   UNL A   1      43.056  31.477  29.284  1.00  0.00     0.074 A 
ATOM     39  C   UNL A   1      42.242  32.382  30.077  1.00  0.00     0.031 C 
ATOM     40  C   UNL A   1      44.302  31.768  28.832  1.00  0.00     0.037 A 
BRANCH  27  41
ATOM     41  C   UNL A   1      47.143  27.279  25.575  1.00  0.00     0.057 A 
ATOM     42  C   UNL A   1      48.199  26.616  26.216  1.00  0.00     0.134 A 
ATOM     43  C   UNL A   1      47.296  27.560  24.211  1.00  0.00     0.134 A 
ATOM     44  F   UNL A   1      48.141  26.354  27.531  1.00  0.00    -0.206 F 
ATOM     45  C   UNL A   1      49.381  26.299  25.540  1.00  0.00     0.040 A 
ATOM     46  C   UNL A   1      48.460  27.223  23.518  1.00  0.00     0.040 A 
ATOM     47  F   UNL A   1      46.334  28.207  23.537  1.00  0.00    -0.206 F 
ATOM     48  C   UNL A   1      49.514  26.605  24.186  1.00  0.00     0.006 A 
ENDBRANCH  27  41
BRANCH  28  49
ATOM     49  C   UNL A   1      38.773  29.961  30.667  1.00  0.00     0.057 A 
ATOM     50  C   UNL A   1      38.668  29.640  32.023  1.00  0.00     0.134 A 
ATOM     51  C   UNL A   1      37.706  30.668  30.092  1.00  0.00     0.134 A 
ATOM     52  F   UNL A   1      39.647  28.955  32.632  1.00  0.00    -0.206 F 
ATOM     53  C   UNL A   1      37.551  30.010  32.777  1.00  0.00     0.040 A 
ATOM     54  C   UNL A   1      36.596  31.066  30.838  1.00  0.00     0.040 A 
ATOM     55  F   UNL A   1      37.741  31.013  28.795  1.00  0.00    -0.206 F 
ATOM     56  C   UNL A   1      36.515  30.734  32.187  1.00  0.00     0.006 A 
ENDBRANCH  28  49
BRANCH  40  57
ATOM     57  C   UNL A   1      44.828  33.135  29.133  1.00  0.00     0.057 A 
ATOM     58  C   UNL A   1      45.661  33.380  30.230  1.00  0.00     0.134 A 
ATOM     59  C   UNL A   1      44.593  34.184  28.235  1.00  0.00     0.134 A 
ATOM     60  F   UNL A   1      45.911  32.413  31.124  1.00  0.00    -0.206 F 
ATOM     61  C   UNL A   1      46.246  34.629  30.423  1.00  0.00     0.040 A 
ATOM     62  C   UNL A   1      45.195  35.427  28.403  1.00  0.00     0.040 A 
ATOM     63  F   UNL A   1      43.812  33.998  27.161  1.00  0.00    -0.206 F 
ATOM     64  C   UNL A   1      46.026  35.652  29.499  1.00  0.00     0.006 A 
ENDBRANCH  40  57
ENDBRANCH  14  15
ENDBRANCH   7   9
ENDBRANCH   6   7
ENDBRANCH   5   6
ENDBRANCH   4   5
ENDBRANCH   3   4
ENDBRANCH   2   3
ENDBRANCH   1   2
BRANCH   1  65
ATOM     65  O   UNL A   1      34.311  20.814  25.123  1.00  0.00    -0.377 OA
BRANCH  65  66
ATOM     66  C   UNL A   1      33.506  20.998  26.279  1.00  0.00     0.188 C 
BRANCH  66  67
ATOM     67  C   UNL A   1      34.019  21.874  27.416  1.00  0.00     0.188 C 
BRANCH  67  68
ATOM     68  O   UNL A   1      33.061  22.623  28.123  1.00  0.00    -0.376 OA
BRANCH  68  69
ATOM     69  C   UNL A   1      31.812  22.926  27.512  1.00  0.00     0.202 C 
BRANCH  69  70
ATOM     70  C   UNL A   1      31.634  23.827  26.268  1.00  0.00     0.261 C 
BRANCH  70  71
ATOM     71  O   UNL A   1      30.346  24.445  26.032  1.00  0.00    -0.463 OA
BRANCH  71  72
ATOM     72  C   UNL A   1      30.349  25.716  25.534  1.00  0.00     0.309 C 
ATOM     73  O   UNL A   1      30.776  26.682  26.151  1.00  0.00    -0.252 OA
BRANCH  72  74
ATOM     74  C   UNL A   1      29.775  25.873  24.115  1.00  0.00     0.104 C 
ATOM     75  C   UNL A   1      29.597  27.317  23.547  1.00  0.00     0.022 C 
ATOM     76  C   UNL A   1      30.402  24.909  23.103  1.00  0.00     0.055 C 
ATOM     77  C   UNL A   1      30.751  27.923  22.707  1.00  0.00     0.057 C 
ATOM     78  C   UNL A   1      31.584  25.524  22.459  1.00  0.00     0.006 A 
ATOM     79  C   UNL A   1      31.707  26.878  22.281  1.00  0.00     0.039 A 
ATOM     80  C   UNL A   1      32.790  24.963  21.965  1.00  0.00     0.169 A 
ATOM     81  N   UNL A   1      32.940  27.082  21.747  1.00  0.00    -0.282 N 
ATOM     82  N   UNL A   1      33.612  25.938  21.517  1.00  0.00    -0.171 NA
ATOM     83  H   UNL A   1      33.305  27.975  21.549  1.00  0.00     0.190 HD
BRANCH  80  84
ATOM     84  C   UNL A   1      33.162  23.504  21.950  1.00  0.00     0.435 C 
ATOM     85  F   UNL A   1      34.450  23.280  22.325  1.00  0.00    -0.164 F 
ATOM     86  F   UNL A   1      32.370  22.760  22.768  1.00  0.00    -0.164 F 
ATOM     87  F   UNL A   1      33.036  22.958  20.705  1.00  0.00    -0.164 F 
ENDBRANCH  80  84
ENDBRANCH  72  74
ENDBRANCH  71  72
ENDBRANCH  70  71
ENDBRANCH  69  70
ENDBRANCH  68  69
ENDBRANCH  67  68
ENDBRANCH  66  67
ENDBRANCH  65  66
ENDBRANCH   1  65
TORSDOF 21
ENDMDL
