MODEL 1
REMARK VINA RESULT:     -10.2      0.000      0.000
REMARK SMILES Cc1ccccc1SCC(=O)N[C@H]1C=C[C@H](C(=O)OCCOCCOCCOCCOC(=O)c2ccc(-c3c4nc(c(-c5c(F)cccc5F)c5ccc([nH]5)c(-c5c(F)cccc5F)c5nc(c(-c6c(F)cccc6F)c6ccc3[nH]6)C=C5)C=C4)cc2)C1
REMARK SMILES IDX 24 1 23 2 22 3 21 4 20 5 19 6 17 7 18 8 16 9 13 10 14 11
REMARK SMILES IDX 88 12 15 13 12 14 10 15 11 16 9 18 8 19 7 20 1 21 2 22 3 23
REMARK SMILES IDX 4 24 6 25 5 26 25 27 26 28 27 29 28 30 29 31 30 32 31 33
REMARK SMILES IDX 32 34 33 35 34 36 35 37 87 38 36 39 86 40 37 41 38 42 39 43
REMARK SMILES IDX 80 44 40 45 85 46 79 47 81 48 41 49 84 50 78 51 77 52 42 54
REMARK SMILES IDX 68 55 51 56 67 57 52 58 55 59 66 60 82 61 53 62 54 63 65 65
REMARK SMILES IDX 83 66 56 67 43 68 44 69 49 70 45 71 46 72 48 73 50 74 47 75
REMARK SMILES IDX 69 76 70 77 75 78 71 79 72 80 74 81 76 82 73 83 57 84 58 85
REMARK SMILES IDX 63 86 59 87 60 88 62 89 64 90 61 91
REMARK H PARENT 12 17 81 53 55 64
REMARK Flexibility Score: inf
ROOT
ATOM      1  C   UNL A   1      39.515  22.980  26.875  1.00  0.00     0.188 C 
ENDROOT
BRANCH   1   2
ATOM      2  C   UNL A   1      38.271  22.694  26.024  1.00  0.00     0.188 C 
BRANCH   2   3
ATOM      3  O   UNL A   1      38.361  21.451  25.353  1.00  0.00    -0.376 OA
BRANCH   3   4
ATOM      4  C   UNL A   1      37.155  21.064  24.718  1.00  0.00     0.202 C 
BRANCH   4   5
ATOM      5  C   UNL A   1      36.064  21.934  25.294  1.00  0.00     0.261 C 
BRANCH   5   6
ATOM      6  O   UNL A   1      35.002  21.925  24.331  1.00  0.00    -0.463 OA
BRANCH   6   7
ATOM      7  C   UNL A   1      34.670  23.138  23.849  1.00  0.00     0.312 C 
ATOM      8  O   UNL A   1      35.181  24.198  24.198  1.00  0.00    -0.252 OA
BRANCH   7   9
ATOM      9  C   UNL A   1      33.728  22.963  22.662  1.00  0.00     0.124 C 
ATOM     10  C   UNL A   1      31.976  24.329  23.527  1.00  0.00     0.106 C 
ATOM     11  C   UNL A   1      31.542  22.891  23.497  1.00  0.00    -0.006 C 
ATOM     12  C   UNL A   1      33.025  24.300  22.415  1.00  0.00     0.048 C 
ATOM     13  C   UNL A   1      32.541  22.119  23.035  1.00  0.00    -0.014 C 
BRANCH  10  14
ATOM     14  N   UNL A   1      30.893  25.246  23.330  1.00  0.00    -0.349 N 
ATOM     15  C   UNL A   1      29.948  25.617  24.246  1.00  0.00     0.230 C 
ATOM     16  O   UNL A   1      28.943  26.191  23.809  1.00  0.00    -0.274 OA
ATOM     17  H   UNL A   1      30.822  25.653  22.437  1.00  0.00     0.164 HD
BRANCH  15  18
ATOM     18  C   UNL A   1      30.166  25.521  25.750  1.00  0.00     0.174 C 
BRANCH  18  19
ATOM     19  S   UNL A   1      31.787  25.950  26.422  1.00  0.00    -0.116 SA
BRANCH  19  20
ATOM     20  C   UNL A   1      32.272  27.640  26.195  1.00  0.00     0.011 A 
ATOM     21  C   UNL A   1      33.657  27.542  24.041  1.00  0.00     0.045 C 
ATOM     22  C   UNL A   1      33.003  28.262  25.177  1.00  0.00    -0.038 A 
ATOM     23  C   UNL A   1      33.113  29.672  25.178  1.00  0.00     0.004 A 
ATOM     24  C   UNL A   1      32.577  30.454  26.200  1.00  0.00     0.000 A 
ATOM     25  C   UNL A   1      31.767  28.455  27.239  1.00  0.00     0.015 A 
ATOM     26  C   UNL A   1      31.924  29.840  27.251  1.00  0.00     0.001 A 
ENDBRANCH  19  20
ENDBRANCH  18  19
ENDBRANCH  15  18
ENDBRANCH  10  14
ENDBRANCH   7   9
ENDBRANCH   6   7
ENDBRANCH   5   6
ENDBRANCH   4   5
ENDBRANCH   3   4
ENDBRANCH   2   3
ENDBRANCH   1   2
BRANCH   1  27
ATOM     27  O   UNL A   1      40.755  22.419  26.462  1.00  0.00    -0.377 OA
BRANCH  27  28
ATOM     28  C   UNL A   1      41.261  21.301  27.177  1.00  0.00     0.188 C 
BRANCH  28  29
ATOM     29  C   UNL A   1      41.057  19.908  26.583  1.00  0.00     0.188 C 
BRANCH  29  30
ATOM     30  O   UNL A   1      42.015  19.739  25.542  1.00  0.00    -0.376 OA
BRANCH  30  31
ATOM     31  C   UNL A   1      43.009  18.742  25.747  1.00  0.00     0.202 C 
BRANCH  31  32
ATOM     32  C   UNL A   1      44.228  18.912  24.833  1.00  0.00     0.261 C 
BRANCH  32  33
ATOM     33  O   UNL A   1      45.252  19.613  25.562  1.00  0.00    -0.460 OA
BRANCH  33  34
ATOM     34  C   UNL A   1      45.765  20.710  24.946  1.00  0.00     0.338 C 
ATOM     35  O   UNL A   1      46.855  20.780  24.405  1.00  0.00    -0.246 OA
BRANCH  34  36
ATOM     36  C   UNL A   1      44.929  21.900  25.273  1.00  0.00     0.060 A 
ATOM     37  C   UNL A   1      44.659  22.853  24.276  1.00  0.00     0.016 A 
ATOM     38  C   UNL A   1      44.656  22.202  26.606  1.00  0.00     0.016 A 
ATOM     39  C   UNL A   1      44.239  24.145  24.627  1.00  0.00     0.010 A 
ATOM     40  C   UNL A   1      44.304  23.495  26.948  1.00  0.00     0.010 A 
ATOM     41  C   UNL A   1      44.131  24.494  25.975  1.00  0.00    -0.014 A 
BRANCH  41  42
ATOM     42  C   UNL A   1      44.079  25.880  26.484  1.00  0.00     0.031 A 
ATOM     43  C   UNL A   1      42.771  26.608  26.580  1.00  0.00     0.074 A 
ATOM     44  C   UNL A   1      45.152  26.320  27.190  1.00  0.00     0.049 A 
ATOM     45  N   UNL A   1      42.613  27.794  27.068  1.00  0.00    -0.248 NA
ATOM     46  C   UNL A   1      41.500  26.050  26.117  1.00  0.00     0.031 C 
ATOM     47  C   UNL A   1      45.153  27.301  28.270  1.00  0.00     0.029 A 
ATOM     48  N   UNL A   1      46.480  25.931  27.155  1.00  0.00    -0.354 N 
ATOM     49  C   UNL A   1      41.271  27.972  27.350  1.00  0.00     0.074 A 
ATOM     50  C   UNL A   1      40.618  26.936  26.595  1.00  0.00     0.031 C 
ATOM     51  C   UNL A   1      46.383  27.451  28.785  1.00  0.00     0.029 A 
ATOM     52  C   UNL A   1      47.282  26.861  27.828  1.00  0.00     0.049 A 
ATOM     53  H   UNL A   1      46.814  25.114  26.717  1.00  0.00     0.167 HD
ATOM     54  C   UNL A   1      40.902  28.862  28.327  1.00  0.00     0.037 A 
ATOM     55  C   UNL A   1      48.153  27.638  27.114  1.00  0.00     0.037 A 
ATOM     56  C   UNL A   1      42.047  29.706  28.749  1.00  0.00     0.049 A 
ATOM     57  C   UNL A   1      47.660  29.077  26.990  1.00  0.00     0.074 A 
ATOM     58  C   UNL A   1      42.617  30.027  29.970  1.00  0.00     0.029 A 
ATOM     59  N   UNL A   1      42.924  30.231  27.789  1.00  0.00    -0.354 N 
ATOM     60  N   UNL A   1      46.395  29.408  27.120  1.00  0.00    -0.248 NA
ATOM     61  C   UNL A   1      48.511  30.259  26.882  1.00  0.00     0.031 C 
ATOM     62  C   UNL A   1      43.918  30.561  29.730  1.00  0.00     0.029 A 
ATOM     63  C   UNL A   1      44.095  30.688  28.360  1.00  0.00     0.049 A 
ATOM     64  H   UNL A   1      42.729  30.266  26.824  1.00  0.00     0.167 HD
ATOM     65  C   UNL A   1      46.266  30.758  27.244  1.00  0.00     0.074 A 
ATOM     66  C   UNL A   1      47.614  31.257  27.022  1.00  0.00     0.031 C 
ATOM     67  C   UNL A   1      45.097  31.390  27.563  1.00  0.00     0.037 A 
BRANCH  54  68
ATOM     68  C   UNL A   1      39.563  28.827  29.096  1.00  0.00     0.057 A 
ATOM     69  C   UNL A   1      38.379  29.343  28.522  1.00  0.00     0.134 A 
ATOM     70  C   UNL A   1      39.383  28.407  30.434  1.00  0.00     0.134 A 
ATOM     71  F   UNL A   1      38.344  29.766  27.251  1.00  0.00    -0.206 F 
ATOM     72  C   UNL A   1      37.157  29.457  29.216  1.00  0.00     0.040 A 
ATOM     73  C   UNL A   1      38.149  28.444  31.113  1.00  0.00     0.040 A 
ATOM     74  F   UNL A   1      40.394  27.989  31.200  1.00  0.00    -0.206 F 
ATOM     75  C   UNL A   1      37.031  28.991  30.513  1.00  0.00     0.006 A 
ENDBRANCH  54  68
BRANCH  55  76
ATOM     76  C   UNL A   1      49.021  26.781  26.249  1.00  0.00     0.057 A 
ATOM     77  C   UNL A   1      48.790  26.951  24.867  1.00  0.00     0.134 A 
ATOM     78  C   UNL A   1      50.338  26.477  26.626  1.00  0.00     0.134 A 
ATOM     79  F   UNL A   1      47.548  27.208  24.426  1.00  0.00    -0.206 F 
ATOM     80  C   UNL A   1      49.838  27.075  23.948  1.00  0.00     0.040 A 
ATOM     81  C   UNL A   1      51.396  26.576  25.703  1.00  0.00     0.040 A 
ATOM     82  F   UNL A   1      50.653  26.286  27.914  1.00  0.00    -0.206 F 
ATOM     83  C   UNL A   1      51.153  26.941  24.379  1.00  0.00     0.006 A 
ENDBRANCH  55  76
BRANCH  67  84
ATOM     84  C   UNL A   1      44.780  32.803  27.147  1.00  0.00     0.057 A 
ATOM     85  C   UNL A   1      44.149  33.094  25.931  1.00  0.00     0.134 A 
ATOM     86  C   UNL A   1      44.840  33.869  28.073  1.00  0.00     0.134 A 
ATOM     87  F   UNL A   1      43.951  32.151  25.000  1.00  0.00    -0.206 F 
ATOM     88  C   UNL A   1      43.625  34.359  25.647  1.00  0.00     0.040 A 
ATOM     89  C   UNL A   1      44.273  35.118  27.820  1.00  0.00     0.040 A 
ATOM     90  F   UNL A   1      45.406  33.733  29.281  1.00  0.00    -0.206 F 
ATOM     91  C   UNL A   1      43.665  35.368  26.600  1.00  0.00     0.006 A 
ENDBRANCH  67  84
ENDBRANCH  41  42
ENDBRANCH  34  36
ENDBRANCH  33  34
ENDBRANCH  32  33
ENDBRANCH  31  32
ENDBRANCH  30  31
ENDBRANCH  29  30
ENDBRANCH  28  29
ENDBRANCH  27  28
ENDBRANCH   1  27
TORSDOF 24
ENDMDL
MODEL 2
REMARK VINA RESULT:      -9.7      5.669     11.273
REMARK SMILES Cc1ccccc1SCC(=O)N[C@H]1C=C[C@H](C(=O)OCCOCCOCCOCCOC(=O)c2ccc(-c3c4nc(c(-c5c(F)cccc5F)c5ccc([nH]5)c(-c5c(F)cccc5F)c5nc(c(-c6c(F)cccc6F)c6ccc3[nH]6)C=C5)C=C4)cc2)C1
REMARK SMILES IDX 24 1 23 2 22 3 21 4 20 5 19 6 17 7 18 8 16 9 13 10 14 11
REMARK SMILES IDX 88 12 15 13 12 14 10 15 11 16 9 18 8 19 7 20 1 21 2 22 3 23
REMARK SMILES IDX 4 24 6 25 5 26 25 27 26 28 27 29 28 30 29 31 30 32 31 33
REMARK SMILES IDX 32 34 33 35 34 36 35 37 87 38 36 39 86 40 37 41 38 42 39 43
REMARK SMILES IDX 80 44 40 45 85 46 79 47 81 48 41 49 84 50 78 51 77 52 42 54
REMARK SMILES IDX 68 55 51 56 67 57 52 58 55 59 66 60 82 61 53 62 54 63 65 65
REMARK SMILES IDX 83 66 56 67 43 68 44 69 49 70 45 71 46 72 48 73 50 74 47 75
REMARK SMILES IDX 69 76 70 77 75 78 71 79 72 80 74 81 76 82 73 83 57 84 58 85
REMARK SMILES IDX 63 86 59 87 60 88 62 89 64 90 61 91
REMARK H PARENT 12 17 81 53 55 64
REMARK Flexibility Score: inf
ROOT
ATOM      1  C   UNL A   1      35.136  32.565  27.997  1.00  0.00     0.188 C 
ENDROOT
BRANCH   1   2
ATOM      2  C   UNL A   1      34.564  31.155  28.202  1.00  0.00     0.188 C 
BRANCH   2   3
ATOM      3  O   UNL A   1      33.522  30.868  27.288  1.00  0.00    -0.376 OA
BRANCH   3   4
ATOM      4  C   UNL A   1      33.675  29.620  26.633  1.00  0.00     0.202 C 
BRANCH   4   5
ATOM      5  C   UNL A   1      32.782  29.657  25.417  1.00  0.00     0.261 C 
BRANCH   5   6
ATOM      6  O   UNL A   1      31.538  29.072  25.822  1.00  0.00    -0.463 OA
BRANCH   6   7
ATOM      7  C   UNL A   1      31.397  27.772  25.501  1.00  0.00     0.312 C 
ATOM      8  O   UNL A   1      31.991  26.844  26.044  1.00  0.00    -0.252 OA
BRANCH   7   9
ATOM      9  C   UNL A   1      30.238  27.621  24.521  1.00  0.00     0.124 C 
ATOM     10  C   UNL A   1      31.580  27.119  22.617  1.00  0.00     0.106 C 
ATOM     11  C   UNL A   1      30.940  28.470  22.456  1.00  0.00    -0.006 C 
ATOM     12  C   UNL A   1      30.571  26.473  23.566  1.00  0.00     0.048 C 
ATOM     13  C   UNL A   1      30.206  28.762  23.544  1.00  0.00    -0.014 C 
BRANCH  10  14
ATOM     14  N   UNL A   1      31.778  26.441  21.371  1.00  0.00    -0.349 N 
ATOM     15  C   UNL A   1      32.766  25.548  21.064  1.00  0.00     0.230 C 
ATOM     16  O   UNL A   1      32.933  25.291  19.865  1.00  0.00    -0.274 OA
ATOM     17  H   UNL A   1      31.130  26.641  20.656  1.00  0.00     0.164 HD
BRANCH  15  18
ATOM     18  C   UNL A   1      33.515  24.744  22.118  1.00  0.00     0.174 C 
BRANCH  18  19
ATOM     19  S   UNL A   1      32.629  23.450  23.015  1.00  0.00    -0.116 SA
BRANCH  19  20
ATOM     20  C   UNL A   1      33.078  23.276  24.721  1.00  0.00     0.011 A 
ATOM     21  C   UNL A   1      30.802  23.080  25.883  1.00  0.00     0.045 C 
ATOM     22  C   UNL A   1      32.298  23.080  25.866  1.00  0.00    -0.038 A 
ATOM     23  C   UNL A   1      32.943  22.822  27.097  1.00  0.00     0.004 A 
ATOM     24  C   UNL A   1      34.332  22.830  27.219  1.00  0.00     0.000 A 
ATOM     25  C   UNL A   1      34.486  23.312  24.879  1.00  0.00     0.015 A 
ATOM     26  C   UNL A   1      35.108  23.103  26.109  1.00  0.00     0.001 A 
ENDBRANCH  19  20
ENDBRANCH  18  19
ENDBRANCH  15  18
ENDBRANCH  10  14
ENDBRANCH   7   9
ENDBRANCH   6   7
ENDBRANCH   5   6
ENDBRANCH   4   5
ENDBRANCH   3   4
ENDBRANCH   2   3
ENDBRANCH   1   2
BRANCH   1  27
ATOM     27  O   UNL A   1      34.383  33.671  28.474  1.00  0.00    -0.377 OA
BRANCH  27  28
ATOM     28  C   UNL A   1      34.932  34.974  28.330  1.00  0.00     0.188 C 
BRANCH  28  29
ATOM     29  C   UNL A   1      33.971  36.152  28.168  1.00  0.00     0.188 C 
BRANCH  29  30
ATOM     30  O   UNL A   1      33.132  36.185  29.319  1.00  0.00    -0.376 OA
BRANCH  30  31
ATOM     31  C   UNL A   1      33.146  37.384  30.082  1.00  0.00     0.202 C 
BRANCH  31  32
ATOM     32  C   UNL A   1      33.385  37.143  31.577  1.00  0.00     0.261 C 
BRANCH  32  33
ATOM     33  O   UNL A   1      33.580  35.731  31.787  1.00  0.00    -0.460 OA
BRANCH  33  34
ATOM     34  C   UNL A   1      34.350  35.398  32.854  1.00  0.00     0.338 C 
ATOM     35  O   UNL A   1      34.608  36.120  33.802  1.00  0.00    -0.246 OA
BRANCH  34  36
ATOM     36  C   UNL A   1      35.073  34.126  32.568  1.00  0.00     0.060 A 
ATOM     37  C   UNL A   1      34.993  33.061  33.482  1.00  0.00     0.016 A 
ATOM     38  C   UNL A   1      36.029  34.093  31.555  1.00  0.00     0.016 A 
ATOM     39  C   UNL A   1      35.949  32.035  33.459  1.00  0.00     0.010 A 
ATOM     40  C   UNL A   1      37.005  33.112  31.577  1.00  0.00     0.010 A 
ATOM     41  C   UNL A   1      37.006  32.096  32.549  1.00  0.00    -0.014 A 
BRANCH  41  42
ATOM     42  C   UNL A   1      38.259  31.320  32.660  1.00  0.00     0.031 A 
ATOM     43  C   UNL A   1      38.450  30.063  31.863  1.00  0.00     0.074 A 
ATOM     44  C   UNL A   1      39.335  31.956  33.190  1.00  0.00     0.049 A 
ATOM     45  N   UNL A   1      39.529  29.351  31.843  1.00  0.00    -0.248 NA
ATOM     46  C   UNL A   1      37.415  29.485  31.006  1.00  0.00     0.031 C 
ATOM     47  C   UNL A   1      40.740  31.718  32.877  1.00  0.00     0.029 A 
ATOM     48  N   UNL A   1      39.413  33.017  34.076  1.00  0.00    -0.354 N 
ATOM     49  C   UNL A   1      39.483  28.525  30.736  1.00  0.00     0.074 A 
ATOM     50  C   UNL A   1      38.094  28.533  30.355  1.00  0.00     0.031 C 
ATOM     51  C   UNL A   1      41.534  32.571  33.543  1.00  0.00     0.029 A 
ATOM     52  C   UNL A   1      40.713  33.139  34.581  1.00  0.00     0.049 A 
ATOM     53  H   UNL A   1      38.660  33.604  34.316  1.00  0.00     0.167 HD
ATOM     54  C   UNL A   1      40.655  28.082  30.178  1.00  0.00     0.037 A 
ATOM     55  C   UNL A   1      40.952  32.852  35.898  1.00  0.00     0.037 A 
ATOM     56  C   UNL A   1      41.814  28.372  31.058  1.00  0.00     0.049 A 
ATOM     57  C   UNL A   1      41.673  31.518  36.066  1.00  0.00     0.074 A 
ATOM     58  C   UNL A   1      43.041  28.989  30.875  1.00  0.00     0.029 A 
ATOM     59  N   UNL A   1      41.715  28.163  32.441  1.00  0.00    -0.354 N 
ATOM     60  N   UNL A   1      41.640  30.572  35.154  1.00  0.00    -0.248 NA
ATOM     61  C   UNL A   1      42.600  31.184  37.145  1.00  0.00     0.031 C 
ATOM     62  C   UNL A   1      43.571  29.321  32.157  1.00  0.00     0.029 A 
ATOM     63  C   UNL A   1      42.734  28.792  33.129  1.00  0.00     0.049 A 
ATOM     64  H   UNL A   1      41.005  27.633  32.870  1.00  0.00     0.167 HD
ATOM     65  C   UNL A   1      42.577  29.620  35.421  1.00  0.00     0.074 A 
ATOM     66  C   UNL A   1      43.110  30.011  36.716  1.00  0.00     0.031 C 
ATOM     67  C   UNL A   1      42.900  28.603  34.567  1.00  0.00     0.037 A 
BRANCH  54  68
ATOM     68  C   UNL A   1      40.814  27.599  28.720  1.00  0.00     0.057 A 
ATOM     69  C   UNL A   1      41.332  28.455  27.722  1.00  0.00     0.134 A 
ATOM     70  C   UNL A   1      40.380  26.357  28.203  1.00  0.00     0.134 A 
ATOM     71  F   UNL A   1      41.820  29.667  28.022  1.00  0.00    -0.206 F 
ATOM     72  C   UNL A   1      41.384  28.121  26.353  1.00  0.00     0.040 A 
ATOM     73  C   UNL A   1      40.497  25.982  26.850  1.00  0.00     0.040 A 
ATOM     74  F   UNL A   1      39.758  25.443  28.951  1.00  0.00    -0.206 F 
ATOM     75  C   UNL A   1      40.981  26.873  25.911  1.00  0.00     0.006 A 
ENDBRANCH  54  68
BRANCH  55  76
ATOM     76  C   UNL A   1      40.015  33.621  36.773  1.00  0.00     0.057 A 
ATOM     77  C   UNL A   1      39.117  32.806  37.496  1.00  0.00     0.134 A 
ATOM     78  C   UNL A   1      40.425  34.806  37.402  1.00  0.00     0.134 A 
ATOM     79  F   UNL A   1      38.652  31.673  36.944  1.00  0.00    -0.206 F 
ATOM     80  C   UNL A   1      38.853  33.017  38.855  1.00  0.00     0.040 A 
ATOM     81  C   UNL A   1      40.143  35.038  38.762  1.00  0.00     0.040 A 
ATOM     82  F   UNL A   1      41.266  35.649  36.789  1.00  0.00    -0.206 F 
ATOM     83  C   UNL A   1      39.414  34.110  39.506  1.00  0.00     0.006 A 
ENDBRANCH  55  76
BRANCH  67  84
ATOM     84  C   UNL A   1      43.445  27.277  35.028  1.00  0.00     0.057 A 
ATOM     85  C   UNL A   1      42.633  26.315  35.643  1.00  0.00     0.134 A 
ATOM     86  C   UNL A   1      44.719  26.825  34.614  1.00  0.00     0.134 A 
ATOM     87  F   UNL A   1      41.373  26.589  36.007  1.00  0.00    -0.206 F 
ATOM     88  C   UNL A   1      43.059  24.998  35.844  1.00  0.00     0.040 A 
ATOM     89  C   UNL A   1      45.132  25.501  34.762  1.00  0.00     0.040 A 
ATOM     90  F   UNL A   1      45.598  27.633  34.005  1.00  0.00    -0.206 F 
ATOM     91  C   UNL A   1      44.301  24.581  35.383  1.00  0.00     0.006 A 
ENDBRANCH  67  84
ENDBRANCH  41  42
ENDBRANCH  34  36
ENDBRANCH  33  34
ENDBRANCH  32  33
ENDBRANCH  31  32
ENDBRANCH  30  31
ENDBRANCH  29  30
ENDBRANCH  28  29
ENDBRANCH  27  28
ENDBRANCH   1  27
TORSDOF 24
ENDMDL
MODEL 3
REMARK VINA RESULT:      -9.6      1.551      2.321
REMARK SMILES Cc1ccccc1SCC(=O)N[C@H]1C=C[C@H](C(=O)OCCOCCOCCOCCOC(=O)c2ccc(-c3c4nc(c(-c5c(F)cccc5F)c5ccc([nH]5)c(-c5c(F)cccc5F)c5nc(c(-c6c(F)cccc6F)c6ccc3[nH]6)C=C5)C=C4)cc2)C1
REMARK SMILES IDX 24 1 23 2 22 3 21 4 20 5 19 6 17 7 18 8 16 9 13 10 14 11
REMARK SMILES IDX 88 12 15 13 12 14 10 15 11 16 9 18 8 19 7 20 1 21 2 22 3 23
REMARK SMILES IDX 4 24 6 25 5 26 25 27 26 28 27 29 28 30 29 31 30 32 31 33
REMARK SMILES IDX 32 34 33 35 34 36 35 37 87 38 36 39 86 40 37 41 38 42 39 43
REMARK SMILES IDX 80 44 40 45 85 46 79 47 81 48 41 49 84 50 78 51 77 52 42 54
REMARK SMILES IDX 68 55 51 56 67 57 52 58 55 59 66 60 82 61 53 62 54 63 65 65
REMARK SMILES IDX 83 66 56 67 43 68 44 69 49 70 45 71 46 72 48 73 50 74 47 75
REMARK SMILES IDX 69 76 70 77 75 78 71 79 72 80 74 81 76 82 73 83 57 84 58 85
REMARK SMILES IDX 63 86 59 87 60 88 62 89 64 90 61 91
REMARK H PARENT 12 17 81 53 55 64
REMARK Flexibility Score: inf
ROOT
ATOM      1  C   UNL A   1      41.471  22.479  27.217  1.00  0.00     0.188 C 
ENDROOT
BRANCH   1   2
ATOM      2  C   UNL A   1      40.259  23.320  26.791  1.00  0.00     0.188 C 
BRANCH   2   3
ATOM      3  O   UNL A   1      39.286  22.544  26.119  1.00  0.00    -0.376 OA
BRANCH   3   4
ATOM      4  C   UNL A   1      38.003  23.147  26.095  1.00  0.00     0.202 C 
BRANCH   4   5
ATOM      5  C   UNL A   1      37.194  22.401  25.062  1.00  0.00     0.261 C 
BRANCH   5   6
ATOM      6  O   UNL A   1      35.936  22.107  25.683  1.00  0.00    -0.463 OA
BRANCH   6   7
ATOM      7  C   UNL A   1      34.992  21.634  24.845  1.00  0.00     0.312 C 
ATOM      8  O   UNL A   1      34.799  20.446  24.601  1.00  0.00    -0.252 OA
BRANCH   7   9
ATOM      9  C   UNL A   1      34.077  22.780  24.426  1.00  0.00     0.124 C 
ATOM     10  C   UNL A   1      32.103  21.909  25.440  1.00  0.00     0.106 C 
ATOM     11  C   UNL A   1      31.976  21.867  23.943  1.00  0.00    -0.006 C 
ATOM     12  C   UNL A   1      33.106  23.055  25.576  1.00  0.00     0.048 C 
ATOM     13  C   UNL A   1      33.101  22.332  23.373  1.00  0.00    -0.014 C 
BRANCH  10  14
ATOM     14  N   UNL A   1      30.849  22.104  26.103  1.00  0.00    -0.349 N 
ATOM     15  C   UNL A   1      30.484  23.164  26.886  1.00  0.00     0.230 C 
ATOM     16  O   UNL A   1      29.478  23.017  27.591  1.00  0.00    -0.274 OA
ATOM     17  H   UNL A   1      30.175  21.396  25.983  1.00  0.00     0.164 HD
BRANCH  15  18
ATOM     18  C   UNL A   1      31.137  24.536  26.783  1.00  0.00     0.174 C 
BRANCH  18  19
ATOM     19  S   UNL A   1      30.540  25.690  25.529  1.00  0.00    -0.116 SA
BRANCH  19  20
ATOM     20  C   UNL A   1      31.657  25.986  24.185  1.00  0.00     0.011 A 
ATOM     21  C   UNL A   1      33.660  27.079  25.350  1.00  0.00     0.045 C 
ATOM     22  C   UNL A   1      32.951  26.517  24.159  1.00  0.00    -0.038 A 
ATOM     23  C   UNL A   1      33.674  26.498  22.945  1.00  0.00     0.004 A 
ATOM     24  C   UNL A   1      33.112  26.032  21.757  1.00  0.00     0.000 A 
ATOM     25  C   UNL A   1      31.097  25.550  22.957  1.00  0.00     0.015 A 
ATOM     26  C   UNL A   1      31.806  25.581  21.758  1.00  0.00     0.001 A 
ENDBRANCH  19  20
ENDBRANCH  18  19
ENDBRANCH  15  18
ENDBRANCH  10  14
ENDBRANCH   7   9
ENDBRANCH   6   7
ENDBRANCH   5   6
ENDBRANCH   4   5
ENDBRANCH   3   4
ENDBRANCH   2   3
ENDBRANCH   1   2
BRANCH   1  27
ATOM     27  O   UNL A   1      41.742  21.282  26.501  1.00  0.00    -0.377 OA
BRANCH  27  28
ATOM     28  C   UNL A   1      41.852  20.069  27.232  1.00  0.00     0.188 C 
BRANCH  28  29
ATOM     29  C   UNL A   1      42.249  18.800  26.477  1.00  0.00     0.188 C 
BRANCH  29  30
ATOM     30  O   UNL A   1      43.085  19.190  25.391  1.00  0.00    -0.376 OA
BRANCH  30  31
ATOM     31  C   UNL A   1      44.397  18.640  25.370  1.00  0.00     0.202 C 
BRANCH  31  32
ATOM     32  C   UNL A   1      45.272  19.218  24.251  1.00  0.00     0.261 C 
BRANCH  32  33
ATOM     33  O   UNL A   1      45.808  20.479  24.695  1.00  0.00    -0.460 OA
BRANCH  33  34
ATOM     34  C   UNL A   1      45.145  21.583  24.261  1.00  0.00     0.338 C 
ATOM     35  O   UNL A   1      44.513  21.674  23.222  1.00  0.00    -0.246 OA
BRANCH  34  36
ATOM     36  C   UNL A   1      45.539  22.757  25.091  1.00  0.00     0.060 A 
ATOM     37  C   UNL A   1      45.108  22.838  26.426  1.00  0.00     0.016 A 
ATOM     38  C   UNL A   1      46.086  23.881  24.475  1.00  0.00     0.016 A 
ATOM     39  C   UNL A   1      45.108  24.070  27.097  1.00  0.00     0.010 A 
ATOM     40  C   UNL A   1      46.024  25.103  25.120  1.00  0.00     0.010 A 
ATOM     41  C   UNL A   1      45.499  25.226  26.418  1.00  0.00    -0.014 A 
BRANCH  41  42
ATOM     42  C   UNL A   1      45.193  26.604  26.855  1.00  0.00     0.031 A 
ATOM     43  C   UNL A   1      43.775  27.092  26.899  1.00  0.00     0.074 A 
ATOM     44  C   UNL A   1      46.158  27.261  27.549  1.00  0.00     0.049 A 
ATOM     45  N   UNL A   1      43.401  28.254  27.324  1.00  0.00    -0.248 NA
ATOM     46  C   UNL A   1      42.633  26.296  26.451  1.00  0.00     0.031 C 
ATOM     47  C   UNL A   1      45.963  28.277  28.578  1.00  0.00     0.029 A 
ATOM     48  N   UNL A   1      47.534  27.112  27.549  1.00  0.00    -0.354 N 
ATOM     49  C   UNL A   1      42.043  28.204  27.582  1.00  0.00     0.074 A 
ATOM     50  C   UNL A   1      41.599  27.033  26.873  1.00  0.00     0.031 C 
ATOM     51  C   UNL A   1      47.137  28.668  29.099  1.00  0.00     0.029 A 
ATOM     52  C   UNL A   1      48.145  28.201  28.183  1.00  0.00     0.049 A 
ATOM     53  H   UNL A   1      48.015  26.347  27.157  1.00  0.00     0.167 HD
ATOM     54  C   UNL A   1      41.503  29.061  28.508  1.00  0.00     0.037 A 
ATOM     55  C   UNL A   1      48.880  29.085  27.439  1.00  0.00     0.037 A 
ATOM     56  C   UNL A   1      42.473  30.114  28.899  1.00  0.00     0.049 A 
ATOM     57  C   UNL A   1      48.143  30.406  27.237  1.00  0.00     0.074 A 
ATOM     58  C   UNL A   1      42.953  30.589  30.108  1.00  0.00     0.029 A 
ATOM     59  N   UNL A   1      43.262  30.738  27.923  1.00  0.00    -0.354 N 
ATOM     60  N   UNL A   1      46.837  30.513  27.335  1.00  0.00    -0.248 NA
ATOM     61  C   UNL A   1      48.774  31.714  27.078  1.00  0.00     0.031 C 
ATOM     62  C   UNL A   1      44.143  31.333  29.856  1.00  0.00     0.029 A 
ATOM     63  C   UNL A   1      44.323  31.423  28.483  1.00  0.00     0.049 A 
ATOM     64  H   UNL A   1      43.084  30.692  26.956  1.00  0.00     0.167 HD
ATOM     65  C   UNL A   1      46.469  31.823  27.390  1.00  0.00     0.074 A 
ATOM     66  C   UNL A   1      47.712  32.542  27.158  1.00  0.00     0.031 C 
ATOM     67  C   UNL A   1      45.200  32.253  27.663  1.00  0.00     0.037 A 
BRANCH  54  68
ATOM     68  C   UNL A   1      40.177  28.825  29.263  1.00  0.00     0.057 A 
ATOM     69  C   UNL A   1      39.268  29.884  29.487  1.00  0.00     0.134 A 
ATOM     70  C   UNL A   1      39.779  27.622  29.890  1.00  0.00     0.134 A 
ATOM     71  F   UNL A   1      39.460  31.096  28.949  1.00  0.00    -0.206 F 
ATOM     72  C   UNL A   1      38.105  29.765  30.275  1.00  0.00     0.040 A 
ATOM     73  C   UNL A   1      38.581  27.470  30.616  1.00  0.00     0.040 A 
ATOM     74  F   UNL A   1      40.543  26.527  29.900  1.00  0.00    -0.206 F 
ATOM     75  C   UNL A   1      37.746  28.550  30.832  1.00  0.00     0.006 A 
ENDBRANCH  54  68
BRANCH  55  76
ATOM     76  C   UNL A   1      49.902  28.354  26.630  1.00  0.00     0.057 A 
ATOM     77  C   UNL A   1      50.971  27.842  27.396  1.00  0.00     0.134 A 
ATOM     78  C   UNL A   1      49.530  27.605  25.504  1.00  0.00     0.134 A 
ATOM     79  F   UNL A   1      51.409  28.522  28.469  1.00  0.00    -0.206 F 
ATOM     80  C   UNL A   1      51.462  26.544  27.213  1.00  0.00     0.040 A 
ATOM     81  C   UNL A   1      50.036  26.307  25.298  1.00  0.00     0.040 A 
ATOM     82  F   UNL A   1      48.534  28.017  24.708  1.00  0.00    -0.206 F 
ATOM     83  C   UNL A   1      50.951  25.751  26.191  1.00  0.00     0.006 A 
ENDBRANCH  55  76
BRANCH  67  84
ATOM     84  C   UNL A   1      44.647  33.565  27.172  1.00  0.00     0.057 A 
ATOM     85  C   UNL A   1      44.064  33.697  25.905  1.00  0.00     0.134 A 
ATOM     86  C   UNL A   1      44.431  34.645  28.058  1.00  0.00     0.134 A 
ATOM     87  F   UNL A   1      44.122  32.710  25.000  1.00  0.00    -0.206 F 
ATOM     88  C   UNL A   1      43.327  34.827  25.537  1.00  0.00     0.040 A 
ATOM     89  C   UNL A   1      43.653  35.752  27.719  1.00  0.00     0.040 A 
ATOM     90  F   UNL A   1      44.922  34.652  29.305  1.00  0.00    -0.206 F 
ATOM     91  C   UNL A   1      43.100  35.847  26.452  1.00  0.00     0.006 A 
ENDBRANCH  67  84
ENDBRANCH  41  42
ENDBRANCH  34  36
ENDBRANCH  33  34
ENDBRANCH  32  33
ENDBRANCH  31  32
ENDBRANCH  30  31
ENDBRANCH  29  30
ENDBRANCH  28  29
ENDBRANCH  27  28
ENDBRANCH   1  27
TORSDOF 24
ENDMDL
