MODEL 1
REMARK VINA RESULT:      -9.6      0.000      0.000
REMARK SMILES Cc1cc(S(=O)(=O)Nc2ccc(Cl)cc2F)ccc1OCC(=O)OCCOCCOCCOCCOC(=O)c1ccc(-c2c3nc(c(-c4c(F)cccc4F)c4ccc([nH]4)c(-c4c(F)cccc4F)c4nc(c(-c5c(F)cccc5F)c5ccc2[nH]5)C=C4)C=C3)cc1
REMARK SMILES IDX 28 1 27 2 26 3 25 4 24 5 22 6 23 7 21 8 20 9 19 10 1 11 2 12
REMARK SMILES IDX 3 13 4 14 18 15 17 16 5 17 6 18 7 19 8 20 9 22 10 23 15 24
REMARK SMILES IDX 11 25 14 26 16 27 12 28 13 29 29 30 30 31 31 32 32 33 33 34
REMARK SMILES IDX 34 35 35 36 36 37 37 38 38 39 39 40 40 41 92 42 41 43 91 44
REMARK SMILES IDX 42 45 43 46 44 47 85 48 45 49 90 50 84 51 86 52 46 53 89 54
REMARK SMILES IDX 83 55 82 56 47 58 73 59 56 60 72 61 57 62 60 63 71 64 87 65
REMARK SMILES IDX 58 66 59 67 70 69 88 70 61 71 48 72 49 73 54 74 50 75 51 76
REMARK SMILES IDX 53 77 55 78 52 79 74 80 75 81 80 82 76 83 77 84 79 85 81 86
REMARK SMILES IDX 78 87 62 88 63 89 68 90 64 91 65 92 67 93 69 94 66 95
REMARK H PARENT 8 21 86 57 60 68
REMARK Flexibility Score: inf
ROOT
ATOM      1  C   UNL A   1      33.162  29.143  26.859  1.00  0.00     0.188 C 
ENDROOT
BRANCH   1   2
ATOM      2  O   UNL A   1      32.162  28.349  27.460  1.00  0.00    -0.376 OA
BRANCH   2   3
ATOM      3  C   UNL A   1      31.990  27.100  26.845  1.00  0.00     0.202 C 
BRANCH   3   4
ATOM      4  C   UNL A   1      30.697  26.784  26.124  1.00  0.00     0.261 C 
BRANCH   4   5
ATOM      5  O   UNL A   1      30.553  27.582  24.954  1.00  0.00    -0.461 OA
BRANCH   5   6
ATOM      6  C   UNL A   1      30.064  26.928  23.879  1.00  0.00     0.344 C 
ATOM      7  O   UNL A   1      28.886  26.650  23.688  1.00  0.00    -0.248 OA
BRANCH   6   8
ATOM      8  C   UNL A   1      31.177  26.556  22.914  1.00  0.00     0.351 C 
BRANCH   8   9
ATOM      9  O   UNL A   1      31.385  25.203  22.587  1.00  0.00    -0.482 OA
BRANCH   9  10
ATOM     10  C   UNL A   1      32.447  24.432  22.942  1.00  0.00     0.123 A 
ATOM     11  C   UNL A   1      33.222  23.247  20.753  1.00  0.00     0.048 C 
ATOM     12  C   UNL A   1      33.288  23.568  22.222  1.00  0.00    -0.008 A 
ATOM     13  C   UNL A   1      34.421  23.005  22.884  1.00  0.00     0.029 A 
ATOM     14  C   UNL A   1      34.752  23.333  24.203  1.00  0.00     0.088 A 
ATOM     15  C   UNL A   1      32.793  24.737  24.269  1.00  0.00     0.048 A 
ATOM     16  C   UNL A   1      33.968  24.269  24.858  1.00  0.00     0.026 A 
BRANCH  14  17
ATOM     17  S   UNL A   1      36.140  22.493  24.964  1.00  0.00     0.262 S 
ATOM     18  O   UNL A   1      37.067  22.119  23.906  1.00  0.00    -0.201 OA
ATOM     19  O   UNL A   1      36.585  23.330  26.047  1.00  0.00    -0.201 OA
BRANCH  17  20
ATOM     20  N   UNL A   1      35.583  21.099  25.719  1.00  0.00    -0.277 N 
ATOM     21  H   UNL A   1      35.758  21.019  26.685  1.00  0.00     0.180 HD
BRANCH  20  22
ATOM     22  C   UNL A   1      34.883  20.019  25.102  1.00  0.00     0.085 A 
ATOM     23  C   UNL A   1      35.659  18.908  24.742  1.00  0.00     0.031 A 
ATOM     24  C   UNL A   1      33.487  19.911  25.032  1.00  0.00     0.148 A 
ATOM     25  C   UNL A   1      35.046  17.677  24.484  1.00  0.00     0.023 A 
ATOM     26  C   UNL A   1      32.873  18.680  24.812  1.00  0.00     0.062 A 
ATOM     27  F   UNL A   1      32.691  20.937  25.353  1.00  0.00    -0.205 F 
ATOM     28  C   UNL A   1      33.660  17.560  24.571  1.00  0.00     0.044 A 
ATOM     29  Cl  UNL A   1      32.923  16.013  24.448  1.00  0.00    -0.084 Cl
ENDBRANCH  20  22
ENDBRANCH  17  20
ENDBRANCH  14  17
ENDBRANCH   9  10
ENDBRANCH   8   9
ENDBRANCH   6   8
ENDBRANCH   5   6
ENDBRANCH   4   5
ENDBRANCH   3   4
ENDBRANCH   2   3
ENDBRANCH   1   2
BRANCH   1  30
ATOM     30  C   UNL A   1      33.895  30.305  27.579  1.00  0.00     0.188 C 
BRANCH  30  31
ATOM     31  O   UNL A   1      35.296  30.495  27.382  1.00  0.00    -0.377 OA
BRANCH  31  32
ATOM     32  C   UNL A   1      35.763  31.672  28.055  1.00  0.00     0.188 C 
BRANCH  32  33
ATOM     33  C   UNL A   1      34.845  32.837  27.771  1.00  0.00     0.188 C 
BRANCH  33  34
ATOM     34  O   UNL A   1      34.942  33.800  28.804  1.00  0.00    -0.376 OA
BRANCH  34  35
ATOM     35  C   UNL A   1      33.949  34.803  28.835  1.00  0.00     0.202 C 
BRANCH  35  36
ATOM     36  C   UNL A   1      33.372  35.073  30.224  1.00  0.00     0.261 C 
BRANCH  36  37
ATOM     37  O   UNL A   1      33.895  34.107  31.159  1.00  0.00    -0.460 OA
BRANCH  37  38
ATOM     38  C   UNL A   1      34.089  34.561  32.429  1.00  0.00     0.338 C 
ATOM     39  O   UNL A   1      33.348  35.340  33.010  1.00  0.00    -0.246 OA
BRANCH  38  40
ATOM     40  C   UNL A   1      35.493  34.270  32.878  1.00  0.00     0.060 A 
ATOM     41  C   UNL A   1      36.573  34.547  32.018  1.00  0.00     0.016 A 
ATOM     42  C   UNL A   1      35.676  33.363  33.915  1.00  0.00     0.016 A 
ATOM     43  C   UNL A   1      37.766  33.799  32.101  1.00  0.00     0.010 A 
ATOM     44  C   UNL A   1      36.795  32.544  33.897  1.00  0.00     0.010 A 
ATOM     45  C   UNL A   1      37.860  32.733  32.996  1.00  0.00    -0.014 A 
BRANCH  45  46
ATOM     46  C   UNL A   1      38.948  31.714  33.041  1.00  0.00     0.031 A 
ATOM     47  C   UNL A   1      38.819  30.490  32.181  1.00  0.00     0.074 A 
ATOM     48  C   UNL A   1      40.173  32.072  33.517  1.00  0.00     0.049 A 
ATOM     49  N   UNL A   1      39.715  29.572  32.025  1.00  0.00    -0.248 NA
ATOM     50  C   UNL A   1      37.657  30.241  31.333  1.00  0.00     0.031 C 
ATOM     51  C   UNL A   1      41.501  31.563  33.130  1.00  0.00     0.029 A 
ATOM     52  N   UNL A   1      40.517  33.163  34.323  1.00  0.00    -0.354 N 
ATOM     53  C   UNL A   1      39.443  28.866  30.857  1.00  0.00     0.074 A 
ATOM     54  C   UNL A   1      38.104  29.279  30.520  1.00  0.00     0.031 C 
ATOM     55  C   UNL A   1      42.483  32.237  33.753  1.00  0.00     0.029 A 
ATOM     56  C   UNL A   1      41.831  32.963  34.813  1.00  0.00     0.049 A 
ATOM     57  H   UNL A   1      39.943  33.938  34.516  1.00  0.00     0.167 HD
ATOM     58  C   UNL A   1      40.455  28.151  30.253  1.00  0.00     0.037 A 
ATOM     59  C   UNL A   1      42.011  32.657  36.133  1.00  0.00     0.037 A 
ATOM     60  C   UNL A   1      41.685  28.183  31.092  1.00  0.00     0.049 A 
ATOM     61  C   UNL A   1      42.353  31.172  36.263  1.00  0.00     0.074 A 
ATOM     62  C   UNL A   1      43.021  28.502  30.898  1.00  0.00     0.029 A 
ATOM     63  N   UNL A   1      41.564  28.001  32.478  1.00  0.00    -0.354 N 
ATOM     64  N   UNL A   1      42.013  30.282  35.355  1.00  0.00    -0.248 NA
ATOM     65  C   UNL A   1      43.272  30.598  37.245  1.00  0.00     0.031 C 
ATOM     66  C   UNL A   1      43.634  28.687  32.177  1.00  0.00     0.029 A 
ATOM     67  C   UNL A   1      42.701  28.386  33.160  1.00  0.00     0.049 A 
ATOM     68  H   UNL A   1      40.759  27.640  32.914  1.00  0.00     0.167 HD
ATOM     69  C   UNL A   1      42.753  29.147  35.499  1.00  0.00     0.074 A 
ATOM     70  C   UNL A   1      43.466  29.359  36.748  1.00  0.00     0.031 C 
ATOM     71  C   UNL A   1      42.814  28.126  34.590  1.00  0.00     0.037 A 
BRANCH  58  72
ATOM     72  C   UNL A   1      40.438  27.561  28.814  1.00  0.00     0.057 A 
ATOM     73  C   UNL A   1      39.750  26.359  28.512  1.00  0.00     0.134 A 
ATOM     74  C   UNL A   1      41.076  28.098  27.674  1.00  0.00     0.134 A 
ATOM     75  F   UNL A   1      38.987  25.735  29.416  1.00  0.00    -0.206 F 
ATOM     76  C   UNL A   1      39.761  25.730  27.249  1.00  0.00     0.040 A 
ATOM     77  C   UNL A   1      41.087  27.489  26.401  1.00  0.00     0.040 A 
ATOM     78  F   UNL A   1      41.699  29.273  27.683  1.00  0.00    -0.206 F 
ATOM     79  C   UNL A   1      40.437  26.291  26.182  1.00  0.00     0.006 A 
ENDBRANCH  58  72
BRANCH  59  80
ATOM     80  C   UNL A   1      41.229  33.636  36.964  1.00  0.00     0.057 A 
ATOM     81  C   UNL A   1      40.141  33.057  37.667  1.00  0.00     0.134 A 
ATOM     82  C   UNL A   1      41.861  34.712  37.600  1.00  0.00     0.134 A 
ATOM     83  F   UNL A   1      39.458  32.038  37.119  1.00  0.00    -0.206 F 
ATOM     84  C   UNL A   1      39.875  33.350  39.012  1.00  0.00     0.040 A 
ATOM     85  C   UNL A   1      41.584  35.028  38.945  1.00  0.00     0.040 A 
ATOM     86  F   UNL A   1      42.889  35.340  37.012  1.00  0.00    -0.206 F 
ATOM     87  C   UNL A   1      40.642  34.300  39.674  1.00  0.00     0.006 A 
ENDBRANCH  59  80
BRANCH  71  88
ATOM     88  C   UNL A   1      42.946  26.685  35.006  1.00  0.00     0.057 A 
ATOM     89  C   UNL A   1      41.992  26.056  35.816  1.00  0.00     0.134 A 
ATOM     90  C   UNL A   1      43.872  25.822  34.373  1.00  0.00     0.134 A 
ATOM     91  F   UNL A   1      40.988  26.740  36.381  1.00  0.00    -0.206 F 
ATOM     92  C   UNL A   1      41.986  24.676  36.021  1.00  0.00     0.040 A 
ATOM     93  C   UNL A   1      43.833  24.437  34.522  1.00  0.00     0.040 A 
ATOM     94  F   UNL A   1      44.821  26.272  33.539  1.00  0.00    -0.206 F 
ATOM     95  C   UNL A   1      42.896  23.860  35.362  1.00  0.00     0.006 A 
ENDBRANCH  71  88
ENDBRANCH  45  46
ENDBRANCH  38  40
ENDBRANCH  37  38
ENDBRANCH  36  37
ENDBRANCH  35  36
ENDBRANCH  34  35
ENDBRANCH  33  34
ENDBRANCH  32  33
ENDBRANCH  31  32
ENDBRANCH  30  31
ENDBRANCH   1  30
TORSDOF 25
ENDMDL
MODEL 2
REMARK VINA RESULT:      -9.2      5.396     11.531
REMARK SMILES Cc1cc(S(=O)(=O)Nc2ccc(Cl)cc2F)ccc1OCC(=O)OCCOCCOCCOCCOC(=O)c1ccc(-c2c3nc(c(-c4c(F)cccc4F)c4ccc([nH]4)c(-c4c(F)cccc4F)c4nc(c(-c5c(F)cccc5F)c5ccc2[nH]5)C=C4)C=C3)cc1
REMARK SMILES IDX 28 1 27 2 26 3 25 4 24 5 22 6 23 7 21 8 20 9 19 10 1 11 2 12
REMARK SMILES IDX 3 13 4 14 18 15 17 16 5 17 6 18 7 19 8 20 9 22 10 23 15 24
REMARK SMILES IDX 11 25 14 26 16 27 12 28 13 29 29 30 30 31 31 32 32 33 33 34
REMARK SMILES IDX 34 35 35 36 36 37 37 38 38 39 39 40 40 41 92 42 41 43 91 44
REMARK SMILES IDX 42 45 43 46 44 47 85 48 45 49 90 50 84 51 86 52 46 53 89 54
REMARK SMILES IDX 83 55 82 56 47 58 73 59 56 60 72 61 57 62 60 63 71 64 87 65
REMARK SMILES IDX 58 66 59 67 70 69 88 70 61 71 48 72 49 73 54 74 50 75 51 76
REMARK SMILES IDX 53 77 55 78 52 79 74 80 75 81 80 82 76 83 77 84 79 85 81 86
REMARK SMILES IDX 78 87 62 88 63 89 68 90 64 91 65 92 67 93 69 94 66 95
REMARK H PARENT 8 21 86 57 60 68
REMARK Flexibility Score: inf
ROOT
ATOM      1  C   UNL A   1      34.988  24.350  25.441  1.00  0.00     0.188 C 
ENDROOT
BRANCH   1   2
ATOM      2  O   UNL A   1      33.821  23.654  25.827  1.00  0.00    -0.376 OA
BRANCH   2   3
ATOM      3  C   UNL A   1      32.674  24.460  25.870  1.00  0.00     0.202 C 
BRANCH   3   4
ATOM      4  C   UNL A   1      32.806  25.967  25.824  1.00  0.00     0.261 C 
BRANCH   4   5
ATOM      5  O   UNL A   1      31.594  26.576  25.393  1.00  0.00    -0.461 OA
BRANCH   5   6
ATOM      6  C   UNL A   1      31.753  27.674  24.623  1.00  0.00     0.344 C 
ATOM      7  O   UNL A   1      31.146  27.912  23.586  1.00  0.00    -0.248 OA
BRANCH   6   8
ATOM      8  C   UNL A   1      32.812  28.597  25.203  1.00  0.00     0.351 C 
BRANCH   8   9
ATOM      9  O   UNL A   1      32.431  29.852  25.714  1.00  0.00    -0.482 OA
BRANCH   9  10
ATOM     10  C   UNL A   1      33.036  30.541  26.717  1.00  0.00     0.123 A 
ATOM     11  C   UNL A   1      35.223  29.229  27.258  1.00  0.00     0.048 C 
ATOM     12  C   UNL A   1      34.229  30.345  27.432  1.00  0.00    -0.008 A 
ATOM     13  C   UNL A   1      34.651  31.355  28.350  1.00  0.00     0.029 A 
ATOM     14  C   UNL A   1      33.950  32.554  28.513  1.00  0.00     0.088 A 
ATOM     15  C   UNL A   1      32.342  31.749  26.908  1.00  0.00     0.048 A 
ATOM     16  C   UNL A   1      32.836  32.770  27.720  1.00  0.00     0.026 A 
BRANCH  14  17
ATOM     17  S   UNL A   1      34.519  33.706  29.762  1.00  0.00     0.262 S 
ATOM     18  O   UNL A   1      35.974  33.721  29.724  1.00  0.00    -0.201 OA
ATOM     19  O   UNL A   1      33.783  34.927  29.562  1.00  0.00    -0.201 OA
BRANCH  17  20
ATOM     20  N   UNL A   1      34.019  33.163  31.271  1.00  0.00    -0.277 N 
ATOM     21  H   UNL A   1      33.118  32.769  31.324  1.00  0.00     0.180 HD
BRANCH  20  22
ATOM     22  C   UNL A   1      34.770  33.215  32.485  1.00  0.00     0.085 A 
ATOM     23  C   UNL A   1      35.680  32.170  32.690  1.00  0.00     0.031 A 
ATOM     24  C   UNL A   1      34.812  34.319  33.349  1.00  0.00     0.148 A 
ATOM     25  C   UNL A   1      36.709  32.308  33.629  1.00  0.00     0.023 A 
ATOM     26  C   UNL A   1      35.854  34.477  34.259  1.00  0.00     0.062 A 
ATOM     27  F   UNL A   1      33.964  35.344  33.211  1.00  0.00    -0.205 F 
ATOM     28  C   UNL A   1      36.818  33.482  34.370  1.00  0.00     0.044 A 
ATOM     29  Cl  UNL A   1      38.187  33.734  35.378  1.00  0.00    -0.084 Cl
ENDBRANCH  20  22
ENDBRANCH  17  20
ENDBRANCH  14  17
ENDBRANCH   9  10
ENDBRANCH   8   9
ENDBRANCH   6   8
ENDBRANCH   5   6
ENDBRANCH   4   5
ENDBRANCH   3   4
ENDBRANCH   2   3
ENDBRANCH   1   2
BRANCH   1  30
ATOM     30  C   UNL A   1      36.158  23.706  24.652  1.00  0.00     0.188 C 
BRANCH  30  31
ATOM     31  O   UNL A   1      36.762  22.503  25.127  1.00  0.00    -0.377 OA
BRANCH  31  32
ATOM     32  C   UNL A   1      38.052  22.757  25.698  1.00  0.00     0.188 C 
BRANCH  32  33
ATOM     33  C   UNL A   1      38.665  21.472  26.204  1.00  0.00     0.188 C 
BRANCH  33  34
ATOM     34  O   UNL A   1      39.962  21.301  25.663  1.00  0.00    -0.376 OA
BRANCH  34  35
ATOM     35  C   UNL A   1      40.719  20.216  26.154  1.00  0.00     0.202 C 
BRANCH  35  36
ATOM     36  C   UNL A   1      42.191  20.540  26.406  1.00  0.00     0.261 C 
BRANCH  36  37
ATOM     37  O   UNL A   1      42.645  21.504  25.434  1.00  0.00    -0.460 OA
BRANCH  37  38
ATOM     38  C   UNL A   1      43.980  21.478  25.156  1.00  0.00     0.338 C 
ATOM     39  O   UNL A   1      44.584  20.502  24.737  1.00  0.00    -0.246 OA
BRANCH  38  40
ATOM     40  C   UNL A   1      44.661  22.670  25.764  1.00  0.00     0.060 A 
ATOM     41  C   UNL A   1      44.623  22.860  27.159  1.00  0.00     0.016 A 
ATOM     42  C   UNL A   1      44.935  23.759  24.945  1.00  0.00     0.016 A 
ATOM     43  C   UNL A   1      44.695  24.158  27.708  1.00  0.00     0.010 A 
ATOM     44  C   UNL A   1      44.864  25.035  25.485  1.00  0.00     0.010 A 
ATOM     45  C   UNL A   1      44.739  25.270  26.867  1.00  0.00    -0.014 A 
BRANCH  45  46
ATOM     46  C   UNL A   1      44.585  26.694  27.281  1.00  0.00     0.031 A 
ATOM     47  C   UNL A   1      43.198  27.261  27.393  1.00  0.00     0.074 A 
ATOM     48  C   UNL A   1      45.616  27.317  27.917  1.00  0.00     0.049 A 
ATOM     49  N   UNL A   1      42.890  28.434  27.839  1.00  0.00    -0.248 NA
ATOM     50  C   UNL A   1      42.002  26.486  27.079  1.00  0.00     0.031 C 
ATOM     51  C   UNL A   1      45.568  28.382  28.934  1.00  0.00     0.029 A 
ATOM     52  N   UNL A   1      46.969  26.963  27.949  1.00  0.00    -0.354 N 
ATOM     53  C   UNL A   1      41.549  28.441  28.211  1.00  0.00     0.074 A 
ATOM     54  C   UNL A   1      41.036  27.222  27.635  1.00  0.00     0.031 C 
ATOM     55  C   UNL A   1      46.796  28.667  29.401  1.00  0.00     0.029 A 
ATOM     56  C   UNL A   1      47.708  28.053  28.469  1.00  0.00     0.049 A 
ATOM     57  H   UNL A   1      47.345  26.101  27.659  1.00  0.00     0.167 HD
ATOM     58  C   UNL A   1      41.101  29.401  29.092  1.00  0.00     0.037 A 
ATOM     59  C   UNL A   1      48.503  28.782  27.630  1.00  0.00     0.037 A 
ATOM     60  C   UNL A   1      42.187  30.375  29.394  1.00  0.00     0.049 A 
ATOM     61  C   UNL A   1      47.827  30.122  27.334  1.00  0.00     0.074 A 
ATOM     62  C   UNL A   1      42.777  30.892  30.538  1.00  0.00     0.029 A 
ATOM     63  N   UNL A   1      42.983  30.849  28.342  1.00  0.00    -0.354 N 
ATOM     64  N   UNL A   1      46.527  30.301  27.434  1.00  0.00    -0.248 NA
ATOM     65  C   UNL A   1      48.520  31.396  27.146  1.00  0.00     0.031 C 
ATOM     66  C   UNL A   1      44.014  31.510  30.170  1.00  0.00     0.029 A 
ATOM     67  C   UNL A   1      44.137  31.459  28.789  1.00  0.00     0.049 A 
ATOM     68  H   UNL A   1      42.745  30.756  27.391  1.00  0.00     0.167 HD
ATOM     69  C   UNL A   1      46.231  31.629  27.508  1.00  0.00     0.074 A 
ATOM     70  C   UNL A   1      47.504  32.278  27.237  1.00  0.00     0.031 C 
ATOM     71  C   UNL A   1      45.011  32.146  27.844  1.00  0.00     0.037 A 
BRANCH  58  72
ATOM     72  C   UNL A   1      39.745  29.395  29.854  1.00  0.00     0.057 A 
ATOM     73  C   UNL A   1      39.565  28.648  31.045  1.00  0.00     0.134 A 
ATOM     74  C   UNL A   1      38.567  30.083  29.486  1.00  0.00     0.134 A 
ATOM     75  F   UNL A   1      40.578  28.005  31.636  1.00  0.00    -0.206 F 
ATOM     76  C   UNL A   1      38.341  28.538  31.739  1.00  0.00     0.040 A 
ATOM     77  C   UNL A   1      37.340  29.994  30.175  1.00  0.00     0.040 A 
ATOM     78  F   UNL A   1      38.518  30.931  28.462  1.00  0.00    -0.206 F 
ATOM     79  C   UNL A   1      37.214  29.209  31.304  1.00  0.00     0.006 A 
ENDBRANCH  58  72
BRANCH  59  80
ATOM     80  C   UNL A   1      49.358  27.835  26.836  1.00  0.00     0.057 A 
ATOM     81  C   UNL A   1      49.033  27.782  25.456  1.00  0.00     0.134 A 
ATOM     82  C   UNL A   1      50.709  27.643  27.151  1.00  0.00     0.134 A 
ATOM     83  F   UNL A   1      47.756  27.927  25.064  1.00  0.00    -0.206 F 
ATOM     84  C   UNL A   1      50.013  27.805  24.453  1.00  0.00     0.040 A 
ATOM     85  C   UNL A   1      51.699  27.643  26.147  1.00  0.00     0.040 A 
ATOM     86  F   UNL A   1      51.118  27.658  28.428  1.00  0.00    -0.206 F 
ATOM     87  C   UNL A   1      51.357  27.796  24.803  1.00  0.00     0.006 A 
ENDBRANCH  59  80
BRANCH  71  88
ATOM     88  C   UNL A   1      44.475  33.412  27.228  1.00  0.00     0.057 A 
ATOM     89  C   UNL A   1      43.951  33.441  25.930  1.00  0.00     0.134 A 
ATOM     90  C   UNL A   1      44.210  34.555  28.019  1.00  0.00     0.134 A 
ATOM     91  F   UNL A   1      44.028  32.380  25.116  1.00  0.00    -0.206 F 
ATOM     92  C   UNL A   1      43.254  34.544  25.435  1.00  0.00     0.040 A 
ATOM     93  C   UNL A   1      43.460  35.634  27.553  1.00  0.00     0.040 A 
ATOM     94  F   UNL A   1      44.614  34.659  29.293  1.00  0.00    -0.206 F 
ATOM     95  C   UNL A   1      42.992  35.637  26.250  1.00  0.00     0.006 A 
ENDBRANCH  71  88
ENDBRANCH  45  46
ENDBRANCH  38  40
ENDBRANCH  37  38
ENDBRANCH  36  37
ENDBRANCH  35  36
ENDBRANCH  34  35
ENDBRANCH  33  34
ENDBRANCH  32  33
ENDBRANCH  31  32
ENDBRANCH  30  31
ENDBRANCH   1  30
TORSDOF 25
ENDMDL
MODEL 3
REMARK VINA RESULT:      -8.9      5.410     11.220
REMARK SMILES Cc1cc(S(=O)(=O)Nc2ccc(Cl)cc2F)ccc1OCC(=O)OCCOCCOCCOCCOC(=O)c1ccc(-c2c3nc(c(-c4c(F)cccc4F)c4ccc([nH]4)c(-c4c(F)cccc4F)c4nc(c(-c5c(F)cccc5F)c5ccc2[nH]5)C=C4)C=C3)cc1
REMARK SMILES IDX 28 1 27 2 26 3 25 4 24 5 22 6 23 7 21 8 20 9 19 10 1 11 2 12
REMARK SMILES IDX 3 13 4 14 18 15 17 16 5 17 6 18 7 19 8 20 9 22 10 23 15 24
REMARK SMILES IDX 11 25 14 26 16 27 12 28 13 29 29 30 30 31 31 32 32 33 33 34
REMARK SMILES IDX 34 35 35 36 36 37 37 38 38 39 39 40 40 41 92 42 41 43 91 44
REMARK SMILES IDX 42 45 43 46 44 47 85 48 45 49 90 50 84 51 86 52 46 53 89 54
REMARK SMILES IDX 83 55 82 56 47 58 73 59 56 60 72 61 57 62 60 63 71 64 87 65
REMARK SMILES IDX 58 66 59 67 70 69 88 70 61 71 48 72 49 73 54 74 50 75 51 76
REMARK SMILES IDX 53 77 55 78 52 79 74 80 75 81 80 82 76 83 77 84 79 85 81 86
REMARK SMILES IDX 78 87 62 88 63 89 68 90 64 91 65 92 67 93 69 94 66 95
REMARK H PARENT 8 21 86 57 60 68
REMARK Flexibility Score: inf
ROOT
ATOM      1  C   UNL A   1      34.686  23.076  26.223  1.00  0.00     0.188 C 
ENDROOT
BRANCH   1   2
ATOM      2  O   UNL A   1      33.984  22.601  27.351  1.00  0.00    -0.376 OA
BRANCH   2   3
ATOM      3  C   UNL A   1      32.591  22.722  27.239  1.00  0.00     0.202 C 
BRANCH   3   4
ATOM      4  C   UNL A   1      31.991  23.881  26.473  1.00  0.00     0.261 C 
BRANCH   4   5
ATOM      5  O   UNL A   1      31.309  23.429  25.308  1.00  0.00    -0.461 OA
BRANCH   5   6
ATOM      6  C   UNL A   1      30.654  24.392  24.625  1.00  0.00     0.344 C 
ATOM      7  O   UNL A   1      30.300  24.320  23.454  1.00  0.00    -0.248 OA
BRANCH   6   8
ATOM      8  C   UNL A   1      30.414  25.612  25.498  1.00  0.00     0.351 C 
BRANCH   8   9
ATOM      9  O   UNL A   1      30.904  26.865  25.086  1.00  0.00    -0.482 OA
BRANCH   9  10
ATOM     10  C   UNL A   1      32.058  27.462  25.487  1.00  0.00     0.123 A 
ATOM     11  C   UNL A   1      33.556  27.607  23.359  1.00  0.00     0.048 C 
ATOM     12  C   UNL A   1      33.238  27.816  24.815  1.00  0.00    -0.008 A 
ATOM     13  C   UNL A   1      34.227  28.572  25.517  1.00  0.00     0.029 A 
ATOM     14  C   UNL A   1      34.029  29.020  26.827  1.00  0.00     0.088 A 
ATOM     15  C   UNL A   1      31.889  27.913  26.808  1.00  0.00     0.048 A 
ATOM     16  C   UNL A   1      32.814  28.749  27.432  1.00  0.00     0.026 A 
BRANCH  14  17
ATOM     17  S   UNL A   1      35.376  29.877  27.642  1.00  0.00     0.262 S 
ATOM     18  O   UNL A   1      35.372  29.483  29.043  1.00  0.00    -0.201 OA
ATOM     19  O   UNL A   1      36.550  29.658  26.838  1.00  0.00    -0.201 OA
BRANCH  17  20
ATOM     20  N   UNL A   1      35.107  31.533  27.540  1.00  0.00    -0.277 N 
ATOM     21  H   UNL A   1      34.665  31.860  26.724  1.00  0.00     0.180 HD
BRANCH  20  22
ATOM     22  C   UNL A   1      35.455  32.512  28.520  1.00  0.00     0.085 A 
ATOM     23  C   UNL A   1      34.391  33.255  29.051  1.00  0.00     0.031 A 
ATOM     24  C   UNL A   1      36.716  32.624  29.122  1.00  0.00     0.148 A 
ATOM     25  C   UNL A   1      34.554  33.956  30.250  1.00  0.00     0.023 A 
ATOM     26  C   UNL A   1      36.874  33.289  30.335  1.00  0.00     0.062 A 
ATOM     27  F   UNL A   1      37.772  31.947  28.658  1.00  0.00    -0.205 F 
ATOM     28  C   UNL A   1      35.781  33.926  30.910  1.00  0.00     0.044 A 
ATOM     29  Cl  UNL A   1      35.928  34.620  32.476  1.00  0.00    -0.084 Cl
ENDBRANCH  20  22
ENDBRANCH  17  20
ENDBRANCH  14  17
ENDBRANCH   9  10
ENDBRANCH   8   9
ENDBRANCH   6   8
ENDBRANCH   5   6
ENDBRANCH   4   5
ENDBRANCH   3   4
ENDBRANCH   2   3
ENDBRANCH   1   2
BRANCH   1  30
ATOM     30  C   UNL A   1      35.692  22.223  25.407  1.00  0.00     0.188 C 
BRANCH  30  31
ATOM     31  O   UNL A   1      36.860  21.700  26.040  1.00  0.00    -0.377 OA
BRANCH  31  32
ATOM     32  C   UNL A   1      38.053  22.137  25.375  1.00  0.00     0.188 C 
BRANCH  32  33
ATOM     33  C   UNL A   1      39.240  22.033  26.305  1.00  0.00     0.188 C 
BRANCH  33  34
ATOM     34  O   UNL A   1      39.947  20.831  26.063  1.00  0.00    -0.376 OA
BRANCH  34  35
ATOM     35  C   UNL A   1      40.864  20.422  27.055  1.00  0.00     0.202 C 
BRANCH  35  36
ATOM     36  C   UNL A   1      42.305  20.864  26.800  1.00  0.00     0.261 C 
BRANCH  36  37
ATOM     37  O   UNL A   1      42.514  21.025  25.381  1.00  0.00    -0.460 OA
BRANCH  37  38
ATOM     38  C   UNL A   1      43.801  20.876  24.955  1.00  0.00     0.338 C 
ATOM     39  O   UNL A   1      44.334  19.803  24.715  1.00  0.00    -0.246 OA
BRANCH  38  40
ATOM     40  C   UNL A   1      44.570  22.149  25.165  1.00  0.00     0.060 A 
ATOM     41  C   UNL A   1      45.411  22.280  26.287  1.00  0.00     0.016 A 
ATOM     42  C   UNL A   1      44.128  23.297  24.519  1.00  0.00     0.016 A 
ATOM     43  C   UNL A   1      45.667  23.549  26.847  1.00  0.00     0.010 A 
ATOM     44  C   UNL A   1      44.272  24.520  25.158  1.00  0.00     0.010 A 
ATOM     45  C   UNL A   1      45.034  24.680  26.331  1.00  0.00    -0.014 A 
BRANCH  45  46
ATOM     46  C   UNL A   1      45.017  26.038  26.946  1.00  0.00     0.031 A 
ATOM     47  C   UNL A   1      43.689  26.655  27.283  1.00  0.00     0.074 A 
ATOM     48  C   UNL A   1      46.145  26.511  27.545  1.00  0.00     0.049 A 
ATOM     49  N   UNL A   1      43.506  27.768  27.912  1.00  0.00    -0.248 NA
ATOM     50  C   UNL A   1      42.419  25.995  26.999  1.00  0.00     0.031 C 
ATOM     51  C   UNL A   1      46.270  27.424  28.695  1.00  0.00     0.029 A 
ATOM     52  N   UNL A   1      47.469  26.086  27.381  1.00  0.00    -0.354 N 
ATOM     53  C   UNL A   1      42.212  27.792  28.425  1.00  0.00     0.074 A 
ATOM     54  C   UNL A   1      41.564  26.695  27.750  1.00  0.00     0.031 C 
ATOM     55  C   UNL A   1      47.555  27.577  29.059  1.00  0.00     0.029 A 
ATOM     56  C   UNL A   1      48.326  27.053  27.961  1.00  0.00     0.049 A 
ATOM     57  H   UNL A   1      47.755  25.255  26.939  1.00  0.00     0.167 HD
ATOM     58  C   UNL A   1      41.919  28.641  29.471  1.00  0.00     0.037 A 
ATOM     59  C   UNL A   1      49.080  27.850  27.145  1.00  0.00     0.037 A 
ATOM     60  C   UNL A   1      43.092  29.505  29.781  1.00  0.00     0.049 A 
ATOM     61  C   UNL A   1      48.468  29.252  27.107  1.00  0.00     0.074 A 
ATOM     62  C   UNL A   1      43.827  29.826  30.913  1.00  0.00     0.029 A 
ATOM     63  N   UNL A   1      43.809  30.080  28.722  1.00  0.00    -0.354 N 
ATOM     64  N   UNL A   1      47.199  29.482  27.370  1.00  0.00    -0.248 NA
ATOM     65  C   UNL A   1      49.222  30.502  27.018  1.00  0.00     0.031 C 
ATOM     66  C   UNL A   1      45.059  30.424  30.500  1.00  0.00     0.029 A 
ATOM     67  C   UNL A   1      45.040  30.561  29.119  1.00  0.00     0.049 A 
ATOM     68  H   UNL A   1      43.471  30.134  27.798  1.00  0.00     0.167 HD
ATOM     69  C   UNL A   1      47.001  30.800  27.653  1.00  0.00     0.074 A 
ATOM     70  C   UNL A   1      48.281  31.414  27.336  1.00  0.00     0.031 C 
ATOM     71  C   UNL A   1      45.858  31.328  28.186  1.00  0.00     0.037 A 
BRANCH  58  72
ATOM     72  C   UNL A   1      40.649  28.599  30.367  1.00  0.00     0.057 A 
ATOM     73  C   UNL A   1      39.361  28.872  29.844  1.00  0.00     0.134 A 
ATOM     74  C   UNL A   1      40.601  28.312  31.750  1.00  0.00     0.134 A 
ATOM     75  F   UNL A   1      39.155  29.065  28.536  1.00  0.00    -0.206 F 
ATOM     76  C   UNL A   1      38.182  28.929  30.617  1.00  0.00     0.040 A 
ATOM     77  C   UNL A   1      39.430  28.353  32.535  1.00  0.00     0.040 A 
ATOM     78  F   UNL A   1      41.668  27.926  32.443  1.00  0.00    -0.206 F 
ATOM     79  C   UNL A   1      38.210  28.674  31.975  1.00  0.00     0.006 A 
ENDBRANCH  58  72
BRANCH  59  80
ATOM     80  C   UNL A   1      49.786  26.980  26.144  1.00  0.00     0.057 A 
ATOM     81  C   UNL A   1      49.466  27.276  24.793  1.00  0.00     0.134 A 
ATOM     82  C   UNL A   1      51.091  26.526  26.374  1.00  0.00     0.134 A 
ATOM     83  F   UNL A   1      48.227  27.691  24.477  1.00  0.00    -0.206 F 
ATOM     84  C   UNL A   1      50.443  27.369  23.792  1.00  0.00     0.040 A 
ATOM     85  C   UNL A   1      52.075  26.596  25.366  1.00  0.00     0.040 A 
ATOM     86  F   UNL A   1      51.490  26.203  27.612  1.00  0.00    -0.206 F 
ATOM     87  C   UNL A   1      51.768  27.085  24.096  1.00  0.00     0.006 A 
ENDBRANCH  59  80
BRANCH  71  88
ATOM     88  C   UNL A   1      45.348  32.693  27.807  1.00  0.00     0.057 A 
ATOM     89  C   UNL A   1      44.366  32.872  26.826  1.00  0.00     0.134 A 
ATOM     90  C   UNL A   1      45.620  33.825  28.612  1.00  0.00     0.134 A 
ATOM     91  F   UNL A   1      43.929  31.854  26.072  1.00  0.00    -0.206 F 
ATOM     92  C   UNL A   1      43.731  34.098  26.626  1.00  0.00     0.040 A 
ATOM     93  C   UNL A   1      44.944  35.035  28.461  1.00  0.00     0.040 A 
ATOM     94  F   UNL A   1      46.508  33.798  29.616  1.00  0.00    -0.206 F 
ATOM     95  C   UNL A   1      44.006  35.179  27.453  1.00  0.00     0.006 A 
ENDBRANCH  71  88
ENDBRANCH  45  46
ENDBRANCH  38  40
ENDBRANCH  37  38
ENDBRANCH  36  37
ENDBRANCH  35  36
ENDBRANCH  34  35
ENDBRANCH  33  34
ENDBRANCH  32  33
ENDBRANCH  31  32
ENDBRANCH  30  31
ENDBRANCH   1  30
TORSDOF 25
ENDMDL
