MODEL 1
REMARK VINA RESULT:     -10.1      0.000      0.000
REMARK SMILES O=C(OCCOCCOCCOCCOC(=O)[C@H]1CSCN1C(=O)c1cccc2cccnc12)c1ccc(-c2c3nc(c(-c4c(F)cccc4F)c4ccc([nH]4)c(-c4c(F)cccc4F)c4nc(c(-c5c(F)cccc5F)c5ccc2[nH]5)C=C4)C=C3)cc1
REMARK SMILES IDX 9 1 8 2 7 3 6 4 5 5 4 6 3 7 2 8 1 9 35 10 36 11 88 12 37 13
REMARK SMILES IDX 87 14 38 15 39 16 40 17 81 18 41 19 86 20 80 21 82 22 42 23
REMARK SMILES IDX 85 24 79 25 78 26 43 28 69 29 52 30 68 31 53 32 56 33 67 34
REMARK SMILES IDX 83 35 54 36 55 37 66 39 84 40 57 41 44 42 45 43 50 44 46 45
REMARK SMILES IDX 47 46 49 47 51 48 48 49 70 50 71 51 76 52 72 53 73 54 75 55
REMARK SMILES IDX 77 56 74 57 58 58 59 59 64 60 60 61 61 62 63 63 65 64 62 65
REMARK SMILES IDX 10 66 11 67 12 68 13 69 14 70 15 71 16 72 17 73 18 74 19 75
REMARK SMILES IDX 22 76 20 77 21 78 23 79 24 80 25 81 26 82 34 83 27 84 29 85
REMARK SMILES IDX 33 86 28 87 30 88 32 89 31 90
REMARK H PARENT 82 27 56 38
REMARK Flexibility Score: inf
ROOT
ATOM      1  O   UNL A   1      34.313  31.114  27.128  1.00  0.00    -0.377 OA
ENDROOT
BRANCH   1   2
ATOM      2  C   UNL A   1      34.589  31.657  28.422  1.00  0.00     0.188 C 
BRANCH   2   3
ATOM      3  C   UNL A   1      34.424  33.168  28.525  1.00  0.00     0.188 C 
BRANCH   3   4
ATOM      4  O   UNL A   1      33.657  33.510  29.673  1.00  0.00    -0.376 OA
BRANCH   4   5
ATOM      5  C   UNL A   1      33.922  34.790  30.240  1.00  0.00     0.202 C 
BRANCH   5   6
ATOM      6  C   UNL A   1      34.559  34.754  31.623  1.00  0.00     0.261 C 
BRANCH   6   7
ATOM      7  O   UNL A   1      35.834  34.098  31.669  1.00  0.00    -0.460 OA
BRANCH   7   8
ATOM      8  C   UNL A   1      36.170  32.864  32.109  1.00  0.00     0.338 C 
ATOM      9  O   UNL A   1      35.508  32.383  33.028  1.00  0.00    -0.246 OA
BRANCH   8  10
ATOM     10  C   UNL A   1      37.273  32.020  31.558  1.00  0.00     0.060 A 
ATOM     11  C   UNL A   1      37.956  31.010  32.236  1.00  0.00     0.016 A 
ATOM     12  C   UNL A   1      37.566  32.202  30.195  1.00  0.00     0.016 A 
ATOM     13  C   UNL A   1      38.910  30.218  31.614  1.00  0.00     0.010 A 
ATOM     14  C   UNL A   1      38.535  31.427  29.557  1.00  0.00     0.010 A 
ATOM     15  C   UNL A   1      39.226  30.454  30.285  1.00  0.00    -0.014 A 
BRANCH  15  16
ATOM     16  C   UNL A   1      40.467  29.864  29.771  1.00  0.00     0.031 A 
ATOM     17  C   UNL A   1      41.665  30.757  29.742  1.00  0.00     0.074 A 
ATOM     18  C   UNL A   1      40.532  28.562  29.466  1.00  0.00     0.049 A 
ATOM     19  N   UNL A   1      42.823  30.577  29.176  1.00  0.00    -0.248 NA
ATOM     20  C   UNL A   1      41.533  32.038  30.462  1.00  0.00     0.031 C 
ATOM     21  C   UNL A   1      39.449  27.594  29.653  1.00  0.00     0.029 A 
ATOM     22  N   UNL A   1      41.557  27.827  28.941  1.00  0.00    -0.354 N 
ATOM     23  C   UNL A   1      43.531  31.746  29.412  1.00  0.00     0.074 A 
ATOM     24  C   UNL A   1      42.688  32.620  30.193  1.00  0.00     0.031 C 
ATOM     25  C   UNL A   1      39.862  26.392  29.221  1.00  0.00     0.029 A 
ATOM     26  C   UNL A   1      41.201  26.533  28.655  1.00  0.00     0.049 A 
ATOM     27  H   UNL A   1      42.460  28.190  28.783  1.00  0.00     0.167 HD
ATOM     28  C   UNL A   1      44.772  32.059  28.979  1.00  0.00     0.037 A 
ATOM     29  C   UNL A   1      41.867  25.605  27.945  1.00  0.00     0.037 A 
ATOM     30  C   UNL A   1      45.561  31.144  28.202  1.00  0.00     0.049 A 
ATOM     31  C   UNL A   1      43.207  25.994  27.383  1.00  0.00     0.074 A 
ATOM     32  C   UNL A   1      46.802  31.331  27.629  1.00  0.00     0.029 A 
ATOM     33  N   UNL A   1      45.158  29.848  27.892  1.00  0.00    -0.354 N 
ATOM     34  N   UNL A   1      43.850  27.134  27.507  1.00  0.00    -0.248 NA
ATOM     35  C   UNL A   1      43.906  24.992  26.572  1.00  0.00     0.031 C 
ATOM     36  C   UNL A   1      47.128  30.162  26.932  1.00  0.00     0.029 A 
ATOM     37  C   UNL A   1      46.117  29.227  27.119  1.00  0.00     0.049 A 
ATOM     38  H   UNL A   1      44.313  29.436  28.183  1.00  0.00     0.167 HD
ATOM     39  C   UNL A   1      45.037  26.986  26.805  1.00  0.00     0.074 A 
ATOM     40  C   UNL A   1      45.024  25.638  26.262  1.00  0.00     0.031 C 
ATOM     41  C   UNL A   1      46.049  27.871  26.623  1.00  0.00     0.037 A 
BRANCH  28  42
ATOM     42  C   UNL A   1      45.246  33.458  29.241  1.00  0.00     0.057 A 
ATOM     43  C   UNL A   1      44.993  34.519  28.361  1.00  0.00     0.134 A 
ATOM     44  C   UNL A   1      46.064  33.722  30.347  1.00  0.00     0.134 A 
ATOM     45  F   UNL A   1      44.251  34.329  27.259  1.00  0.00    -0.206 F 
ATOM     46  C   UNL A   1      45.577  35.777  28.546  1.00  0.00     0.040 A 
ATOM     47  C   UNL A   1      46.629  34.981  30.557  1.00  0.00     0.040 A 
ATOM     48  F   UNL A   1      46.358  32.750  31.224  1.00  0.00    -0.206 F 
ATOM     49  C   UNL A   1      46.398  36.009  29.647  1.00  0.00     0.006 A 
ENDBRANCH  28  42
BRANCH  29  50
ATOM     50  C   UNL A   1      41.233  24.290  27.676  1.00  0.00     0.057 A 
ATOM     51  C   UNL A   1      40.261  24.131  26.684  1.00  0.00     0.134 A 
ATOM     52  C   UNL A   1      41.634  23.137  28.369  1.00  0.00     0.134 A 
ATOM     53  F   UNL A   1      39.823  25.194  25.994  1.00  0.00    -0.206 F 
ATOM     54  C   UNL A   1      39.716  22.879  26.386  1.00  0.00     0.040 A 
ATOM     55  C   UNL A   1      41.116  21.877  28.066  1.00  0.00     0.040 A 
ATOM     56  F   UNL A   1      42.566  23.216  29.331  1.00  0.00    -0.206 F 
ATOM     57  C   UNL A   1      40.152  21.746  27.071  1.00  0.00     0.006 A 
ENDBRANCH  29  50
BRANCH  41  58
ATOM     58  C   UNL A   1      47.236  27.394  25.849  1.00  0.00     0.057 A 
ATOM     59  C   UNL A   1      48.290  26.710  26.465  1.00  0.00     0.134 A 
ATOM     60  C   UNL A   1      47.262  27.525  24.456  1.00  0.00     0.134 A 
ATOM     61  F   UNL A   1      48.320  26.564  27.798  1.00  0.00    -0.206 F 
ATOM     62  C   UNL A   1      49.335  26.171  25.715  1.00  0.00     0.040 A 
ATOM     63  C   UNL A   1      48.287  26.969  23.695  1.00  0.00     0.040 A 
ATOM     64  F   UNL A   1      46.270  28.160  23.813  1.00  0.00    -0.206 F 
ATOM     65  C   UNL A   1      49.327  26.289  24.325  1.00  0.00     0.006 A 
ENDBRANCH  41  58
ENDBRANCH  15  16
ENDBRANCH   8  10
ENDBRANCH   7   8
ENDBRANCH   6   7
ENDBRANCH   5   6
ENDBRANCH   4   5
ENDBRANCH   3   4
ENDBRANCH   2   3
ENDBRANCH   1   2
BRANCH   1  66
ATOM     66  C   UNL A   1      32.969  30.710  26.856  1.00  0.00     0.188 C 
BRANCH  66  67
ATOM     67  C   UNL A   1      32.718  29.361  26.148  1.00  0.00     0.188 C 
BRANCH  67  68
ATOM     68  O   UNL A   1      33.041  29.371  24.760  1.00  0.00    -0.376 OA
BRANCH  68  69
ATOM     69  C   UNL A   1      31.998  28.898  23.903  1.00  0.00     0.202 C 
BRANCH  69  70
ATOM     70  C   UNL A   1      30.659  28.533  24.584  1.00  0.00     0.261 C 
BRANCH  70  71
ATOM     71  O   UNL A   1      30.293  27.173  24.324  1.00  0.00    -0.462 OA
BRANCH  71  72
ATOM     72  C   UNL A   1      30.760  26.180  25.132  1.00  0.00     0.329 C 
ATOM     73  O   UNL A   1      30.568  26.113  26.324  1.00  0.00    -0.250 OA
BRANCH  72  74
ATOM     74  C   UNL A   1      31.482  25.128  24.247  1.00  0.00     0.206 C 
ATOM     75  C   UNL A   1      30.848  25.020  22.861  1.00  0.00     0.108 C 
ATOM     76  N   UNL A   1      32.905  25.403  24.124  1.00  0.00    -0.315 N 
ATOM     77  S   UNL A   1      32.056  25.702  21.698  1.00  0.00    -0.138 SA
ATOM     78  C   UNL A   1      33.436  25.324  22.783  1.00  0.00     0.191 C 
BRANCH  76  79
ATOM     79  C   UNL A   1      33.674  25.409  25.280  1.00  0.00     0.257 C 
ATOM     80  O   UNL A   1      34.241  26.424  25.673  1.00  0.00    -0.269 OA
BRANCH  79  81
ATOM     81  C   UNL A   1      33.958  24.077  25.864  1.00  0.00     0.066 A 
ATOM     82  C   UNL A   1      33.073  23.633  26.870  1.00  0.00     0.016 A 
ATOM     83  C   UNL A   1      34.999  23.278  25.386  1.00  0.00     0.083 A 
ATOM     84  C   UNL A   1      33.271  22.415  27.492  1.00  0.00     0.002 A 
ATOM     85  C   UNL A   1      35.162  22.021  26.016  1.00  0.00     0.001 A 
ATOM     86  N   UNL A   1      35.823  23.658  24.381  1.00  0.00    -0.255 NA
ATOM     87  C   UNL A   1      34.323  21.615  27.072  1.00  0.00     0.010 A 
ATOM     88  C   UNL A   1      36.176  21.171  25.560  1.00  0.00     0.012 A 
ATOM     89  C   UNL A   1      36.763  22.796  23.940  1.00  0.00     0.112 A 
ATOM     90  C   UNL A   1      36.979  21.553  24.495  1.00  0.00     0.021 A 
ENDBRANCH  79  81
ENDBRANCH  76  79
ENDBRANCH  72  74
ENDBRANCH  71  72
ENDBRANCH  70  71
ENDBRANCH  69  70
ENDBRANCH  68  69
ENDBRANCH  67  68
ENDBRANCH  66  67
ENDBRANCH   1  66
TORSDOF 22
ENDMDL
MODEL 2
REMARK VINA RESULT:     -10.1      4.476      9.759
REMARK SMILES O=C(OCCOCCOCCOCCOC(=O)[C@H]1CSCN1C(=O)c1cccc2cccnc12)c1ccc(-c2c3nc(c(-c4c(F)cccc4F)c4ccc([nH]4)c(-c4c(F)cccc4F)c4nc(c(-c5c(F)cccc5F)c5ccc2[nH]5)C=C4)C=C3)cc1
REMARK SMILES IDX 9 1 8 2 7 3 6 4 5 5 4 6 3 7 2 8 1 9 35 10 36 11 88 12 37 13
REMARK SMILES IDX 87 14 38 15 39 16 40 17 81 18 41 19 86 20 80 21 82 22 42 23
REMARK SMILES IDX 85 24 79 25 78 26 43 28 69 29 52 30 68 31 53 32 56 33 67 34
REMARK SMILES IDX 83 35 54 36 55 37 66 39 84 40 57 41 44 42 45 43 50 44 46 45
REMARK SMILES IDX 47 46 49 47 51 48 48 49 70 50 71 51 76 52 72 53 73 54 75 55
REMARK SMILES IDX 77 56 74 57 58 58 59 59 64 60 60 61 61 62 63 63 65 64 62 65
REMARK SMILES IDX 10 66 11 67 12 68 13 69 14 70 15 71 16 72 17 73 18 74 19 75
REMARK SMILES IDX 22 76 20 77 21 78 23 79 24 80 25 81 26 82 34 83 27 84 29 85
REMARK SMILES IDX 33 86 28 87 30 88 32 89 31 90
REMARK H PARENT 82 27 56 38
REMARK Flexibility Score: inf
ROOT
ATOM      1  O   UNL A   1      40.351  21.313  27.682  1.00  0.00    -0.377 OA
ENDROOT
BRANCH   1   2
ATOM      2  C   UNL A   1      41.135  20.127  27.516  1.00  0.00     0.188 C 
BRANCH   2   3
ATOM      3  C   UNL A   1      41.001  19.466  26.150  1.00  0.00     0.188 C 
BRANCH   3   4
ATOM      4  O   UNL A   1      42.131  19.765  25.337  1.00  0.00    -0.376 OA
BRANCH   4   5
ATOM      5  C   UNL A   1      43.370  19.916  26.025  1.00  0.00     0.202 C 
BRANCH   5   6
ATOM      6  C   UNL A   1      44.079  21.240  25.774  1.00  0.00     0.261 C 
BRANCH   6   7
ATOM      7  O   UNL A   1      43.197  22.345  25.526  1.00  0.00    -0.460 OA
BRANCH   7   8
ATOM      8  C   UNL A   1      43.453  23.670  25.450  1.00  0.00     0.338 C 
ATOM      9  O   UNL A   1      44.222  24.055  24.570  1.00  0.00    -0.246 OA
BRANCH   8  10
ATOM     10  C   UNL A   1      42.864  24.717  26.338  1.00  0.00     0.060 A 
ATOM     11  C   UNL A   1      42.705  26.069  26.028  1.00  0.00     0.016 A 
ATOM     12  C   UNL A   1      42.331  24.263  27.557  1.00  0.00     0.016 A 
ATOM     13  C   UNL A   1      42.067  26.952  26.885  1.00  0.00     0.010 A 
ATOM     14  C   UNL A   1      41.702  25.141  28.439  1.00  0.00     0.010 A 
ATOM     15  C   UNL A   1      41.600  26.495  28.108  1.00  0.00    -0.014 A 
BRANCH  15  16
ATOM     16  C   UNL A   1      41.271  27.500  29.124  1.00  0.00     0.031 A 
ATOM     17  C   UNL A   1      42.145  27.532  30.335  1.00  0.00     0.074 A 
ATOM     18  C   UNL A   1      40.314  28.410  28.902  1.00  0.00     0.049 A 
ATOM     19  N   UNL A   1      41.984  28.167  31.460  1.00  0.00    -0.248 NA
ATOM     20  C   UNL A   1      43.381  26.730  30.261  1.00  0.00     0.031 C 
ATOM     21  C   UNL A   1      39.553  28.551  27.660  1.00  0.00     0.029 A 
ATOM     22  N   UNL A   1      39.823  29.393  29.715  1.00  0.00    -0.354 N 
ATOM     23  C   UNL A   1      43.061  27.790  32.250  1.00  0.00     0.074 A 
ATOM     24  C   UNL A   1      43.882  26.892  31.473  1.00  0.00     0.031 C 
ATOM     25  C   UNL A   1      38.668  29.552  27.804  1.00  0.00     0.029 A 
ATOM     26  C   UNL A   1      38.751  30.055  29.172  1.00  0.00     0.049 A 
ATOM     27  H   UNL A   1      40.200  29.604  30.601  1.00  0.00     0.167 HD
ATOM     28  C   UNL A   1      43.310  28.150  33.529  1.00  0.00     0.037 A 
ATOM     29  C   UNL A   1      37.895  30.911  29.758  1.00  0.00     0.037 A 
ATOM     30  C   UNL A   1      42.451  29.047  34.249  1.00  0.00     0.049 A 
ATOM     31  C   UNL A   1      38.123  31.232  31.210  1.00  0.00     0.074 A 
ATOM     32  C   UNL A   1      42.523  29.456  35.565  1.00  0.00     0.029 A 
ATOM     33  N   UNL A   1      41.344  29.675  33.685  1.00  0.00    -0.354 N 
ATOM     34  N   UNL A   1      39.076  30.802  32.007  1.00  0.00    -0.248 NA
ATOM     35  C   UNL A   1      37.159  32.130  31.854  1.00  0.00     0.031 C 
ATOM     36  C   UNL A   1      41.430  30.296  35.808  1.00  0.00     0.029 A 
ATOM     37  C   UNL A   1      40.711  30.456  34.630  1.00  0.00     0.049 A 
ATOM     38  H   UNL A   1      41.056  29.577  32.749  1.00  0.00     0.167 HD
ATOM     39  C   UNL A   1      38.842  31.387  33.242  1.00  0.00     0.074 A 
ATOM     40  C   UNL A   1      37.653  32.209  33.084  1.00  0.00     0.031 C 
ATOM     41  C   UNL A   1      39.536  31.266  34.401  1.00  0.00     0.037 A 
BRANCH  28  42
ATOM     42  C   UNL A   1      44.463  27.471  34.208  1.00  0.00     0.057 A 
ATOM     43  C   UNL A   1      45.772  27.971  34.156  1.00  0.00     0.134 A 
ATOM     44  C   UNL A   1      44.272  26.233  34.836  1.00  0.00     0.134 A 
ATOM     45  F   UNL A   1      46.034  29.131  33.535  1.00  0.00    -0.206 F 
ATOM     46  C   UNL A   1      46.853  27.241  34.661  1.00  0.00     0.040 A 
ATOM     47  C   UNL A   1      45.341  25.509  35.369  1.00  0.00     0.040 A 
ATOM     48  F   UNL A   1      43.048  25.689  34.911  1.00  0.00    -0.206 F 
ATOM     49  C   UNL A   1      46.638  26.006  35.269  1.00  0.00     0.006 A 
ENDBRANCH  28  42
BRANCH  29  50
ATOM     50  C   UNL A   1      36.734  31.430  28.993  1.00  0.00     0.057 A 
ATOM     51  C   UNL A   1      35.624  30.630  28.708  1.00  0.00     0.134 A 
ATOM     52  C   UNL A   1      36.681  32.770  28.579  1.00  0.00     0.134 A 
ATOM     53  F   UNL A   1      35.616  29.337  29.062  1.00  0.00    -0.206 F 
ATOM     54  C   UNL A   1      34.503  31.141  28.047  1.00  0.00     0.040 A 
ATOM     55  C   UNL A   1      35.559  33.301  27.940  1.00  0.00     0.040 A 
ATOM     56  F   UNL A   1      37.709  33.596  28.825  1.00  0.00    -0.206 F 
ATOM     57  C   UNL A   1      34.465  32.483  27.671  1.00  0.00     0.006 A 
ENDBRANCH  29  50
BRANCH  41  58
ATOM     58  C   UNL A   1      39.058  32.074  35.565  1.00  0.00     0.057 A 
ATOM     59  C   UNL A   1      38.250  31.519  36.564  1.00  0.00     0.134 A 
ATOM     60  C   UNL A   1      39.510  33.387  35.738  1.00  0.00     0.134 A 
ATOM     61  F   UNL A   1      37.782  30.268  36.444  1.00  0.00    -0.206 F 
ATOM     62  C   UNL A   1      37.905  32.250  37.700  1.00  0.00     0.040 A 
ATOM     63  C   UNL A   1      39.192  34.118  36.881  1.00  0.00     0.040 A 
ATOM     64  F   UNL A   1      40.298  33.963  34.817  1.00  0.00    -0.206 F 
ATOM     65  C   UNL A   1      38.388  33.548  37.866  1.00  0.00     0.006 A 
ENDBRANCH  41  58
ENDBRANCH  15  16
ENDBRANCH   8  10
ENDBRANCH   7   8
ENDBRANCH   6   7
ENDBRANCH   5   6
ENDBRANCH   4   5
ENDBRANCH   3   4
ENDBRANCH   2   3
ENDBRANCH   1   2
BRANCH   1  66
ATOM     66  C   UNL A   1      39.743  21.869  26.514  1.00  0.00     0.188 C 
BRANCH  66  67
ATOM     67  C   UNL A   1      39.189  23.309  26.568  1.00  0.00     0.188 C 
BRANCH  67  68
ATOM     68  O   UNL A   1      37.927  23.465  25.925  1.00  0.00    -0.376 OA
BRANCH  68  69
ATOM     69  C   UNL A   1      37.413  22.273  25.326  1.00  0.00     0.202 C 
BRANCH  69  70
ATOM     70  C   UNL A   1      36.369  22.461  24.201  1.00  0.00     0.261 C 
BRANCH  70  71
ATOM     71  O   UNL A   1      35.667  23.703  24.340  1.00  0.00    -0.462 OA
BRANCH  71  72
ATOM     72  C   UNL A   1      34.514  23.750  25.064  1.00  0.00     0.329 C 
ATOM     73  O   UNL A   1      34.440  23.570  26.258  1.00  0.00    -0.250 OA
BRANCH  72  74
ATOM     74  C   UNL A   1      33.358  24.166  24.115  1.00  0.00     0.206 C 
ATOM     75  C   UNL A   1      33.299  23.284  22.869  1.00  0.00     0.108 C 
ATOM     76  N   UNL A   1      32.069  24.160  24.790  1.00  0.00    -0.315 N 
ATOM     77  S   UNL A   1      31.793  22.291  23.022  1.00  0.00    -0.138 SA
ATOM     78  C   UNL A   1      30.997  23.512  24.071  1.00  0.00     0.191 C 
BRANCH  76  79
ATOM     79  C   UNL A   1      31.893  25.009  25.875  1.00  0.00     0.257 C 
ATOM     80  O   UNL A   1      31.404  24.616  26.929  1.00  0.00    -0.269 OA
BRANCH  79  81
ATOM     81  C   UNL A   1      32.107  26.449  25.600  1.00  0.00     0.066 A 
ATOM     82  C   UNL A   1      33.309  27.007  26.084  1.00  0.00     0.016 A 
ATOM     83  C   UNL A   1      31.201  27.188  24.836  1.00  0.00     0.083 A 
ATOM     84  C   UNL A   1      33.587  28.348  25.899  1.00  0.00     0.002 A 
ATOM     85  C   UNL A   1      31.522  28.551  24.632  1.00  0.00     0.001 A 
ATOM     86  N   UNL A   1      30.070  26.658  24.310  1.00  0.00    -0.255 NA
ATOM     87  C   UNL A   1      32.686  29.122  25.182  1.00  0.00     0.010 A 
ATOM     88  C   UNL A   1      30.660  29.332  23.853  1.00  0.00     0.012 A 
ATOM     89  C   UNL A   1      29.284  27.430  23.532  1.00  0.00     0.112 A 
ATOM     90  C   UNL A   1      29.532  28.763  23.279  1.00  0.00     0.021 A 
ENDBRANCH  79  81
ENDBRANCH  76  79
ENDBRANCH  72  74
ENDBRANCH  71  72
ENDBRANCH  70  71
ENDBRANCH  69  70
ENDBRANCH  68  69
ENDBRANCH  67  68
ENDBRANCH  66  67
ENDBRANCH   1  66
TORSDOF 22
ENDMDL
MODEL 3
REMARK VINA RESULT:     -10.1      4.573      7.131
REMARK SMILES O=C(OCCOCCOCCOCCOC(=O)[C@H]1CSCN1C(=O)c1cccc2cccnc12)c1ccc(-c2c3nc(c(-c4c(F)cccc4F)c4ccc([nH]4)c(-c4c(F)cccc4F)c4nc(c(-c5c(F)cccc5F)c5ccc2[nH]5)C=C4)C=C3)cc1
REMARK SMILES IDX 9 1 8 2 7 3 6 4 5 5 4 6 3 7 2 8 1 9 35 10 36 11 88 12 37 13
REMARK SMILES IDX 87 14 38 15 39 16 40 17 81 18 41 19 86 20 80 21 82 22 42 23
REMARK SMILES IDX 85 24 79 25 78 26 43 28 69 29 52 30 68 31 53 32 56 33 67 34
REMARK SMILES IDX 83 35 54 36 55 37 66 39 84 40 57 41 44 42 45 43 50 44 46 45
REMARK SMILES IDX 47 46 49 47 51 48 48 49 70 50 71 51 76 52 72 53 73 54 75 55
REMARK SMILES IDX 77 56 74 57 58 58 59 59 64 60 60 61 61 62 63 63 65 64 62 65
REMARK SMILES IDX 10 66 11 67 12 68 13 69 14 70 15 71 16 72 17 73 18 74 19 75
REMARK SMILES IDX 22 76 20 77 21 78 23 79 24 80 25 81 26 82 34 83 27 84 29 85
REMARK SMILES IDX 33 86 28 87 30 88 32 89 31 90
REMARK H PARENT 82 27 56 38
REMARK Flexibility Score: inf
ROOT
ATOM      1  O   UNL A   1      34.391  32.041  28.751  1.00  0.00    -0.377 OA
ENDROOT
BRANCH   1   2
ATOM      2  C   UNL A   1      34.507  33.370  29.268  1.00  0.00     0.188 C 
BRANCH   2   3
ATOM      3  C   UNL A   1      33.607  34.395  28.589  1.00  0.00     0.188 C 
BRANCH   3   4
ATOM      4  O   UNL A   1      34.313  35.611  28.368  1.00  0.00    -0.376 OA
BRANCH   4   5
ATOM      5  C   UNL A   1      33.659  36.799  28.806  1.00  0.00     0.202 C 
BRANCH   5   6
ATOM      6  C   UNL A   1      32.441  36.565  29.691  1.00  0.00     0.261 C 
BRANCH   6   7
ATOM      7  O   UNL A   1      32.595  37.025  31.041  1.00  0.00    -0.460 OA
BRANCH   7   8
ATOM      8  C   UNL A   1      32.758  36.331  32.190  1.00  0.00     0.338 C 
ATOM      9  O   UNL A   1      31.955  36.532  33.100  1.00  0.00    -0.246 OA
BRANCH   8  10
ATOM     10  C   UNL A   1      33.829  35.320  32.446  1.00  0.00     0.060 A 
ATOM     11  C   UNL A   1      33.651  34.052  33.001  1.00  0.00     0.016 A 
ATOM     12  C   UNL A   1      35.114  35.653  31.982  1.00  0.00     0.016 A 
ATOM     13  C   UNL A   1      34.694  33.146  33.120  1.00  0.00     0.010 A 
ATOM     14  C   UNL A   1      36.178  34.761  32.110  1.00  0.00     0.010 A 
ATOM     15  C   UNL A   1      35.966  33.517  32.710  1.00  0.00    -0.014 A 
BRANCH  15  16
ATOM     16  C   UNL A   1      37.091  32.699  33.178  1.00  0.00     0.031 A 
ATOM     17  C   UNL A   1      37.587  32.979  34.559  1.00  0.00     0.074 A 
ATOM     18  C   UNL A   1      37.552  31.682  32.439  1.00  0.00     0.049 A 
ATOM     19  N   UNL A   1      38.664  32.560  35.156  1.00  0.00    -0.248 NA
ATOM     20  C   UNL A   1      36.738  33.859  35.384  1.00  0.00     0.031 C 
ATOM     21  C   UNL A   1      36.985  31.237  31.164  1.00  0.00     0.029 A 
ATOM     22  N   UNL A   1      38.600  30.833  32.659  1.00  0.00    -0.354 N 
ATOM     23  C   UNL A   1      38.657  33.177  36.399  1.00  0.00     0.074 A 
ATOM     24  C   UNL A   1      37.460  33.979  36.484  1.00  0.00     0.031 C 
ATOM     25  C   UNL A   1      37.713  30.208  30.701  1.00  0.00     0.029 A 
ATOM     26  C   UNL A   1      38.837  29.986  31.606  1.00  0.00     0.049 A 
ATOM     27  H   UNL A   1      39.131  30.831  33.489  1.00  0.00     0.167 HD
ATOM     28  C   UNL A   1      39.598  33.092  37.365  1.00  0.00     0.037 A 
ATOM     29  C   UNL A   1      39.894  29.185  31.381  1.00  0.00     0.037 A 
ATOM     30  C   UNL A   1      40.770  32.276  37.218  1.00  0.00     0.049 A 
ATOM     31  C   UNL A   1      40.984  29.171  32.418  1.00  0.00     0.074 A 
ATOM     32  C   UNL A   1      41.848  32.135  38.069  1.00  0.00     0.029 A 
ATOM     33  N   UNL A   1      41.007  31.455  36.120  1.00  0.00    -0.354 N 
ATOM     34  N   UNL A   1      41.047  29.829  33.554  1.00  0.00    -0.248 NA
ATOM     35  C   UNL A   1      42.154  28.330  32.144  1.00  0.00     0.031 C 
ATOM     36  C   UNL A   1      42.757  31.263  37.460  1.00  0.00     0.029 A 
ATOM     37  C   UNL A   1      42.222  30.817  36.258  1.00  0.00     0.049 A 
ATOM     38  H   UNL A   1      40.395  31.346  35.356  1.00  0.00     0.167 HD
ATOM     39  C   UNL A   1      42.251  29.473  34.142  1.00  0.00     0.074 A 
ATOM     40  C   UNL A   1      42.885  28.533  33.233  1.00  0.00     0.031 C 
ATOM     41  C   UNL A   1      42.789  29.876  35.320  1.00  0.00     0.037 A 
BRANCH  28  42
ATOM     42  C   UNL A   1      39.425  33.989  38.556  1.00  0.00     0.057 A 
ATOM     43  C   UNL A   1      38.733  33.591  39.708  1.00  0.00     0.134 A 
ATOM     44  C   UNL A   1      39.868  35.316  38.500  1.00  0.00     0.134 A 
ATOM     45  F   UNL A   1      38.244  32.345  39.813  1.00  0.00    -0.206 F 
ATOM     46  C   UNL A   1      38.448  34.493  40.738  1.00  0.00     0.040 A 
ATOM     47  C   UNL A   1      39.615  36.219  39.534  1.00  0.00     0.040 A 
ATOM     48  F   UNL A   1      40.526  35.770  37.422  1.00  0.00    -0.206 F 
ATOM     49  C   UNL A   1      38.889  35.812  40.651  1.00  0.00     0.006 A 
ENDBRANCH  28  42
BRANCH  29  50
ATOM     50  C   UNL A   1      39.985  28.427  30.109  1.00  0.00     0.057 A 
ATOM     51  C   UNL A   1      39.357  27.189  29.944  1.00  0.00     0.134 A 
ATOM     52  C   UNL A   1      40.656  28.957  28.996  1.00  0.00     0.134 A 
ATOM     53  F   UNL A   1      38.710  26.619  30.971  1.00  0.00    -0.206 F 
ATOM     54  C   UNL A   1      39.387  26.508  28.724  1.00  0.00     0.040 A 
ATOM     55  C   UNL A   1      40.674  28.301  27.764  1.00  0.00     0.040 A 
ATOM     56  F   UNL A   1      41.276  30.143  29.082  1.00  0.00    -0.206 F 
ATOM     57  C   UNL A   1      40.038  27.070  27.626  1.00  0.00     0.006 A 
ENDBRANCH  29  50
BRANCH  41  58
ATOM     58  C   UNL A   1      44.098  29.267  35.710  1.00  0.00     0.057 A 
ATOM     59  C   UNL A   1      44.168  28.051  36.399  1.00  0.00     0.134 A 
ATOM     60  C   UNL A   1      45.296  29.854  35.289  1.00  0.00     0.134 A 
ATOM     61  F   UNL A   1      43.051  27.449  36.833  1.00  0.00    -0.206 F 
ATOM     62  C   UNL A   1      45.394  27.438  36.655  1.00  0.00     0.040 A 
ATOM     63  C   UNL A   1      46.525  29.239  35.518  1.00  0.00     0.040 A 
ATOM     64  F   UNL A   1      45.286  31.014  34.613  1.00  0.00    -0.206 F 
ATOM     65  C   UNL A   1      46.576  28.027  36.202  1.00  0.00     0.006 A 
ENDBRANCH  41  58
ENDBRANCH  15  16
ENDBRANCH   8  10
ENDBRANCH   7   8
ENDBRANCH   6   7
ENDBRANCH   5   6
ENDBRANCH   4   5
ENDBRANCH   3   4
ENDBRANCH   2   3
ENDBRANCH   1   2
BRANCH   1  66
ATOM     66  C   UNL A   1      35.215  31.695  27.636  1.00  0.00     0.188 C 
BRANCH  66  67
ATOM     67  C   UNL A   1      35.901  30.312  27.608  1.00  0.00     0.188 C 
BRANCH  67  68
ATOM     68  O   UNL A   1      35.040  29.235  27.972  1.00  0.00    -0.376 OA
BRANCH  68  69
ATOM     69  C   UNL A   1      33.911  29.059  27.112  1.00  0.00     0.202 C 
BRANCH  69  70
ATOM     70  C   UNL A   1      33.921  27.804  26.210  1.00  0.00     0.261 C 
BRANCH  70  71
ATOM     71  O   UNL A   1      34.009  28.156  24.824  1.00  0.00    -0.462 OA
BRANCH  71  72
ATOM     72  C   UNL A   1      32.954  27.913  23.996  1.00  0.00     0.329 C 
ATOM     73  O   UNL A   1      32.722  28.522  22.978  1.00  0.00    -0.250 OA
BRANCH  72  74
ATOM     74  C   UNL A   1      32.184  26.677  24.536  1.00  0.00     0.206 C 
ATOM     75  C   UNL A   1      30.797  27.053  25.054  1.00  0.00     0.108 C 
ATOM     76  N   UNL A   1      32.075  25.625  23.538  1.00  0.00    -0.315 N 
ATOM     77  S   UNL A   1      29.610  26.329  23.894  1.00  0.00    -0.138 SA
ATOM     78  C   UNL A   1      30.761  25.043  23.394  1.00  0.00     0.191 C 
BRANCH  76  79
ATOM     79  C   UNL A   1      33.245  25.063  23.045  1.00  0.00     0.257 C 
ATOM     80  O   UNL A   1      33.617  25.253  21.891  1.00  0.00    -0.269 OA
BRANCH  79  81
ATOM     81  C   UNL A   1      33.878  24.042  23.913  1.00  0.00     0.066 A 
ATOM     82  C   UNL A   1      34.813  24.517  24.858  1.00  0.00     0.016 A 
ATOM     83  C   UNL A   1      33.507  22.698  23.847  1.00  0.00     0.083 A 
ATOM     84  C   UNL A   1      35.474  23.638  25.695  1.00  0.00     0.002 A 
ATOM     85  C   UNL A   1      34.174  21.822  24.736  1.00  0.00     0.001 A 
ATOM     86  N   UNL A   1      32.569  22.229  22.990  1.00  0.00    -0.255 NA
ATOM     87  C   UNL A   1      35.161  22.289  25.626  1.00  0.00     0.010 A 
ATOM     88  C   UNL A   1      33.823  20.467  24.728  1.00  0.00     0.012 A 
ATOM     89  C   UNL A   1      32.228  20.925  23.038  1.00  0.00     0.112 A 
ATOM     90  C   UNL A   1      32.823  20.011  23.880  1.00  0.00     0.021 A 
ENDBRANCH  79  81
ENDBRANCH  76  79
ENDBRANCH  72  74
ENDBRANCH  71  72
ENDBRANCH  70  71
ENDBRANCH  69  70
ENDBRANCH  68  69
ENDBRANCH  67  68
ENDBRANCH  66  67
ENDBRANCH   1  66
TORSDOF 22
ENDMDL
