MODEL 1
REMARK VINA RESULT:      -9.9      0.000      0.000
REMARK SMILES Cn1ccc(NS(=O)(=O)c2cc(C(=O)OCCOCCOCCOCCOC(=O)c3ccc(-c4c5nc(c(-c6c(F)cccc6F)c6ccc([nH]6)c(-c6c(F)cccc6F)c6nc(c(-c7c(F)cccc7F)c7ccc4[nH]7)C=C6)C=C5)cc3)ccc2F)n1
REMARK SMILES IDX 20 1 19 2 18 3 17 4 16 5 15 6 13 7 14 8 12 9 10 10 11 11
REMARK SMILES IDX 86 12 85 13 87 14 84 15 7 16 8 17 9 18 6 19 5 21 1 22 2 23
REMARK SMILES IDX 3 24 88 25 4 26 21 27 22 28 23 29 24 30 25 31 26 32 27 33
REMARK SMILES IDX 28 34 29 35 30 36 31 37 83 38 32 39 82 40 33 41 34 42 35 43
REMARK SMILES IDX 76 44 36 45 81 46 75 47 77 48 37 49 80 50 74 51 73 52 38 54
REMARK SMILES IDX 64 55 47 56 63 57 48 58 51 59 62 60 78 61 49 62 50 63 61 65
REMARK SMILES IDX 79 66 52 67 39 68 40 69 45 70 41 71 42 72 44 73 46 74 43 75
REMARK SMILES IDX 65 76 66 77 71 78 67 79 68 80 70 81 72 82 69 83 53 84 54 85
REMARK SMILES IDX 59 86 55 87 56 88 58 89 60 90 57 91
REMARK H PARENT 6 20 77 53 51 64
REMARK Flexibility Score: inf
ROOT
ATOM      1  C   UNL A   1      33.911  33.256  28.004  1.00  0.00     0.188 C 
ENDROOT
BRANCH   1   2
ATOM      2  C   UNL A   1      34.076  31.736  28.138  1.00  0.00     0.188 C 
BRANCH   2   3
ATOM      3  O   UNL A   1      33.843  31.011  26.933  1.00  0.00    -0.376 OA
BRANCH   3   4
ATOM      4  C   UNL A   1      32.600  30.325  26.838  1.00  0.00     0.202 C 
BRANCH   4   5
ATOM      5  C   UNL A   1      32.369  29.523  25.550  1.00  0.00     0.261 C 
BRANCH   5   6
ATOM      6  O   UNL A   1      33.224  28.377  25.409  1.00  0.00    -0.460 OA
BRANCH   6   7
ATOM      7  C   UNL A   1      33.641  28.074  24.159  1.00  0.00     0.338 C 
ATOM      8  O   UNL A   1      34.347  28.761  23.440  1.00  0.00    -0.246 OA
BRANCH   7   9
ATOM      9  C   UNL A   1      33.304  26.652  23.911  1.00  0.00     0.061 A 
ATOM     10  C   UNL A   1      32.336  24.611  24.807  1.00  0.00     0.124 A 
ATOM     11  C   UNL A   1      32.894  25.880  25.004  1.00  0.00     0.041 A 
ATOM     12  C   UNL A   1      32.325  24.067  23.527  1.00  0.00     0.143 A 
ATOM     13  C   UNL A   1      32.805  24.806  22.440  1.00  0.00     0.041 A 
ATOM     14  F   UNL A   1      31.883  22.829  23.283  1.00  0.00    -0.205 F 
ATOM     15  C   UNL A   1      33.270  26.111  22.623  1.00  0.00     0.019 A 
BRANCH  10  16
ATOM     16  S   UNL A   1      31.786  23.692  26.212  1.00  0.00     0.266 S 
ATOM     17  O   UNL A   1      30.841  22.698  25.749  1.00  0.00    -0.201 OA
ATOM     18  O   UNL A   1      31.393  24.625  27.250  1.00  0.00    -0.201 OA
BRANCH  16  19
ATOM     19  N   UNL A   1      33.133  22.928  26.871  1.00  0.00    -0.262 N 
ATOM     20  H   UNL A   1      33.437  23.215  27.763  1.00  0.00     0.182 HD
BRANCH  19  21
ATOM     21  C   UNL A   1      33.843  21.921  26.235  1.00  0.00     0.161 A 
ATOM     22  C   UNL A   1      33.943  18.825  24.625  1.00  0.00     0.173 C 
ATOM     23  N   UNL A   1      34.231  20.119  25.196  1.00  0.00    -0.274 N 
ATOM     24  C   UNL A   1      35.352  20.867  24.997  1.00  0.00     0.110 A 
ATOM     25  N   UNL A   1      33.301  20.745  25.937  1.00  0.00    -0.155 NA
ATOM     26  C   UNL A   1      35.125  22.054  25.656  1.00  0.00     0.069 A 
ENDBRANCH  19  21
ENDBRANCH  16  19
ENDBRANCH  10  16
ENDBRANCH   7   9
ENDBRANCH   6   7
ENDBRANCH   5   6
ENDBRANCH   4   5
ENDBRANCH   3   4
ENDBRANCH   2   3
ENDBRANCH   1   2
BRANCH   1  27
ATOM     27  O   UNL A   1      33.060  33.882  28.946  1.00  0.00    -0.377 OA
BRANCH  27  28
ATOM     28  C   UNL A   1      33.304  35.234  29.319  1.00  0.00     0.188 C 
BRANCH  28  29
ATOM     29  C   UNL A   1      33.303  35.718  30.787  1.00  0.00     0.188 C 
BRANCH  29  30
ATOM     30  O   UNL A   1      33.190  34.694  31.767  1.00  0.00    -0.376 OA
BRANCH  30  31
ATOM     31  C   UNL A   1      34.125  34.746  32.836  1.00  0.00     0.202 C 
BRANCH  31  32
ATOM     32  C   UNL A   1      35.540  34.352  32.403  1.00  0.00     0.261 C 
BRANCH  32  33
ATOM     33  O   UNL A   1      35.704  32.954  32.122  1.00  0.00    -0.460 OA
BRANCH  33  34
ATOM     34  C   UNL A   1      36.502  32.253  32.958  1.00  0.00     0.338 C 
ATOM     35  O   UNL A   1      36.326  32.040  34.144  1.00  0.00    -0.246 OA
BRANCH  34  36
ATOM     36  C   UNL A   1      37.551  31.613  32.143  1.00  0.00     0.060 A 
ATOM     37  C   UNL A   1      38.632  31.003  32.793  1.00  0.00     0.016 A 
ATOM     38  C   UNL A   1      37.448  31.580  30.749  1.00  0.00     0.016 A 
ATOM     39  C   UNL A   1      39.633  30.386  32.043  1.00  0.00     0.010 A 
ATOM     40  C   UNL A   1      38.461  30.982  30.000  1.00  0.00     0.010 A 
ATOM     41  C   UNL A   1      39.572  30.411  30.643  1.00  0.00    -0.014 A 
BRANCH  41  42
ATOM     42  C   UNL A   1      40.763  30.044  29.846  1.00  0.00     0.031 A 
ATOM     43  C   UNL A   1      40.845  28.641  29.311  1.00  0.00     0.074 A 
ATOM     44  C   UNL A   1      41.749  30.924  29.600  1.00  0.00     0.049 A 
ATOM     45  N   UNL A   1      41.803  28.065  28.636  1.00  0.00    -0.248 NA
ATOM     46  C   UNL A   1      39.684  27.772  29.574  1.00  0.00     0.031 C 
ATOM     47  C   UNL A   1      41.767  32.320  30.034  1.00  0.00     0.029 A 
ATOM     48  N   UNL A   1      42.935  30.763  28.927  1.00  0.00    -0.354 N 
ATOM     49  C   UNL A   1      41.362  26.772  28.391  1.00  0.00     0.074 A 
ATOM     50  C   UNL A   1      40.063  26.635  29.011  1.00  0.00     0.031 C 
ATOM     51  C   UNL A   1      42.917  32.886  29.623  1.00  0.00     0.029 A 
ATOM     52  C   UNL A   1      43.724  31.886  28.924  1.00  0.00     0.049 A 
ATOM     53  H   UNL A   1      43.193  29.921  28.487  1.00  0.00     0.167 HD
ATOM     54  C   UNL A   1      41.980  25.787  27.701  1.00  0.00     0.037 A 
ATOM     55  C   UNL A   1      44.964  32.075  28.430  1.00  0.00     0.037 A 
ATOM     56  C   UNL A   1      43.275  25.918  27.092  1.00  0.00     0.049 A 
ATOM     57  C   UNL A   1      45.667  30.935  27.736  1.00  0.00     0.074 A 
ATOM     58  C   UNL A   1      43.982  24.976  26.368  1.00  0.00     0.029 A 
ATOM     59  N   UNL A   1      44.057  27.061  27.142  1.00  0.00    -0.354 N 
ATOM     60  N   UNL A   1      45.234  29.722  27.492  1.00  0.00    -0.248 NA
ATOM     61  C   UNL A   1      47.033  31.190  27.252  1.00  0.00     0.031 C 
ATOM     62  C   UNL A   1      45.213  25.534  26.016  1.00  0.00     0.029 A 
ATOM     63  C   UNL A   1      45.251  26.840  26.479  1.00  0.00     0.049 A 
ATOM     64  H   UNL A   1      43.802  27.903  27.583  1.00  0.00     0.167 HD
ATOM     65  C   UNL A   1      46.259  29.080  26.805  1.00  0.00     0.074 A 
ATOM     66  C   UNL A   1      47.333  30.040  26.663  1.00  0.00     0.031 C 
ATOM     67  C   UNL A   1      46.304  27.811  26.334  1.00  0.00     0.037 A 
BRANCH  54  68
ATOM     68  C   UNL A   1      41.270  24.475  27.574  1.00  0.00     0.057 A 
ATOM     69  C   UNL A   1      41.686  23.364  28.317  1.00  0.00     0.134 A 
ATOM     70  C   UNL A   1      40.216  24.298  26.670  1.00  0.00     0.134 A 
ATOM     71  F   UNL A   1      42.689  23.472  29.201  1.00  0.00    -0.206 F 
ATOM     72  C   UNL A   1      41.089  22.114  28.151  1.00  0.00     0.040 A 
ATOM     73  C   UNL A   1      39.597  23.058  26.510  1.00  0.00     0.040 A 
ATOM     74  F   UNL A   1      39.761  25.330  25.944  1.00  0.00    -0.206 F 
ATOM     75  C   UNL A   1      40.042  21.959  27.244  1.00  0.00     0.006 A 
ENDBRANCH  54  68
BRANCH  55  76
ATOM     76  C   UNL A   1      45.632  33.392  28.577  1.00  0.00     0.057 A 
ATOM     77  C   UNL A   1      46.453  33.676  29.676  1.00  0.00     0.134 A 
ATOM     78  C   UNL A   1      45.483  34.393  27.611  1.00  0.00     0.134 A 
ATOM     79  F   UNL A   1      46.641  32.758  30.636  1.00  0.00    -0.206 F 
ATOM     80  C   UNL A   1      47.091  34.910  29.815  1.00  0.00     0.040 A 
ATOM     81  C   UNL A   1      46.133  35.624  27.725  1.00  0.00     0.040 A 
ATOM     82  F   UNL A   1      44.732  34.172  26.522  1.00  0.00    -0.206 F 
ATOM     83  C   UNL A   1      46.936  35.886  28.834  1.00  0.00     0.006 A 
ENDBRANCH  55  76
BRANCH  67  84
ATOM     84  C   UNL A   1      47.534  27.380  25.591  1.00  0.00     0.057 A 
ATOM     85  C   UNL A   1      47.573  27.426  24.191  1.00  0.00     0.134 A 
ATOM     86  C   UNL A   1      48.637  26.827  26.252  1.00  0.00     0.134 A 
ATOM     87  F   UNL A   1      46.541  27.932  23.498  1.00  0.00    -0.206 F 
ATOM     88  C   UNL A   1      48.657  26.921  23.474  1.00  0.00     0.040 A 
ATOM     89  C   UNL A   1      49.739  26.340  25.547  1.00  0.00     0.040 A 
ATOM     90  F   UNL A   1      48.664  26.760  27.591  1.00  0.00    -0.206 F 
ATOM     91  C   UNL A   1      49.746  26.376  24.153  1.00  0.00     0.006 A 
ENDBRANCH  67  84
ENDBRANCH  41  42
ENDBRANCH  34  36
ENDBRANCH  33  34
ENDBRANCH  32  33
ENDBRANCH  31  32
ENDBRANCH  30  31
ENDBRANCH  29  30
ENDBRANCH  28  29
ENDBRANCH  27  28
ENDBRANCH   1  27
TORSDOF 23
ENDMDL
MODEL 2
REMARK VINA RESULT:      -9.3      5.760     12.541
REMARK SMILES Cn1ccc(NS(=O)(=O)c2cc(C(=O)OCCOCCOCCOCCOC(=O)c3ccc(-c4c5nc(c(-c6c(F)cccc6F)c6ccc([nH]6)c(-c6c(F)cccc6F)c6nc(c(-c7c(F)cccc7F)c7ccc4[nH]7)C=C6)C=C5)cc3)ccc2F)n1
REMARK SMILES IDX 20 1 19 2 18 3 17 4 16 5 15 6 13 7 14 8 12 9 10 10 11 11
REMARK SMILES IDX 86 12 85 13 87 14 84 15 7 16 8 17 9 18 6 19 5 21 1 22 2 23
REMARK SMILES IDX 3 24 88 25 4 26 21 27 22 28 23 29 24 30 25 31 26 32 27 33
REMARK SMILES IDX 28 34 29 35 30 36 31 37 83 38 32 39 82 40 33 41 34 42 35 43
REMARK SMILES IDX 76 44 36 45 81 46 75 47 77 48 37 49 80 50 74 51 73 52 38 54
REMARK SMILES IDX 64 55 47 56 63 57 48 58 51 59 62 60 78 61 49 62 50 63 61 65
REMARK SMILES IDX 79 66 52 67 39 68 40 69 45 70 41 71 42 72 44 73 46 74 43 75
REMARK SMILES IDX 65 76 66 77 71 78 67 79 68 80 70 81 72 82 69 83 53 84 54 85
REMARK SMILES IDX 59 86 55 87 56 88 58 89 60 90 57 91
REMARK H PARENT 6 20 77 53 51 64
REMARK Flexibility Score: inf
ROOT
ATOM      1  C   UNL A   1      46.430  24.254  24.542  1.00  0.00     0.188 C 
ENDROOT
BRANCH   1   2
ATOM      2  C   UNL A   1      45.963  25.516  25.281  1.00  0.00     0.188 C 
BRANCH   2   3
ATOM      3  O   UNL A   1      46.980  26.160  26.045  1.00  0.00    -0.376 OA
BRANCH   3   4
ATOM      4  C   UNL A   1      47.004  27.583  25.996  1.00  0.00     0.202 C 
BRANCH   4   5
ATOM      5  C   UNL A   1      45.684  28.292  26.324  1.00  0.00     0.261 C 
BRANCH   5   6
ATOM      6  O   UNL A   1      45.653  29.679  25.951  1.00  0.00    -0.460 OA
BRANCH   6   7
ATOM      7  C   UNL A   1      45.002  30.523  26.785  1.00  0.00     0.338 C 
ATOM      8  O   UNL A   1      43.902  30.352  27.281  1.00  0.00    -0.246 OA
BRANCH   7   9
ATOM      9  C   UNL A   1      45.965  31.573  27.194  1.00  0.00     0.061 A 
ATOM     10  C   UNL A   1      46.540  33.933  27.131  1.00  0.00     0.124 A 
ATOM     11  C   UNL A   1      45.828  32.842  26.619  1.00  0.00     0.041 A 
ATOM     12  C   UNL A   1      47.493  33.716  28.120  1.00  0.00     0.143 A 
ATOM     13  C   UNL A   1      47.690  32.433  28.645  1.00  0.00     0.041 A 
ATOM     14  F   UNL A   1      48.266  34.700  28.593  1.00  0.00    -0.205 F 
ATOM     15  C   UNL A   1      46.908  31.363  28.204  1.00  0.00     0.019 A 
BRANCH  10  16
ATOM     16  S   UNL A   1      46.297  35.527  26.409  1.00  0.00     0.266 S 
ATOM     17  O   UNL A   1      47.194  35.643  25.278  1.00  0.00    -0.201 OA
ATOM     18  O   UNL A   1      46.339  36.523  27.461  1.00  0.00    -0.201 OA
BRANCH  16  19
ATOM     19  N   UNL A   1      44.702  35.598  25.875  1.00  0.00    -0.262 N 
ATOM     20  H   UNL A   1      44.526  35.429  24.922  1.00  0.00     0.182 HD
BRANCH  19  21
ATOM     21  C   UNL A   1      43.621  35.880  26.696  1.00  0.00     0.161 A 
ATOM     22  C   UNL A   1      41.514  35.028  29.346  1.00  0.00     0.173 C 
ATOM     23  N   UNL A   1      42.211  35.676  28.261  1.00  0.00    -0.274 N 
ATOM     24  C   UNL A   1      42.130  36.988  27.908  1.00  0.00     0.110 A 
ATOM     25  N   UNL A   1      43.117  34.989  27.544  1.00  0.00    -0.155 NA
ATOM     26  C   UNL A   1      43.046  37.155  26.894  1.00  0.00     0.069 A 
ENDBRANCH  19  21
ENDBRANCH  16  19
ENDBRANCH  10  16
ENDBRANCH   7   9
ENDBRANCH   6   7
ENDBRANCH   5   6
ENDBRANCH   4   5
ENDBRANCH   3   4
ENDBRANCH   2   3
ENDBRANCH   1   2
BRANCH   1  27
ATOM     27  O   UNL A   1      46.385  23.045  25.274  1.00  0.00    -0.377 OA
BRANCH  27  28
ATOM     28  C   UNL A   1      45.825  21.883  24.671  1.00  0.00     0.188 C 
BRANCH  28  29
ATOM     29  C   UNL A   1      45.760  20.511  25.380  1.00  0.00     0.188 C 
BRANCH  29  30
ATOM     30  O   UNL A   1      44.748  19.629  24.912  1.00  0.00    -0.376 OA
BRANCH  30  31
ATOM     31  C   UNL A   1      44.572  18.429  25.654  1.00  0.00     0.202 C 
BRANCH  31  32
ATOM     32  C   UNL A   1      43.100  18.024  25.781  1.00  0.00     0.261 C 
BRANCH  32  33
ATOM     33  O   UNL A   1      42.353  18.804  26.726  1.00  0.00    -0.460 OA
BRANCH  33  34
ATOM     34  C   UNL A   1      41.538  19.757  26.221  1.00  0.00     0.338 C 
ATOM     35  O   UNL A   1      40.522  19.593  25.569  1.00  0.00    -0.246 OA
BRANCH  34  36
ATOM     36  C   UNL A   1      41.982  21.056  26.759  1.00  0.00     0.060 A 
ATOM     37  C   UNL A   1      42.024  21.232  28.148  1.00  0.00     0.016 A 
ATOM     38  C   UNL A   1      42.391  22.080  25.900  1.00  0.00     0.016 A 
ATOM     39  C   UNL A   1      42.445  22.450  28.681  1.00  0.00     0.010 A 
ATOM     40  C   UNL A   1      42.793  23.305  26.433  1.00  0.00     0.010 A 
ATOM     41  C   UNL A   1      42.790  23.504  27.824  1.00  0.00    -0.014 A 
BRANCH  41  42
ATOM     42  C   UNL A   1      42.934  24.875  28.361  1.00  0.00     0.031 A 
ATOM     43  C   UNL A   1      44.287  25.292  28.869  1.00  0.00     0.074 A 
ATOM     44  C   UNL A   1      41.898  25.731  28.402  1.00  0.00     0.049 A 
ATOM     45  N   UNL A   1      44.652  26.412  29.433  1.00  0.00    -0.248 NA
ATOM     46  C   UNL A   1      45.374  24.308  28.718  1.00  0.00     0.031 C 
ATOM     47  C   UNL A   1      40.551  25.456  27.908  1.00  0.00     0.029 A 
ATOM     48  N   UNL A   1      41.824  27.011  28.893  1.00  0.00    -0.354 N 
ATOM     49  C   UNL A   1      46.007  26.271  29.699  1.00  0.00     0.074 A 
ATOM     50  C   UNL A   1      46.397  24.949  29.263  1.00  0.00     0.031 C 
ATOM     51  C   UNL A   1      39.779  26.535  28.132  1.00  0.00     0.029 A 
ATOM     52  C   UNL A   1      40.570  27.562  28.809  1.00  0.00     0.049 A 
ATOM     53  H   UNL A   1      42.599  27.488  29.270  1.00  0.00     0.167 HD
ATOM     54  C   UNL A   1      46.855  27.168  30.250  1.00  0.00     0.037 A 
ATOM     55  C   UNL A   1      40.114  28.752  29.248  1.00  0.00     0.037 A 
ATOM     56  C   UNL A   1      46.469  28.479  30.692  1.00  0.00     0.049 A 
ATOM     57  C   UNL A   1      41.062  29.704  29.934  1.00  0.00     0.074 A 
ATOM     58  C   UNL A   1      47.259  29.462  31.260  1.00  0.00     0.029 A 
ATOM     59  N   UNL A   1      45.181  28.986  30.622  1.00  0.00    -0.354 N 
ATOM     60  N   UNL A   1      42.345  29.569  30.164  1.00  0.00    -0.248 NA
ATOM     61  C   UNL A   1      40.497  30.970  30.425  1.00  0.00     0.031 C 
ATOM     62  C   UNL A   1      46.441  30.549  31.574  1.00  0.00     0.029 A 
ATOM     63  C   UNL A   1      45.151  30.262  31.155  1.00  0.00     0.049 A 
ATOM     64  H   UNL A   1      44.405  28.510  30.248  1.00  0.00     0.167 HD
ATOM     65  C   UNL A   1      42.746  30.740  30.799  1.00  0.00     0.074 A 
ATOM     66  C   UNL A   1      41.571  31.578  30.911  1.00  0.00     0.031 C 
ATOM     67  C   UNL A   1      43.976  31.088  31.247  1.00  0.00     0.037 A 
BRANCH  54  68
ATOM     68  C   UNL A   1      48.287  26.761  30.415  1.00  0.00     0.057 A 
ATOM     69  C   UNL A   1      49.260  27.188  29.504  1.00  0.00     0.134 A 
ATOM     70  C   UNL A   1      48.688  25.894  31.438  1.00  0.00     0.134 A 
ATOM     71  F   UNL A   1      48.938  28.020  28.502  1.00  0.00    -0.206 F 
ATOM     72  C   UNL A   1      50.582  26.752  29.595  1.00  0.00     0.040 A 
ATOM     73  C   UNL A   1      50.011  25.467  31.552  1.00  0.00     0.040 A 
ATOM     74  F   UNL A   1      47.804  25.466  32.353  1.00  0.00    -0.206 F 
ATOM     75  C   UNL A   1      50.960  25.888  30.621  1.00  0.00     0.006 A 
ENDBRANCH  54  68
BRANCH  55  76
ATOM     76  C   UNL A   1      38.686  29.117  29.063  1.00  0.00     0.057 A 
ATOM     77  C   UNL A   1      37.773  29.049  30.123  1.00  0.00     0.134 A 
ATOM     78  C   UNL A   1      38.206  29.561  27.827  1.00  0.00     0.134 A 
ATOM     79  F   UNL A   1      38.171  28.636  31.335  1.00  0.00    -0.206 F 
ATOM     80  C   UNL A   1      36.431  29.400  29.957  1.00  0.00     0.040 A 
ATOM     81  C   UNL A   1      36.872  29.936  27.651  1.00  0.00     0.040 A 
ATOM     82  F   UNL A   1      39.037  29.673  26.781  1.00  0.00    -0.206 F 
ATOM     83  C   UNL A   1      35.980  29.850  28.719  1.00  0.00     0.006 A 
ENDBRANCH  55  76
BRANCH  67  84
ATOM     84  C   UNL A   1      44.138  32.442  31.873  1.00  0.00     0.057 A 
ATOM     85  C   UNL A   1      44.502  33.548  31.093  1.00  0.00     0.134 A 
ATOM     86  C   UNL A   1      44.036  32.630  33.256  1.00  0.00     0.134 A 
ATOM     87  F   UNL A   1      44.631  33.430  29.762  1.00  0.00    -0.206 F 
ATOM     88  C   UNL A   1      44.775  34.789  31.669  1.00  0.00     0.040 A 
ATOM     89  C   UNL A   1      44.282  33.873  33.842  1.00  0.00     0.040 A 
ATOM     90  F   UNL A   1      43.685  31.613  34.057  1.00  0.00    -0.206 F 
ATOM     91  C   UNL A   1      44.665  34.954  33.048  1.00  0.00     0.006 A 
ENDBRANCH  67  84
ENDBRANCH  41  42
ENDBRANCH  34  36
ENDBRANCH  33  34
ENDBRANCH  32  33
ENDBRANCH  31  32
ENDBRANCH  30  31
ENDBRANCH  29  30
ENDBRANCH  28  29
ENDBRANCH  27  28
ENDBRANCH   1  27
TORSDOF 23
ENDMDL
MODEL 3
REMARK VINA RESULT:      -9.0      1.268      2.023
REMARK SMILES Cn1ccc(NS(=O)(=O)c2cc(C(=O)OCCOCCOCCOCCOC(=O)c3ccc(-c4c5nc(c(-c6c(F)cccc6F)c6ccc([nH]6)c(-c6c(F)cccc6F)c6nc(c(-c7c(F)cccc7F)c7ccc4[nH]7)C=C6)C=C5)cc3)ccc2F)n1
REMARK SMILES IDX 20 1 19 2 18 3 17 4 16 5 15 6 13 7 14 8 12 9 10 10 11 11
REMARK SMILES IDX 86 12 85 13 87 14 84 15 7 16 8 17 9 18 6 19 5 21 1 22 2 23
REMARK SMILES IDX 3 24 88 25 4 26 21 27 22 28 23 29 24 30 25 31 26 32 27 33
REMARK SMILES IDX 28 34 29 35 30 36 31 37 83 38 32 39 82 40 33 41 34 42 35 43
REMARK SMILES IDX 76 44 36 45 81 46 75 47 77 48 37 49 80 50 74 51 73 52 38 54
REMARK SMILES IDX 64 55 47 56 63 57 48 58 51 59 62 60 78 61 49 62 50 63 61 65
REMARK SMILES IDX 79 66 52 67 39 68 40 69 45 70 41 71 42 72 44 73 46 74 43 75
REMARK SMILES IDX 65 76 66 77 71 78 67 79 68 80 70 81 72 82 69 83 53 84 54 85
REMARK SMILES IDX 59 86 55 87 56 88 58 89 60 90 57 91
REMARK H PARENT 6 20 77 53 51 64
REMARK Flexibility Score: inf
ROOT
ATOM      1  C   UNL A   1      33.942  33.133  27.957  1.00  0.00     0.188 C 
ENDROOT
BRANCH   1   2
ATOM      2  C   UNL A   1      34.753  31.835  27.845  1.00  0.00     0.188 C 
BRANCH   2   3
ATOM      3  O   UNL A   1      34.131  30.820  27.061  1.00  0.00    -0.376 OA
BRANCH   3   4
ATOM      4  C   UNL A   1      33.374  29.846  27.772  1.00  0.00     0.202 C 
BRANCH   4   5
ATOM      5  C   UNL A   1      32.488  28.927  26.921  1.00  0.00     0.261 C 
BRANCH   5   6
ATOM      6  O   UNL A   1      33.131  28.418  25.740  1.00  0.00    -0.460 OA
BRANCH   6   7
ATOM      7  C   UNL A   1      32.335  27.851  24.806  1.00  0.00     0.338 C 
ATOM      8  O   UNL A   1      32.130  28.261  23.676  1.00  0.00    -0.246 OA
BRANCH   7   9
ATOM      9  C   UNL A   1      31.954  26.508  25.304  1.00  0.00     0.061 A 
ATOM     10  C   UNL A   1      32.723  24.375  26.178  1.00  0.00     0.124 A 
ATOM     11  C   UNL A   1      32.974  25.569  25.491  1.00  0.00     0.041 A 
ATOM     12  C   UNL A   1      31.418  24.068  26.546  1.00  0.00     0.143 A 
ATOM     13  C   UNL A   1      30.378  24.970  26.292  1.00  0.00     0.041 A 
ATOM     14  F   UNL A   1      31.096  22.908  27.130  1.00  0.00    -0.205 F 
ATOM     15  C   UNL A   1      30.646  26.205  25.696  1.00  0.00     0.019 A 
BRANCH  10  16
ATOM     16  S   UNL A   1      34.053  23.241  26.436  1.00  0.00     0.266 S 
ATOM     17  O   UNL A   1      34.067  22.886  27.840  1.00  0.00    -0.201 OA
ATOM     18  O   UNL A   1      35.249  23.784  25.822  1.00  0.00    -0.201 OA
BRANCH  16  19
ATOM     19  N   UNL A   1      33.732  21.873  25.510  1.00  0.00    -0.262 N 
ATOM     20  H   UNL A   1      33.962  20.994  25.889  1.00  0.00     0.182 HD
BRANCH  19  21
ATOM     21  C   UNL A   1      33.165  21.907  24.245  1.00  0.00     0.161 A 
ATOM     22  C   UNL A   1      33.049  23.191  21.001  1.00  0.00     0.173 C 
ATOM     23  N   UNL A   1      32.862  22.443  22.220  1.00  0.00    -0.274 N 
ATOM     24  C   UNL A   1      32.175  21.275  22.363  1.00  0.00     0.110 A 
ATOM     25  N   UNL A   1      33.476  22.838  23.349  1.00  0.00    -0.155 NA
ATOM     26  C   UNL A   1      32.362  20.895  23.673  1.00  0.00     0.069 A 
ENDBRANCH  19  21
ENDBRANCH  16  19
ENDBRANCH  10  16
ENDBRANCH   7   9
ENDBRANCH   6   7
ENDBRANCH   5   6
ENDBRANCH   4   5
ENDBRANCH   3   4
ENDBRANCH   2   3
ENDBRANCH   1   2
BRANCH   1  27
ATOM     27  O   UNL A   1      33.657  33.586  29.267  1.00  0.00    -0.377 OA
BRANCH  27  28
ATOM     28  C   UNL A   1      33.419  34.972  29.491  1.00  0.00     0.188 C 
BRANCH  28  29
ATOM     29  C   UNL A   1      33.150  35.566  30.893  1.00  0.00     0.188 C 
BRANCH  29  30
ATOM     30  O   UNL A   1      33.505  34.732  31.988  1.00  0.00    -0.376 OA
BRANCH  30  31
ATOM     31  C   UNL A   1      34.854  34.814  32.426  1.00  0.00     0.202 C 
BRANCH  31  32
ATOM     32  C   UNL A   1      35.791  33.904  31.626  1.00  0.00     0.261 C 
BRANCH  32  33
ATOM     33  O   UNL A   1      35.683  32.511  31.955  1.00  0.00    -0.460 OA
BRANCH  33  34
ATOM     34  C   UNL A   1      36.584  32.021  32.836  1.00  0.00     0.338 C 
ATOM     35  O   UNL A   1      36.475  31.956  34.047  1.00  0.00    -0.246 OA
BRANCH  34  36
ATOM     36  C   UNL A   1      37.668  31.388  32.061  1.00  0.00     0.060 A 
ATOM     37  C   UNL A   1      38.886  31.121  32.700  1.00  0.00     0.016 A 
ATOM     38  C   UNL A   1      37.471  31.025  30.725  1.00  0.00     0.016 A 
ATOM     39  C   UNL A   1      39.924  30.518  31.990  1.00  0.00     0.010 A 
ATOM     40  C   UNL A   1      38.516  30.442  30.010  1.00  0.00     0.010 A 
ATOM     41  C   UNL A   1      39.756  30.216  30.631  1.00  0.00    -0.014 A 
BRANCH  41  42
ATOM     42  C   UNL A   1      40.932  29.873  29.801  1.00  0.00     0.031 A 
ATOM     43  C   UNL A   1      41.015  28.479  29.244  1.00  0.00     0.074 A 
ATOM     44  C   UNL A   1      41.903  30.766  29.546  1.00  0.00     0.049 A 
ATOM     45  N   UNL A   1      41.963  27.922  28.539  1.00  0.00    -0.248 NA
ATOM     46  C   UNL A   1      39.869  27.594  29.521  1.00  0.00     0.031 C 
ATOM     47  C   UNL A   1      41.918  32.155  30.000  1.00  0.00     0.029 A 
ATOM     48  N   UNL A   1      43.074  30.627  28.843  1.00  0.00    -0.354 N 
ATOM     49  C   UNL A   1      41.529  26.628  28.285  1.00  0.00     0.074 A 
ATOM     50  C   UNL A   1      40.247  26.469  28.933  1.00  0.00     0.031 C 
ATOM     51  C   UNL A   1      43.052  32.739  29.571  1.00  0.00     0.029 A 
ATOM     52  C   UNL A   1      43.852  31.758  28.839  1.00  0.00     0.049 A 
ATOM     53  H   UNL A   1      43.331  29.795  28.385  1.00  0.00     0.167 HD
ATOM     54  C   UNL A   1      42.141  25.660  27.566  1.00  0.00     0.037 A 
ATOM     55  C   UNL A   1      45.078  31.966  28.319  1.00  0.00     0.037 A 
ATOM     56  C   UNL A   1      43.419  25.813  26.929  1.00  0.00     0.049 A 
ATOM     57  C   UNL A   1      45.777  30.844  27.592  1.00  0.00     0.074 A 
ATOM     58  C   UNL A   1      44.119  24.889  26.175  1.00  0.00     0.029 A 
ATOM     59  N   UNL A   1      44.191  26.963  26.978  1.00  0.00    -0.354 N 
ATOM     60  N   UNL A   1      45.350  29.631  27.340  1.00  0.00    -0.248 NA
ATOM     61  C   UNL A   1      47.128  31.120  27.081  1.00  0.00     0.031 C 
ATOM     62  C   UNL A   1      45.336  25.464  25.803  1.00  0.00     0.029 A 
ATOM     63  C   UNL A   1      45.371  26.764  26.284  1.00  0.00     0.049 A 
ATOM     64  H   UNL A   1      43.938  27.796  27.437  1.00  0.00     0.167 HD
ATOM     65  C   UNL A   1      46.364  29.010  26.620  1.00  0.00     0.074 A 
ATOM     66  C   UNL A   1      47.426  29.982  26.468  1.00  0.00     0.031 C 
ATOM     67  C   UNL A   1      46.411  27.747  26.130  1.00  0.00     0.037 A 
BRANCH  54  68
ATOM     68  C   UNL A   1      41.440  24.343  27.436  1.00  0.00     0.057 A 
ATOM     69  C   UNL A   1      40.341  24.201  26.581  1.00  0.00     0.134 A 
ATOM     70  C   UNL A   1      41.814  23.236  28.206  1.00  0.00     0.134 A 
ATOM     71  F   UNL A   1      39.934  25.226  25.817  1.00  0.00    -0.206 F 
ATOM     72  C   UNL A   1      39.625  23.006  26.510  1.00  0.00     0.040 A 
ATOM     73  C   UNL A   1      41.120  22.029  28.127  1.00  0.00     0.040 A 
ATOM     74  F   UNL A   1      42.872  23.305  29.029  1.00  0.00    -0.206 F 
ATOM     75  C   UNL A   1      40.015  21.915  27.286  1.00  0.00     0.006 A 
ENDBRANCH  54  68
BRANCH  55  76
ATOM     76  C   UNL A   1      45.737  33.288  28.470  1.00  0.00     0.057 A 
ATOM     77  C   UNL A   1      46.672  33.526  29.486  1.00  0.00     0.134 A 
ATOM     78  C   UNL A   1      45.462  34.340  27.590  1.00  0.00     0.134 A 
ATOM     79  F   UNL A   1      46.984  32.558  30.360  1.00  0.00    -0.206 F 
ATOM     80  C   UNL A   1      47.302  34.765  29.627  1.00  0.00     0.040 A 
ATOM     81  C   UNL A   1      46.101  35.578  27.705  1.00  0.00     0.040 A 
ATOM     82  F   UNL A   1      44.596  34.167  26.581  1.00  0.00    -0.206 F 
ATOM     83  C   UNL A   1      47.019  35.793  28.731  1.00  0.00     0.006 A 
ENDBRANCH  55  76
BRANCH  67  84
ATOM     84  C   UNL A   1      47.628  27.340  25.352  1.00  0.00     0.057 A 
ATOM     85  C   UNL A   1      48.732  26.774  26.004  1.00  0.00     0.134 A 
ATOM     86  C   UNL A   1      47.747  27.601  23.983  1.00  0.00     0.134 A 
ATOM     87  F   UNL A   1      48.686  26.512  27.320  1.00  0.00    -0.206 F 
ATOM     88  C   UNL A   1      49.918  26.498  25.324  1.00  0.00     0.040 A 
ATOM     89  C   UNL A   1      48.921  27.307  23.286  1.00  0.00     0.040 A 
ATOM     90  F   UNL A   1      46.725  28.136  23.300  1.00  0.00    -0.206 F 
ATOM     91  C   UNL A   1      50.014  26.764  23.959  1.00  0.00     0.006 A 
ENDBRANCH  67  84
ENDBRANCH  41  42
ENDBRANCH  34  36
ENDBRANCH  33  34
ENDBRANCH  32  33
ENDBRANCH  31  32
ENDBRANCH  30  31
ENDBRANCH  29  30
ENDBRANCH  28  29
ENDBRANCH  27  28
ENDBRANCH   1  27
TORSDOF 23
ENDMDL
