MODEL 1
REMARK VINA RESULT:      -9.2      0.000      0.000
REMARK SMILES CC[C@H](CC#N)[NH2+]Cc1cc(C(=O)OCCOCCOCCOCCOC(=O)c2ccc(-c3c4nc(c(-c5c(F)cccc5F)c5ccc([nH]5)c(-c5c(F)cccc5F)c5nc(c(-c6c(F)cccc6F)c6ccc3[nH]6)C=C5)C=C4)cc2)cs1
REMARK SMILES IDX 18 1 17 2 16 3 15 4 14 5 12 6 13 7 11 8 9 9 10 10 84 11
REMARK SMILES IDX 83 12 8 13 7 14 3 17 2 18 1 19 4 20 5 21 6 22 19 23 20 24
REMARK SMILES IDX 21 25 22 26 23 27 24 28 25 29 26 30 27 31 28 32 29 33 30 34
REMARK SMILES IDX 82 35 31 36 81 37 32 38 33 39 34 40 75 41 35 42 80 43 74 44
REMARK SMILES IDX 76 45 36 46 79 47 73 48 72 49 37 51 63 52 46 53 62 54 47 55
REMARK SMILES IDX 50 56 61 57 77 58 48 59 49 60 60 62 78 63 51 64 38 65 39 66
REMARK SMILES IDX 44 67 40 68 41 69 43 70 45 71 42 72 64 73 65 74 70 75 66 76
REMARK SMILES IDX 67 77 69 78 71 79 68 80 52 81 53 82 58 83 54 84 55 85 57 86
REMARK SMILES IDX 59 87 56 88
REMARK H PARENT 7 15 7 16 76 50 50 61
REMARK Flexibility Score: inf
ROOT
ATOM      1  C   UNL A   1      33.993  23.404  23.253  1.00  0.00     0.188 C 
ENDROOT
BRANCH   1   2
ATOM      2  O   UNL A   1      32.894  24.192  22.792  1.00  0.00    -0.376 OA
BRANCH   2   3
ATOM      3  C   UNL A   1      31.547  23.830  23.044  1.00  0.00     0.202 C 
BRANCH   3   4
ATOM      4  C   UNL A   1      30.800  24.620  24.122  1.00  0.00     0.261 C 
BRANCH   4   5
ATOM      5  O   UNL A   1      31.490  24.696  25.372  1.00  0.00    -0.460 OA
BRANCH   5   6
ATOM      6  C   UNL A   1      31.043  23.859  26.352  1.00  0.00     0.339 C 
ATOM      7  O   UNL A   1      30.008  24.015  26.989  1.00  0.00    -0.246 OA
BRANCH   6   8
ATOM      8  C   UNL A   1      31.980  22.763  26.607  1.00  0.00     0.071 A 
ATOM      9  C   UNL A   1      33.285  20.999  25.903  1.00  0.00     0.060 A 
ATOM     10  C   UNL A   1      31.991  21.479  25.956  1.00  0.00     0.037 A 
ATOM     11  S   UNL A   1      34.195  21.610  27.215  1.00  0.00    -0.142 S 
ATOM     12  C   UNL A   1      33.048  22.857  27.477  1.00  0.00     0.081 A 
BRANCH   9  13
ATOM     13  C   UNL A   1      33.908  20.157  24.836  1.00  0.00     0.308 C 
BRANCH  13  14
ATOM     14  N   UNL A   1      33.814  18.719  25.134  1.00  0.00    -0.339 N 
ATOM     15  H   UNL A   1      34.168  18.580  26.080  1.00  0.00     0.346 HD
ATOM     16  H   UNL A   1      32.830  18.492  24.993  1.00  0.00     0.346 HD
BRANCH  14  17
ATOM     17  C   UNL A   1      34.543  17.781  24.247  1.00  0.00     0.196 C 
BRANCH  17  18
ATOM     18  C   UNL A   1      33.723  17.311  23.016  1.00  0.00     0.063 C 
ATOM     19  C   UNL A   1      32.424  18.020  22.640  1.00  0.00     0.010 C 
ENDBRANCH  17  18
BRANCH  17  20
ATOM     20  C   UNL A   1      34.856  16.560  25.073  1.00  0.00     0.184 C 
BRANCH  20  21
ATOM     21  C   UNL A   1      33.727  15.556  25.239  1.00  0.00     0.068 C 
ATOM     22  N   UNL A   1      32.790  14.723  25.376  1.00  0.00    -0.198 NA
ENDBRANCH  20  21
ENDBRANCH  17  20
ENDBRANCH  14  17
ENDBRANCH  13  14
ENDBRANCH   9  13
ENDBRANCH   6   8
ENDBRANCH   5   6
ENDBRANCH   4   5
ENDBRANCH   3   4
ENDBRANCH   2   3
ENDBRANCH   1   2
BRANCH   1  23
ATOM     23  C   UNL A   1      35.162  23.975  24.085  1.00  0.00     0.188 C 
BRANCH  23  24
ATOM     24  O   UNL A   1      36.365  23.230  24.037  1.00  0.00    -0.377 OA
BRANCH  24  25
ATOM     25  C   UNL A   1      37.108  23.206  25.249  1.00  0.00     0.188 C 
BRANCH  25  26
ATOM     26  C   UNL A   1      38.006  21.976  25.459  1.00  0.00     0.188 C 
BRANCH  26  27
ATOM     27  O   UNL A   1      37.295  20.745  25.341  1.00  0.00    -0.376 OA
BRANCH  27  28
ATOM     28  C   UNL A   1      38.016  19.610  24.878  1.00  0.00     0.202 C 
BRANCH  28  29
ATOM     29  C   UNL A   1      39.215  19.211  25.752  1.00  0.00     0.261 C 
BRANCH  29  30
ATOM     30  O   UNL A   1      40.507  19.517  25.201  1.00  0.00    -0.460 OA
BRANCH  30  31
ATOM     31  C   UNL A   1      41.590  19.205  25.942  1.00  0.00     0.338 C 
ATOM     32  O   UNL A   1      42.052  18.100  26.152  1.00  0.00    -0.246 OA
BRANCH  31  33
ATOM     33  C   UNL A   1      42.265  20.465  26.309  1.00  0.00     0.060 A 
ATOM     34  C   UNL A   1      42.077  20.974  27.601  1.00  0.00     0.016 A 
ATOM     35  C   UNL A   1      43.051  21.150  25.380  1.00  0.00     0.016 A 
ATOM     36  C   UNL A   1      42.630  22.204  27.951  1.00  0.00     0.010 A 
ATOM     37  C   UNL A   1      43.585  22.392  25.722  1.00  0.00     0.010 A 
ATOM     38  C   UNL A   1      43.336  22.942  26.992  1.00  0.00    -0.014 A 
BRANCH  38  39
ATOM     39  C   UNL A   1      43.589  24.382  27.216  1.00  0.00     0.031 A 
ATOM     40  C   UNL A   1      45.001  24.876  27.063  1.00  0.00     0.074 A 
ATOM     41  C   UNL A   1      42.603  25.230  27.551  1.00  0.00     0.049 A 
ATOM     42  N   UNL A   1      45.496  26.066  27.283  1.00  0.00    -0.248 NA
ATOM     43  C   UNL A   1      45.991  23.886  26.603  1.00  0.00     0.031 C 
ATOM     44  C   UNL A   1      41.192  24.878  27.687  1.00  0.00     0.029 A 
ATOM     45  N   UNL A   1      42.651  26.567  27.851  1.00  0.00    -0.354 N 
ATOM     46  C   UNL A   1      46.852  25.964  26.995  1.00  0.00     0.074 A 
ATOM     47  C   UNL A   1      47.108  24.595  26.610  1.00  0.00     0.031 C 
ATOM     48  C   UNL A   1      40.507  25.974  28.064  1.00  0.00     0.029 A 
ATOM     49  C   UNL A   1      41.438  27.090  28.224  1.00  0.00     0.049 A 
ATOM     50  H   UNL A   1      43.477  27.101  27.806  1.00  0.00     0.167 HD
ATOM     51  C   UNL A   1      47.800  26.929  27.043  1.00  0.00     0.037 A 
ATOM     52  C   UNL A   1      41.127  28.324  28.667  1.00  0.00     0.037 A 
ATOM     53  C   UNL A   1      47.547  28.288  27.437  1.00  0.00     0.049 A 
ATOM     54  C   UNL A   1      42.213  29.362  28.786  1.00  0.00     0.074 A 
ATOM     55  C   UNL A   1      48.436  29.343  27.516  1.00  0.00     0.029 A 
ATOM     56  N   UNL A   1      46.308  28.773  27.826  1.00  0.00    -0.354 N 
ATOM     57  N   UNL A   1      43.488  29.265  28.495  1.00  0.00    -0.248 NA
ATOM     58  C   UNL A   1      41.815  30.682  29.296  1.00  0.00     0.031 C 
ATOM     59  C   UNL A   1      47.742  30.460  27.994  1.00  0.00     0.029 A 
ATOM     60  C   UNL A   1      46.412  30.111  28.167  1.00  0.00     0.049 A 
ATOM     61  H   UNL A   1      45.477  28.246  27.855  1.00  0.00     0.167 HD
ATOM     62  C   UNL A   1      44.036  30.516  28.755  1.00  0.00     0.074 A 
ATOM     63  C   UNL A   1      42.954  31.357  29.224  1.00  0.00     0.031 C 
ATOM     64  C   UNL A   1      45.318  30.933  28.614  1.00  0.00     0.037 A 
BRANCH  51  65
ATOM     65  C   UNL A   1      49.200  26.529  26.687  1.00  0.00     0.057 A 
ATOM     66  C   UNL A   1      49.713  26.704  25.397  1.00  0.00     0.134 A 
ATOM     67  C   UNL A   1      50.045  25.961  27.650  1.00  0.00     0.134 A 
ATOM     68  F   UNL A   1      48.947  27.220  24.424  1.00  0.00    -0.206 F 
ATOM     69  C   UNL A   1      51.010  26.307  25.068  1.00  0.00     0.040 A 
ATOM     70  C   UNL A   1      51.351  25.583  27.340  1.00  0.00     0.040 A 
ATOM     71  F   UNL A   1      49.612  25.764  28.904  1.00  0.00    -0.206 F 
ATOM     72  C   UNL A   1      51.835  25.749  26.043  1.00  0.00     0.006 A 
ENDBRANCH  51  65
BRANCH  52  73
ATOM     73  C   UNL A   1      39.730  28.649  29.045  1.00  0.00     0.057 A 
ATOM     74  C   UNL A   1      38.844  29.219  28.124  1.00  0.00     0.134 A 
ATOM     75  C   UNL A   1      39.254  28.423  30.343  1.00  0.00     0.134 A 
ATOM     76  F   UNL A   1      39.249  29.481  26.873  1.00  0.00    -0.206 F 
ATOM     77  C   UNL A   1      37.540  29.567  28.483  1.00  0.00     0.040 A 
ATOM     78  C   UNL A   1      37.946  28.745  30.708  1.00  0.00     0.040 A 
ATOM     79  F   UNL A   1      40.053  27.879  31.272  1.00  0.00    -0.206 F 
ATOM     80  C   UNL A   1      37.087  29.325  29.778  1.00  0.00     0.006 A 
ENDBRANCH  52  73
BRANCH  64  81
ATOM     81  C   UNL A   1      45.616  32.370  28.923  1.00  0.00     0.057 A 
ATOM     82  C   UNL A   1      45.484  33.378  27.961  1.00  0.00     0.134 A 
ATOM     83  C   UNL A   1      45.981  32.755  30.220  1.00  0.00     0.134 A 
ATOM     84  F   UNL A   1      45.147  33.073  26.699  1.00  0.00    -0.206 F 
ATOM     85  C   UNL A   1      45.720  34.718  28.274  1.00  0.00     0.040 A 
ATOM     86  C   UNL A   1      46.196  34.093  30.551  1.00  0.00     0.040 A 
ATOM     87  F   UNL A   1      46.115  31.838  31.190  1.00  0.00    -0.206 F 
ATOM     88  C   UNL A   1      46.069  35.079  29.575  1.00  0.00     0.006 A 
ENDBRANCH  64  81
ENDBRANCH  38  39
ENDBRANCH  31  33
ENDBRANCH  30  31
ENDBRANCH  29  30
ENDBRANCH  28  29
ENDBRANCH  27  28
ENDBRANCH  26  27
ENDBRANCH  25  26
ENDBRANCH  24  25
ENDBRANCH  23  24
ENDBRANCH   1  23
TORSDOF 26
ENDMDL
MODEL 2
REMARK VINA RESULT:      -8.9      3.361      8.245
REMARK SMILES CC[C@H](CC#N)[NH2+]Cc1cc(C(=O)OCCOCCOCCOCCOC(=O)c2ccc(-c3c4nc(c(-c5c(F)cccc5F)c5ccc([nH]5)c(-c5c(F)cccc5F)c5nc(c(-c6c(F)cccc6F)c6ccc3[nH]6)C=C5)C=C4)cc2)cs1
REMARK SMILES IDX 18 1 17 2 16 3 15 4 14 5 12 6 13 7 11 8 9 9 10 10 84 11
REMARK SMILES IDX 83 12 8 13 7 14 3 17 2 18 1 19 4 20 5 21 6 22 19 23 20 24
REMARK SMILES IDX 21 25 22 26 23 27 24 28 25 29 26 30 27 31 28 32 29 33 30 34
REMARK SMILES IDX 82 35 31 36 81 37 32 38 33 39 34 40 75 41 35 42 80 43 74 44
REMARK SMILES IDX 76 45 36 46 79 47 73 48 72 49 37 51 63 52 46 53 62 54 47 55
REMARK SMILES IDX 50 56 61 57 77 58 48 59 49 60 60 62 78 63 51 64 38 65 39 66
REMARK SMILES IDX 44 67 40 68 41 69 43 70 45 71 42 72 64 73 65 74 70 75 66 76
REMARK SMILES IDX 67 77 69 78 71 79 68 80 52 81 53 82 58 83 54 84 55 85 57 86
REMARK SMILES IDX 59 87 56 88
REMARK H PARENT 7 15 7 16 76 50 50 61
REMARK Flexibility Score: inf
ROOT
ATOM      1  C   UNL A   1      33.158  30.599  27.212  1.00  0.00     0.188 C 
ENDROOT
BRANCH   1   2
ATOM      2  O   UNL A   1      32.750  30.236  25.892  1.00  0.00    -0.376 OA
BRANCH   2   3
ATOM      3  C   UNL A   1      32.903  28.921  25.388  1.00  0.00     0.202 C 
BRANCH   3   4
ATOM      4  C   UNL A   1      32.827  27.771  26.396  1.00  0.00     0.261 C 
BRANCH   4   5
ATOM      5  O   UNL A   1      33.224  26.504  25.866  1.00  0.00    -0.460 OA
BRANCH   5   6
ATOM      6  C   UNL A   1      32.402  25.454  26.152  1.00  0.00     0.339 C 
ATOM      7  O   UNL A   1      31.486  25.482  26.965  1.00  0.00    -0.246 OA
BRANCH   6   8
ATOM      8  C   UNL A   1      32.775  24.248  25.410  1.00  0.00     0.071 A 
ATOM      9  C   UNL A   1      32.940  21.960  25.200  1.00  0.00     0.060 A 
ATOM     10  C   UNL A   1      33.333  23.042  25.962  1.00  0.00     0.037 A 
ATOM     11  S   UNL A   1      32.672  22.443  23.582  1.00  0.00    -0.142 S 
ATOM     12  C   UNL A   1      32.560  24.088  24.054  1.00  0.00     0.081 A 
BRANCH   9  13
ATOM     13  C   UNL A   1      32.663  20.565  25.661  1.00  0.00     0.308 C 
BRANCH  13  14
ATOM     14  N   UNL A   1      32.510  19.625  24.540  1.00  0.00    -0.339 N 
ATOM     15  H   UNL A   1      31.531  19.338  24.514  1.00  0.00     0.346 HD
ATOM     16  H   UNL A   1      32.839  20.142  23.726  1.00  0.00     0.346 HD
BRANCH  14  17
ATOM     17  C   UNL A   1      33.331  18.391  24.555  1.00  0.00     0.196 C 
BRANCH  17  18
ATOM     18  C   UNL A   1      33.402  17.664  23.184  1.00  0.00     0.063 C 
ATOM     19  C   UNL A   1      32.376  17.971  22.096  1.00  0.00     0.010 C 
ENDBRANCH  17  18
BRANCH  17  20
ATOM     20  C   UNL A   1      32.678  17.448  25.531  1.00  0.00     0.184 C 
BRANCH  20  21
ATOM     21  C   UNL A   1      33.122  15.996  25.460  1.00  0.00     0.068 C 
ATOM     22  N   UNL A   1      33.490  14.791  25.402  1.00  0.00    -0.198 NA
ENDBRANCH  20  21
ENDBRANCH  17  20
ENDBRANCH  14  17
ENDBRANCH  13  14
ENDBRANCH   9  13
ENDBRANCH   6   8
ENDBRANCH   5   6
ENDBRANCH   4   5
ENDBRANCH   3   4
ENDBRANCH   2   3
ENDBRANCH   1   2
BRANCH   1  23
ATOM     23  C   UNL A   1      34.624  30.878  27.605  1.00  0.00     0.188 C 
BRANCH  23  24
ATOM     24  O   UNL A   1      34.810  31.512  28.858  1.00  0.00    -0.377 OA
BRANCH  24  25
ATOM     25  C   UNL A   1      34.338  32.852  28.931  1.00  0.00     0.188 C 
BRANCH  25  26
ATOM     26  C   UNL A   1      35.408  33.923  29.197  1.00  0.00     0.188 C 
BRANCH  26  27
ATOM     27  O   UNL A   1      35.480  34.305  30.571  1.00  0.00    -0.376 OA
BRANCH  27  28
ATOM     28  C   UNL A   1      34.375  33.974  31.403  1.00  0.00     0.202 C 
BRANCH  28  29
ATOM     29  C   UNL A   1      34.747  33.256  32.709  1.00  0.00     0.261 C 
BRANCH  29  30
ATOM     30  O   UNL A   1      35.448  32.012  32.548  1.00  0.00    -0.460 OA
BRANCH  30  31
ATOM     31  C   UNL A   1      36.612  31.861  33.214  1.00  0.00     0.338 C 
ATOM     32  O   UNL A   1      36.831  32.093  34.387  1.00  0.00    -0.246 OA
BRANCH  31  33
ATOM     33  C   UNL A   1      37.557  31.166  32.319  1.00  0.00     0.060 A 
ATOM     34  C   UNL A   1      38.567  30.380  32.892  1.00  0.00     0.016 A 
ATOM     35  C   UNL A   1      37.465  31.310  30.933  1.00  0.00     0.016 A 
ATOM     36  C   UNL A   1      39.525  29.780  32.078  1.00  0.00     0.010 A 
ATOM     37  C   UNL A   1      38.438  30.729  30.121  1.00  0.00     0.010 A 
ATOM     38  C   UNL A   1      39.496  30.003  30.696  1.00  0.00    -0.014 A 
BRANCH  38  39
ATOM     39  C   UNL A   1      40.695  29.708  29.880  1.00  0.00     0.031 A 
ATOM     40  C   UNL A   1      40.815  28.331  29.287  1.00  0.00     0.074 A 
ATOM     41  C   UNL A   1      41.653  30.626  29.673  1.00  0.00     0.049 A 
ATOM     42  N   UNL A   1      41.798  27.799  28.609  1.00  0.00    -0.248 NA
ATOM     43  C   UNL A   1      39.669  27.430  29.495  1.00  0.00     0.031 C 
ATOM     44  C   UNL A   1      41.628  32.003  30.159  1.00  0.00     0.029 A 
ATOM     45  N   UNL A   1      42.846  30.523  29.004  1.00  0.00    -0.354 N 
ATOM     46  C   UNL A   1      41.391  26.504  28.317  1.00  0.00     0.074 A 
ATOM     47  C   UNL A   1      40.087  26.319  28.911  1.00  0.00     0.031 C 
ATOM     48  C   UNL A   1      42.767  32.615  29.786  1.00  0.00     0.029 A 
ATOM     49  C   UNL A   1      43.610  31.662  29.065  1.00  0.00     0.049 A 
ATOM     50  H   UNL A   1      43.129  29.709  28.528  1.00  0.00     0.167 HD
ATOM     51  C   UNL A   1      42.045  25.552  27.611  1.00  0.00     0.037 A 
ATOM     52  C   UNL A   1      44.856  31.892  28.610  1.00  0.00     0.037 A 
ATOM     53  C   UNL A   1      43.347  25.732  27.030  1.00  0.00     0.049 A 
ATOM     54  C   UNL A   1      45.597  30.793  27.893  1.00  0.00     0.074 A 
ATOM     55  C   UNL A   1      44.095  24.833  26.294  1.00  0.00     0.029 A 
ATOM     56  N   UNL A   1      44.095  26.894  27.131  1.00  0.00    -0.354 N 
ATOM     57  N   UNL A   1      45.199  29.577  27.605  1.00  0.00    -0.248 NA
ATOM     58  C   UNL A   1      46.962  31.099  27.440  1.00  0.00     0.031 C 
ATOM     59  C   UNL A   1      45.318  25.437  25.983  1.00  0.00     0.029 A 
ATOM     60  C   UNL A   1      45.309  26.729  26.486  1.00  0.00     0.049 A 
ATOM     61  H   UNL A   1      43.808  27.715  27.591  1.00  0.00     0.167 HD
ATOM     62  C   UNL A   1      46.249  28.986  26.910  1.00  0.00     0.074 A 
ATOM     63  C   UNL A   1      47.299  29.978  26.816  1.00  0.00     0.031 C 
ATOM     64  C   UNL A   1      46.334  27.737  26.391  1.00  0.00     0.037 A 
BRANCH  51  65
ATOM     65  C   UNL A   1      41.365  24.224  27.462  1.00  0.00     0.057 A 
ATOM     66  C   UNL A   1      40.276  24.045  26.600  1.00  0.00     0.134 A 
ATOM     67  C   UNL A   1      41.806  23.112  28.190  1.00  0.00     0.134 A 
ATOM     68  F   UNL A   1      39.790  25.077  25.894  1.00  0.00    -0.206 F 
ATOM     69  C   UNL A   1      39.633  22.811  26.485  1.00  0.00     0.040 A 
ATOM     70  C   UNL A   1      41.188  21.868  28.065  1.00  0.00     0.040 A 
ATOM     71  F   UNL A   1      42.843  23.218  29.034  1.00  0.00    -0.206 F 
ATOM     72  C   UNL A   1      40.093  21.716  27.215  1.00  0.00     0.006 A 
ENDBRANCH  51  65
BRANCH  52  73
ATOM     73  C   UNL A   1      45.495  33.214  28.825  1.00  0.00     0.057 A 
ATOM     74  C   UNL A   1      45.386  34.235  27.875  1.00  0.00     0.134 A 
ATOM     75  C   UNL A   1      46.251  33.480  29.973  1.00  0.00     0.134 A 
ATOM     76  F   UNL A   1      44.694  34.032  26.743  1.00  0.00    -0.206 F 
ATOM     77  C   UNL A   1      46.018  35.468  28.049  1.00  0.00     0.040 A 
ATOM     78  C   UNL A   1      46.870  34.716  30.171  1.00  0.00     0.040 A 
ATOM     79  F   UNL A   1      46.394  32.544  30.922  1.00  0.00    -0.206 F 
ATOM     80  C   UNL A   1      46.759  35.712  29.203  1.00  0.00     0.006 A 
ENDBRANCH  52  73
BRANCH  64  81
ATOM     81  C   UNL A   1      47.581  27.385  25.636  1.00  0.00     0.057 A 
ATOM     82  C   UNL A   1      48.679  26.779  26.259  1.00  0.00     0.134 A 
ATOM     83  C   UNL A   1      47.657  27.601  24.253  1.00  0.00     0.134 A 
ATOM     84  F   UNL A   1      48.671  26.554  27.581  1.00  0.00    -0.206 F 
ATOM     85  C   UNL A   1      49.816  26.415  25.535  1.00  0.00     0.040 A 
ATOM     86  C   UNL A   1      48.778  27.219  23.516  1.00  0.00     0.040 A 
ATOM     87  F   UNL A   1      46.635  28.168  23.596  1.00  0.00    -0.206 F 
ATOM     88  C   UNL A   1      49.864  26.628  24.158  1.00  0.00     0.006 A 
ENDBRANCH  64  81
ENDBRANCH  38  39
ENDBRANCH  31  33
ENDBRANCH  30  31
ENDBRANCH  29  30
ENDBRANCH  28  29
ENDBRANCH  27  28
ENDBRANCH  26  27
ENDBRANCH  25  26
ENDBRANCH  24  25
ENDBRANCH  23  24
ENDBRANCH   1  23
TORSDOF 26
ENDMDL
MODEL 3
REMARK VINA RESULT:      -8.6      3.538      8.513
REMARK SMILES CC[C@H](CC#N)[NH2+]Cc1cc(C(=O)OCCOCCOCCOCCOC(=O)c2ccc(-c3c4nc(c(-c5c(F)cccc5F)c5ccc([nH]5)c(-c5c(F)cccc5F)c5nc(c(-c6c(F)cccc6F)c6ccc3[nH]6)C=C5)C=C4)cc2)cs1
REMARK SMILES IDX 18 1 17 2 16 3 15 4 14 5 12 6 13 7 11 8 9 9 10 10 84 11
REMARK SMILES IDX 83 12 8 13 7 14 3 17 2 18 1 19 4 20 5 21 6 22 19 23 20 24
REMARK SMILES IDX 21 25 22 26 23 27 24 28 25 29 26 30 27 31 28 32 29 33 30 34
REMARK SMILES IDX 82 35 31 36 81 37 32 38 33 39 34 40 75 41 35 42 80 43 74 44
REMARK SMILES IDX 76 45 36 46 79 47 73 48 72 49 37 51 63 52 46 53 62 54 47 55
REMARK SMILES IDX 50 56 61 57 77 58 48 59 49 60 60 62 78 63 51 64 38 65 39 66
REMARK SMILES IDX 44 67 40 68 41 69 43 70 45 71 42 72 64 73 65 74 70 75 66 76
REMARK SMILES IDX 67 77 69 78 71 79 68 80 52 81 53 82 58 83 54 84 55 85 57 86
REMARK SMILES IDX 59 87 56 88
REMARK H PARENT 7 15 7 16 76 50 50 61
REMARK Flexibility Score: inf
ROOT
ATOM      1  C   UNL A   1      33.430  30.919  27.255  1.00  0.00     0.188 C 
ENDROOT
BRANCH   1   2
ATOM      2  O   UNL A   1      33.034  30.428  25.973  1.00  0.00    -0.376 OA
BRANCH   2   3
ATOM      3  C   UNL A   1      32.623  29.087  25.771  1.00  0.00     0.202 C 
BRANCH   3   4
ATOM      4  C   UNL A   1      31.398  28.856  24.883  1.00  0.00     0.261 C 
BRANCH   4   5
ATOM      5  O   UNL A   1      30.745  27.604  25.105  1.00  0.00    -0.460 OA
BRANCH   5   6
ATOM      6  C   UNL A   1      30.508  26.848  23.994  1.00  0.00     0.339 C 
ATOM      7  O   UNL A   1      30.235  27.297  22.887  1.00  0.00    -0.246 OA
BRANCH   6   8
ATOM      8  C   UNL A   1      30.563  25.414  24.284  1.00  0.00     0.071 A 
ATOM      9  C   UNL A   1      31.439  23.307  23.967  1.00  0.00     0.060 A 
ATOM     10  C   UNL A   1      30.801  24.358  23.337  1.00  0.00     0.037 A 
ATOM     11  S   UNL A   1      31.014  23.266  25.623  1.00  0.00    -0.142 S 
ATOM     12  C   UNL A   1      30.463  24.889  25.559  1.00  0.00     0.081 A 
BRANCH   9  13
ATOM     13  C   UNL A   1      32.446  22.366  23.388  1.00  0.00     0.308 C 
BRANCH  13  14
ATOM     14  N   UNL A   1      33.734  22.422  24.096  1.00  0.00    -0.339 N 
ATOM     15  H   UNL A   1      34.367  22.992  23.534  1.00  0.00     0.346 HD
ATOM     16  H   UNL A   1      33.505  22.795  25.016  1.00  0.00     0.346 HD
BRANCH  14  17
ATOM     17  C   UNL A   1      34.426  21.141  24.376  1.00  0.00     0.196 C 
BRANCH  17  18
ATOM     18  C   UNL A   1      33.465  19.939  24.584  1.00  0.00     0.063 C 
ATOM     19  C   UNL A   1      34.004  18.510  24.563  1.00  0.00     0.010 C 
ENDBRANCH  17  18
BRANCH  17  20
ATOM     20  C   UNL A   1      35.192  21.333  25.659  1.00  0.00     0.184 C 
BRANCH  20  21
ATOM     21  C   UNL A   1      34.365  21.674  26.888  1.00  0.00     0.068 C 
ATOM     22  N   UNL A   1      33.680  21.957  27.909  1.00  0.00    -0.198 NA
ENDBRANCH  20  21
ENDBRANCH  17  20
ENDBRANCH  14  17
ENDBRANCH  13  14
ENDBRANCH   9  13
ENDBRANCH   6   8
ENDBRANCH   5   6
ENDBRANCH   4   5
ENDBRANCH   3   4
ENDBRANCH   2   3
ENDBRANCH   1   2
BRANCH   1  23
ATOM     23  C   UNL A   1      34.895  31.221  27.638  1.00  0.00     0.188 C 
BRANCH  23  24
ATOM     24  O   UNL A   1      35.108  31.595  28.987  1.00  0.00    -0.377 OA
BRANCH  24  25
ATOM     25  C   UNL A   1      34.433  32.777  29.399  1.00  0.00     0.188 C 
BRANCH  25  26
ATOM     26  C   UNL A   1      35.332  33.984  29.715  1.00  0.00     0.188 C 
BRANCH  26  27
ATOM     27  O   UNL A   1      35.457  34.229  31.116  1.00  0.00    -0.376 OA
BRANCH  27  28
ATOM     28  C   UNL A   1      34.513  33.607  31.979  1.00  0.00     0.202 C 
BRANCH  28  29
ATOM     29  C   UNL A   1      35.095  33.091  33.304  1.00  0.00     0.261 C 
BRANCH  29  30
ATOM     30  O   UNL A   1      35.858  31.877  33.210  1.00  0.00    -0.460 OA
BRANCH  30  31
ATOM     31  C   UNL A   1      37.126  31.899  33.668  1.00  0.00     0.338 C 
ATOM     32  O   UNL A   1      37.511  32.249  34.767  1.00  0.00    -0.246 OA
BRANCH  31  33
ATOM     33  C   UNL A   1      37.980  31.230  32.669  1.00  0.00     0.060 A 
ATOM     34  C   UNL A   1      38.929  30.300  33.113  1.00  0.00     0.016 A 
ATOM     35  C   UNL A   1      37.864  31.537  31.311  1.00  0.00     0.016 A 
ATOM     36  C   UNL A   1      39.808  29.715  32.204  1.00  0.00     0.010 A 
ATOM     37  C   UNL A   1      38.758  30.970  30.404  1.00  0.00     0.010 A 
ATOM     38  C   UNL A   1      39.761  30.094  30.856  1.00  0.00    -0.014 A 
BRANCH  38  39
ATOM     39  C   UNL A   1      40.906  29.790  29.969  1.00  0.00     0.031 A 
ATOM     40  C   UNL A   1      40.972  28.417  29.359  1.00  0.00     0.074 A 
ATOM     41  C   UNL A   1      41.863  30.697  29.714  1.00  0.00     0.049 A 
ATOM     42  N   UNL A   1      41.905  27.878  28.620  1.00  0.00    -0.248 NA
ATOM     43  C   UNL A   1      39.827  27.529  29.627  1.00  0.00     0.031 C 
ATOM     44  C   UNL A   1      41.886  32.069  30.212  1.00  0.00     0.029 A 
ATOM     45  N   UNL A   1      43.014  30.583  28.976  1.00  0.00    -0.354 N 
ATOM     46  C   UNL A   1      41.464  26.591  28.342  1.00  0.00     0.074 A 
ATOM     47  C   UNL A   1      40.194  26.418  29.009  1.00  0.00     0.031 C 
ATOM     48  C   UNL A   1      43.011  32.669  29.779  1.00  0.00     0.029 A 
ATOM     49  C   UNL A   1      43.796  31.710  29.002  1.00  0.00     0.049 A 
ATOM     50  H   UNL A   1      43.257  29.770  28.478  1.00  0.00     0.167 HD
ATOM     51  C   UNL A   1      42.062  25.636  27.591  1.00  0.00     0.037 A 
ATOM     52  C   UNL A   1      45.017  31.928  28.476  1.00  0.00     0.037 A 
ATOM     53  C   UNL A   1      43.329  25.804  26.936  1.00  0.00     0.049 A 
ATOM     54  C   UNL A   1      45.699  30.825  27.708  1.00  0.00     0.074 A 
ATOM     55  C   UNL A   1      44.021  24.901  26.151  1.00  0.00     0.029 A 
ATOM     56  N   UNL A   1      44.099  26.955  27.003  1.00  0.00    -0.354 N 
ATOM     57  N   UNL A   1      45.268  29.617  27.433  1.00  0.00    -0.248 NA
ATOM     58  C   UNL A   1      47.039  31.117  27.178  1.00  0.00     0.031 C 
ATOM     59  C   UNL A   1      45.232  25.491  25.773  1.00  0.00     0.029 A 
ATOM     60  C   UNL A   1      45.271  26.779  26.286  1.00  0.00     0.049 A 
ATOM     61  H   UNL A   1      43.851  27.775  27.486  1.00  0.00     0.167 HD
ATOM     62  C   UNL A   1      46.266  29.018  26.673  1.00  0.00     0.074 A 
ATOM     63  C   UNL A   1      47.324  29.997  26.527  1.00  0.00     0.031 C 
ATOM     64  C   UNL A   1      46.302  27.772  26.140  1.00  0.00     0.037 A 
BRANCH  51  65
ATOM     65  C   UNL A   1      41.355  24.320  27.471  1.00  0.00     0.057 A 
ATOM     66  C   UNL A   1      41.750  23.199  28.211  1.00  0.00     0.134 A 
ATOM     67  C   UNL A   1      40.266  24.172  26.602  1.00  0.00     0.134 A 
ATOM     68  F   UNL A   1      42.800  23.269  29.042  1.00  0.00    -0.206 F 
ATOM     69  C   UNL A   1      41.101  21.971  28.076  1.00  0.00     0.040 A 
ATOM     70  C   UNL A   1      39.594  22.956  26.476  1.00  0.00     0.040 A 
ATOM     71  F   UNL A   1      39.840  25.207  25.862  1.00  0.00    -0.206 F 
ATOM     72  C   UNL A   1      40.015  21.849  27.210  1.00  0.00     0.006 A 
ENDBRANCH  51  65
BRANCH  52  73
ATOM     73  C   UNL A   1      45.686  33.239  28.665  1.00  0.00     0.057 A 
ATOM     74  C   UNL A   1      46.532  33.470  29.755  1.00  0.00     0.134 A 
ATOM     75  C   UNL A   1      45.477  34.299  27.774  1.00  0.00     0.134 A 
ATOM     76  F   UNL A   1      46.753  32.500  30.655  1.00  0.00    -0.206 F 
ATOM     77  C   UNL A   1      47.134  34.713  29.962  1.00  0.00     0.040 A 
ATOM     78  C   UNL A   1      46.090  35.540  27.957  1.00  0.00     0.040 A 
ATOM     79  F   UNL A   1      44.678  34.141  26.709  1.00  0.00    -0.206 F 
ATOM     80  C   UNL A   1      46.916  35.751  29.059  1.00  0.00     0.006 A 
ENDBRANCH  52  73
BRANCH  64  81
ATOM     81  C   UNL A   1      47.498  27.410  25.310  1.00  0.00     0.057 A 
ATOM     82  C   UNL A   1      47.549  27.659  23.934  1.00  0.00     0.134 A 
ATOM     83  C   UNL A   1      48.638  26.860  25.912  1.00  0.00     0.134 A 
ATOM     84  F   UNL A   1      46.487  28.175  23.297  1.00  0.00    -0.206 F 
ATOM     85  C   UNL A   1      48.686  27.359  23.181  1.00  0.00     0.040 A 
ATOM     86  C   UNL A   1      49.788  26.578  25.175  1.00  0.00     0.040 A 
ATOM     87  F   UNL A   1      48.657  26.607  27.229  1.00  0.00    -0.206 F 
ATOM     88  C   UNL A   1      49.813  26.824  23.804  1.00  0.00     0.006 A 
ENDBRANCH  64  81
ENDBRANCH  38  39
ENDBRANCH  31  33
ENDBRANCH  30  31
ENDBRANCH  29  30
ENDBRANCH  28  29
ENDBRANCH  27  28
ENDBRANCH  26  27
ENDBRANCH  25  26
ENDBRANCH  24  25
ENDBRANCH  23  24
ENDBRANCH   1  23
TORSDOF 26
ENDMDL
