MODEL 1
REMARK VINA RESULT:     -12.4      0.000      0.000
REMARK SMILES Cc1ccccc1/C=C1\SC(=O)N(CC(=O)Nc2ccccc2C(=O)OCCOCCOCCOCCOC(=O)c2ccc(-c3c4nc(c(-c5c(F)cccc5F)c5ccc([nH]5)c(-c5c(F)cccc5F)c5nc(c(-c6c(F)cccc6F)c6ccc3[nH]6)C=C5)C=C4)cc2)C1=O
REMARK SMILES IDX 31 1 30 2 29 3 28 4 27 5 26 6 24 7 25 8 23 9 18 10 19 11
REMARK SMILES IDX 20 12 22 13 21 14 17 15 15 16 16 17 14 19 13 20 8 21 9 22
REMARK SMILES IDX 10 23 95 24 11 25 96 26 12 27 7 28 1 29 2 30 3 31 4 32 6 33
REMARK SMILES IDX 5 34 32 35 33 36 34 37 35 38 36 39 37 40 38 41 39 42 40 43
REMARK SMILES IDX 41 44 42 45 94 46 43 47 93 48 44 49 45 50 46 51 87 52 47 53
REMARK SMILES IDX 92 54 86 55 88 56 48 57 91 58 85 59 84 60 49 62 75 63 58 64
REMARK SMILES IDX 74 65 59 66 62 67 73 68 89 69 60 70 61 71 72 73 90 74 63 75
REMARK SMILES IDX 50 76 51 77 56 78 52 79 53 80 55 81 57 82 54 83 76 84 77 85
REMARK SMILES IDX 82 86 78 87 79 88 81 89 83 90 80 91 64 92 65 93 70 94 66 95
REMARK SMILES IDX 67 96 69 97 71 98 68 99
REMARK H PARENT 17 18 88 61 62 72
REMARK Flexibility Score: inf
ROOT
ATOM      1  C   UNL A   1      40.852  21.351  27.404  1.00  0.00     0.188 C 
ENDROOT
BRANCH   1   2
ATOM      2  C   UNL A   1      41.153  22.728  28.333  1.00  0.00     0.188 C 
BRANCH   2   3
ATOM      3  O   UNL A   1      41.245  24.512  28.146  1.00  0.00    -0.376 OA
BRANCH   3   4
ATOM      4  C   UNL A   1      40.340  25.711  27.122  1.00  0.00     0.202 C 
BRANCH   4   5
ATOM      5  C   UNL A   1      39.568  27.449  27.592  1.00  0.00     0.261 C 
BRANCH   5   6
ATOM      6  O   UNL A   1      38.161  28.567  28.131  1.00  0.00    -0.460 OA
BRANCH   6   7
ATOM      7  C   UNL A   1      36.679  29.206  28.571  1.00  0.00     0.340 C 
ATOM      8  O   UNL A   1      36.402  29.467  29.757  1.00  0.00    -0.246 OA
BRANCH   7   9
ATOM      9  C   UNL A   1      35.200  29.565  27.809  1.00  0.00     0.083 A 
ATOM     10  C   UNL A   1      34.220  28.872  26.946  1.00  0.00     0.055 A 
ATOM     11  C   UNL A   1      32.973  29.491  26.655  1.00  0.00     0.027 A 
ATOM     12  C   UNL A   1      32.689  30.788  27.044  1.00  0.00     0.002 A 
ATOM     13  C   UNL A   1      34.907  30.935  27.994  1.00  0.00     0.018 A 
ATOM     14  C   UNL A   1      33.679  31.527  27.660  1.00  0.00     0.001 A 
BRANCH  10  15
ATOM     15  N   UNL A   1      34.361  27.619  26.205  1.00  0.00    -0.324 N 
ATOM     16  C   UNL A   1      33.351  27.083  25.342  1.00  0.00     0.244 C 
ATOM     17  O   UNL A   1      33.394  27.237  24.120  1.00  0.00    -0.273 OA
ATOM     18  H   UNL A   1      35.200  27.113  26.305  1.00  0.00     0.170 HD
BRANCH  16  19
ATOM     19  C   UNL A   1      32.216  26.237  25.975  1.00  0.00     0.230 C 
BRANCH  19  20
ATOM     20  N   UNL A   1      32.316  25.004  25.284  1.00  0.00    -0.259 N 
ATOM     21  C   UNL A   1      33.526  20.873  24.964  1.00  0.00     0.029 C 
ATOM     22  C   UNL A   1      32.836  22.330  25.282  1.00  0.00     0.083 C 
ATOM     23  S   UNL A   1      31.277  23.062  24.515  1.00  0.00    -0.022 SA
ATOM     24  C   UNL A   1      33.214  24.007  25.729  1.00  0.00     0.268 C 
ATOM     25  C   UNL A   1      31.185  24.691  24.674  1.00  0.00     0.294 C 
ATOM     26  O   UNL A   1      34.113  24.479  26.422  1.00  0.00    -0.268 OA
ATOM     27  O   UNL A   1      30.191  25.354  24.459  1.00  0.00    -0.261 OA
BRANCH  21  28
ATOM     28  C   UNL A   1      33.780  19.107  24.369  1.00  0.00    -0.021 A 
ATOM     29  C   UNL A   1      32.370  18.204  22.250  1.00  0.00     0.045 C 
ATOM     30  C   UNL A   1      32.954  18.094  23.673  1.00  0.00    -0.044 A 
ATOM     31  C   UNL A   1      33.014  16.677  23.924  1.00  0.00     0.004 A 
ATOM     32  C   UNL A   1      34.112  16.127  24.502  1.00  0.00     0.000 A 
ATOM     33  C   UNL A   1      35.000  18.431  24.576  1.00  0.00     0.008 A 
ATOM     34  C   UNL A   1      35.158  16.999  24.666  1.00  0.00     0.001 A 
ENDBRANCH  21  28
ENDBRANCH  19  20
ENDBRANCH  16  19
ENDBRANCH  10  15
ENDBRANCH   7   9
ENDBRANCH   6   7
ENDBRANCH   5   6
ENDBRANCH   4   5
ENDBRANCH   3   4
ENDBRANCH   2   3
ENDBRANCH   1   2
BRANCH   1  35
ATOM     35  O   UNL A   1      41.455  20.060  27.243  1.00  0.00    -0.377 OA
BRANCH  35  36
ATOM     36  C   UNL A   1      41.912  19.428  26.051  1.00  0.00     0.188 C 
BRANCH  36  37
ATOM     37  C   UNL A   1      43.002  18.417  26.188  1.00  0.00     0.188 C 
BRANCH  37  38
ATOM     38  O   UNL A   1      43.724  18.471  24.977  1.00  0.00    -0.376 OA
BRANCH  38  39
ATOM     39  C   UNL A   1      45.011  19.031  25.098  1.00  0.00     0.202 C 
BRANCH  39  40
ATOM     40  C   UNL A   1      45.067  20.250  24.192  1.00  0.00     0.261 C 
BRANCH  40  41
ATOM     41  O   UNL A   1      45.941  21.240  24.805  1.00  0.00    -0.460 OA
BRANCH  41  42
ATOM     42  C   UNL A   1      45.685  22.551  24.480  1.00  0.00     0.338 C 
ATOM     43  O   UNL A   1      46.339  23.215  23.692  1.00  0.00    -0.246 OA
BRANCH  42  44
ATOM     44  C   UNL A   1      44.733  23.162  25.463  1.00  0.00     0.060 A 
ATOM     45  C   UNL A   1      44.193  24.440  25.268  1.00  0.00     0.016 A 
ATOM     46  C   UNL A   1      44.711  22.692  26.736  1.00  0.00     0.016 A 
ATOM     47  C   UNL A   1      44.153  25.404  26.332  1.00  0.00     0.010 A 
ATOM     48  C   UNL A   1      44.596  23.652  27.741  1.00  0.00     0.010 A 
ATOM     49  C   UNL A   1      44.673  25.127  27.601  1.00  0.00    -0.014 A 
BRANCH  49  50
ATOM     50  C   UNL A   1      45.366  26.411  28.796  1.00  0.00     0.031 A 
ATOM     51  C   UNL A   1      44.332  28.095  29.334  1.00  0.00     0.074 A 
ATOM     52  C   UNL A   1      46.808  26.040  28.832  1.00  0.00     0.049 A 
ATOM     53  N   UNL A   1      44.392  29.397  28.773  1.00  0.00    -0.248 NA
ATOM     54  C   UNL A   1      42.892  28.435  29.994  1.00  0.00     0.031 C 
ATOM     55  C   UNL A   1      47.890  26.112  29.874  1.00  0.00     0.029 A 
ATOM     56  N   UNL A   1      47.743  25.986  27.673  1.00  0.00    -0.354 N 
ATOM     57  C   UNL A   1      43.604  30.550  29.306  1.00  0.00     0.074 A 
ATOM     58  C   UNL A   1      42.549  29.742  29.852  1.00  0.00     0.031 C 
ATOM     59  C   UNL A   1      49.071  26.531  29.362  1.00  0.00     0.029 A 
ATOM     60  C   UNL A   1      48.912  26.816  27.961  1.00  0.00     0.049 A 
ATOM     61  H   UNL A   1      47.595  25.474  26.845  1.00  0.00     0.167 HD
ATOM     62  C   UNL A   1      43.913  32.010  29.542  1.00  0.00     0.037 A 
ATOM     63  C   UNL A   1      49.742  27.586  27.151  1.00  0.00     0.037 A 
ATOM     64  C   UNL A   1      45.467  32.631  29.677  1.00  0.00     0.049 A 
ATOM     65  C   UNL A   1      50.012  29.273  27.225  1.00  0.00     0.074 A 
ATOM     66  C   UNL A   1      46.335  32.890  30.770  1.00  0.00     0.029 A 
ATOM     67  N   UNL A   1      46.351  33.074  28.654  1.00  0.00    -0.354 N 
ATOM     68  N   UNL A   1      49.191  30.222  27.667  1.00  0.00    -0.248 NA
ATOM     69  C   UNL A   1      51.212  29.970  26.729  1.00  0.00     0.031 C 
ATOM     70  C   UNL A   1      47.709  32.820  30.354  1.00  0.00     0.029 A 
ATOM     71  C   UNL A   1      47.753  32.749  28.969  1.00  0.00     0.049 A 
ATOM     72  H   UNL A   1      46.063  33.541  27.838  1.00  0.00     0.167 HD
ATOM     73  C   UNL A   1      49.667  31.552  27.623  1.00  0.00     0.074 A 
ATOM     74  C   UNL A   1      50.967  31.286  26.988  1.00  0.00     0.031 C 
ATOM     75  C   UNL A   1      48.956  32.746  27.991  1.00  0.00     0.037 A 
BRANCH  62  76
ATOM     76  C   UNL A   1      42.887  32.936  30.329  1.00  0.00     0.057 A 
ATOM     77  C   UNL A   1      42.602  32.719  31.706  1.00  0.00     0.134 A 
ATOM     78  C   UNL A   1      42.119  33.971  29.783  1.00  0.00     0.134 A 
ATOM     79  F   UNL A   1      43.421  32.028  32.509  1.00  0.00    -0.206 F 
ATOM     80  C   UNL A   1      41.497  33.260  32.378  1.00  0.00     0.040 A 
ATOM     81  C   UNL A   1      41.009  34.541  30.449  1.00  0.00     0.040 A 
ATOM     82  F   UNL A   1      42.451  34.542  28.619  1.00  0.00    -0.206 F 
ATOM     83  C   UNL A   1      40.661  34.146  31.734  1.00  0.00     0.006 A 
ENDBRANCH  62  76
BRANCH  63  84
ATOM     84  C   UNL A   1      50.329  26.576  26.169  1.00  0.00     0.057 A 
ATOM     85  C   UNL A   1      49.886  26.766  24.834  1.00  0.00     0.134 A 
ATOM     86  C   UNL A   1      51.696  26.283  26.295  1.00  0.00     0.134 A 
ATOM     87  F   UNL A   1      48.588  27.012  24.591  1.00  0.00    -0.206 F 
ATOM     88  C   UNL A   1      50.789  27.026  23.785  1.00  0.00     0.040 A 
ATOM     89  C   UNL A   1      52.608  26.519  25.253  1.00  0.00     0.040 A 
ATOM     90  F   UNL A   1      52.213  25.945  27.476  1.00  0.00    -0.206 F 
ATOM     91  C   UNL A   1      52.160  26.967  24.015  1.00  0.00     0.006 A 
ENDBRANCH  63  84
BRANCH  75  92
ATOM     92  C   UNL A   1      49.146  34.155  27.303  1.00  0.00     0.057 A 
ATOM     93  C   UNL A   1      50.196  35.047  27.558  1.00  0.00     0.134 A 
ATOM     94  C   UNL A   1      48.473  34.435  26.075  1.00  0.00     0.134 A 
ATOM     95  F   UNL A   1      50.922  35.002  28.677  1.00  0.00    -0.206 F 
ATOM     96  C   UNL A   1      50.652  35.985  26.606  1.00  0.00     0.040 A 
ATOM     97  C   UNL A   1      48.964  35.306  25.091  1.00  0.00     0.040 A 
ATOM     98  F   UNL A   1      47.324  33.835  25.731  1.00  0.00    -0.206 F 
ATOM     99  C   UNL A   1      50.083  36.069  25.345  1.00  0.00     0.006 A 
ENDBRANCH  75  92
ENDBRANCH  49  50
ENDBRANCH  42  44
ENDBRANCH  41  42
ENDBRANCH  40  41
ENDBRANCH  39  40
ENDBRANCH  38  39
ENDBRANCH  37  38
ENDBRANCH  36  37
ENDBRANCH  35  36
ENDBRANCH   1  35
TORSDOF 24
ENDMDL
MODEL 2
REMARK VINA RESULT:     -12.2      4.106      9.563
REMARK SMILES Cc1ccccc1/C=C1\SC(=O)N(CC(=O)Nc2ccccc2C(=O)OCCOCCOCCOCCOC(=O)c2ccc(-c3c4nc(c(-c5c(F)cccc5F)c5ccc([nH]5)c(-c5c(F)cccc5F)c5nc(c(-c6c(F)cccc6F)c6ccc3[nH]6)C=C5)C=C4)cc2)C1=O
REMARK SMILES IDX 31 1 30 2 29 3 28 4 27 5 26 6 24 7 25 8 23 9 18 10 19 11
REMARK SMILES IDX 20 12 22 13 21 14 17 15 15 16 16 17 14 19 13 20 8 21 9 22
REMARK SMILES IDX 10 23 95 24 11 25 96 26 12 27 7 28 1 29 2 30 3 31 4 32 6 33
REMARK SMILES IDX 5 34 32 35 33 36 34 37 35 38 36 39 37 40 38 41 39 42 40 43
REMARK SMILES IDX 41 44 42 45 94 46 43 47 93 48 44 49 45 50 46 51 87 52 47 53
REMARK SMILES IDX 92 54 86 55 88 56 48 57 91 58 85 59 84 60 49 62 75 63 58 64
REMARK SMILES IDX 74 65 59 66 62 67 73 68 89 69 60 70 61 71 72 73 90 74 63 75
REMARK SMILES IDX 50 76 51 77 56 78 52 79 53 80 55 81 57 82 54 83 76 84 77 85
REMARK SMILES IDX 82 86 78 87 79 88 81 89 83 90 80 91 64 92 65 93 70 94 66 95
REMARK SMILES IDX 67 96 69 97 71 98 68 99
REMARK H PARENT 17 18 88 61 62 72
REMARK Flexibility Score: inf
ROOT
ATOM      1  C   UNL A   1      36.766  22.354  24.780  1.00  0.00     0.188 C 
ENDROOT
BRANCH   1   2
ATOM      2  C   UNL A   1      35.176  22.922  24.725  1.00  0.00     0.188 C 
BRANCH   2   3
ATOM      3  O   UNL A   1      33.499  22.288  24.610  1.00  0.00    -0.376 OA
BRANCH   3   4
ATOM      4  C   UNL A   1      32.128  22.583  23.453  1.00  0.00     0.202 C 
BRANCH   4   5
ATOM      5  C   UNL A   1      30.639  23.853  23.553  1.00  0.00     0.261 C 
BRANCH   5   6
ATOM      6  O   UNL A   1      29.911  25.582  23.596  1.00  0.00    -0.460 OA
BRANCH   6   7
ATOM      7  C   UNL A   1      28.897  26.912  23.577  1.00  0.00     0.340 C 
ATOM      8  O   UNL A   1      27.723  26.849  23.988  1.00  0.00    -0.246 OA
BRANCH   7   9
ATOM      9  C   UNL A   1      28.951  28.513  23.002  1.00  0.00     0.083 A 
ATOM     10  C   UNL A   1      29.976  29.541  22.728  1.00  0.00     0.055 A 
ATOM     11  C   UNL A   1      29.612  30.742  22.059  1.00  0.00     0.027 A 
ATOM     12  C   UNL A   1      28.294  31.049  21.768  1.00  0.00     0.002 A 
ATOM     13  C   UNL A   1      27.629  28.990  22.847  1.00  0.00     0.018 A 
ATOM     14  C   UNL A   1      27.302  30.201  22.216  1.00  0.00     0.001 A 
BRANCH  10  15
ATOM     15  N   UNL A   1      31.378  29.585  23.142  1.00  0.00    -0.324 N 
ATOM     16  C   UNL A   1      32.127  28.433  23.550  1.00  0.00     0.244 C 
ATOM     17  O   UNL A   1      32.886  27.846  22.777  1.00  0.00    -0.273 OA
ATOM     18  H   UNL A   1      31.835  30.457  23.140  1.00  0.00     0.170 HD
BRANCH  16  19
ATOM     19  C   UNL A   1      32.013  27.967  25.025  1.00  0.00     0.230 C 
BRANCH  19  20
ATOM     20  N   UNL A   1      32.985  28.762  25.684  1.00  0.00    -0.259 N 
ATOM     21  C   UNL A   1      34.178  31.851  28.452  1.00  0.00     0.029 C 
ATOM     22  C   UNL A   1      33.668  30.502  27.665  1.00  0.00     0.083 C 
ATOM     23  S   UNL A   1      34.648  28.930  27.310  1.00  0.00    -0.022 SA
ATOM     24  C   UNL A   1      32.602  29.944  26.358  1.00  0.00     0.268 C 
ATOM     25  C   UNL A   1      34.015  28.038  26.090  1.00  0.00     0.294 C 
ATOM     26  O   UNL A   1      31.529  30.377  25.946  1.00  0.00    -0.268 OA
ATOM     27  O   UNL A   1      34.336  26.897  25.826  1.00  0.00    -0.261 OA
BRANCH  21  28
ATOM     28  C   UNL A   1      35.184  33.019  29.530  1.00  0.00    -0.021 A 
ATOM     29  C   UNL A   1      37.731  33.598  28.844  1.00  0.00     0.045 C 
ATOM     30  C   UNL A   1      36.620  33.205  29.839  1.00  0.00    -0.044 A 
ATOM     31  C   UNL A   1      37.136  33.602  31.123  1.00  0.00     0.004 A 
ATOM     32  C   UNL A   1      36.338  34.240  32.018  1.00  0.00     0.000 A 
ATOM     33  C   UNL A   1      34.561  34.011  30.316  1.00  0.00     0.008 A 
ATOM     34  C   UNL A   1      35.103  34.580  31.527  1.00  0.00     0.001 A 
ENDBRANCH  21  28
ENDBRANCH  19  20
ENDBRANCH  16  19
ENDBRANCH  10  15
ENDBRANCH   7   9
ENDBRANCH   6   7
ENDBRANCH   5   6
ENDBRANCH   4   5
ENDBRANCH   3   4
ENDBRANCH   2   3
ENDBRANCH   1   2
BRANCH   1  35
ATOM     35  O   UNL A   1      37.743  22.113  25.801  1.00  0.00    -0.377 OA
BRANCH  35  36
ATOM     36  C   UNL A   1      39.148  22.346  25.768  1.00  0.00     0.188 C 
BRANCH  36  37
ATOM     37  C   UNL A   1      39.832  22.588  27.072  1.00  0.00     0.188 C 
BRANCH  37  38
ATOM     38  O   UNL A   1      41.210  22.633  26.775  1.00  0.00    -0.376 OA
BRANCH  38  39
ATOM     39  C   UNL A   1      42.019  21.920  27.682  1.00  0.00     0.202 C 
BRANCH  39  40
ATOM     40  C   UNL A   1      42.532  20.683  26.965  1.00  0.00     0.261 C 
BRANCH  40  41
ATOM     41  O   UNL A   1      43.874  20.957  26.476  1.00  0.00    -0.460 OA
BRANCH  41  42
ATOM     42  C   UNL A   1      44.092  20.705  25.141  1.00  0.00     0.338 C 
ATOM     43  O   UNL A   1      44.148  19.593  24.642  1.00  0.00    -0.246 OA
BRANCH  42  44
ATOM     44  C   UNL A   1      44.593  21.935  24.447  1.00  0.00     0.060 A 
ATOM     45  C   UNL A   1      45.963  22.171  24.267  1.00  0.00     0.016 A 
ATOM     46  C   UNL A   1      43.785  23.021  24.368  1.00  0.00     0.016 A 
ATOM     47  C   UNL A   1      46.543  23.454  24.550  1.00  0.00     0.010 A 
ATOM     48  C   UNL A   1      44.397  24.257  24.576  1.00  0.00     0.010 A 
ATOM     49  C   UNL A   1      45.781  24.517  25.044  1.00  0.00    -0.014 A 
BRANCH  49  50
ATOM     50  C   UNL A   1      46.437  25.916  26.126  1.00  0.00     0.031 A 
ATOM     51  C   UNL A   1      48.016  25.676  27.409  1.00  0.00     0.074 A 
ATOM     52  C   UNL A   1      45.327  26.905  26.043  1.00  0.00     0.049 A 
ATOM     53  N   UNL A   1      48.003  25.358  28.792  1.00  0.00    -0.248 NA
ATOM     54  C   UNL A   1      49.559  25.197  27.303  1.00  0.00     0.031 C 
ATOM     55  C   UNL A   1      45.248  28.406  26.080  1.00  0.00     0.029 A 
ATOM     56  N   UNL A   1      43.907  26.687  26.439  1.00  0.00    -0.354 N 
ATOM     57  C   UNL A   1      49.245  25.260  29.617  1.00  0.00     0.074 A 
ATOM     58  C   UNL A   1      50.101  24.912  28.516  1.00  0.00     0.031 C 
ATOM     59  C   UNL A   1      44.208  28.849  26.826  1.00  0.00     0.029 A 
ATOM     60  C   UNL A   1      43.510  27.725  27.390  1.00  0.00     0.049 A 
ATOM     61  H   UNL A   1      43.330  25.959  26.113  1.00  0.00     0.167 HD
ATOM     62  C   UNL A   1      49.613  25.701  31.014  1.00  0.00     0.037 A 
ATOM     63  C   UNL A   1      42.633  27.725  28.471  1.00  0.00     0.037 A 
ATOM     64  C   UNL A   1      48.782  26.879  31.875  1.00  0.00     0.049 A 
ATOM     65  C   UNL A   1      42.992  28.030  30.115  1.00  0.00     0.074 A 
ATOM     66  C   UNL A   1      48.943  28.281  32.038  1.00  0.00     0.029 A 
ATOM     67  N   UNL A   1      47.633  26.747  32.704  1.00  0.00    -0.354 N 
ATOM     68  N   UNL A   1      44.139  27.835  30.759  1.00  0.00    -0.248 NA
ATOM     69  C   UNL A   1      42.033  28.508  31.126  1.00  0.00     0.031 C 
ATOM     70  C   UNL A   1      47.682  28.905  32.332  1.00  0.00     0.029 A 
ATOM     71  C   UNL A   1      46.745  27.916  32.592  1.00  0.00     0.049 A 
ATOM     72  H   UNL A   1      47.455  25.971  33.282  1.00  0.00     0.167 HD
ATOM     73  C   UNL A   1      44.170  28.179  32.130  1.00  0.00     0.074 A 
ATOM     74  C   UNL A   1      42.764  28.584  32.274  1.00  0.00     0.031 C 
ATOM     75  C   UNL A   1      45.265  28.014  33.047  1.00  0.00     0.037 A 
BRANCH  62  76
ATOM     76  C   UNL A   1      51.119  25.619  31.517  1.00  0.00     0.057 A 
ATOM     77  C   UNL A   1      51.582  24.515  32.285  1.00  0.00     0.134 A 
ATOM     78  C   UNL A   1      52.103  26.600  31.346  1.00  0.00     0.134 A 
ATOM     79  F   UNL A   1      50.949  23.335  32.302  1.00  0.00    -0.206 F 
ATOM     80  C   UNL A   1      52.770  24.515  33.030  1.00  0.00     0.040 A 
ATOM     81  C   UNL A   1      53.314  26.612  32.077  1.00  0.00     0.040 A 
ATOM     82  F   UNL A   1      51.985  27.547  30.407  1.00  0.00    -0.206 F 
ATOM     83  C   UNL A   1      53.628  25.592  32.965  1.00  0.00     0.006 A 
ENDBRANCH  62  76
BRANCH  63  84
ATOM     84  C   UNL A   1      41.288  27.363  27.847  1.00  0.00     0.057 A 
ATOM     85  C   UNL A   1      40.631  26.294  28.511  1.00  0.00     0.134 A 
ATOM     86  C   UNL A   1      40.450  28.425  27.476  1.00  0.00     0.134 A 
ATOM     87  F   UNL A   1      41.327  25.206  28.877  1.00  0.00    -0.206 F 
ATOM     88  C   UNL A   1      39.355  26.455  29.087  1.00  0.00     0.040 A 
ATOM     89  C   UNL A   1      39.168  28.590  28.027  1.00  0.00     0.040 A 
ATOM     90  F   UNL A   1      40.911  29.425  26.726  1.00  0.00    -0.206 F 
ATOM     91  C   UNL A   1      38.649  27.638  28.898  1.00  0.00     0.006 A 
ENDBRANCH  63  84
BRANCH  75  92
ATOM     92  C   UNL A   1      45.110  27.695  34.586  1.00  0.00     0.057 A 
ATOM     93  C   UNL A   1      44.441  26.586  35.121  1.00  0.00     0.134 A 
ATOM     94  C   UNL A   1      45.993  28.310  35.524  1.00  0.00     0.134 A 
ATOM     95  F   UNL A   1      43.527  25.898  34.434  1.00  0.00    -0.206 F 
ATOM     96  C   UNL A   1      44.763  26.031  36.379  1.00  0.00     0.040 A 
ATOM     97  C   UNL A   1      46.378  27.724  36.739  1.00  0.00     0.040 A 
ATOM     98  F   UNL A   1      46.582  29.491  35.291  1.00  0.00    -0.206 F 
ATOM     99  C   UNL A   1      45.781  26.556  37.160  1.00  0.00     0.006 A 
ENDBRANCH  75  92
ENDBRANCH  49  50
ENDBRANCH  42  44
ENDBRANCH  41  42
ENDBRANCH  40  41
ENDBRANCH  39  40
ENDBRANCH  38  39
ENDBRANCH  37  38
ENDBRANCH  36  37
ENDBRANCH  35  36
ENDBRANCH   1  35
TORSDOF 24
ENDMDL
MODEL 3
REMARK VINA RESULT:     -12.0      3.982      7.767
REMARK SMILES Cc1ccccc1/C=C1\SC(=O)N(CC(=O)Nc2ccccc2C(=O)OCCOCCOCCOCCOC(=O)c2ccc(-c3c4nc(c(-c5c(F)cccc5F)c5ccc([nH]5)c(-c5c(F)cccc5F)c5nc(c(-c6c(F)cccc6F)c6ccc3[nH]6)C=C5)C=C4)cc2)C1=O
REMARK SMILES IDX 31 1 30 2 29 3 28 4 27 5 26 6 24 7 25 8 23 9 18 10 19 11
REMARK SMILES IDX 20 12 22 13 21 14 17 15 15 16 16 17 14 19 13 20 8 21 9 22
REMARK SMILES IDX 10 23 95 24 11 25 96 26 12 27 7 28 1 29 2 30 3 31 4 32 6 33
REMARK SMILES IDX 5 34 32 35 33 36 34 37 35 38 36 39 37 40 38 41 39 42 40 43
REMARK SMILES IDX 41 44 42 45 94 46 43 47 93 48 44 49 45 50 46 51 87 52 47 53
REMARK SMILES IDX 92 54 86 55 88 56 48 57 91 58 85 59 84 60 49 62 75 63 58 64
REMARK SMILES IDX 74 65 59 66 62 67 73 68 89 69 60 70 61 71 72 73 90 74 63 75
REMARK SMILES IDX 50 76 51 77 56 78 52 79 53 80 55 81 57 82 54 83 76 84 77 85
REMARK SMILES IDX 82 86 78 87 79 88 81 89 83 90 80 91 64 92 65 93 70 94 66 95
REMARK SMILES IDX 67 96 69 97 71 98 68 99
REMARK H PARENT 17 18 88 61 62 72
REMARK Flexibility Score: inf
ROOT
ATOM      1  C   UNL A   1      37.580  23.758  26.213  1.00  0.00     0.188 C 
ENDROOT
BRANCH   1   2
ATOM      2  C   UNL A   1      35.940  24.005  25.891  1.00  0.00     0.188 C 
BRANCH   2   3
ATOM      3  O   UNL A   1      34.333  23.456  26.475  1.00  0.00    -0.376 OA
BRANCH   3   4
ATOM      4  C   UNL A   1      32.930  24.307  27.258  1.00  0.00     0.202 C 
BRANCH   4   5
ATOM      5  C   UNL A   1      31.943  25.903  26.695  1.00  0.00     0.261 C 
BRANCH   5   6
ATOM      6  O   UNL A   1      31.822  27.705  26.187  1.00  0.00    -0.460 OA
BRANCH   6   7
ATOM      7  C   UNL A   1      31.447  29.155  25.441  1.00  0.00     0.340 C 
ATOM      8  O   UNL A   1      31.739  30.252  25.953  1.00  0.00    -0.246 OA
BRANCH   7   9
ATOM      9  C   UNL A   1      30.587  29.662  24.062  1.00  0.00     0.083 A 
ATOM     10  C   UNL A   1      30.557  29.350  22.618  1.00  0.00     0.055 A 
ATOM     11  C   UNL A   1      29.528  29.891  21.800  1.00  0.00     0.027 A 
ATOM     12  C   UNL A   1      28.618  30.816  22.280  1.00  0.00     0.002 A 
ATOM     13  C   UNL A   1      29.752  30.746  24.414  1.00  0.00     0.018 A 
ATOM     14  C   UNL A   1      28.770  31.286  23.569  1.00  0.00     0.001 A 
BRANCH  10  15
ATOM     15  N   UNL A   1      31.526  28.610  21.810  1.00  0.00    -0.324 N 
ATOM     16  C   UNL A   1      31.714  27.192  21.887  1.00  0.00     0.244 C 
ATOM     17  O   UNL A   1      31.193  26.424  21.075  1.00  0.00    -0.273 OA
ATOM     18  H   UNL A   1      32.083  29.117  21.174  1.00  0.00     0.170 HD
BRANCH  16  19
ATOM     19  C   UNL A   1      32.652  26.633  22.988  1.00  0.00     0.230 C 
BRANCH  19  20
ATOM     20  N   UNL A   1      32.330  25.252  23.008  1.00  0.00    -0.259 N 
ATOM     21  C   UNL A   1      33.302  21.096  23.643  1.00  0.00     0.029 C 
ATOM     22  C   UNL A   1      32.932  22.694  23.724  1.00  0.00     0.083 C 
ATOM     23  S   UNL A   1      31.250  23.475  24.065  1.00  0.00    -0.022 SA
ATOM     24  C   UNL A   1      33.356  24.281  23.047  1.00  0.00     0.268 C 
ATOM     25  C   UNL A   1      31.150  25.034  23.565  1.00  0.00     0.294 C 
ATOM     26  O   UNL A   1      34.424  24.729  22.637  1.00  0.00    -0.268 OA
ATOM     27  O   UNL A   1      30.260  25.802  23.865  1.00  0.00    -0.261 OA
BRANCH  21  28
ATOM     28  C   UNL A   1      33.205  19.227  23.828  1.00  0.00    -0.021 A 
ATOM     29  C   UNL A   1      32.585  18.160  26.230  1.00  0.00     0.045 C 
ATOM     30  C   UNL A   1      33.407  18.258  24.930  1.00  0.00    -0.044 A 
ATOM     31  C   UNL A   1      33.978  16.946  24.771  1.00  0.00     0.004 A 
ATOM     32  C   UNL A   1      33.983  16.340  23.556  1.00  0.00     0.000 A 
ATOM     33  C   UNL A   1      32.888  18.396  22.732  1.00  0.00     0.008 A 
ATOM     34  C   UNL A   1      33.284  17.015  22.588  1.00  0.00     0.001 A 
ENDBRANCH  21  28
ENDBRANCH  19  20
ENDBRANCH  16  19
ENDBRANCH  10  15
ENDBRANCH   7   9
ENDBRANCH   6   7
ENDBRANCH   5   6
ENDBRANCH   4   5
ENDBRANCH   3   4
ENDBRANCH   2   3
ENDBRANCH   1   2
BRANCH   1  35
ATOM     35  O   UNL A   1      38.623  22.927  25.687  1.00  0.00    -0.377 OA
BRANCH  35  36
ATOM     36  C   UNL A   1      39.064  21.650  26.139  1.00  0.00     0.188 C 
BRANCH  36  37
ATOM     37  C   UNL A   1      40.356  21.599  26.886  1.00  0.00     0.188 C 
BRANCH  37  38
ATOM     38  O   UNL A   1      41.287  21.025  25.995  1.00  0.00    -0.376 OA
BRANCH  38  39
ATOM     39  C   UNL A   1      41.391  19.623  26.094  1.00  0.00     0.202 C 
BRANCH  39  40
ATOM     40  C   UNL A   1      42.868  19.271  26.069  1.00  0.00     0.261 C 
BRANCH  40  41
ATOM     41  O   UNL A   1      43.633  20.499  25.918  1.00  0.00    -0.460 OA
BRANCH  41  42
ATOM     42  C   UNL A   1      44.716  20.434  25.072  1.00  0.00     0.338 C 
ATOM     43  O   UNL A   1      45.545  19.538  25.068  1.00  0.00    -0.246 OA
BRANCH  42  44
ATOM     44  C   UNL A   1      44.944  21.756  24.405  1.00  0.00     0.060 A 
ATOM     45  C   UNL A   1      46.227  22.185  24.039  1.00  0.00     0.016 A 
ATOM     46  C   UNL A   1      44.004  22.726  24.529  1.00  0.00     0.016 A 
ATOM     47  C   UNL A   1      46.681  23.516  24.328  1.00  0.00     0.010 A 
ATOM     48  C   UNL A   1      44.482  24.020  24.735  1.00  0.00     0.010 A 
ATOM     49  C   UNL A   1      45.879  24.439  25.009  1.00  0.00    -0.014 A 
BRANCH  49  50
ATOM     50  C   UNL A   1      46.519  25.852  26.082  1.00  0.00     0.031 A 
ATOM     51  C   UNL A   1      48.094  25.636  27.373  1.00  0.00     0.074 A 
ATOM     52  C   UNL A   1      45.401  26.831  25.985  1.00  0.00     0.049 A 
ATOM     53  N   UNL A   1      48.078  25.329  28.758  1.00  0.00    -0.248 NA
ATOM     54  C   UNL A   1      49.642  25.169  27.277  1.00  0.00     0.031 C 
ATOM     55  C   UNL A   1      45.308  28.332  26.010  1.00  0.00     0.029 A 
ATOM     56  N   UNL A   1      43.981  26.604  26.378  1.00  0.00    -0.354 N 
ATOM     57  C   UNL A   1      49.318  25.249  29.589  1.00  0.00     0.074 A 
ATOM     58  C   UNL A   1      50.182  24.899  28.495  1.00  0.00     0.031 C 
ATOM     59  C   UNL A   1      44.262  28.771  26.748  1.00  0.00     0.029 A 
ATOM     60  C   UNL A   1      43.571  27.646  27.318  1.00  0.00     0.049 A 
ATOM     61  H   UNL A   1      43.411  25.868  26.055  1.00  0.00     0.167 HD
ATOM     62  C   UNL A   1      49.676  25.705  30.984  1.00  0.00     0.037 A 
ATOM     63  C   UNL A   1      42.690  27.647  28.396  1.00  0.00     0.037 A 
ATOM     64  C   UNL A   1      48.832  26.883  31.832  1.00  0.00     0.049 A 
ATOM     65  C   UNL A   1      43.039  27.969  30.039  1.00  0.00     0.074 A 
ATOM     66  C   UNL A   1      48.979  28.287  31.984  1.00  0.00     0.029 A 
ATOM     67  N   UNL A   1      47.680  26.748  32.657  1.00  0.00    -0.354 N 
ATOM     68  N   UNL A   1      44.185  27.789  30.689  1.00  0.00    -0.248 NA
ATOM     69  C   UNL A   1      42.071  28.447  31.042  1.00  0.00     0.031 C 
ATOM     70  C   UNL A   1      47.712  28.903  32.267  1.00  0.00     0.029 A 
ATOM     71  C   UNL A   1      46.782  27.908  32.532  1.00  0.00     0.049 A 
ATOM     72  H   UNL A   1      47.507  25.975  33.241  1.00  0.00     0.167 HD
ATOM     73  C   UNL A   1      44.207  28.145  32.057  1.00  0.00     0.074 A 
ATOM     74  C   UNL A   1      42.797  28.539  32.192  1.00  0.00     0.031 C 
ATOM     75  C   UNL A   1      45.300  27.997  32.980  1.00  0.00     0.037 A 
BRANCH  62  76
ATOM     76  C   UNL A   1      51.180  25.640  31.494  1.00  0.00     0.057 A 
ATOM     77  C   UNL A   1      51.635  24.577  32.322  1.00  0.00     0.134 A 
ATOM     78  C   UNL A   1      52.172  26.603  31.272  1.00  0.00     0.134 A 
ATOM     79  F   UNL A   1      50.994  23.404  32.402  1.00  0.00    -0.206 F 
ATOM     80  C   UNL A   1      52.821  24.608  33.068  1.00  0.00     0.040 A 
ATOM     81  C   UNL A   1      53.382  26.647  32.003  1.00  0.00     0.040 A 
ATOM     82  F   UNL A   1      52.062  27.498  30.283  1.00  0.00    -0.206 F 
ATOM     83  C   UNL A   1      53.687  25.674  32.946  1.00  0.00     0.006 A 
ENDBRANCH  62  76
BRANCH  63  84
ATOM     84  C   UNL A   1      41.351  27.268  27.769  1.00  0.00     0.057 A 
ATOM     85  C   UNL A   1      40.739  26.146  28.388  1.00  0.00     0.134 A 
ATOM     86  C   UNL A   1      40.472  28.317  27.459  1.00  0.00     0.134 A 
ATOM     87  F   UNL A   1      41.477  25.067  28.693  1.00  0.00    -0.206 F 
ATOM     88  C   UNL A   1      39.466  26.235  28.984  1.00  0.00     0.040 A 
ATOM     89  C   UNL A   1      39.192  28.410  28.031  1.00  0.00     0.040 A 
ATOM     90  F   UNL A   1      40.889  29.367  26.753  1.00  0.00    -0.206 F 
ATOM     91  C   UNL A   1      38.717  27.400  28.860  1.00  0.00     0.006 A 
ENDBRANCH  63  84
BRANCH  75  92
ATOM     92  C   UNL A   1      45.141  27.689  34.521  1.00  0.00     0.057 A 
ATOM     93  C   UNL A   1      44.657  26.491  35.063  1.00  0.00     0.134 A 
ATOM     94  C   UNL A   1      45.864  28.471  35.472  1.00  0.00     0.134 A 
ATOM     95  F   UNL A   1      43.906  25.638  34.364  1.00  0.00    -0.206 F 
ATOM     96  C   UNL A   1      45.020  26.030  36.347  1.00  0.00     0.040 A 
ATOM     97  C   UNL A   1      46.296  27.989  36.717  1.00  0.00     0.040 A 
ATOM     98  F   UNL A   1      46.244  29.733  35.226  1.00  0.00    -0.206 F 
ATOM     99  C   UNL A   1      45.897  26.744  37.149  1.00  0.00     0.006 A 
ENDBRANCH  75  92
ENDBRANCH  49  50
ENDBRANCH  42  44
ENDBRANCH  41  42
ENDBRANCH  40  41
ENDBRANCH  39  40
ENDBRANCH  38  39
ENDBRANCH  37  38
ENDBRANCH  36  37
ENDBRANCH  35  36
ENDBRANCH   1  35
TORSDOF 24
ENDMDL
