MODEL 1
REMARK VINA RESULT:     -10.1      0.000      0.000
REMARK SMILES COc1ccc(-c2sc(N)nc2C(=O)OCCOCCOCCOCCOC(=O)c2ccc(-c3c4nc(c(-c5c(F)cccc5F)c5ccc([nH]5)c(-c5c(F)cccc5F)c5nc(c(-c6c(F)cccc6F)c6ccc3[nH]6)C=C5)C=C4)cc2)cc1OC
REMARK SMILES IDX 21 1 20 2 19 3 18 4 17 5 16 6 15 7 13 8 14 9 12 10 7 11 8 12
REMARK SMILES IDX 9 13 11 14 6 15 3 16 4 17 85 18 5 19 84 20 2 21 1 22 86 23
REMARK SMILES IDX 87 24 10 25 22 28 23 29 24 30 25 31 26 32 27 33 28 34 29 35
REMARK SMILES IDX 30 36 31 37 83 38 32 39 82 40 33 41 34 42 35 43 76 44 36 45
REMARK SMILES IDX 81 46 75 47 77 48 37 49 80 50 74 51 73 52 38 54 64 55 47 56
REMARK SMILES IDX 63 57 48 58 51 59 62 60 78 61 49 62 50 63 61 65 79 66 52 67
REMARK SMILES IDX 39 68 40 69 45 70 41 71 42 72 44 73 46 74 43 75 65 76 66 77
REMARK SMILES IDX 71 78 67 79 68 80 70 81 72 82 69 83 53 84 54 85 59 86 55 87
REMARK SMILES IDX 56 88 58 89 60 90 57 91
REMARK H PARENT 10 26 10 27 77 53 51 64
REMARK Flexibility Score: inf
ROOT
ATOM      1  O   UNL A   1      41.217  19.021  25.733  1.00  0.00    -0.377 OA
ENDROOT
BRANCH   1   2
ATOM      2  C   UNL A   1      40.396  20.079  26.219  1.00  0.00     0.188 C 
BRANCH   2   3
ATOM      3  C   UNL A   1      41.026  21.466  26.425  1.00  0.00     0.188 C 
BRANCH   3   4
ATOM      4  O   UNL A   1      40.029  22.492  26.495  1.00  0.00    -0.376 OA
BRANCH   4   5
ATOM      5  C   UNL A   1      38.832  22.218  25.770  1.00  0.00     0.202 C 
BRANCH   5   6
ATOM      6  C   UNL A   1      37.743  23.276  25.996  1.00  0.00     0.261 C 
BRANCH   6   7
ATOM      7  O   UNL A   1      37.198  23.846  24.796  1.00  0.00    -0.458 OA
BRANCH   7   8
ATOM      8  C   UNL A   1      36.343  23.089  24.051  1.00  0.00     0.358 C 
ATOM      9  O   UNL A   1      36.593  22.677  22.924  1.00  0.00    -0.244 OA
BRANCH   8  10
ATOM     10  C   UNL A   1      35.152  22.728  24.823  1.00  0.00     0.169 A 
ATOM     11  C   UNL A   1      34.115  23.597  25.147  1.00  0.00     0.071 A 
ATOM     12  S   UNL A   1      32.886  22.736  25.985  1.00  0.00    -0.096 S 
ATOM     13  C   UNL A   1      33.759  21.277  25.774  1.00  0.00     0.181 A 
ATOM     14  N   UNL A   1      34.913  21.395  25.174  1.00  0.00    -0.213 NA
BRANCH  11  15
ATOM     15  C   UNL A   1      33.900  25.000  24.792  1.00  0.00    -0.002 A 
ATOM     16  C   UNL A   1      33.241  27.672  24.225  1.00  0.00     0.160 A 
ATOM     17  C   UNL A   1      33.196  26.701  23.218  1.00  0.00     0.051 A 
ATOM     18  C   UNL A   1      33.611  27.318  25.524  1.00  0.00     0.161 A 
ATOM     19  C   UNL A   1      33.517  25.370  23.500  1.00  0.00     0.014 A 
ATOM     20  C   UNL A   1      33.983  25.993  25.783  1.00  0.00     0.060 A 
BRANCH  16  21
ATOM     21  O   UNL A   1      32.839  28.938  23.896  1.00  0.00    -0.493 OA
ATOM     22  C   UNL A   1      31.500  28.939  23.404  1.00  0.00     0.278 C 
ENDBRANCH  16  21
BRANCH  18  23
ATOM     23  O   UNL A   1      33.677  28.135  26.621  1.00  0.00    -0.493 OA
ATOM     24  C   UNL A   1      32.488  28.271  27.392  1.00  0.00     0.278 C 
ENDBRANCH  18  23
ENDBRANCH  11  15
BRANCH  13  25
ATOM     25  N   UNL A   1      33.273  20.102  26.181  1.00  0.00    -0.375 N 
ATOM     26  H   UNL A   1      33.240  19.889  27.142  1.00  0.00     0.159 HD
ATOM     27  H   UNL A   1      32.948  19.448  25.521  1.00  0.00     0.159 HD
ENDBRANCH  13  25
ENDBRANCH   8  10
ENDBRANCH   7   8
ENDBRANCH   6   7
ENDBRANCH   5   6
ENDBRANCH   4   5
ENDBRANCH   3   4
ENDBRANCH   2   3
ENDBRANCH   1   2
BRANCH   1  28
ATOM     28  C   UNL A   1      42.527  18.949  26.275  1.00  0.00     0.188 C 
BRANCH  28  29
ATOM     29  C   UNL A   1      43.589  18.702  25.189  1.00  0.00     0.188 C 
BRANCH  29  30
ATOM     30  O   UNL A   1      44.774  19.480  25.370  1.00  0.00    -0.376 OA
BRANCH  30  31
ATOM     31  C   UNL A   1      44.797  20.764  24.754  1.00  0.00     0.202 C 
BRANCH  31  32
ATOM     32  C   UNL A   1      45.065  21.960  25.682  1.00  0.00     0.261 C 
BRANCH  32  33
ATOM     33  O   UNL A   1      44.113  23.034  25.591  1.00  0.00    -0.460 OA
BRANCH  33  34
ATOM     34  C   UNL A   1      44.591  24.284  25.435  1.00  0.00     0.338 C 
ATOM     35  O   UNL A   1      45.438  24.668  24.650  1.00  0.00    -0.246 OA
BRANCH  34  36
ATOM     36  C   UNL A   1      43.766  25.181  26.268  1.00  0.00     0.060 A 
ATOM     37  C   UNL A   1      44.146  26.523  26.386  1.00  0.00     0.016 A 
ATOM     38  C   UNL A   1      42.620  24.704  26.912  1.00  0.00     0.016 A 
ATOM     39  C   UNL A   1      43.403  27.386  27.189  1.00  0.00     0.010 A 
ATOM     40  C   UNL A   1      41.890  25.562  27.735  1.00  0.00     0.010 A 
ATOM     41  C   UNL A   1      42.303  26.894  27.908  1.00  0.00    -0.014 A 
BRANCH  41  42
ATOM     42  C   UNL A   1      41.755  27.693  29.026  1.00  0.00     0.031 A 
ATOM     43  C   UNL A   1      42.456  27.605  30.354  1.00  0.00     0.074 A 
ATOM     44  C   UNL A   1      40.686  28.492  28.872  1.00  0.00     0.049 A 
ATOM     45  N   UNL A   1      42.181  28.204  31.483  1.00  0.00    -0.248 NA
ATOM     46  C   UNL A   1      43.631  26.717  30.413  1.00  0.00     0.031 C 
ATOM     47  C   UNL A   1      39.941  28.686  27.630  1.00  0.00     0.029 A 
ATOM     48  N   UNL A   1      40.042  29.291  29.782  1.00  0.00    -0.354 N 
ATOM     49  C   UNL A   1      43.156  27.781  32.377  1.00  0.00     0.074 A 
ATOM     50  C   UNL A   1      44.007  26.846  31.675  1.00  0.00     0.031 C 
ATOM     51  C   UNL A   1      38.933  29.548  27.859  1.00  0.00     0.029 A 
ATOM     52  C   UNL A   1      38.954  29.951  29.265  1.00  0.00     0.049 A 
ATOM     53  H   UNL A   1      40.332  29.384  30.719  1.00  0.00     0.167 HD
ATOM     54  C   UNL A   1      43.336  28.146  33.667  1.00  0.00     0.037 A 
ATOM     55  C   UNL A   1      38.077  30.775  29.869  1.00  0.00     0.037 A 
ATOM     56  C   UNL A   1      42.477  29.050  34.378  1.00  0.00     0.049 A 
ATOM     57  C   UNL A   1      38.251  31.104  31.329  1.00  0.00     0.074 A 
ATOM     58  C   UNL A   1      42.560  29.465  35.695  1.00  0.00     0.029 A 
ATOM     59  N   UNL A   1      41.370  29.674  33.826  1.00  0.00    -0.354 N 
ATOM     60  N   UNL A   1      39.190  30.717  32.160  1.00  0.00    -0.248 NA
ATOM     61  C   UNL A   1      37.244  31.988  31.934  1.00  0.00     0.031 C 
ATOM     62  C   UNL A   1      41.480  30.319  35.949  1.00  0.00     0.029 A 
ATOM     63  C   UNL A   1      40.751  30.464  34.779  1.00  0.00     0.049 A 
ATOM     64  H   UNL A   1      41.068  29.571  32.895  1.00  0.00     0.167 HD
ATOM     65  C   UNL A   1      38.906  31.336  33.372  1.00  0.00     0.074 A 
ATOM     66  C   UNL A   1      37.711  32.128  33.167  1.00  0.00     0.031 C 
ATOM     67  C   UNL A   1      39.575  31.260  34.548  1.00  0.00     0.037 A 
BRANCH  54  68
ATOM     68  C   UNL A   1      44.503  27.543  34.386  1.00  0.00     0.057 A 
ATOM     69  C   UNL A   1      45.777  28.126  34.329  1.00  0.00     0.134 A 
ATOM     70  C   UNL A   1      44.357  26.373  35.139  1.00  0.00     0.134 A 
ATOM     71  F   UNL A   1      45.985  29.235  33.603  1.00  0.00    -0.206 F 
ATOM     72  C   UNL A   1      46.869  27.554  34.983  1.00  0.00     0.040 A 
ATOM     73  C   UNL A   1      45.437  25.805  35.816  1.00  0.00     0.040 A 
ATOM     74  F   UNL A   1      43.165  25.766  35.228  1.00  0.00    -0.206 F 
ATOM     75  C   UNL A   1      46.698  26.392  35.734  1.00  0.00     0.006 A 
ENDBRANCH  54  68
BRANCH  55  76
ATOM     76  C   UNL A   1      36.948  31.360  29.102  1.00  0.00     0.057 A 
ATOM     77  C   UNL A   1      36.972  32.695  28.682  1.00  0.00     0.134 A 
ATOM     78  C   UNL A   1      35.799  30.615  28.815  1.00  0.00     0.134 A 
ATOM     79  F   UNL A   1      38.034  33.468  28.953  1.00  0.00    -0.206 F 
ATOM     80  C   UNL A   1      35.886  33.275  28.023  1.00  0.00     0.040 A 
ATOM     81  C   UNL A   1      34.715  31.175  28.136  1.00  0.00     0.040 A 
ATOM     82  F   UNL A   1      35.712  29.331  29.195  1.00  0.00    -0.206 F 
ATOM     83  C   UNL A   1      34.754  32.512  27.746  1.00  0.00     0.006 A 
ENDBRANCH  55  76
BRANCH  67  84
ATOM     84  C   UNL A   1      39.062  32.088  35.687  1.00  0.00     0.057 A 
ATOM     85  C   UNL A   1      38.236  31.548  36.680  1.00  0.00     0.134 A 
ATOM     86  C   UNL A   1      39.442  33.430  35.815  1.00  0.00     0.134 A 
ATOM     87  F   UNL A   1      37.830  30.271  36.608  1.00  0.00    -0.206 F 
ATOM     88  C   UNL A   1      37.789  32.321  37.753  1.00  0.00     0.040 A 
ATOM     89  C   UNL A   1      39.019  34.206  36.894  1.00  0.00     0.040 A 
ATOM     90  F   UNL A   1      40.240  34.002  34.902  1.00  0.00    -0.206 F 
ATOM     91  C   UNL A   1      38.187  33.653  37.865  1.00  0.00     0.006 A 
ENDBRANCH  67  84
ENDBRANCH  41  42
ENDBRANCH  34  36
ENDBRANCH  33  34
ENDBRANCH  32  33
ENDBRANCH  31  32
ENDBRANCH  30  31
ENDBRANCH  29  30
ENDBRANCH  28  29
ENDBRANCH   1  28
TORSDOF 24
ENDMDL
MODEL 2
REMARK VINA RESULT:     -10.1      0.879      2.048
REMARK SMILES COc1ccc(-c2sc(N)nc2C(=O)OCCOCCOCCOCCOC(=O)c2ccc(-c3c4nc(c(-c5c(F)cccc5F)c5ccc([nH]5)c(-c5c(F)cccc5F)c5nc(c(-c6c(F)cccc6F)c6ccc3[nH]6)C=C5)C=C4)cc2)cc1OC
REMARK SMILES IDX 21 1 20 2 19 3 18 4 17 5 16 6 15 7 13 8 14 9 12 10 7 11 8 12
REMARK SMILES IDX 9 13 11 14 6 15 3 16 4 17 85 18 5 19 84 20 2 21 1 22 86 23
REMARK SMILES IDX 87 24 10 25 22 28 23 29 24 30 25 31 26 32 27 33 28 34 29 35
REMARK SMILES IDX 30 36 31 37 83 38 32 39 82 40 33 41 34 42 35 43 76 44 36 45
REMARK SMILES IDX 81 46 75 47 77 48 37 49 80 50 74 51 73 52 38 54 64 55 47 56
REMARK SMILES IDX 63 57 48 58 51 59 62 60 78 61 49 62 50 63 61 65 79 66 52 67
REMARK SMILES IDX 39 68 40 69 45 70 41 71 42 72 44 73 46 74 43 75 65 76 66 77
REMARK SMILES IDX 71 78 67 79 68 80 70 81 72 82 69 83 53 84 54 85 59 86 55 87
REMARK SMILES IDX 56 88 58 89 60 90 57 91
REMARK H PARENT 10 26 10 27 77 53 51 64
REMARK Flexibility Score: inf
ROOT
ATOM      1  O   UNL A   1      41.913  19.059  25.393  1.00  0.00    -0.377 OA
ENDROOT
BRANCH   1   2
ATOM      2  C   UNL A   1      41.179  19.950  26.228  1.00  0.00     0.188 C 
BRANCH   2   3
ATOM      3  C   UNL A   1      41.744  21.357  26.479  1.00  0.00     0.188 C 
BRANCH   3   4
ATOM      4  O   UNL A   1      40.806  22.375  26.111  1.00  0.00    -0.376 OA
BRANCH   4   5
ATOM      5  C   UNL A   1      39.558  22.321  26.801  1.00  0.00     0.202 C 
BRANCH   5   6
ATOM      6  C   UNL A   1      38.381  22.796  25.940  1.00  0.00     0.261 C 
BRANCH   6   7
ATOM      7  O   UNL A   1      37.448  21.767  25.573  1.00  0.00    -0.458 OA
BRANCH   7   8
ATOM      8  C   UNL A   1      36.606  22.001  24.527  1.00  0.00     0.358 C 
ATOM      9  O   UNL A   1      36.949  22.524  23.473  1.00  0.00    -0.244 OA
BRANCH   8  10
ATOM     10  C   UNL A   1      35.281  21.431  24.780  1.00  0.00     0.169 A 
ATOM     11  C   UNL A   1      34.092  22.153  24.813  1.00  0.00     0.071 A 
ATOM     12  S   UNL A   1      32.775  21.076  25.057  1.00  0.00    -0.096 S 
ATOM     13  C   UNL A   1      33.849  19.743  25.004  1.00  0.00     0.181 A 
ATOM     14  N   UNL A   1      35.113  20.045  24.869  1.00  0.00    -0.213 NA
BRANCH  11  15
ATOM     15  C   UNL A   1      33.830  23.571  24.567  1.00  0.00    -0.002 A 
ATOM     16  C   UNL A   1      33.592  26.319  24.032  1.00  0.00     0.160 A 
ATOM     17  C   UNL A   1      33.634  25.855  25.351  1.00  0.00     0.051 A 
ATOM     18  C   UNL A   1      33.673  25.418  22.968  1.00  0.00     0.161 A 
ATOM     19  C   UNL A   1      33.759  24.488  25.619  1.00  0.00     0.014 A 
ATOM     20  C   UNL A   1      33.743  24.048  23.248  1.00  0.00     0.060 A 
BRANCH  16  21
ATOM     21  O   UNL A   1      33.547  27.674  23.844  1.00  0.00    -0.493 OA
ATOM     22  C   UNL A   1      33.834  28.369  25.056  1.00  0.00     0.278 C 
ENDBRANCH  16  21
BRANCH  18  23
ATOM     23  O   UNL A   1      33.675  25.709  21.630  1.00  0.00    -0.493 OA
ATOM     24  C   UNL A   1      32.406  25.831  20.997  1.00  0.00     0.278 C 
ENDBRANCH  18  23
ENDBRANCH  11  15
BRANCH  13  25
ATOM     25  N   UNL A   1      33.411  18.484  25.076  1.00  0.00    -0.375 N 
ATOM     26  H   UNL A   1      32.588  18.221  24.602  1.00  0.00     0.159 HD
ATOM     27  H   UNL A   1      33.910  17.818  25.602  1.00  0.00     0.159 HD
ENDBRANCH  13  25
ENDBRANCH   8  10
ENDBRANCH   7   8
ENDBRANCH   6   7
ENDBRANCH   5   6
ENDBRANCH   4   5
ENDBRANCH   3   4
ENDBRANCH   2   3
ENDBRANCH   1   2
BRANCH   1  28
ATOM     28  C   UNL A   1      43.253  18.799  25.784  1.00  0.00     0.188 C 
BRANCH  28  29
ATOM     29  C   UNL A   1      44.269  19.385  24.787  1.00  0.00     0.188 C 
BRANCH  29  30
ATOM     30  O   UNL A   1      45.236  20.240  25.402  1.00  0.00    -0.376 OA
BRANCH  30  31
ATOM     31  C   UNL A   1      45.710  21.334  24.623  1.00  0.00     0.202 C 
BRANCH  31  32
ATOM     32  C   UNL A   1      44.672  22.403  24.247  1.00  0.00     0.261 C 
BRANCH  32  33
ATOM     33  O   UNL A   1      44.286  23.286  25.314  1.00  0.00    -0.460 OA
BRANCH  33  34
ATOM     34  C   UNL A   1      44.790  24.537  25.307  1.00  0.00     0.338 C 
ATOM     35  O   UNL A   1      45.683  24.977  24.608  1.00  0.00    -0.246 OA
BRANCH  34  36
ATOM     36  C   UNL A   1      43.935  25.364  26.181  1.00  0.00     0.060 A 
ATOM     37  C   UNL A   1      44.133  26.750  26.193  1.00  0.00     0.016 A 
ATOM     38  C   UNL A   1      42.939  24.778  26.967  1.00  0.00     0.016 A 
ATOM     39  C   UNL A   1      43.361  27.553  27.030  1.00  0.00     0.010 A 
ATOM     40  C   UNL A   1      42.182  25.580  27.823  1.00  0.00     0.010 A 
ATOM     41  C   UNL A   1      42.420  26.963  27.886  1.00  0.00    -0.014 A 
BRANCH  41  42
ATOM     42  C   UNL A   1      41.881  27.749  29.018  1.00  0.00     0.031 A 
ATOM     43  C   UNL A   1      42.614  27.674  30.329  1.00  0.00     0.074 A 
ATOM     44  C   UNL A   1      40.791  28.525  28.890  1.00  0.00     0.049 A 
ATOM     45  N   UNL A   1      42.352  28.266  31.466  1.00  0.00    -0.248 NA
ATOM     46  C   UNL A   1      43.809  26.813  30.360  1.00  0.00     0.031 C 
ATOM     47  C   UNL A   1      40.013  28.704  27.666  1.00  0.00     0.029 A 
ATOM     48  N   UNL A   1      40.152  29.309  29.816  1.00  0.00    -0.354 N 
ATOM     49  C   UNL A   1      43.356  27.864  32.335  1.00  0.00     0.074 A 
ATOM     50  C   UNL A   1      44.210  26.949  31.613  1.00  0.00     0.031 C 
ATOM     51  C   UNL A   1      38.993  29.544  27.919  1.00  0.00     0.029 A 
ATOM     52  C   UNL A   1      39.038  29.945  29.325  1.00  0.00     0.049 A 
ATOM     53  H   UNL A   1      40.461  29.407  30.746  1.00  0.00     0.167 HD
ATOM     54  C   UNL A   1      43.559  28.231  33.622  1.00  0.00     0.037 A 
ATOM     55  C   UNL A   1      38.157  30.750  29.950  1.00  0.00     0.037 A 
ATOM     56  C   UNL A   1      42.697  29.116  34.354  1.00  0.00     0.049 A 
ATOM     57  C   UNL A   1      38.358  31.081  31.406  1.00  0.00     0.074 A 
ATOM     58  C   UNL A   1      42.801  29.531  35.669  1.00  0.00     0.029 A 
ATOM     59  N   UNL A   1      41.564  29.716  33.829  1.00  0.00    -0.354 N 
ATOM     60  N   UNL A   1      39.323  30.713  32.215  1.00  0.00    -0.248 NA
ATOM     61  C   UNL A   1      37.346  31.942  32.036  1.00  0.00     0.031 C 
ATOM     62  C   UNL A   1      41.709  30.361  35.949  1.00  0.00     0.029 A 
ATOM     63  C   UNL A   1      40.950  30.492  34.797  1.00  0.00     0.049 A 
ATOM     64  H   UNL A   1      41.243  29.608  32.904  1.00  0.00     0.167 HD
ATOM     65  C   UNL A   1      39.054  31.326  33.433  1.00  0.00     0.074 A 
ATOM     66  C   UNL A   1      37.838  32.091  33.258  1.00  0.00     0.031 C 
ATOM     67  C   UNL A   1      39.752  31.263  34.594  1.00  0.00     0.037 A 
BRANCH  54  68
ATOM     68  C   UNL A   1      44.755  27.653  34.313  1.00  0.00     0.057 A 
ATOM     69  C   UNL A   1      44.706  26.395  34.928  1.00  0.00     0.134 A 
ATOM     70  C   UNL A   1      45.962  28.358  34.368  1.00  0.00     0.134 A 
ATOM     71  F   UNL A   1      43.569  25.683  34.930  1.00  0.00    -0.206 F 
ATOM     72  C   UNL A   1      45.815  25.864  35.589  1.00  0.00     0.040 A 
ATOM     73  C   UNL A   1      47.084  27.828  35.007  1.00  0.00     0.040 A 
ATOM     74  F   UNL A   1      46.070  29.569  33.803  1.00  0.00    -0.206 F 
ATOM     75  C   UNL A   1      47.010  26.581  35.624  1.00  0.00     0.006 A 
ENDBRANCH  54  68
BRANCH  55  76
ATOM     76  C   UNL A   1      36.998  31.311  29.210  1.00  0.00     0.057 A 
ATOM     77  C   UNL A   1      35.883  30.521  28.906  1.00  0.00     0.134 A 
ATOM     78  C   UNL A   1      36.999  32.631  28.746  1.00  0.00     0.134 A 
ATOM     79  F   UNL A   1      35.837  29.239  29.299  1.00  0.00    -0.206 F 
ATOM     80  C   UNL A   1      34.819  31.017  28.150  1.00  0.00     0.040 A 
ATOM     81  C   UNL A   1      35.932  33.147  28.009  1.00  0.00     0.040 A 
ATOM     82  F   UNL A   1      38.040  33.437  29.001  1.00  0.00    -0.206 F 
ATOM     83  C   UNL A   1      34.842  32.336  27.702  1.00  0.00     0.006 A 
ENDBRANCH  55  76
BRANCH  67  84
ATOM     84  C   UNL A   1      39.248  32.078  35.746  1.00  0.00     0.057 A 
ATOM     85  C   UNL A   1      39.627  33.414  35.928  1.00  0.00     0.134 A 
ATOM     86  C   UNL A   1      38.336  31.531  36.655  1.00  0.00     0.134 A 
ATOM     87  F   UNL A   1      40.506  33.992  35.096  1.00  0.00    -0.206 F 
ATOM     88  C   UNL A   1      39.128  34.172  36.988  1.00  0.00     0.040 A 
ATOM     89  C   UNL A   1      37.813  32.286  37.706  1.00  0.00     0.040 A 
ATOM     90  F   UNL A   1      37.926  30.260  36.529  1.00  0.00    -0.206 F 
ATOM     91  C   UNL A   1      38.212  33.609  37.877  1.00  0.00     0.006 A 
ENDBRANCH  67  84
ENDBRANCH  41  42
ENDBRANCH  34  36
ENDBRANCH  33  34
ENDBRANCH  32  33
ENDBRANCH  31  32
ENDBRANCH  30  31
ENDBRANCH  29  30
ENDBRANCH  28  29
ENDBRANCH   1  28
TORSDOF 24
ENDMDL
MODEL 3
REMARK VINA RESULT:      -9.1      4.321      6.877
REMARK SMILES COc1ccc(-c2sc(N)nc2C(=O)OCCOCCOCCOCCOC(=O)c2ccc(-c3c4nc(c(-c5c(F)cccc5F)c5ccc([nH]5)c(-c5c(F)cccc5F)c5nc(c(-c6c(F)cccc6F)c6ccc3[nH]6)C=C5)C=C4)cc2)cc1OC
REMARK SMILES IDX 21 1 20 2 19 3 18 4 17 5 16 6 15 7 13 8 14 9 12 10 7 11 8 12
REMARK SMILES IDX 9 13 11 14 6 15 3 16 4 17 85 18 5 19 84 20 2 21 1 22 86 23
REMARK SMILES IDX 87 24 10 25 22 28 23 29 24 30 25 31 26 32 27 33 28 34 29 35
REMARK SMILES IDX 30 36 31 37 83 38 32 39 82 40 33 41 34 42 35 43 76 44 36 45
REMARK SMILES IDX 81 46 75 47 77 48 37 49 80 50 74 51 73 52 38 54 64 55 47 56
REMARK SMILES IDX 63 57 48 58 51 59 62 60 78 61 49 62 50 63 61 65 79 66 52 67
REMARK SMILES IDX 39 68 40 69 45 70 41 71 42 72 44 73 46 74 43 75 65 76 66 77
REMARK SMILES IDX 71 78 67 79 68 80 70 81 72 82 69 83 53 84 54 85 59 86 55 87
REMARK SMILES IDX 56 88 58 89 60 90 57 91
REMARK H PARENT 10 26 10 27 77 53 51 64
REMARK Flexibility Score: inf
ROOT
ATOM      1  O   UNL A   1      39.651  21.844  27.239  1.00  0.00    -0.377 OA
ENDROOT
BRANCH   1   2
ATOM      2  C   UNL A   1      39.073  22.008  25.947  1.00  0.00     0.188 C 
BRANCH   2   3
ATOM      3  C   UNL A   1      37.609  22.470  25.849  1.00  0.00     0.188 C 
BRANCH   3   4
ATOM      4  O   UNL A   1      37.194  22.617  24.485  1.00  0.00    -0.376 OA
BRANCH   4   5
ATOM      5  C   UNL A   1      35.816  22.342  24.243  1.00  0.00     0.202 C 
BRANCH   5   6
ATOM      6  C   UNL A   1      35.196  23.281  23.200  1.00  0.00     0.261 C 
BRANCH   6   7
ATOM      7  O   UNL A   1      34.550  24.444  23.743  1.00  0.00    -0.458 OA
BRANCH   7   8
ATOM      8  C   UNL A   1      33.284  24.732  23.328  1.00  0.00     0.358 C 
ATOM      9  O   UNL A   1      32.988  25.020  22.175  1.00  0.00    -0.244 OA
BRANCH   8  10
ATOM     10  C   UNL A   1      32.317  24.527  24.409  1.00  0.00     0.169 A 
ATOM     11  C   UNL A   1      31.363  25.454  24.816  1.00  0.00     0.071 A 
ATOM     12  S   UNL A   1      30.389  24.768  26.054  1.00  0.00    -0.096 S 
ATOM     13  C   UNL A   1      31.226  23.283  25.896  1.00  0.00     0.181 A 
ATOM     14  N   UNL A   1      32.204  23.279  25.029  1.00  0.00    -0.213 NA
BRANCH  11  15
ATOM     15  C   UNL A   1      31.033  26.778  24.286  1.00  0.00    -0.002 A 
ATOM     16  C   UNL A   1      30.210  29.337  23.466  1.00  0.00     0.160 A 
ATOM     17  C   UNL A   1      29.812  28.201  22.752  1.00  0.00     0.051 A 
ATOM     18  C   UNL A   1      31.019  29.206  24.597  1.00  0.00     0.161 A 
ATOM     19  C   UNL A   1      30.215  26.926  23.164  1.00  0.00     0.014 A 
ATOM     20  C   UNL A   1      31.461  27.930  24.968  1.00  0.00     0.060 A 
BRANCH  16  21
ATOM     21  O   UNL A   1      29.715  30.544  23.053  1.00  0.00    -0.493 OA
ATOM     22  C   UNL A   1      28.976  30.407  21.840  1.00  0.00     0.278 C 
ENDBRANCH  16  21
BRANCH  18  23
ATOM     23  O   UNL A   1      31.468  30.206  25.416  1.00  0.00    -0.493 OA
ATOM     24  C   UNL A   1      32.711  29.988  26.075  1.00  0.00     0.278 C 
ENDBRANCH  18  23
ENDBRANCH  11  15
BRANCH  13  25
ATOM     25  N   UNL A   1      30.882  22.202  26.601  1.00  0.00    -0.375 N 
ATOM     26  H   UNL A   1      31.262  21.323  26.372  1.00  0.00     0.159 HD
ATOM     27  H   UNL A   1      30.248  22.284  27.350  1.00  0.00     0.159 HD
ENDBRANCH  13  25
ENDBRANCH   8  10
ENDBRANCH   7   8
ENDBRANCH   6   7
ENDBRANCH   5   6
ENDBRANCH   4   5
ENDBRANCH   3   4
ENDBRANCH   2   3
ENDBRANCH   1   2
BRANCH   1  28
ATOM     28  C   UNL A   1      41.067  21.919  27.303  1.00  0.00     0.188 C 
BRANCH  28  29
ATOM     29  C   UNL A   1      41.741  21.014  26.257  1.00  0.00     0.188 C 
BRANCH  29  30
ATOM     30  O   UNL A   1      42.049  19.709  26.754  1.00  0.00    -0.376 OA
BRANCH  30  31
ATOM     31  C   UNL A   1      42.300  18.698  25.783  1.00  0.00     0.202 C 
BRANCH  31  32
ATOM     32  C   UNL A   1      43.773  18.453  25.419  1.00  0.00     0.261 C 
BRANCH  32  33
ATOM     33  O   UNL A   1      44.205  19.040  24.180  1.00  0.00    -0.460 OA
BRANCH  33  34
ATOM     34  C   UNL A   1      45.381  19.701  24.174  1.00  0.00     0.338 C 
ATOM     35  O   UNL A   1      46.429  19.355  23.662  1.00  0.00    -0.246 OA
BRANCH  34  36
ATOM     36  C   UNL A   1      45.140  21.038  24.749  1.00  0.00     0.060 A 
ATOM     37  C   UNL A   1      44.690  22.059  23.902  1.00  0.00     0.016 A 
ATOM     38  C   UNL A   1      45.341  21.278  26.111  1.00  0.00     0.016 A 
ATOM     39  C   UNL A   1      44.482  23.340  24.411  1.00  0.00     0.010 A 
ATOM     40  C   UNL A   1      45.156  22.566  26.615  1.00  0.00     0.010 A 
ATOM     41  C   UNL A   1      44.766  23.608  25.758  1.00  0.00    -0.014 A 
BRANCH  41  42
ATOM     42  C   UNL A   1      44.907  25.014  26.200  1.00  0.00     0.031 A 
ATOM     43  C   UNL A   1      46.268  25.643  26.093  1.00  0.00     0.074 A 
ATOM     44  C   UNL A   1      43.862  25.723  26.660  1.00  0.00     0.049 A 
ATOM     45  N   UNL A   1      46.654  26.853  26.407  1.00  0.00    -0.248 NA
ATOM     46  C   UNL A   1      47.342  24.789  25.557  1.00  0.00     0.031 C 
ATOM     47  C   UNL A   1      42.490  25.234  26.782  1.00  0.00     0.029 A 
ATOM     48  N   UNL A   1      43.803  27.016  27.113  1.00  0.00    -0.354 N 
ATOM     49  C   UNL A   1      48.004  26.908  26.090  1.00  0.00     0.074 A 
ATOM     50  C   UNL A   1      48.384  25.603  25.596  1.00  0.00     0.031 C 
ATOM     51  C   UNL A   1      41.722  26.219  27.285  1.00  0.00     0.029 A 
ATOM     52  C   UNL A   1      42.553  27.396  27.536  1.00  0.00     0.049 A 
ATOM     53  H   UNL A   1      44.584  27.616  27.134  1.00  0.00     0.167 HD
ATOM     54  C   UNL A   1      48.855  27.955  26.189  1.00  0.00     0.037 A 
ATOM     55  C   UNL A   1      42.139  28.561  28.071  1.00  0.00     0.037 A 
ATOM     56  C   UNL A   1      48.491  29.244  26.707  1.00  0.00     0.049 A 
ATOM     57  C   UNL A   1      43.124  29.687  28.247  1.00  0.00     0.074 A 
ATOM     58  C   UNL A   1      49.285  30.364  26.872  1.00  0.00     0.029 A 
ATOM     59  N   UNL A   1      47.222  29.579  27.150  1.00  0.00    -0.354 N 
ATOM     60  N   UNL A   1      44.394  29.737  27.923  1.00  0.00    -0.248 NA
ATOM     61  C   UNL A   1      42.615  30.922  28.862  1.00  0.00     0.031 C 
ATOM     62  C   UNL A   1      48.501  31.371  27.447  1.00  0.00     0.029 A 
ATOM     63  C   UNL A   1      47.212  30.888  27.602  1.00  0.00     0.049 A 
ATOM     64  H   UNL A   1      46.443  28.977  27.146  1.00  0.00     0.167 HD
ATOM     65  C   UNL A   1      44.825  31.015  28.261  1.00  0.00     0.074 A 
ATOM     66  C   UNL A   1      43.680  31.710  28.812  1.00  0.00     0.031 C 
ATOM     67  C   UNL A   1      46.056  31.566  28.126  1.00  0.00     0.037 A 
BRANCH  54  68
ATOM     68  C   UNL A   1      50.265  27.730  25.741  1.00  0.00     0.057 A 
ATOM     69  C   UNL A   1      50.611  27.739  24.382  1.00  0.00     0.134 A 
ATOM     70  C   UNL A   1      51.286  27.499  26.669  1.00  0.00     0.134 A 
ATOM     71  F   UNL A   1      49.671  27.930  23.444  1.00  0.00    -0.206 F 
ATOM     72  C   UNL A   1      51.922  27.510  23.963  1.00  0.00     0.040 A 
ATOM     73  C   UNL A   1      52.605  27.290  26.263  1.00  0.00     0.040 A 
ATOM     74  F   UNL A   1      51.019  27.473  27.983  1.00  0.00    -0.206 F 
ATOM     75  C   UNL A   1      52.924  27.290  24.906  1.00  0.00     0.006 A 
ENDBRANCH  54  68
BRANCH  55  76
ATOM     76  C   UNL A   1      40.723  28.736  28.481  1.00  0.00     0.057 A 
ATOM     77  C   UNL A   1      40.317  28.500  29.801  1.00  0.00     0.134 A 
ATOM     78  C   UNL A   1      39.736  29.092  27.557  1.00  0.00     0.134 A 
ATOM     79  F   UNL A   1      41.214  28.128  30.726  1.00  0.00    -0.206 F 
ATOM     80  C   UNL A   1      38.978  28.594  30.181  1.00  0.00     0.040 A 
ATOM     81  C   UNL A   1      38.395  29.211  27.929  1.00  0.00     0.040 A 
ATOM     82  F   UNL A   1      40.060  29.327  26.277  1.00  0.00    -0.206 F 
ATOM     83  C   UNL A   1      38.012  28.953  29.243  1.00  0.00     0.006 A 
ENDBRANCH  55  76
BRANCH  67  84
ATOM     84  C   UNL A   1      46.218  32.999  28.532  1.00  0.00     0.057 A 
ATOM     85  C   UNL A   1      46.605  33.361  29.828  1.00  0.00     0.134 A 
ATOM     86  C   UNL A   1      46.029  34.026  27.599  1.00  0.00     0.134 A 
ATOM     87  F   UNL A   1      46.792  32.423  30.769  1.00  0.00    -0.206 F 
ATOM     88  C   UNL A   1      46.782  34.698  30.187  1.00  0.00     0.040 A 
ATOM     89  C   UNL A   1      46.224  35.365  27.940  1.00  0.00     0.040 A 
ATOM     90  F   UNL A   1      45.667  33.744  26.339  1.00  0.00    -0.206 F 
ATOM     91  C   UNL A   1      46.597  35.704  29.239  1.00  0.00     0.006 A 
ENDBRANCH  67  84
ENDBRANCH  41  42
ENDBRANCH  34  36
ENDBRANCH  33  34
ENDBRANCH  32  33
ENDBRANCH  31  32
ENDBRANCH  30  31
ENDBRANCH  29  30
ENDBRANCH  28  29
ENDBRANCH   1  28
TORSDOF 24
ENDMDL
