MODEL 1
REMARK VINA RESULT:      -8.5      0.000      0.000
REMARK SMILES C[N@H+]1CCO[C@H](CNc2nnc(SCC(=O)OCCOCCOCCOCCOC(=O)c3ccc(-c4c5nc(c(-c6c(F)cccc6F)c6ccc([nH]6)c(-c6c(F)cccc6F)c6nc(c(-c7c(F)cccc7F)c7ccc4[nH]7)C=C6)C=C5)cc3)s2)C1
REMARK SMILES IDX 21 1 20 2 19 3 18 4 17 5 15 6 16 7 14 8 13 9 12 10 9 11
REMARK SMILES IDX 10 12 86 13 11 14 8 15 7 17 6 18 1 19 2 20 3 21 87 22 4 24
REMARK SMILES IDX 5 25 22 26 23 27 24 28 25 29 26 30 27 31 28 32 29 33 30 34
REMARK SMILES IDX 31 35 32 36 33 37 85 38 34 39 84 40 35 41 36 42 37 43 78 44
REMARK SMILES IDX 38 45 83 46 77 47 79 48 39 49 82 50 76 51 75 52 40 54 66 55
REMARK SMILES IDX 49 56 65 57 50 58 53 59 64 60 80 61 51 62 52 63 63 65 81 66
REMARK SMILES IDX 54 67 41 68 42 69 47 70 43 71 44 72 46 73 48 74 45 75 67 76
REMARK SMILES IDX 68 77 73 78 69 79 70 80 72 81 74 82 71 83 55 84 56 85 61 86
REMARK SMILES IDX 57 87 58 88 60 89 62 90 59 91
REMARK H PARENT 8 16 2 23 79 53 53 64
REMARK Flexibility Score: inf
ROOT
ATOM      1  C   UNL A   1      33.043  25.281  25.151  1.00  0.00     0.188 C 
ENDROOT
BRANCH   1   2
ATOM      2  O   UNL A   1      33.238  24.174  25.998  1.00  0.00    -0.376 OA
BRANCH   2   3
ATOM      3  C   UNL A   1      34.516  23.556  25.987  1.00  0.00     0.202 C 
BRANCH   3   4
ATOM      4  C   UNL A   1      35.725  24.316  25.392  1.00  0.00     0.261 C 
BRANCH   4   5
ATOM      5  O   UNL A   1      37.001  23.612  25.326  1.00  0.00    -0.463 OA
BRANCH   5   6
ATOM      6  C   UNL A   1      37.011  22.388  24.732  1.00  0.00     0.316 C 
ATOM      7  O   UNL A   1      36.909  22.239  23.514  1.00  0.00    -0.251 OA
BRANCH   6   8
ATOM      8  C   UNL A   1      37.059  21.166  25.642  1.00  0.00     0.200 C 
BRANCH   8   9
ATOM      9  S   UNL A   1      38.140  19.791  25.247  1.00  0.00    -0.082 SA
BRANCH   9  10
ATOM     10  C   UNL A   1      39.822  20.230  25.625  1.00  0.00     0.176 A 
ATOM     11  C   UNL A   1      41.540  20.859  27.193  1.00  0.00     0.206 A 
ATOM     12  N   UNL A   1      41.694  19.634  26.724  1.00  0.00    -0.119 NA
ATOM     13  S   UNL A   1      40.433  21.752  26.186  1.00  0.00    -0.069 S 
ATOM     14  N   UNL A   1      40.688  19.259  25.840  1.00  0.00    -0.130 NA
BRANCH  11  15
ATOM     15  N   UNL A   1      42.165  21.285  28.330  1.00  0.00    -0.357 N 
ATOM     16  H   UNL A   1      42.287  20.616  29.044  1.00  0.00     0.163 HD
BRANCH  15  17
ATOM     17  C   UNL A   1      42.670  22.632  28.600  1.00  0.00     0.153 C 
BRANCH  17  18
ATOM     18  C   UNL A   1      44.119  22.919  28.034  1.00  0.00     0.192 C 
ATOM     19  C   UNL A   1      46.904  24.794  27.934  1.00  0.00     0.332 C 
ATOM     20  N   UNL A   1      45.601  24.958  27.294  1.00  0.00    -0.333 N 
ATOM     21  C   UNL A   1      45.537  24.366  25.959  1.00  0.00     0.290 C 
ATOM     22  C   UNL A   1      44.491  24.429  28.121  1.00  0.00     0.296 C 
ATOM     23  H   UNL A   1      45.486  25.967  27.200  1.00  0.00     0.348 HD
ATOM     24  C   UNL A   1      45.381  22.846  26.010  1.00  0.00     0.222 C 
ATOM     25  O   UNL A   1      44.151  22.480  26.655  1.00  0.00    -0.365 OA
ENDBRANCH  17  18
ENDBRANCH  15  17
ENDBRANCH  11  15
ENDBRANCH   9  10
ENDBRANCH   8   9
ENDBRANCH   6   8
ENDBRANCH   5   6
ENDBRANCH   4   5
ENDBRANCH   3   4
ENDBRANCH   2   3
ENDBRANCH   1   2
BRANCH   1  26
ATOM     26  C   UNL A   1      32.779  26.652  25.767  1.00  0.00     0.188 C 
BRANCH  26  27
ATOM     27  O   UNL A   1      31.841  27.539  25.186  1.00  0.00    -0.377 OA
BRANCH  27  28
ATOM     28  C   UNL A   1      32.162  28.916  25.107  1.00  0.00     0.188 C 
BRANCH  28  29
ATOM     29  C   UNL A   1      31.794  29.742  26.322  1.00  0.00     0.188 C 
BRANCH  29  30
ATOM     30  O   UNL A   1      32.264  31.087  26.361  1.00  0.00    -0.376 OA
BRANCH  30  31
ATOM     31  C   UNL A   1      31.450  32.112  26.912  1.00  0.00     0.202 C 
BRANCH  31  32
ATOM     32  C   UNL A   1      32.159  33.460  26.875  1.00  0.00     0.261 C 
BRANCH  32  33
ATOM     33  O   UNL A   1      32.448  33.799  28.237  1.00  0.00    -0.460 OA
BRANCH  33  34
ATOM     34  C   UNL A   1      33.568  34.535  28.397  1.00  0.00     0.338 C 
ATOM     35  O   UNL A   1      33.674  35.741  28.393  1.00  0.00    -0.246 OA
BRANCH  34  36
ATOM     36  C   UNL A   1      34.640  33.610  28.784  1.00  0.00     0.060 A 
ATOM     37  C   UNL A   1      34.302  32.287  29.102  1.00  0.00     0.016 A 
ATOM     38  C   UNL A   1      35.962  34.052  28.822  1.00  0.00     0.016 A 
ATOM     39  C   UNL A   1      35.294  31.386  29.450  1.00  0.00     0.010 A 
ATOM     40  C   UNL A   1      36.947  33.173  29.235  1.00  0.00     0.010 A 
ATOM     41  C   UNL A   1      36.603  31.854  29.571  1.00  0.00    -0.014 A 
BRANCH  41  42
ATOM     42  C   UNL A   1      37.605  31.034  30.256  1.00  0.00     0.031 A 
ATOM     43  C   UNL A   1      37.846  31.323  31.703  1.00  0.00     0.074 A 
ATOM     44  C   UNL A   1      38.303  30.136  29.550  1.00  0.00     0.049 A 
ATOM     45  N   UNL A   1      38.825  30.938  32.472  1.00  0.00    -0.248 NA
ATOM     46  C   UNL A   1      36.856  32.189  32.371  1.00  0.00     0.031 C 
ATOM     47  C   UNL A   1      38.057  29.795  28.147  1.00  0.00     0.029 A 
ATOM     48  N   UNL A   1      39.385  29.384  29.902  1.00  0.00    -0.354 N 
ATOM     49  C   UNL A   1      38.587  31.537  33.703  1.00  0.00     0.074 A 
ATOM     50  C   UNL A   1      37.375  32.313  33.583  1.00  0.00     0.031 C 
ATOM     51  C   UNL A   1      38.998  28.927  27.742  1.00  0.00     0.029 A 
ATOM     52  C   UNL A   1      39.930  28.703  28.842  1.00  0.00     0.049 A 
ATOM     53  H   UNL A   1      39.738  29.333  30.819  1.00  0.00     0.167 HD
ATOM     54  C   UNL A   1      39.339  31.445  34.821  1.00  0.00     0.037 A 
ATOM     55  C   UNL A   1      41.089  28.027  28.775  1.00  0.00     0.037 A 
ATOM     56  C   UNL A   1      40.552  30.674  34.869  1.00  0.00     0.049 A 
ATOM     57  C   UNL A   1      41.931  27.971  30.019  1.00  0.00     0.074 A 
ATOM     58  C   UNL A   1      41.426  30.487  35.923  1.00  0.00     0.029 A 
ATOM     59  N   UNL A   1      41.061  29.960  33.789  1.00  0.00    -0.354 N 
ATOM     60  N   UNL A   1      41.718  28.542  31.183  1.00  0.00    -0.248 NA
ATOM     61  C   UNL A   1      43.165  27.185  29.947  1.00  0.00     0.031 C 
ATOM     62  C   UNL A   1      42.482  29.690  35.466  1.00  0.00     0.029 A 
ATOM     63  C   UNL A   1      42.242  29.339  34.143  1.00  0.00     0.049 A 
ATOM     64  H   UNL A   1      40.640  29.905  32.900  1.00  0.00     0.167 HD
ATOM     65  C   UNL A   1      42.778  28.168  31.994  1.00  0.00     0.074 A 
ATOM     66  C   UNL A   1      43.626  27.310  31.185  1.00  0.00     0.031 C 
ATOM     67  C   UNL A   1      43.038  28.495  33.285  1.00  0.00     0.037 A 
BRANCH  54  68
ATOM     68  C   UNL A   1      38.894  32.225  36.025  1.00  0.00     0.057 A 
ATOM     69  C   UNL A   1      39.257  33.565  36.222  1.00  0.00     0.134 A 
ATOM     70  C   UNL A   1      38.107  31.623  37.015  1.00  0.00     0.134 A 
ATOM     71  F   UNL A   1      40.032  34.198  35.328  1.00  0.00    -0.206 F 
ATOM     72  C   UNL A   1      38.872  34.269  37.366  1.00  0.00     0.040 A 
ATOM     73  C   UNL A   1      37.695  32.324  38.152  1.00  0.00     0.040 A 
ATOM     74  F   UNL A   1      37.729  30.340  36.900  1.00  0.00    -0.206 F 
ATOM     75  C   UNL A   1      38.083  33.649  38.333  1.00  0.00     0.006 A 
ENDBRANCH  54  68
BRANCH  55  76
ATOM     76  C   UNL A   1      41.499  27.385  27.502  1.00  0.00     0.057 A 
ATOM     77  C   UNL A   1      42.270  28.075  26.563  1.00  0.00     0.134 A 
ATOM     78  C   UNL A   1      41.185  26.049  27.219  1.00  0.00     0.134 A 
ATOM     79  F   UNL A   1      42.598  29.359  26.771  1.00  0.00    -0.206 F 
ATOM     80  C   UNL A   1      42.711  27.466  25.386  1.00  0.00     0.040 A 
ATOM     81  C   UNL A   1      41.637  25.419  26.059  1.00  0.00     0.040 A 
ATOM     82  F   UNL A   1      40.461  25.324  28.086  1.00  0.00    -0.206 F 
ATOM     83  C   UNL A   1      42.402  26.130  25.136  1.00  0.00     0.006 A 
ENDBRANCH  55  76
BRANCH  67  84
ATOM     84  C   UNL A   1      44.265  27.884  33.887  1.00  0.00     0.057 A 
ATOM     85  C   UNL A   1      44.264  26.580  34.395  1.00  0.00     0.134 A 
ATOM     86  C   UNL A   1      45.465  28.604  33.927  1.00  0.00     0.134 A 
ATOM     87  F   UNL A   1      43.138  25.850  34.395  1.00  0.00    -0.206 F 
ATOM     88  C   UNL A   1      45.415  26.020  34.947  1.00  0.00     0.040 A 
ATOM     89  C   UNL A   1      46.627  28.044  34.452  1.00  0.00     0.040 A 
ATOM     90  F   UNL A   1      45.526  29.855  33.445  1.00  0.00    -0.206 F 
ATOM     91  C   UNL A   1      46.601  26.751  34.971  1.00  0.00     0.006 A 
ENDBRANCH  67  84
ENDBRANCH  41  42
ENDBRANCH  34  36
ENDBRANCH  33  34
ENDBRANCH  32  33
ENDBRANCH  31  32
ENDBRANCH  30  31
ENDBRANCH  29  30
ENDBRANCH  28  29
ENDBRANCH  27  28
ENDBRANCH  26  27
ENDBRANCH   1  26
TORSDOF 25
ENDMDL
MODEL 2
REMARK VINA RESULT:      -8.1      0.694      6.124
REMARK SMILES C[N@H+]1CCO[C@H](CNc2nnc(SCC(=O)OCCOCCOCCOCCOC(=O)c3ccc(-c4c5nc(c(-c6c(F)cccc6F)c6ccc([nH]6)c(-c6c(F)cccc6F)c6nc(c(-c7c(F)cccc7F)c7ccc4[nH]7)C=C6)C=C5)cc3)s2)C1
REMARK SMILES IDX 21 1 20 2 19 3 18 4 17 5 15 6 16 7 14 8 13 9 12 10 9 11
REMARK SMILES IDX 10 12 86 13 11 14 8 15 7 17 6 18 1 19 2 20 3 21 87 22 4 24
REMARK SMILES IDX 5 25 22 26 23 27 24 28 25 29 26 30 27 31 28 32 29 33 30 34
REMARK SMILES IDX 31 35 32 36 33 37 85 38 34 39 84 40 35 41 36 42 37 43 78 44
REMARK SMILES IDX 38 45 83 46 77 47 79 48 39 49 82 50 76 51 75 52 40 54 66 55
REMARK SMILES IDX 49 56 65 57 50 58 53 59 64 60 80 61 51 62 52 63 63 65 81 66
REMARK SMILES IDX 54 67 41 68 42 69 47 70 43 71 44 72 46 73 48 74 45 75 67 76
REMARK SMILES IDX 68 77 73 78 69 79 70 80 72 81 74 82 71 83 55 84 56 85 61 86
REMARK SMILES IDX 57 87 58 88 60 89 62 90 59 91
REMARK H PARENT 8 16 2 23 79 53 53 64
REMARK Flexibility Score: inf
ROOT
ATOM      1  C   UNL A   1      33.240  24.905  24.768  1.00  0.00     0.188 C 
ENDROOT
BRANCH   1   2
ATOM      2  O   UNL A   1      33.478  24.031  25.845  1.00  0.00    -0.376 OA
BRANCH   2   3
ATOM      3  C   UNL A   1      34.781  23.478  25.966  1.00  0.00     0.202 C 
BRANCH   3   4
ATOM      4  C   UNL A   1      35.998  24.272  25.437  1.00  0.00     0.261 C 
BRANCH   4   5
ATOM      5  O   UNL A   1      37.228  23.532  25.180  1.00  0.00    -0.463 OA
BRANCH   5   6
ATOM      6  C   UNL A   1      37.108  22.256  24.725  1.00  0.00     0.316 C 
ATOM      7  O   UNL A   1      36.745  21.989  23.579  1.00  0.00    -0.251 OA
BRANCH   6   8
ATOM      8  C   UNL A   1      37.350  21.129  25.723  1.00  0.00     0.200 C 
BRANCH   8   9
ATOM      9  S   UNL A   1      38.405  19.748  25.284  1.00  0.00    -0.082 SA
BRANCH   9  10
ATOM     10  C   UNL A   1      40.095  20.144  25.672  1.00  0.00     0.176 A 
ATOM     11  C   UNL A   1      41.797  20.849  27.226  1.00  0.00     0.206 A 
ATOM     12  N   UNL A   1      41.903  19.577  26.885  1.00  0.00    -0.119 NA
ATOM     13  S   UNL A   1      40.764  21.685  26.099  1.00  0.00    -0.069 S 
ATOM     14  N   UNL A   1      40.906  19.162  26.011  1.00  0.00    -0.130 NA
BRANCH  11  15
ATOM     15  N   UNL A   1      42.409  21.357  28.335  1.00  0.00    -0.357 N 
ATOM     16  H   UNL A   1      42.513  20.747  29.101  1.00  0.00     0.163 HD
BRANCH  15  17
ATOM     17  C   UNL A   1      42.926  22.717  28.505  1.00  0.00     0.153 C 
BRANCH  17  18
ATOM     18  C   UNL A   1      44.367  22.956  27.897  1.00  0.00     0.192 C 
ATOM     19  C   UNL A   1      47.207  24.740  27.713  1.00  0.00     0.332 C 
ATOM     20  N   UNL A   1      45.892  24.945  27.110  1.00  0.00    -0.333 N 
ATOM     21  C   UNL A   1      45.771  24.353  25.779  1.00  0.00     0.290 C 
ATOM     22  C   UNL A   1      44.789  24.453  27.970  1.00  0.00     0.296 C 
ATOM     23  H   UNL A   1      45.807  25.957  27.016  1.00  0.00     0.348 HD
ATOM     24  C   UNL A   1      45.568  22.838  25.838  1.00  0.00     0.222 C 
ATOM     25  O   UNL A   1      44.345  22.514  26.519  1.00  0.00    -0.365 OA
ENDBRANCH  17  18
ENDBRANCH  15  17
ENDBRANCH  11  15
ENDBRANCH   9  10
ENDBRANCH   8   9
ENDBRANCH   6   8
ENDBRANCH   5   6
ENDBRANCH   4   5
ENDBRANCH   3   4
ENDBRANCH   2   3
ENDBRANCH   1   2
BRANCH   1  26
ATOM     26  C   UNL A   1      32.976  26.380  25.052  1.00  0.00     0.188 C 
BRANCH  26  27
ATOM     27  O   UNL A   1      31.956  27.080  24.362  1.00  0.00    -0.377 OA
BRANCH  27  28
ATOM     28  C   UNL A   1      32.059  28.487  24.237  1.00  0.00     0.188 C 
BRANCH  28  29
ATOM     29  C   UNL A   1      31.695  29.279  25.475  1.00  0.00     0.188 C 
BRANCH  29  30
ATOM     30  O   UNL A   1      31.639  30.697  25.347  1.00  0.00    -0.376 OA
BRANCH  30  31
ATOM     31  C   UNL A   1      30.958  31.476  26.320  1.00  0.00     0.202 C 
BRANCH  31  32
ATOM     32  C   UNL A   1      31.727  32.752  26.644  1.00  0.00     0.261 C 
BRANCH  32  33
ATOM     33  O   UNL A   1      32.691  32.398  27.642  1.00  0.00    -0.460 OA
BRANCH  33  34
ATOM     34  C   UNL A   1      33.466  33.426  28.051  1.00  0.00     0.338 C 
ATOM     35  O   UNL A   1      33.149  34.586  28.193  1.00  0.00    -0.246 OA
BRANCH  34  36
ATOM     36  C   UNL A   1      34.741  32.853  28.498  1.00  0.00     0.060 A 
ATOM     37  C   UNL A   1      34.735  31.585  29.095  1.00  0.00     0.016 A 
ATOM     38  C   UNL A   1      35.926  33.567  28.318  1.00  0.00     0.016 A 
ATOM     39  C   UNL A   1      35.926  31.011  29.507  1.00  0.00     0.010 A 
ATOM     40  C   UNL A   1      37.108  33.025  28.790  1.00  0.00     0.010 A 
ATOM     41  C   UNL A   1      37.096  31.763  29.404  1.00  0.00    -0.014 A 
BRANCH  41  42
ATOM     42  C   UNL A   1      38.296  31.339  30.129  1.00  0.00     0.031 A 
ATOM     43  C   UNL A   1      39.184  30.344  29.452  1.00  0.00     0.074 A 
ATOM     44  C   UNL A   1      38.496  31.789  31.374  1.00  0.00     0.049 A 
ATOM     45  N   UNL A   1      40.147  29.622  29.950  1.00  0.00    -0.248 NA
ATOM     46  C   UNL A   1      38.934  30.115  28.016  1.00  0.00     0.031 C 
ATOM     47  C   UNL A   1      37.674  32.799  32.045  1.00  0.00     0.029 A 
ATOM     48  N   UNL A   1      39.420  31.424  32.308  1.00  0.00    -0.354 N 
ATOM     49  C   UNL A   1      40.598  28.832  28.900  1.00  0.00     0.074 A 
ATOM     50  C   UNL A   1      39.805  29.157  27.738  1.00  0.00     0.031 C 
ATOM     51  C   UNL A   1      38.108  32.941  33.307  1.00  0.00     0.029 A 
ATOM     52  C   UNL A   1      39.195  31.995  33.535  1.00  0.00     0.049 A 
ATOM     53  H   UNL A   1      40.172  30.815  32.121  1.00  0.00     0.167 HD
ATOM     54  C   UNL A   1      41.582  27.907  28.930  1.00  0.00     0.037 A 
ATOM     55  C   UNL A   1      39.778  31.725  34.715  1.00  0.00     0.037 A 
ATOM     56  C   UNL A   1      42.320  27.610  30.128  1.00  0.00     0.049 A 
ATOM     57  C   UNL A   1      40.842  30.664  34.735  1.00  0.00     0.074 A 
ATOM     58  C   UNL A   1      43.339  26.698  30.321  1.00  0.00     0.029 A 
ATOM     59  N   UNL A   1      42.097  28.234  31.352  1.00  0.00    -0.354 N 
ATOM     60  N   UNL A   1      41.267  29.906  33.749  1.00  0.00    -0.248 NA
ATOM     61  C   UNL A   1      41.507  30.418  36.017  1.00  0.00     0.031 C 
ATOM     62  C   UNL A   1      43.706  26.747  31.672  1.00  0.00     0.029 A 
ATOM     63  C   UNL A   1      42.950  27.723  32.309  1.00  0.00     0.049 A 
ATOM     64  H   UNL A   1      41.428  28.939  31.511  1.00  0.00     0.167 HD
ATOM     65  C   UNL A   1      42.265  29.106  34.282  1.00  0.00     0.074 A 
ATOM     66  C   UNL A   1      42.387  29.485  35.680  1.00  0.00     0.031 C 
ATOM     67  C   UNL A   1      43.019  28.147  33.687  1.00  0.00     0.037 A 
BRANCH  54  68
ATOM     68  C   UNL A   1      41.860  27.145  27.666  1.00  0.00     0.057 A 
ATOM     69  C   UNL A   1      41.196  25.950  27.354  1.00  0.00     0.134 A 
ATOM     70  C   UNL A   1      42.820  27.600  26.753  1.00  0.00     0.134 A 
ATOM     71  F   UNL A   1      40.283  25.439  28.195  1.00  0.00    -0.206 F 
ATOM     72  C   UNL A   1      41.491  25.226  26.195  1.00  0.00     0.040 A 
ATOM     73  C   UNL A   1      43.108  26.899  25.579  1.00  0.00     0.040 A 
ATOM     74  F   UNL A   1      43.503  28.731  26.990  1.00  0.00    -0.206 F 
ATOM     75  C   UNL A   1      42.447  25.704  25.301  1.00  0.00     0.006 A 
ENDBRANCH  54  68
BRANCH  55  76
ATOM     76  C   UNL A   1      39.352  32.454  35.935  1.00  0.00     0.057 A 
ATOM     77  C   UNL A   1      38.397  31.913  36.800  1.00  0.00     0.134 A 
ATOM     78  C   UNL A   1      39.931  33.676  36.299  1.00  0.00     0.134 A 
ATOM     79  F   UNL A   1      37.801  30.749  36.505  1.00  0.00    -0.206 F 
ATOM     80  C   UNL A   1      38.028  32.561  37.981  1.00  0.00     0.040 A 
ATOM     81  C   UNL A   1      39.590  34.325  37.487  1.00  0.00     0.040 A 
ATOM     82  F   UNL A   1      40.866  34.243  35.521  1.00  0.00    -0.206 F 
ATOM     83  C   UNL A   1      38.632  33.767  38.332  1.00  0.00     0.006 A 
ENDBRANCH  55  76
BRANCH  67  84
ATOM     84  C   UNL A   1      44.051  27.488  34.547  1.00  0.00     0.057 A 
ATOM     85  C   UNL A   1      43.768  26.329  35.278  1.00  0.00     0.134 A 
ATOM     86  C   UNL A   1      45.349  28.008  34.614  1.00  0.00     0.134 A 
ATOM     87  F   UNL A   1      42.537  25.796  35.261  1.00  0.00    -0.206 F 
ATOM     88  C   UNL A   1      44.741  25.721  36.070  1.00  0.00     0.040 A 
ATOM     89  C   UNL A   1      46.336  27.393  35.381  1.00  0.00     0.040 A 
ATOM     90  F   UNL A   1      45.679  29.112  33.926  1.00  0.00    -0.206 F 
ATOM     91  C   UNL A   1      46.029  26.250  36.118  1.00  0.00     0.006 A 
ENDBRANCH  67  84
ENDBRANCH  41  42
ENDBRANCH  34  36
ENDBRANCH  33  34
ENDBRANCH  32  33
ENDBRANCH  31  32
ENDBRANCH  30  31
ENDBRANCH  29  30
ENDBRANCH  28  29
ENDBRANCH  27  28
ENDBRANCH  26  27
ENDBRANCH   1  26
TORSDOF 25
ENDMDL
MODEL 3
REMARK VINA RESULT:      -7.3      3.382      8.867
REMARK SMILES C[N@H+]1CCO[C@H](CNc2nnc(SCC(=O)OCCOCCOCCOCCOC(=O)c3ccc(-c4c5nc(c(-c6c(F)cccc6F)c6ccc([nH]6)c(-c6c(F)cccc6F)c6nc(c(-c7c(F)cccc7F)c7ccc4[nH]7)C=C6)C=C5)cc3)s2)C1
REMARK SMILES IDX 21 1 20 2 19 3 18 4 17 5 15 6 16 7 14 8 13 9 12 10 9 11
REMARK SMILES IDX 10 12 86 13 11 14 8 15 7 17 6 18 1 19 2 20 3 21 87 22 4 24
REMARK SMILES IDX 5 25 22 26 23 27 24 28 25 29 26 30 27 31 28 32 29 33 30 34
REMARK SMILES IDX 31 35 32 36 33 37 85 38 34 39 84 40 35 41 36 42 37 43 78 44
REMARK SMILES IDX 38 45 83 46 77 47 79 48 39 49 82 50 76 51 75 52 40 54 66 55
REMARK SMILES IDX 49 56 65 57 50 58 53 59 64 60 80 61 51 62 52 63 63 65 81 66
REMARK SMILES IDX 54 67 41 68 42 69 47 70 43 71 44 72 46 73 48 74 45 75 67 76
REMARK SMILES IDX 68 77 73 78 69 79 70 80 72 81 74 82 71 83 55 84 56 85 61 86
REMARK SMILES IDX 57 87 58 88 60 89 62 90 59 91
REMARK H PARENT 8 16 2 23 79 53 53 64
REMARK Flexibility Score: inf
ROOT
ATOM      1  C   UNL A   1      33.183  26.452  25.896  1.00  0.00     0.188 C 
ENDROOT
BRANCH   1   2
ATOM      2  O   UNL A   1      32.439  25.625  26.758  1.00  0.00    -0.376 OA
BRANCH   2   3
ATOM      3  C   UNL A   1      32.214  24.284  26.349  1.00  0.00     0.202 C 
BRANCH   3   4
ATOM      4  C   UNL A   1      32.974  23.135  27.051  1.00  0.00     0.261 C 
BRANCH   4   5
ATOM      5  O   UNL A   1      32.878  21.803  26.465  1.00  0.00    -0.463 OA
BRANCH   5   6
ATOM      6  C   UNL A   1      32.311  21.700  25.233  1.00  0.00     0.316 C 
ATOM      7  O   UNL A   1      31.095  21.604  25.066  1.00  0.00    -0.251 OA
BRANCH   6   8
ATOM      8  C   UNL A   1      33.248  21.611  24.034  1.00  0.00     0.200 C 
BRANCH   8   9
ATOM      9  S   UNL A   1      34.069  23.082  23.421  1.00  0.00    -0.082 SA
BRANCH   9  10
ATOM     10  C   UNL A   1      32.943  24.011  22.405  1.00  0.00     0.176 A 
ATOM     11  C   UNL A   1      31.909  26.088  21.752  1.00  0.00     0.206 A 
ATOM     12  N   UNL A   1      32.749  25.622  20.845  1.00  0.00    -0.119 NA
ATOM     13  S   UNL A   1      31.492  24.829  22.884  1.00  0.00    -0.069 S 
ATOM     14  N   UNL A   1      33.367  24.439  21.231  1.00  0.00    -0.130 NA
BRANCH  11  15
ATOM     15  N   UNL A   1      31.496  27.389  21.760  1.00  0.00    -0.357 N 
ATOM     16  H   UNL A   1      31.607  27.892  20.920  1.00  0.00     0.163 HD
BRANCH  15  17
ATOM     17  C   UNL A   1      30.908  28.115  22.888  1.00  0.00     0.153 C 
BRANCH  17  18
ATOM     18  C   UNL A   1      30.170  29.458  22.495  1.00  0.00     0.192 C 
ATOM     19  C   UNL A   1      29.092  32.541  23.276  1.00  0.00     0.332 C 
ATOM     20  N   UNL A   1      28.539  31.220  23.561  1.00  0.00    -0.333 N 
ATOM     21  C   UNL A   1      27.582  30.767  22.552  1.00  0.00     0.290 C 
ATOM     22  C   UNL A   1      29.590  30.191  23.741  1.00  0.00     0.296 C 
ATOM     23  H   UNL A   1      28.039  31.335  24.443  1.00  0.00     0.348 HD
ATOM     24  C   UNL A   1      28.276  30.263  21.286  1.00  0.00     0.222 C 
ATOM     25  O   UNL A   1      29.102  29.124  21.575  1.00  0.00    -0.365 OA
ENDBRANCH  17  18
ENDBRANCH  15  17
ENDBRANCH  11  15
ENDBRANCH   9  10
ENDBRANCH   8   9
ENDBRANCH   6   8
ENDBRANCH   5   6
ENDBRANCH   4   5
ENDBRANCH   3   4
ENDBRANCH   2   3
ENDBRANCH   1   2
BRANCH   1  26
ATOM     26  C   UNL A   1      33.819  27.724  26.449  1.00  0.00     0.188 C 
BRANCH  26  27
ATOM     27  O   UNL A   1      33.520  28.988  25.886  1.00  0.00    -0.377 OA
BRANCH  27  28
ATOM     28  C   UNL A   1      32.619  29.842  26.568  1.00  0.00     0.188 C 
BRANCH  28  29
ATOM     29  C   UNL A   1      32.086  31.006  25.758  1.00  0.00     0.188 C 
BRANCH  29  30
ATOM     30  O   UNL A   1      31.029  31.769  26.333  1.00  0.00    -0.376 OA
BRANCH  30  31
ATOM     31  C   UNL A   1      31.288  32.639  27.425  1.00  0.00     0.202 C 
BRANCH  31  32
ATOM     32  C   UNL A   1      32.549  33.463  27.187  1.00  0.00     0.261 C 
BRANCH  32  33
ATOM     33  O   UNL A   1      33.534  32.962  28.099  1.00  0.00    -0.460 OA
BRANCH  33  34
ATOM     34  C   UNL A   1      34.160  33.920  28.815  1.00  0.00     0.338 C 
ATOM     35  O   UNL A   1      33.739  35.011  29.128  1.00  0.00    -0.246 OA
BRANCH  34  36
ATOM     36  C   UNL A   1      35.398  33.327  29.338  1.00  0.00     0.060 A 
ATOM     37  C   UNL A   1      35.302  32.251  30.230  1.00  0.00     0.016 A 
ATOM     38  C   UNL A   1      36.634  33.833  28.937  1.00  0.00     0.016 A 
ATOM     39  C   UNL A   1      36.452  31.658  30.722  1.00  0.00     0.010 A 
ATOM     40  C   UNL A   1      37.784  33.287  29.480  1.00  0.00     0.010 A 
ATOM     41  C   UNL A   1      37.684  32.221  30.388  1.00  0.00    -0.014 A 
BRANCH  41  42
ATOM     42  C   UNL A   1      38.880  31.847  31.146  1.00  0.00     0.031 A 
ATOM     43  C   UNL A   1      39.734  30.760  30.576  1.00  0.00     0.074 A 
ATOM     44  C   UNL A   1      39.106  32.427  32.331  1.00  0.00     0.049 A 
ATOM     45  N   UNL A   1      40.684  30.071  31.143  1.00  0.00    -0.248 NA
ATOM     46  C   UNL A   1      39.462  30.379  29.177  1.00  0.00     0.031 C 
ATOM     47  C   UNL A   1      38.319  33.528  32.892  1.00  0.00     0.029 A 
ATOM     48  N   UNL A   1      40.031  32.143  33.292  1.00  0.00    -0.354 N 
ATOM     49  C   UNL A   1      41.102  29.157  30.184  1.00  0.00     0.074 A 
ATOM     50  C   UNL A   1      40.305  29.373  29.000  1.00  0.00     0.031 C 
ATOM     51  C   UNL A   1      38.770  33.797  34.127  1.00  0.00     0.029 A 
ATOM     52  C   UNL A   1      39.835  32.853  34.450  1.00  0.00     0.049 A 
ATOM     53  H   UNL A   1      40.764  31.498  33.168  1.00  0.00     0.167 HD
ATOM     54  C   UNL A   1      42.062  28.215  30.309  1.00  0.00     0.037 A 
ATOM     55  C   UNL A   1      40.424  32.700  35.647  1.00  0.00     0.037 A 
ATOM     56  C   UNL A   1      42.805  28.033  31.527  1.00  0.00     0.049 A 
ATOM     57  C   UNL A   1      41.460  31.619  35.777  1.00  0.00     0.074 A 
ATOM     58  C   UNL A   1      43.803  27.121  31.811  1.00  0.00     0.029 A 
ATOM     59  N   UNL A   1      42.612  28.796  32.675  1.00  0.00    -0.354 N 
ATOM     60  N   UNL A   1      41.854  30.745  34.878  1.00  0.00    -0.248 NA
ATOM     61  C   UNL A   1      42.133  31.499  37.073  1.00  0.00     0.031 C 
ATOM     62  C   UNL A   1      44.186  27.310  33.145  1.00  0.00     0.029 A 
ATOM     63  C   UNL A   1      43.463  28.370  33.676  1.00  0.00     0.049 A 
ATOM     64  H   UNL A   1      41.964  29.531  32.761  1.00  0.00     0.167 HD
ATOM     65  C   UNL A   1      42.837  29.983  35.488  1.00  0.00     0.074 A 
ATOM     66  C   UNL A   1      42.984  30.511  36.834  1.00  0.00     0.031 C 
ATOM     67  C   UNL A   1      43.558  28.943  34.997  1.00  0.00     0.037 A 
BRANCH  54  68
ATOM     68  C   UNL A   1      42.305  27.310  29.136  1.00  0.00     0.057 A 
ATOM     69  C   UNL A   1      41.399  26.306  28.767  1.00  0.00     0.134 A 
ATOM     70  C   UNL A   1      43.473  27.429  28.371  1.00  0.00     0.134 A 
ATOM     71  F   UNL A   1      40.271  26.116  29.470  1.00  0.00    -0.206 F 
ATOM     72  C   UNL A   1      41.654  25.441  27.699  1.00  0.00     0.040 A 
ATOM     73  C   UNL A   1      43.729  26.587  27.286  1.00  0.00     0.040 A 
ATOM     74  F   UNL A   1      44.392  28.360  28.671  1.00  0.00    -0.206 F 
ATOM     75  C   UNL A   1      42.821  25.585  26.951  1.00  0.00     0.006 A 
ENDBRANCH  54  68
BRANCH  55  76
ATOM     76  C   UNL A   1      40.031  33.571  36.782  1.00  0.00     0.057 A 
ATOM     77  C   UNL A   1      39.075  33.155  37.713  1.00  0.00     0.134 A 
ATOM     78  C   UNL A   1      40.643  34.813  37.001  1.00  0.00     0.134 A 
ATOM     79  F   UNL A   1      38.448  31.980  37.556  1.00  0.00    -0.206 F 
ATOM     80  C   UNL A   1      38.736  33.940  38.817  1.00  0.00     0.040 A 
ATOM     81  C   UNL A   1      40.332  35.598  38.112  1.00  0.00     0.040 A 
ATOM     82  F   UNL A   1      41.581  35.265  36.154  1.00  0.00    -0.206 F 
ATOM     83  C   UNL A   1      39.373  35.163  39.024  1.00  0.00     0.006 A 
ENDBRANCH  55  76
BRANCH  67  84
ATOM     84  C   UNL A   1      44.582  28.356  35.916  1.00  0.00     0.057 A 
ATOM     85  C   UNL A   1      44.286  27.275  36.755  1.00  0.00     0.134 A 
ATOM     86  C   UNL A   1      45.887  28.863  35.935  1.00  0.00     0.134 A 
ATOM     87  F   UNL A   1      43.048  26.759  36.788  1.00  0.00    -0.206 F 
ATOM     88  C   UNL A   1      45.251  26.733  37.602  1.00  0.00     0.040 A 
ATOM     89  C   UNL A   1      46.866  28.312  36.758  1.00  0.00     0.040 A 
ATOM     90  F   UNL A   1      46.230  29.892  35.145  1.00  0.00    -0.206 F 
ATOM     91  C   UNL A   1      46.546  27.248  37.600  1.00  0.00     0.006 A 
ENDBRANCH  67  84
ENDBRANCH  41  42
ENDBRANCH  34  36
ENDBRANCH  33  34
ENDBRANCH  32  33
ENDBRANCH  31  32
ENDBRANCH  30  31
ENDBRANCH  29  30
ENDBRANCH  28  29
ENDBRANCH  27  28
ENDBRANCH  26  27
ENDBRANCH   1  26
TORSDOF 25
ENDMDL
