MODEL 1
REMARK VINA RESULT:     -11.0      0.000      0.000
REMARK SMILES O=C(OCCOCCOCCOCCOC(=O)[C@H]1[C@H]2CC[C@H](C2)[C@@H]1C(=O)Nc1sc2c(c1C(=O)NC1CCCCC1)CCCC2)c1ccc(-c2c3nc(c(-c4c(F)cccc4F)c4ccc([nH]4)c(-c4c(F)cccc4F)c4nc(c(-c5c(F)cccc5F)c5ccc2[nH]5)C=C4)C=C3)cc1
REMARK SMILES IDX 10 1 9 2 8 3 7 4 6 5 5 6 4 7 3 8 2 9 1 10 46 11 47 12 99 13
REMARK SMILES IDX 48 14 98 15 49 16 50 17 51 18 92 19 52 20 97 21 91 22 93 23
REMARK SMILES IDX 53 24 96 25 90 26 89 27 54 29 80 30 63 31 79 32 64 33 67 34
REMARK SMILES IDX 78 35 94 36 65 37 66 38 77 40 95 41 68 42 55 43 56 44 61 45
REMARK SMILES IDX 57 46 58 47 60 48 62 49 59 50 81 51 82 52 87 53 83 54 84 55
REMARK SMILES IDX 86 56 88 57 85 58 69 59 70 60 75 61 71 62 72 63 74 64 76 65
REMARK SMILES IDX 73 66 11 67 12 68 13 69 14 70 15 71 16 72 17 73 18 74 19 75
REMARK SMILES IDX 24 76 20 77 23 78 22 79 21 80 25 81 26 82 27 83 28 85 29 86
REMARK SMILES IDX 32 87 30 88 31 89 45 90 42 91 44 92 43 93 33 94 34 95 35 96
REMARK SMILES IDX 36 98 37 99 41 100 38 101 40 102 39 103
REMARK H PARENT 93 28 67 39 27 84 35 97
REMARK Flexibility Score: inf
ROOT
ATOM      1  C   UNL A   1      36.378  20.358  25.014  1.00  0.00     0.188 C 
ENDROOT
BRANCH   1   2
ATOM      2  O   UNL A   1      37.428  19.401  24.997  1.00  0.00    -0.377 OA
BRANCH   2   3
ATOM      3  C   UNL A   1      38.735  19.924  24.792  1.00  0.00     0.188 C 
BRANCH   3   4
ATOM      4  C   UNL A   1      39.703  19.763  25.967  1.00  0.00     0.188 C 
BRANCH   4   5
ATOM      5  O   UNL A   1      40.690  18.777  25.689  1.00  0.00    -0.376 OA
BRANCH   5   6
ATOM      6  C   UNL A   1      42.040  19.008  26.074  1.00  0.00     0.202 C 
BRANCH   6   7
ATOM      7  C   UNL A   1      43.007  17.883  25.757  1.00  0.00     0.261 C 
BRANCH   7   8
ATOM      8  O   UNL A   1      44.309  18.295  25.320  1.00  0.00    -0.460 OA
BRANCH   8   9
ATOM      9  C   UNL A   1      44.701  19.263  24.467  1.00  0.00     0.338 C 
ATOM     10  O   UNL A   1      45.124  18.912  23.364  1.00  0.00    -0.246 OA
BRANCH   9  11
ATOM     11  C   UNL A   1      44.624  20.731  24.721  1.00  0.00     0.060 A 
ATOM     12  C   UNL A   1      44.511  21.745  23.767  1.00  0.00     0.016 A 
ATOM     13  C   UNL A   1      44.553  21.099  26.075  1.00  0.00     0.016 A 
ATOM     14  C   UNL A   1      44.372  23.076  24.121  1.00  0.00     0.010 A 
ATOM     15  C   UNL A   1      44.424  22.434  26.450  1.00  0.00     0.010 A 
ATOM     16  C   UNL A   1      44.368  23.420  25.462  1.00  0.00    -0.014 A 
BRANCH  16  17
ATOM     17  C   UNL A   1      44.591  24.827  25.794  1.00  0.00     0.031 A 
ATOM     18  C   UNL A   1      45.964  25.356  25.542  1.00  0.00     0.074 A 
ATOM     19  C   UNL A   1      43.574  25.604  26.188  1.00  0.00     0.049 A 
ATOM     20  N   UNL A   1      46.510  26.470  25.930  1.00  0.00    -0.248 NA
ATOM     21  C   UNL A   1      46.851  24.492  24.739  1.00  0.00     0.031 C 
ATOM     22  C   UNL A   1      42.172  25.187  26.262  1.00  0.00     0.029 A 
ATOM     23  N   UNL A   1      43.566  26.905  26.597  1.00  0.00    -0.354 N 
ATOM     24  C   UNL A   1      47.822  26.410  25.480  1.00  0.00     0.074 A 
ATOM     25  C   UNL A   1      47.990  25.161  24.779  1.00  0.00     0.031 C 
ATOM     26  C   UNL A   1      41.440  26.214  26.723  1.00  0.00     0.029 A 
ATOM     27  C   UNL A   1      42.339  27.313  27.055  1.00  0.00     0.049 A 
ATOM     28  H   UNL A   1      44.357  27.490  26.569  1.00  0.00     0.167 HD
ATOM     29  C   UNL A   1      48.796  27.325  25.676  1.00  0.00     0.037 A 
ATOM     30  C   UNL A   1      42.019  28.424  27.740  1.00  0.00     0.037 A 
ATOM     31  C   UNL A   1      48.554  28.549  26.387  1.00  0.00     0.049 A 
ATOM     32  C   UNL A   1      43.131  29.389  28.045  1.00  0.00     0.074 A 
ATOM     33  C   UNL A   1      49.439  29.552  26.723  1.00  0.00     0.029 A 
ATOM     34  N   UNL A   1      47.306  28.924  26.877  1.00  0.00    -0.354 N 
ATOM     35  N   UNL A   1      44.403  29.306  27.720  1.00  0.00    -0.248 NA
ATOM     36  C   UNL A   1      42.784  30.584  28.818  1.00  0.00     0.031 C 
ATOM     37  C   UNL A   1      48.736  30.506  27.467  1.00  0.00     0.029 A 
ATOM     38  C   UNL A   1      47.397  30.133  27.533  1.00  0.00     0.049 A 
ATOM     39  H   UNL A   1      46.477  28.402  26.770  1.00  0.00     0.167 HD
ATOM     40  C   UNL A   1      45.005  30.449  28.223  1.00  0.00     0.074 A 
ATOM     41  C   UNL A   1      43.953  31.208  28.878  1.00  0.00     0.031 C 
ATOM     42  C   UNL A   1      46.301  30.846  28.149  1.00  0.00     0.037 A 
BRANCH  29  43
ATOM     43  C   UNL A   1      50.176  26.950  25.225  1.00  0.00     0.057 A 
ATOM     44  C   UNL A   1      51.089  26.275  26.050  1.00  0.00     0.134 A 
ATOM     45  C   UNL A   1      50.639  27.372  23.971  1.00  0.00     0.134 A 
ATOM     46  F   UNL A   1      50.726  25.875  27.279  1.00  0.00    -0.206 F 
ATOM     47  C   UNL A   1      52.418  26.081  25.665  1.00  0.00     0.040 A 
ATOM     48  C   UNL A   1      51.956  27.154  23.562  1.00  0.00     0.040 A 
ATOM     49  F   UNL A   1      49.828  28.033  23.131  1.00  0.00    -0.206 F 
ATOM     50  C   UNL A   1      52.855  26.522  24.418  1.00  0.00     0.006 A 
ENDBRANCH  29  43
BRANCH  30  51
ATOM     51  C   UNL A   1      40.630  28.614  28.225  1.00  0.00     0.057 A 
ATOM     52  C   UNL A   1      40.272  28.335  29.547  1.00  0.00     0.134 A 
ATOM     53  C   UNL A   1      39.634  29.144  27.390  1.00  0.00     0.134 A 
ATOM     54  F   UNL A   1      41.173  27.818  30.395  1.00  0.00    -0.206 F 
ATOM     55  C   UNL A   1      38.980  28.575  30.022  1.00  0.00     0.040 A 
ATOM     56  C   UNL A   1      38.346  29.411  27.856  1.00  0.00     0.040 A 
ATOM     57  F   UNL A   1      39.911  29.443  26.111  1.00  0.00    -0.206 F 
ATOM     58  C   UNL A   1      38.016  29.124  29.178  1.00  0.00     0.006 A 
ENDBRANCH  30  51
BRANCH  42  59
ATOM     59  C   UNL A   1      46.635  32.183  28.732  1.00  0.00     0.057 A 
ATOM     60  C   UNL A   1      47.075  32.325  30.052  1.00  0.00     0.134 A 
ATOM     61  C   UNL A   1      46.623  33.321  27.916  1.00  0.00     0.134 A 
ATOM     62  F   UNL A   1      47.097  31.271  30.881  1.00  0.00    -0.206 F 
ATOM     63  C   UNL A   1      47.493  33.562  30.542  1.00  0.00     0.040 A 
ATOM     64  C   UNL A   1      47.066  34.554  28.386  1.00  0.00     0.040 A 
ATOM     65  F   UNL A   1      46.221  33.238  26.638  1.00  0.00    -0.206 F 
ATOM     66  C   UNL A   1      47.503  34.677  29.703  1.00  0.00     0.006 A 
ENDBRANCH  42  59
ENDBRANCH  16  17
ENDBRANCH   9  11
ENDBRANCH   8   9
ENDBRANCH   7   8
ENDBRANCH   6   7
ENDBRANCH   5   6
ENDBRANCH   4   5
ENDBRANCH   3   4
ENDBRANCH   2   3
ENDBRANCH   1   2
BRANCH   1  67
ATOM     67  C   UNL A   1      34.922  19.906  25.282  1.00  0.00     0.188 C 
BRANCH  67  68
ATOM     68  O   UNL A   1      34.581  18.684  24.650  1.00  0.00    -0.376 OA
BRANCH  68  69
ATOM     69  C   UNL A   1      33.243  18.480  24.229  1.00  0.00     0.202 C 
BRANCH  69  70
ATOM     70  C   UNL A   1      32.518  19.497  23.326  1.00  0.00     0.261 C 
BRANCH  70  71
ATOM     71  O   UNL A   1      32.152  20.754  23.902  1.00  0.00    -0.463 OA
BRANCH  71  72
ATOM     72  C   UNL A   1      32.816  21.848  23.452  1.00  0.00     0.310 C 
ATOM     73  O   UNL A   1      33.949  21.836  23.020  1.00  0.00    -0.252 OA
BRANCH  72  74
ATOM     74  C   UNL A   1      31.905  23.068  23.535  1.00  0.00     0.115 C 
ATOM     75  C   UNL A   1      31.092  22.967  24.844  1.00  0.00     0.004 C 
ATOM     76  C   UNL A   1      32.653  24.439  23.640  1.00  0.00     0.096 C 
ATOM     77  C   UNL A   1      31.955  22.831  26.099  1.00  0.00     0.005 C 
ATOM     78  C   UNL A   1      30.672  24.407  24.993  1.00  0.00     0.009 C 
ATOM     79  C   UNL A   1      32.102  24.963  24.969  1.00  0.00     0.003 C 
ATOM     80  C   UNL A   1      32.747  24.147  26.115  1.00  0.00     0.005 C 
BRANCH  76  81
ATOM     81  C   UNL A   1      32.697  25.403  22.402  1.00  0.00     0.229 C 
ATOM     82  O   UNL A   1      32.839  24.865  21.287  1.00  0.00    -0.274 OA
ATOM     83  N   UNL A   1      32.414  26.737  22.352  1.00  0.00    -0.317 N 
ATOM     84  H   UNL A   1      32.114  27.049  21.468  1.00  0.00     0.170 HD
BRANCH  83  85
ATOM     85  C   UNL A   1      32.469  27.726  23.306  1.00  0.00     0.108 A 
ATOM     86  S   UNL A   1      34.000  28.420  23.566  1.00  0.00    -0.122 S 
ATOM     87  C   UNL A   1      31.437  28.528  23.857  1.00  0.00     0.078 A 
ATOM     88  C   UNL A   1      33.441  28.973  25.055  1.00  0.00     0.011 A 
ATOM     89  C   UNL A   1      32.083  29.271  24.989  1.00  0.00    -0.019 A 
ATOM     90  C   UNL A   1      34.362  29.168  26.222  1.00  0.00     0.047 C 
ATOM     91  C   UNL A   1      31.574  30.177  26.087  1.00  0.00     0.037 C 
ATOM     92  C   UNL A   1      33.530  29.455  27.470  1.00  0.00     0.006 C 
ATOM     93  C   UNL A   1      32.610  30.624  27.133  1.00  0.00     0.005 C 
BRANCH  87  94
ATOM     94  C   UNL A   1      30.093  28.395  23.185  1.00  0.00     0.254 C 
ATOM     95  O   UNL A   1      29.501  27.308  23.327  1.00  0.00    -0.269 OA
ATOM     96  N   UNL A   1      29.308  29.259  22.447  1.00  0.00    -0.349 N 
ATOM     97  H   UNL A   1      28.471  28.799  22.207  1.00  0.00     0.164 HD
BRANCH  96  98
ATOM     98  C   UNL A   1      29.273  30.627  21.891  1.00  0.00     0.082 C 
ATOM     99  C   UNL A   1      28.186  30.827  20.819  1.00  0.00     0.025 C 
ATOM    100  C   UNL A   1      29.160  31.629  22.981  1.00  0.00     0.025 C 
ATOM    101  C   UNL A   1      27.931  32.309  20.479  1.00  0.00     0.002 C 
ATOM    102  C   UNL A   1      28.914  33.074  22.612  1.00  0.00     0.002 C 
ATOM    103  C   UNL A   1      27.690  33.152  21.725  1.00  0.00     0.000 C 
ENDBRANCH  96  98
ENDBRANCH  87  94
ENDBRANCH  83  85
ENDBRANCH  76  81
ENDBRANCH  72  74
ENDBRANCH  71  72
ENDBRANCH  70  71
ENDBRANCH  69  70
ENDBRANCH  68  69
ENDBRANCH  67  68
ENDBRANCH   1  67
TORSDOF 24
ENDMDL
MODEL 2
REMARK VINA RESULT:     -10.6      6.283     12.052
REMARK SMILES O=C(OCCOCCOCCOCCOC(=O)[C@H]1[C@H]2CC[C@H](C2)[C@@H]1C(=O)Nc1sc2c(c1C(=O)NC1CCCCC1)CCCC2)c1ccc(-c2c3nc(c(-c4c(F)cccc4F)c4ccc([nH]4)c(-c4c(F)cccc4F)c4nc(c(-c5c(F)cccc5F)c5ccc2[nH]5)C=C4)C=C3)cc1
REMARK SMILES IDX 10 1 9 2 8 3 7 4 6 5 5 6 4 7 3 8 2 9 1 10 46 11 47 12 99 13
REMARK SMILES IDX 48 14 98 15 49 16 50 17 51 18 92 19 52 20 97 21 91 22 93 23
REMARK SMILES IDX 53 24 96 25 90 26 89 27 54 29 80 30 63 31 79 32 64 33 67 34
REMARK SMILES IDX 78 35 94 36 65 37 66 38 77 40 95 41 68 42 55 43 56 44 61 45
REMARK SMILES IDX 57 46 58 47 60 48 62 49 59 50 81 51 82 52 87 53 83 54 84 55
REMARK SMILES IDX 86 56 88 57 85 58 69 59 70 60 75 61 71 62 72 63 74 64 76 65
REMARK SMILES IDX 73 66 11 67 12 68 13 69 14 70 15 71 16 72 17 73 18 74 19 75
REMARK SMILES IDX 24 76 20 77 23 78 22 79 21 80 25 81 26 82 27 83 28 85 29 86
REMARK SMILES IDX 32 87 30 88 31 89 45 90 42 91 44 92 43 93 33 94 34 95 35 96
REMARK SMILES IDX 36 98 37 99 41 100 38 101 40 102 39 103
REMARK H PARENT 93 28 67 39 27 84 35 97
REMARK Flexibility Score: inf
ROOT
ATOM      1  C   UNL A   1      34.360  33.997  30.551  1.00  0.00     0.188 C 
ENDROOT
BRANCH   1   2
ATOM      2  O   UNL A   1      33.704  34.176  31.799  1.00  0.00    -0.377 OA
BRANCH   2   3
ATOM      3  C   UNL A   1      34.102  35.321  32.544  1.00  0.00     0.188 C 
BRANCH   3   4
ATOM      4  C   UNL A   1      34.790  35.033  33.882  1.00  0.00     0.188 C 
BRANCH   4   5
ATOM      5  O   UNL A   1      34.942  33.634  34.092  1.00  0.00    -0.376 OA
BRANCH   5   6
ATOM      6  C   UNL A   1      36.230  33.105  34.385  1.00  0.00     0.202 C 
BRANCH   6   7
ATOM      7  C   UNL A   1      36.900  33.674  35.621  1.00  0.00     0.261 C 
BRANCH   7   8
ATOM      8  O   UNL A   1      37.291  32.711  36.608  1.00  0.00    -0.460 OA
BRANCH   8   9
ATOM      9  C   UNL A   1      38.005  31.571  36.512  1.00  0.00     0.338 C 
ATOM     10  O   UNL A   1      37.776  30.684  37.337  1.00  0.00    -0.246 OA
BRANCH   9  11
ATOM     11  C   UNL A   1      39.019  31.264  35.461  1.00  0.00     0.060 A 
ATOM     12  C   UNL A   1      38.793  30.648  34.229  1.00  0.00     0.016 A 
ATOM     13  C   UNL A   1      40.311  31.752  35.719  1.00  0.00     0.016 A 
ATOM     14  C   UNL A   1      39.801  30.480  33.295  1.00  0.00     0.010 A 
ATOM     15  C   UNL A   1      41.340  31.582  34.797  1.00  0.00     0.010 A 
ATOM     16  C   UNL A   1      41.081  30.913  33.598  1.00  0.00    -0.014 A 
BRANCH  16  17
ATOM     17  C   UNL A   1      42.175  30.400  32.774  1.00  0.00     0.031 A 
ATOM     18  C   UNL A   1      42.701  29.051  33.138  1.00  0.00     0.074 A 
ATOM     19  C   UNL A   1      42.583  31.071  31.688  1.00  0.00     0.049 A 
ATOM     20  N   UNL A   1      43.782  28.446  32.743  1.00  0.00    -0.248 NA
ATOM     21  C   UNL A   1      41.887  28.278  34.095  1.00  0.00     0.031 C 
ATOM     22  C   UNL A   1      41.970  32.298  31.175  1.00  0.00     0.029 A 
ATOM     23  N   UNL A   1      43.607  30.811  30.825  1.00  0.00    -0.354 N 
ATOM     24  C   UNL A   1      43.814  27.254  33.454  1.00  0.00     0.074 A 
ATOM     25  C   UNL A   1      42.642  27.212  34.294  1.00  0.00     0.031 C 
ATOM     26  C   UNL A   1      42.656  32.702  30.093  1.00  0.00     0.029 A 
ATOM     27  C   UNL A   1      43.797  31.813  29.908  1.00  0.00     0.049 A 
ATOM     28  H   UNL A   1      44.153  29.993  30.859  1.00  0.00     0.167 HD
ATOM     29  C   UNL A   1      44.771  26.303  33.413  1.00  0.00     0.037 A 
ATOM     30  C   UNL A   1      44.833  32.010  29.074  1.00  0.00     0.037 A 
ATOM     31  C   UNL A   1      45.914  26.415  32.550  1.00  0.00     0.049 A 
ATOM     32  C   UNL A   1      45.946  31.000  29.109  1.00  0.00     0.074 A 
ATOM     33  C   UNL A   1      47.001  25.575  32.428  1.00  0.00     0.029 A 
ATOM     34  N   UNL A   1      46.104  27.463  31.653  1.00  0.00    -0.354 N 
ATOM     35  N   UNL A   1      46.051  29.918  29.849  1.00  0.00    -0.248 NA
ATOM     36  C   UNL A   1      47.088  31.235  28.221  1.00  0.00     0.031 C 
ATOM     37  C   UNL A   1      47.876  26.146  31.498  1.00  0.00     0.029 A 
ATOM     38  C   UNL A   1      47.302  27.305  30.987  1.00  0.00     0.049 A 
ATOM     39  H   UNL A   1      45.475  28.208  31.513  1.00  0.00     0.167 HD
ATOM     40  C   UNL A   1      47.253  29.325  29.498  1.00  0.00     0.074 A 
ATOM     41  C   UNL A   1      47.843  30.175  28.478  1.00  0.00     0.031 C 
ATOM     42  C   UNL A   1      47.822  28.183  29.963  1.00  0.00     0.037 A 
BRANCH  29  43
ATOM     43  C   UNL A   1      44.653  25.181  34.401  1.00  0.00     0.057 A 
ATOM     44  C   UNL A   1      45.112  25.281  35.724  1.00  0.00     0.134 A 
ATOM     45  C   UNL A   1      44.166  23.934  33.986  1.00  0.00     0.134 A 
ATOM     46  F   UNL A   1      45.625  26.434  36.179  1.00  0.00    -0.206 F 
ATOM     47  C   UNL A   1      45.137  24.173  36.575  1.00  0.00     0.040 A 
ATOM     48  C   UNL A   1      44.157  22.828  34.838  1.00  0.00     0.040 A 
ATOM     49  F   UNL A   1      43.722  23.759  32.732  1.00  0.00    -0.206 F 
ATOM     50  C   UNL A   1      44.659  22.942  36.132  1.00  0.00     0.006 A 
ENDBRANCH  29  43
BRANCH  30  51
ATOM     51  C   UNL A   1      44.874  33.228  28.228  1.00  0.00     0.057 A 
ATOM     52  C   UNL A   1      44.310  33.250  26.949  1.00  0.00     0.134 A 
ATOM     53  C   UNL A   1      45.426  34.427  28.706  1.00  0.00     0.134 A 
ATOM     54  F   UNL A   1      43.775  32.136  26.429  1.00  0.00    -0.206 F 
ATOM     55  C   UNL A   1      44.291  34.415  26.178  1.00  0.00     0.040 A 
ATOM     56  C   UNL A   1      45.392  35.603  27.956  1.00  0.00     0.040 A 
ATOM     57  F   UNL A   1      45.976  34.479  29.928  1.00  0.00    -0.206 F 
ATOM     58  C   UNL A   1      44.824  35.598  26.685  1.00  0.00     0.006 A 
ENDBRANCH  30  51
BRANCH  42  59
ATOM     59  C   UNL A   1      49.108  27.758  29.328  1.00  0.00     0.057 A 
ATOM     60  C   UNL A   1      50.337  28.313  29.702  1.00  0.00     0.134 A 
ATOM     61  C   UNL A   1      49.116  26.697  28.414  1.00  0.00     0.134 A 
ATOM     62  F   UNL A   1      50.388  29.338  30.565  1.00  0.00    -0.206 F 
ATOM     63  C   UNL A   1      51.535  27.823  29.185  1.00  0.00     0.040 A 
ATOM     64  C   UNL A   1      50.308  26.181  27.914  1.00  0.00     0.040 A 
ATOM     65  F   UNL A   1      47.967  26.121  28.030  1.00  0.00    -0.206 F 
ATOM     66  C   UNL A   1      51.522  26.745  28.299  1.00  0.00     0.006 A 
ENDBRANCH  42  59
ENDBRANCH  16  17
ENDBRANCH   9  11
ENDBRANCH   8   9
ENDBRANCH   7   8
ENDBRANCH   6   7
ENDBRANCH   5   6
ENDBRANCH   4   5
ENDBRANCH   3   4
ENDBRANCH   2   3
ENDBRANCH   1   2
BRANCH   1  67
ATOM     67  C   UNL A   1      34.956  32.616  30.181  1.00  0.00     0.188 C 
BRANCH  67  68
ATOM     68  O   UNL A   1      35.186  32.451  28.793  1.00  0.00    -0.376 OA
BRANCH  68  69
ATOM     69  C   UNL A   1      36.471  32.042  28.354  1.00  0.00     0.202 C 
BRANCH  69  70
ATOM     70  C   UNL A   1      36.746  30.595  27.902  1.00  0.00     0.261 C 
BRANCH  70  71
ATOM     71  O   UNL A   1      37.350  29.708  28.847  1.00  0.00    -0.463 OA
BRANCH  71  72
ATOM     72  C   UNL A   1      38.339  30.222  29.622  1.00  0.00     0.310 C 
ATOM     73  O   UNL A   1      38.189  31.123  30.420  1.00  0.00    -0.252 OA
BRANCH  72  74
ATOM     74  C   UNL A   1      39.637  29.466  29.362  1.00  0.00     0.115 C 
ATOM     75  C   UNL A   1      40.041  28.749  30.668  1.00  0.00     0.004 C 
ATOM     76  C   UNL A   1      39.526  28.320  28.301  1.00  0.00     0.096 C 
ATOM     77  C   UNL A   1      38.959  27.822  31.224  1.00  0.00     0.005 C 
ATOM     78  C   UNL A   1      40.983  27.714  30.108  1.00  0.00     0.009 C 
ATOM     79  C   UNL A   1      39.956  27.114  29.139  1.00  0.00     0.003 C 
ATOM     80  C   UNL A   1      38.806  26.769  30.116  1.00  0.00     0.005 C 
BRANCH  76  81
ATOM     81  C   UNL A   1      40.148  28.514  26.871  1.00  0.00     0.229 C 
ATOM     82  O   UNL A   1      39.573  29.329  26.125  1.00  0.00    -0.274 OA
ATOM     83  N   UNL A   1      41.341  28.055  26.394  1.00  0.00    -0.317 N 
ATOM     84  H   UNL A   1      41.714  28.598  25.662  1.00  0.00     0.170 HD
BRANCH  83  85
ATOM     85  C   UNL A   1      42.120  26.978  26.745  1.00  0.00     0.108 A 
ATOM     86  S   UNL A   1      41.423  25.446  26.492  1.00  0.00    -0.122 S 
ATOM     87  C   UNL A   1      43.522  26.882  26.937  1.00  0.00     0.078 A 
ATOM     88  C   UNL A   1      42.544  24.812  27.577  1.00  0.00     0.011 A 
ATOM     89  C   UNL A   1      43.746  25.512  27.505  1.00  0.00    -0.019 A 
ATOM     90  C   UNL A   1      42.240  23.605  28.412  1.00  0.00     0.047 C 
ATOM     91  C   UNL A   1      44.942  24.784  28.075  1.00  0.00     0.037 C 
ATOM     92  C   UNL A   1      43.352  23.419  29.441  1.00  0.00     0.006 C 
ATOM     93  C   UNL A   1      44.670  23.393  28.673  1.00  0.00     0.005 C 
BRANCH  87  94
ATOM     94  C   UNL A   1      44.308  28.108  26.543  1.00  0.00     0.254 C 
ATOM     95  O   UNL A   1      43.934  29.193  27.028  1.00  0.00    -0.269 OA
ATOM     96  N   UNL A   1      45.431  28.309  25.764  1.00  0.00    -0.349 N 
ATOM     97  H   UNL A   1      45.657  29.268  25.778  1.00  0.00     0.164 HD
BRANCH  96  98
ATOM     98  C   UNL A   1      46.415  27.601  24.920  1.00  0.00     0.082 C 
ATOM     99  C   UNL A   1      47.874  27.988  25.222  1.00  0.00     0.025 C 
ATOM    100  C   UNL A   1      46.208  26.133  25.001  1.00  0.00     0.025 C 
ATOM    101  C   UNL A   1      48.902  27.030  24.586  1.00  0.00     0.002 C 
ATOM    102  C   UNL A   1      47.233  25.223  24.363  1.00  0.00     0.002 C 
ATOM    103  C   UNL A   1      48.603  25.571  24.906  1.00  0.00     0.000 C 
ENDBRANCH  96  98
ENDBRANCH  87  94
ENDBRANCH  83  85
ENDBRANCH  76  81
ENDBRANCH  72  74
ENDBRANCH  71  72
ENDBRANCH  70  71
ENDBRANCH  69  70
ENDBRANCH  68  69
ENDBRANCH  67  68
ENDBRANCH   1  67
TORSDOF 24
ENDMDL
MODEL 3
REMARK VINA RESULT:      -9.9      4.082     10.179
REMARK SMILES O=C(OCCOCCOCCOCCOC(=O)[C@H]1[C@H]2CC[C@H](C2)[C@@H]1C(=O)Nc1sc2c(c1C(=O)NC1CCCCC1)CCCC2)c1ccc(-c2c3nc(c(-c4c(F)cccc4F)c4ccc([nH]4)c(-c4c(F)cccc4F)c4nc(c(-c5c(F)cccc5F)c5ccc2[nH]5)C=C4)C=C3)cc1
REMARK SMILES IDX 10 1 9 2 8 3 7 4 6 5 5 6 4 7 3 8 2 9 1 10 46 11 47 12 99 13
REMARK SMILES IDX 48 14 98 15 49 16 50 17 51 18 92 19 52 20 97 21 91 22 93 23
REMARK SMILES IDX 53 24 96 25 90 26 89 27 54 29 80 30 63 31 79 32 64 33 67 34
REMARK SMILES IDX 78 35 94 36 65 37 66 38 77 40 95 41 68 42 55 43 56 44 61 45
REMARK SMILES IDX 57 46 58 47 60 48 62 49 59 50 81 51 82 52 87 53 83 54 84 55
REMARK SMILES IDX 86 56 88 57 85 58 69 59 70 60 75 61 71 62 72 63 74 64 76 65
REMARK SMILES IDX 73 66 11 67 12 68 13 69 14 70 15 71 16 72 17 73 18 74 19 75
REMARK SMILES IDX 24 76 20 77 23 78 22 79 21 80 25 81 26 82 27 83 28 85 29 86
REMARK SMILES IDX 32 87 30 88 31 89 45 90 42 91 44 92 43 93 33 94 34 95 35 96
REMARK SMILES IDX 36 98 37 99 41 100 38 101 40 102 39 103
REMARK H PARENT 93 28 67 39 27 84 35 97
REMARK Flexibility Score: inf
ROOT
ATOM      1  C   UNL A   1      37.709  30.091  30.132  1.00  0.00     0.188 C 
ENDROOT
BRANCH   1   2
ATOM      2  O   UNL A   1      37.711  31.304  30.873  1.00  0.00    -0.377 OA
BRANCH   2   3
ATOM      3  C   UNL A   1      36.743  32.268  30.475  1.00  0.00     0.188 C 
BRANCH   3   4
ATOM      4  C   UNL A   1      35.376  32.152  31.156  1.00  0.00     0.188 C 
BRANCH   4   5
ATOM      5  O   UNL A   1      35.510  32.081  32.570  1.00  0.00    -0.376 OA
BRANCH   5   6
ATOM      6  C   UNL A   1      36.036  33.194  33.282  1.00  0.00     0.202 C 
BRANCH   6   7
ATOM      7  C   UNL A   1      37.179  32.879  34.228  1.00  0.00     0.261 C 
BRANCH   7   8
ATOM      8  O   UNL A   1      37.411  31.485  34.470  1.00  0.00    -0.460 OA
BRANCH   8   9
ATOM      9  C   UNL A   1      38.527  30.811  34.814  1.00  0.00     0.338 C 
ATOM     10  O   UNL A   1      38.511  30.188  35.877  1.00  0.00    -0.246 OA
BRANCH   9  11
ATOM     11  C   UNL A   1      39.770  30.709  33.996  1.00  0.00     0.060 A 
ATOM     12  C   UNL A   1      40.193  31.586  32.995  1.00  0.00     0.016 A 
ATOM     13  C   UNL A   1      40.643  29.671  34.364  1.00  0.00     0.016 A 
ATOM     14  C   UNL A   1      41.408  31.435  32.349  1.00  0.00     0.010 A 
ATOM     15  C   UNL A   1      41.864  29.496  33.718  1.00  0.00     0.010 A 
ATOM     16  C   UNL A   1      42.222  30.367  32.685  1.00  0.00    -0.014 A 
BRANCH  16  17
ATOM     17  C   UNL A   1      43.296  30.023  31.753  1.00  0.00     0.031 A 
ATOM     18  C   UNL A   1      42.977  28.983  30.732  1.00  0.00     0.074 A 
ATOM     19  C   UNL A   1      44.450  30.703  31.764  1.00  0.00     0.049 A 
ATOM     20  N   UNL A   1      43.770  28.330  29.935  1.00  0.00    -0.248 NA
ATOM     21  C   UNL A   1      41.552  28.624  30.598  1.00  0.00     0.031 C 
ATOM     22  C   UNL A   1      44.741  31.861  32.612  1.00  0.00     0.029 A 
ATOM     23  N   UNL A   1      45.589  30.516  31.037  1.00  0.00    -0.354 N 
ATOM     24  C   UNL A   1      42.952  27.436  29.257  1.00  0.00     0.074 A 
ATOM     25  C   UNL A   1      41.602  27.637  29.722  1.00  0.00     0.031 C 
ATOM     26  C   UNL A   1      45.999  32.265  32.374  1.00  0.00     0.029 A 
ATOM     27  C   UNL A   1      46.614  31.337  31.431  1.00  0.00     0.049 A 
ATOM     28  H   UNL A   1      45.668  29.860  30.307  1.00  0.00     0.167 HD
ATOM     29  C   UNL A   1      43.328  26.513  28.346  1.00  0.00     0.037 A 
ATOM     30  C   UNL A   1      47.918  31.274  31.113  1.00  0.00     0.037 A 
ATOM     31  C   UNL A   1      44.696  26.370  27.932  1.00  0.00     0.049 A 
ATOM     32  C   UNL A   1      48.346  30.176  30.178  1.00  0.00     0.074 A 
ATOM     33  C   UNL A   1      45.254  25.452  27.068  1.00  0.00     0.029 A 
ATOM     34  N   UNL A   1      45.727  27.193  28.377  1.00  0.00    -0.354 N 
ATOM     35  N   UNL A   1      47.608  29.252  29.604  1.00  0.00    -0.248 NA
ATOM     36  C   UNL A   1      49.774  30.092  29.858  1.00  0.00     0.031 C 
ATOM     37  C   UNL A   1      46.633  25.684  27.035  1.00  0.00     0.029 A 
ATOM     38  C   UNL A   1      46.926  26.793  27.823  1.00  0.00     0.049 A 
ATOM     39  H   UNL A   1      45.618  27.951  28.996  1.00  0.00     0.167 HD
ATOM     40  C   UNL A   1      48.472  28.493  28.831  1.00  0.00     0.074 A 
ATOM     41  C   UNL A   1      49.794  29.067  29.016  1.00  0.00     0.031 C 
ATOM     42  C   UNL A   1      48.208  27.425  28.035  1.00  0.00     0.037 A 
BRANCH  29  43
ATOM     43  C   UNL A   1      42.272  25.557  27.877  1.00  0.00     0.057 A 
ATOM     44  C   UNL A   1      41.305  25.901  26.921  1.00  0.00     0.134 A 
ATOM     45  C   UNL A   1      42.156  24.296  28.479  1.00  0.00     0.134 A 
ATOM     46  F   UNL A   1      41.332  27.107  26.331  1.00  0.00    -0.206 F 
ATOM     47  C   UNL A   1      40.237  25.050  26.620  1.00  0.00     0.040 A 
ATOM     48  C   UNL A   1      41.112  23.424  28.162  1.00  0.00     0.040 A 
ATOM     49  F   UNL A   1      43.036  23.901  29.410  1.00  0.00    -0.206 F 
ATOM     50  C   UNL A   1      40.139  23.808  27.242  1.00  0.00     0.006 A 
ENDBRANCH  29  43
BRANCH  30  51
ATOM     51  C   UNL A   1      48.875  32.218  31.741  1.00  0.00     0.057 A 
ATOM     52  C   UNL A   1      49.177  33.451  31.157  1.00  0.00     0.134 A 
ATOM     53  C   UNL A   1      49.467  31.935  32.982  1.00  0.00     0.134 A 
ATOM     54  F   UNL A   1      48.653  33.780  29.967  1.00  0.00    -0.206 F 
ATOM     55  C   UNL A   1      50.028  34.368  31.780  1.00  0.00     0.040 A 
ATOM     56  C   UNL A   1      50.299  32.851  33.627  1.00  0.00     0.040 A 
ATOM     57  F   UNL A   1      49.215  30.773  33.604  1.00  0.00    -0.206 F 
ATOM     58  C   UNL A   1      50.583  34.073  33.023  1.00  0.00     0.006 A 
ENDBRANCH  30  51
BRANCH  42  59
ATOM     59  C   UNL A   1      49.354  26.856  27.260  1.00  0.00     0.057 A 
ATOM     60  C   UNL A   1      50.137  25.809  27.758  1.00  0.00     0.134 A 
ATOM     61  C   UNL A   1      49.594  27.293  25.952  1.00  0.00     0.134 A 
ATOM     62  F   UNL A   1      49.958  25.358  29.008  1.00  0.00    -0.206 F 
ATOM     63  C   UNL A   1      51.125  25.214  26.975  1.00  0.00     0.040 A 
ATOM     64  C   UNL A   1      50.558  26.686  25.151  1.00  0.00     0.040 A 
ATOM     65  F   UNL A   1      48.865  28.286  25.421  1.00  0.00    -0.206 F 
ATOM     66  C   UNL A   1      51.327  25.644  25.663  1.00  0.00     0.006 A 
ENDBRANCH  42  59
ENDBRANCH  16  17
ENDBRANCH   9  11
ENDBRANCH   8   9
ENDBRANCH   7   8
ENDBRANCH   6   7
ENDBRANCH   5   6
ENDBRANCH   4   5
ENDBRANCH   3   4
ENDBRANCH   2   3
ENDBRANCH   1   2
BRANCH   1  67
ATOM     67  C   UNL A   1      37.165  30.071  28.682  1.00  0.00     0.188 C 
BRANCH  67  68
ATOM     68  O   UNL A   1      35.793  29.731  28.596  1.00  0.00    -0.376 OA
BRANCH  68  69
ATOM     69  C   UNL A   1      35.258  29.352  27.339  1.00  0.00     0.202 C 
BRANCH  69  70
ATOM     70  C   UNL A   1      33.737  29.246  27.109  1.00  0.00     0.261 C 
BRANCH  70  71
ATOM     71  O   UNL A   1      33.138  27.952  27.219  1.00  0.00    -0.463 OA
BRANCH  71  72
ATOM     72  C   UNL A   1      33.193  27.159  26.119  1.00  0.00     0.310 C 
ATOM     73  O   UNL A   1      34.218  26.755  25.612  1.00  0.00    -0.252 OA
BRANCH  72  74
ATOM     74  C   UNL A   1      31.778  26.826  25.659  1.00  0.00     0.115 C 
ATOM     75  C   UNL A   1      31.253  28.019  24.831  1.00  0.00     0.004 C 
ATOM     76  C   UNL A   1      31.674  25.599  24.693  1.00  0.00     0.096 C 
ATOM     77  C   UNL A   1      32.149  28.393  23.649  1.00  0.00     0.005 C 
ATOM     78  C   UNL A   1      30.136  27.337  24.083  1.00  0.00     0.009 C 
ATOM     79  C   UNL A   1      31.034  26.255  23.467  1.00  0.00     0.003 C 
ATOM     80  C   UNL A   1      32.104  27.131  22.773  1.00  0.00     0.005 C 
BRANCH  76  81
ATOM     81  C   UNL A   1      31.094  24.237  25.217  1.00  0.00     0.229 C 
ATOM     82  O   UNL A   1      29.872  24.214  25.461  1.00  0.00    -0.274 OA
ATOM     83  N   UNL A   1      31.702  23.017  25.265  1.00  0.00    -0.317 N 
ATOM     84  H   UNL A   1      31.076  22.257  25.237  1.00  0.00     0.170 HD
BRANCH  83  85
ATOM     85  C   UNL A   1      33.025  22.649  25.344  1.00  0.00     0.108 A 
ATOM     86  S   UNL A   1      33.907  23.333  26.628  1.00  0.00    -0.122 S 
ATOM     87  C   UNL A   1      33.704  21.538  24.784  1.00  0.00     0.078 A 
ATOM     88  C   UNL A   1      35.319  22.963  25.788  1.00  0.00     0.011 A 
ATOM     89  C   UNL A   1      35.158  21.794  25.049  1.00  0.00    -0.019 A 
ATOM     90  C   UNL A   1      36.564  23.786  25.934  1.00  0.00     0.047 C 
ATOM     91  C   UNL A   1      36.446  21.125  24.626  1.00  0.00     0.037 C 
ATOM     92  C   UNL A   1      37.582  23.337  24.889  1.00  0.00     0.006 C 
ATOM     93  C   UNL A   1      37.747  21.829  25.045  1.00  0.00     0.005 C 
BRANCH  87  94
ATOM     94  C   UNL A   1      32.817  20.506  24.132  1.00  0.00     0.254 C 
ATOM     95  O   UNL A   1      32.076  20.905  23.213  1.00  0.00    -0.269 OA
ATOM     96  N   UNL A   1      32.661  19.144  24.297  1.00  0.00    -0.349 N 
ATOM     97  H   UNL A   1      31.992  18.822  23.649  1.00  0.00     0.164 HD
BRANCH  96  98
ATOM     98  C   UNL A   1      33.138  17.997  25.095  1.00  0.00     0.082 C 
ATOM     99  C   UNL A   1      32.075  16.900  25.292  1.00  0.00     0.025 C 
ATOM    100  C   UNL A   1      34.392  17.449  24.519  1.00  0.00     0.025 C 
ATOM    101  C   UNL A   1      32.657  15.579  25.832  1.00  0.00     0.002 C 
ATOM    102  C   UNL A   1      34.937  16.153  25.076  1.00  0.00     0.002 C 
ATOM    103  C   UNL A   1      33.851  15.099  25.016  1.00  0.00     0.000 C 
ENDBRANCH  96  98
ENDBRANCH  87  94
ENDBRANCH  83  85
ENDBRANCH  76  81
ENDBRANCH  72  74
ENDBRANCH  71  72
ENDBRANCH  70  71
ENDBRANCH  69  70
ENDBRANCH  68  69
ENDBRANCH  67  68
ENDBRANCH   1  67
TORSDOF 24
ENDMDL
