MODEL 1
REMARK VINA RESULT:     -11.1      0.000      0.000
REMARK SMILES Cc1ccc([C@H]2NC(=O)N(C)C3=C2C(=O)N(c2cccc(C(=O)OCCOCCOCCOCCOC(=O)c4ccc(-c5c6nc(c(-c7c(F)cccc7F)c7ccc([nH]7)c(-c7c(F)cccc7F)c7nc(c(-c8c(F)cccc8F)c8ccc5[nH]8)C=C7)C=C6)cc4)c2)C3)cc1
REMARK SMILES IDX 30 1 29 2 28 3 27 4 26 5 25 6 24 7 22 8 23 9 21 10 17 11
REMARK SMILES IDX 18 12 93 13 19 14 20 15 16 16 6 17 7 18 13 19 8 20 12 22
REMARK SMILES IDX 14 23 9 24 10 25 94 26 15 27 11 28 5 29 1 30 2 31 3 32 96 33
REMARK SMILES IDX 4 34 95 35 31 36 32 37 33 38 34 39 35 40 36 41 37 42 38 43
REMARK SMILES IDX 39 44 40 45 92 46 41 47 91 48 42 49 43 50 44 51 85 52 45 53
REMARK SMILES IDX 90 54 84 55 86 56 46 57 89 58 83 59 82 60 47 62 73 63 56 64
REMARK SMILES IDX 72 65 57 66 60 67 71 68 87 69 58 70 59 71 70 73 88 74 61 75
REMARK SMILES IDX 48 76 49 77 54 78 50 79 51 80 53 81 55 82 52 83 74 84 75 85
REMARK SMILES IDX 80 86 76 87 77 88 79 89 81 90 78 91 62 92 63 93 68 94 64 95
REMARK SMILES IDX 65 96 67 97 69 98 66 99
REMARK H PARENT 7 21 86 61 60 72
REMARK Flexibility Score: inf
ROOT
ATOM      1  O   UNL A   1      34.130  32.191  28.444  1.00  0.00    -0.377 OA
ENDROOT
BRANCH   1   2
ATOM      2  C   UNL A   1      33.870  31.075  27.606  1.00  0.00     0.188 C 
BRANCH   2   3
ATOM      3  C   UNL A   1      32.624  31.089  26.703  1.00  0.00     0.188 C 
BRANCH   3   4
ATOM      4  O   UNL A   1      32.536  30.129  25.663  1.00  0.00    -0.376 OA
BRANCH   4   5
ATOM      5  C   UNL A   1      31.213  29.942  25.179  1.00  0.00     0.202 C 
BRANCH   5   6
ATOM      6  C   UNL A   1      31.082  29.509  23.731  1.00  0.00     0.261 C 
BRANCH   6   7
ATOM      7  O   UNL A   1      30.221  28.368  23.754  1.00  0.00    -0.460 OA
BRANCH   7   8
ATOM      8  C   UNL A   1      30.690  27.285  23.134  1.00  0.00     0.338 C 
ATOM      9  O   UNL A   1      31.084  27.213  21.982  1.00  0.00    -0.246 OA
BRANCH   8  10
ATOM     10  C   UNL A   1      31.060  26.344  24.210  1.00  0.00     0.062 A 
ATOM     11  C   UNL A   1      32.285  24.304  24.566  1.00  0.00     0.045 A 
ATOM     12  C   UNL A   1      32.342  24.535  25.933  1.00  0.00     0.026 A 
ATOM     13  C   UNL A   1      31.613  25.180  23.724  1.00  0.00     0.042 A 
ATOM     14  C   UNL A   1      31.762  25.701  26.442  1.00  0.00     0.003 A 
ATOM     15  C   UNL A   1      31.147  26.618  25.577  1.00  0.00     0.016 A 
BRANCH  11  16
ATOM     16  N   UNL A   1      32.912  23.217  23.937  1.00  0.00    -0.303 N 
ATOM     17  C   UNL A   1      36.438  22.028  24.097  1.00  0.00     0.152 C 
ATOM     18  N   UNL A   1      36.681  20.600  24.244  1.00  0.00    -0.327 N 
ATOM     19  C   UNL A   1      34.983  22.219  24.060  1.00  0.00     0.066 C 
ATOM     20  C   UNL A   1      35.811  19.675  24.756  1.00  0.00     0.322 C 
ATOM     21  H   UNL A   1      37.559  20.266  23.948  1.00  0.00     0.166 HD
ATOM     22  C   UNL A   1      34.087  21.340  24.502  1.00  0.00     0.053 C 
ATOM     23  C   UNL A   1      34.269  23.410  23.632  1.00  0.00     0.258 C 
ATOM     24  O   UNL A   1      36.211  18.539  24.991  1.00  0.00    -0.248 OA
ATOM     25  N   UNL A   1      34.490  20.094  24.932  1.00  0.00    -0.299 N 
ATOM     26  C   UNL A   1      32.707  21.889  24.512  1.00  0.00     0.180 C 
ATOM     27  O   UNL A   1      34.812  24.420  23.206  1.00  0.00    -0.269 OA
ATOM     28  C   UNL A   1      33.537  19.174  25.534  1.00  0.00     0.155 C 
BRANCH  17  29
ATOM     29  C   UNL A   1      37.208  22.794  25.174  1.00  0.00    -0.021 A 
ATOM     30  C   UNL A   1      39.552  24.779  28.248  1.00  0.00     0.044 C 
ATOM     31  C   UNL A   1      38.735  24.104  27.186  1.00  0.00    -0.051 A 
ATOM     32  C   UNL A   1      39.208  22.938  26.577  1.00  0.00     0.004 A 
ATOM     33  C   UNL A   1      37.494  24.608  26.794  1.00  0.00     0.004 A 
ATOM     34  C   UNL A   1      38.457  22.297  25.584  1.00  0.00     0.006 A 
ATOM     35  C   UNL A   1      36.736  23.952  25.813  1.00  0.00     0.006 A 
ENDBRANCH  17  29
ENDBRANCH  11  16
ENDBRANCH   8  10
ENDBRANCH   7   8
ENDBRANCH   6   7
ENDBRANCH   5   6
ENDBRANCH   4   5
ENDBRANCH   3   4
ENDBRANCH   2   3
ENDBRANCH   1   2
BRANCH   1  36
ATOM     36  C   UNL A   1      33.596  33.449  28.048  1.00  0.00     0.188 C 
BRANCH  36  37
ATOM     37  C   UNL A   1      34.541  34.569  27.671  1.00  0.00     0.188 C 
BRANCH  37  38
ATOM     38  O   UNL A   1      34.286  35.673  28.534  1.00  0.00    -0.376 OA
BRANCH  38  39
ATOM     39  C   UNL A   1      32.956  35.728  29.038  1.00  0.00     0.202 C 
BRANCH  39  40
ATOM     40  C   UNL A   1      32.880  36.021  30.544  1.00  0.00     0.261 C 
BRANCH  40  41
ATOM     41  O   UNL A   1      33.173  34.812  31.276  1.00  0.00    -0.460 OA
BRANCH  41  42
ATOM     42  C   UNL A   1      34.367  34.780  31.928  1.00  0.00     0.338 C 
ATOM     43  O   UNL A   1      34.838  35.688  32.594  1.00  0.00    -0.246 OA
BRANCH  42  44
ATOM     44  C   UNL A   1      35.170  33.619  31.442  1.00  0.00     0.060 A 
ATOM     45  C   UNL A   1      34.925  32.328  31.945  1.00  0.00     0.016 A 
ATOM     46  C   UNL A   1      36.358  33.871  30.770  1.00  0.00     0.016 A 
ATOM     47  C   UNL A   1      35.943  31.357  31.939  1.00  0.00     0.010 A 
ATOM     48  C   UNL A   1      37.372  32.936  30.834  1.00  0.00     0.010 A 
ATOM     49  C   UNL A   1      37.211  31.690  31.465  1.00  0.00    -0.014 A 
BRANCH  49  50
ATOM     50  C   UNL A   1      38.449  30.907  31.699  1.00  0.00     0.031 A 
ATOM     51  C   UNL A   1      38.796  29.767  30.787  1.00  0.00     0.074 A 
ATOM     52  C   UNL A   1      39.436  31.453  32.460  1.00  0.00     0.049 A 
ATOM     53  N   UNL A   1      39.876  29.063  30.838  1.00  0.00    -0.248 NA
ATOM     54  C   UNL A   1      37.954  29.363  29.672  1.00  0.00     0.031 C 
ATOM     55  C   UNL A   1      40.864  31.175  32.383  1.00  0.00     0.029 A 
ATOM     56  N   UNL A   1      39.391  32.447  33.426  1.00  0.00    -0.354 N 
ATOM     57  C   UNL A   1      40.071  28.451  29.611  1.00  0.00     0.074 A 
ATOM     58  C   UNL A   1      38.785  28.585  28.972  1.00  0.00     0.031 C 
ATOM     59  C   UNL A   1      41.557  31.879  33.285  1.00  0.00     0.029 A 
ATOM     60  C   UNL A   1      40.584  32.451  34.169  1.00  0.00     0.049 A 
ATOM     61  H   UNL A   1      38.634  33.060  33.570  1.00  0.00     0.167 HD
ATOM     62  C   UNL A   1      41.339  28.055  29.251  1.00  0.00     0.037 A 
ATOM     63  C   UNL A   1      40.549  32.177  35.503  1.00  0.00     0.037 A 
ATOM     64  C   UNL A   1      42.306  28.295  30.366  1.00  0.00     0.049 A 
ATOM     65  C   UNL A   1      41.161  30.791  35.706  1.00  0.00     0.074 A 
ATOM     66  C   UNL A   1      43.495  28.999  30.490  1.00  0.00     0.029 A 
ATOM     67  N   UNL A   1      41.967  27.931  31.679  1.00  0.00    -0.354 N 
ATOM     68  N   UNL A   1      41.112  29.845  34.787  1.00  0.00    -0.248 NA
ATOM     69  C   UNL A   1      42.140  30.487  36.748  1.00  0.00     0.031 C 
ATOM     70  C   UNL A   1      43.779  29.174  31.881  1.00  0.00     0.029 A 
ATOM     71  C   UNL A   1      42.798  28.520  32.619  1.00  0.00     0.049 A 
ATOM     72  H   UNL A   1      41.225  27.326  31.907  1.00  0.00     0.167 HD
ATOM     73  C   UNL A   1      42.165  28.984  34.967  1.00  0.00     0.074 A 
ATOM     74  C   UNL A   1      42.720  29.371  36.261  1.00  0.00     0.031 C 
ATOM     75  C   UNL A   1      42.719  28.146  34.031  1.00  0.00     0.037 A 
BRANCH  62  76
ATOM     76  C   UNL A   1      41.798  27.645  27.824  1.00  0.00     0.057 A 
ATOM     77  C   UNL A   1      42.559  26.472  27.599  1.00  0.00     0.134 A 
ATOM     78  C   UNL A   1      41.555  28.353  26.626  1.00  0.00     0.134 A 
ATOM     79  F   UNL A   1      42.841  25.613  28.585  1.00  0.00    -0.206 F 
ATOM     80  C   UNL A   1      43.058  26.083  26.336  1.00  0.00     0.040 A 
ATOM     81  C   UNL A   1      42.031  27.968  25.356  1.00  0.00     0.040 A 
ATOM     82  F   UNL A   1      40.820  29.459  26.575  1.00  0.00    -0.206 F 
ATOM     83  C   UNL A   1      42.797  26.831  25.204  1.00  0.00     0.006 A 
ENDBRANCH  62  76
BRANCH  63  84
ATOM     84  C   UNL A   1      39.437  32.972  36.124  1.00  0.00     0.057 A 
ATOM     85  C   UNL A   1      38.368  32.174  36.613  1.00  0.00     0.134 A 
ATOM     86  C   UNL A   1      39.694  34.148  36.845  1.00  0.00     0.134 A 
ATOM     87  F   UNL A   1      38.043  31.035  35.980  1.00  0.00    -0.206 F 
ATOM     88  C   UNL A   1      37.769  32.399  37.863  1.00  0.00     0.040 A 
ATOM     89  C   UNL A   1      39.082  34.389  38.093  1.00  0.00     0.040 A 
ATOM     90  F   UNL A   1      40.691  34.965  36.476  1.00  0.00    -0.206 F 
ATOM     91  C   UNL A   1      38.169  33.482  38.633  1.00  0.00     0.006 A 
ENDBRANCH  63  84
BRANCH  75  92
ATOM     92  C   UNL A   1      43.238  26.775  34.400  1.00  0.00     0.057 A 
ATOM     93  C   UNL A   1      44.604  26.473  34.439  1.00  0.00     0.134 A 
ATOM     94  C   UNL A   1      42.389  25.810  34.995  1.00  0.00     0.134 A 
ATOM     95  F   UNL A   1      45.530  27.322  33.971  1.00  0.00    -0.206 F 
ATOM     96  C   UNL A   1      45.092  25.302  35.023  1.00  0.00     0.040 A 
ATOM     97  C   UNL A   1      42.870  24.668  35.632  1.00  0.00     0.040 A 
ATOM     98  F   UNL A   1      41.055  25.948  35.034  1.00  0.00    -0.206 F 
ATOM     99  C   UNL A   1      44.229  24.408  35.644  1.00  0.00     0.006 A 
ENDBRANCH  75  92
ENDBRANCH  49  50
ENDBRANCH  42  44
ENDBRANCH  41  42
ENDBRANCH  40  41
ENDBRANCH  39  40
ENDBRANCH  38  39
ENDBRANCH  37  38
ENDBRANCH  36  37
ENDBRANCH   1  36
TORSDOF 22
ENDMDL
MODEL 2
REMARK VINA RESULT:     -10.2      4.194      9.840
REMARK SMILES Cc1ccc([C@H]2NC(=O)N(C)C3=C2C(=O)N(c2cccc(C(=O)OCCOCCOCCOCCOC(=O)c4ccc(-c5c6nc(c(-c7c(F)cccc7F)c7ccc([nH]7)c(-c7c(F)cccc7F)c7nc(c(-c8c(F)cccc8F)c8ccc5[nH]8)C=C7)C=C6)cc4)c2)C3)cc1
REMARK SMILES IDX 30 1 29 2 28 3 27 4 26 5 25 6 24 7 22 8 23 9 21 10 17 11
REMARK SMILES IDX 18 12 93 13 19 14 20 15 16 16 6 17 7 18 13 19 8 20 12 22
REMARK SMILES IDX 14 23 9 24 10 25 94 26 15 27 11 28 5 29 1 30 2 31 3 32 96 33
REMARK SMILES IDX 4 34 95 35 31 36 32 37 33 38 34 39 35 40 36 41 37 42 38 43
REMARK SMILES IDX 39 44 40 45 92 46 41 47 91 48 42 49 43 50 44 51 85 52 45 53
REMARK SMILES IDX 90 54 84 55 86 56 46 57 89 58 83 59 82 60 47 62 73 63 56 64
REMARK SMILES IDX 72 65 57 66 60 67 71 68 87 69 58 70 59 71 70 73 88 74 61 75
REMARK SMILES IDX 48 76 49 77 54 78 50 79 51 80 53 81 55 82 52 83 74 84 75 85
REMARK SMILES IDX 80 86 76 87 77 88 79 89 81 90 78 91 62 92 63 93 68 94 64 95
REMARK SMILES IDX 65 96 67 97 69 98 66 99
REMARK H PARENT 7 21 86 61 60 72
REMARK Flexibility Score: inf
ROOT
ATOM      1  O   UNL A   1      33.008  25.741  24.423  1.00  0.00    -0.377 OA
ENDROOT
BRANCH   1   2
ATOM      2  C   UNL A   1      33.164  26.930  25.182  1.00  0.00     0.188 C 
BRANCH   2   3
ATOM      3  C   UNL A   1      31.923  27.782  25.506  1.00  0.00     0.188 C 
BRANCH   3   4
ATOM      4  O   UNL A   1      32.047  29.193  25.462  1.00  0.00    -0.376 OA
BRANCH   4   5
ATOM      5  C   UNL A   1      32.203  29.786  26.745  1.00  0.00     0.202 C 
BRANCH   5   6
ATOM      6  C   UNL A   1      32.105  31.298  26.803  1.00  0.00     0.261 C 
BRANCH   6   7
ATOM      7  O   UNL A   1      33.227  31.720  27.582  1.00  0.00    -0.460 OA
BRANCH   7   8
ATOM      8  C   UNL A   1      33.294  33.029  27.827  1.00  0.00     0.338 C 
ATOM      9  O   UNL A   1      32.363  33.817  27.855  1.00  0.00    -0.246 OA
BRANCH   8  10
ATOM     10  C   UNL A   1      34.596  33.241  28.488  1.00  0.00     0.062 A 
ATOM     11  C   UNL A   1      35.808  32.609  30.468  1.00  0.00     0.045 A 
ATOM     12  C   UNL A   1      37.012  33.002  29.900  1.00  0.00     0.026 A 
ATOM     13  C   UNL A   1      34.612  32.769  29.782  1.00  0.00     0.042 A 
ATOM     14  C   UNL A   1      37.006  33.506  28.595  1.00  0.00     0.003 A 
ATOM     15  C   UNL A   1      35.803  33.598  27.881  1.00  0.00     0.016 A 
BRANCH  11  16
ATOM     16  N   UNL A   1      35.708  32.004  31.731  1.00  0.00    -0.303 N 
ATOM     17  C   UNL A   1      38.037  29.703  33.507  1.00  0.00     0.152 C 
ATOM     18  N   UNL A   1      38.303  29.941  34.919  1.00  0.00    -0.327 N 
ATOM     19  C   UNL A   1      37.099  30.740  33.061  1.00  0.00     0.066 C 
ATOM     20  C   UNL A   1      38.158  31.129  35.585  1.00  0.00     0.322 C 
ATOM     21  H   UNL A   1      38.620  29.173  35.447  1.00  0.00     0.166 HD
ATOM     22  C   UNL A   1      36.883  31.895  33.689  1.00  0.00     0.053 C 
ATOM     23  C   UNL A   1      36.319  30.744  31.836  1.00  0.00     0.258 C 
ATOM     24  O   UNL A   1      38.591  31.233  36.729  1.00  0.00    -0.248 OA
ATOM     25  N   UNL A   1      37.470  32.141  34.911  1.00  0.00    -0.299 N 
ATOM     26  C   UNL A   1      36.029  32.819  32.902  1.00  0.00     0.180 C 
ATOM     27  O   UNL A   1      36.327  29.837  31.015  1.00  0.00    -0.269 OA
ATOM     28  C   UNL A   1      37.344  33.444  35.544  1.00  0.00     0.155 C 
BRANCH  17  29
ATOM     29  C   UNL A   1      39.359  29.595  32.746  1.00  0.00    -0.021 A 
ATOM     30  C   UNL A   1      43.162  29.524  30.643  1.00  0.00     0.044 C 
ATOM     31  C   UNL A   1      41.847  29.536  31.366  1.00  0.00    -0.051 A 
ATOM     32  C   UNL A   1      41.513  30.615  32.189  1.00  0.00     0.004 A 
ATOM     33  C   UNL A   1      40.932  28.492  31.227  1.00  0.00     0.004 A 
ATOM     34  C   UNL A   1      40.291  30.640  32.872  1.00  0.00     0.006 A 
ATOM     35  C   UNL A   1      39.699  28.530  31.896  1.00  0.00     0.006 A 
ENDBRANCH  17  29
ENDBRANCH  11  16
ENDBRANCH   8  10
ENDBRANCH   7   8
ENDBRANCH   6   7
ENDBRANCH   5   6
ENDBRANCH   4   5
ENDBRANCH   3   4
ENDBRANCH   2   3
ENDBRANCH   1   2
BRANCH   1  36
ATOM     36  C   UNL A   1      34.170  24.953  24.189  1.00  0.00     0.188 C 
BRANCH  36  37
ATOM     37  C   UNL A   1      34.528  23.856  25.167  1.00  0.00     0.188 C 
BRANCH  37  38
ATOM     38  O   UNL A   1      35.824  23.368  24.831  1.00  0.00    -0.376 OA
BRANCH  38  39
ATOM     39  C   UNL A   1      36.833  23.685  25.782  1.00  0.00     0.202 C 
BRANCH  39  40
ATOM     40  C   UNL A   1      38.027  22.718  25.758  1.00  0.00     0.261 C 
BRANCH  40  41
ATOM     41  O   UNL A   1      39.181  23.378  26.317  1.00  0.00    -0.460 OA
BRANCH  41  42
ATOM     42  C   UNL A   1      40.219  22.572  26.673  1.00  0.00     0.338 C 
ATOM     43  O   UNL A   1      40.337  21.393  26.379  1.00  0.00    -0.246 OA
BRANCH  42  44
ATOM     44  C   UNL A   1      41.017  23.232  27.749  1.00  0.00     0.060 A 
ATOM     45  C   UNL A   1      41.217  24.624  27.728  1.00  0.00     0.016 A 
ATOM     46  C   UNL A   1      41.827  22.441  28.551  1.00  0.00     0.016 A 
ATOM     47  C   UNL A   1      42.341  25.191  28.358  1.00  0.00     0.010 A 
ATOM     48  C   UNL A   1      42.964  22.997  29.103  1.00  0.00     0.010 A 
ATOM     49  C   UNL A   1      43.277  24.362  28.974  1.00  0.00    -0.014 A 
BRANCH  49  50
ATOM     50  C   UNL A   1      44.649  24.763  29.374  1.00  0.00     0.031 A 
ATOM     51  C   UNL A   1      45.801  24.514  28.445  1.00  0.00     0.074 A 
ATOM     52  C   UNL A   1      44.800  25.684  30.362  1.00  0.00     0.049 A 
ATOM     53  N   UNL A   1      47.021  24.883  28.641  1.00  0.00    -0.248 NA
ATOM     54  C   UNL A   1      45.647  23.865  27.152  1.00  0.00     0.031 C 
ATOM     55  C   UNL A   1      45.912  26.607  30.544  1.00  0.00     0.029 A 
ATOM     56  N   UNL A   1      43.949  26.059  31.390  1.00  0.00    -0.354 N 
ATOM     57  C   UNL A   1      47.682  24.913  27.425  1.00  0.00     0.074 A 
ATOM     58  C   UNL A   1      46.808  24.160  26.560  1.00  0.00     0.031 C 
ATOM     59  C   UNL A   1      45.750  27.374  31.628  1.00  0.00     0.029 A 
ATOM     60  C   UNL A   1      44.651  26.805  32.351  1.00  0.00     0.049 A 
ATOM     61  H   UNL A   1      42.991  25.836  31.439  1.00  0.00     0.167 HD
ATOM     62  C   UNL A   1      48.801  25.703  27.287  1.00  0.00     0.037 A 
ATOM     63  C   UNL A   1      44.775  26.324  33.620  1.00  0.00     0.037 A 
ATOM     64  C   UNL A   1      49.160  26.344  28.589  1.00  0.00     0.049 A 
ATOM     65  C   UNL A   1      46.227  25.885  33.808  1.00  0.00     0.074 A 
ATOM     66  C   UNL A   1      49.348  27.652  29.012  1.00  0.00     0.029 A 
ATOM     67  N   UNL A   1      49.166  25.582  29.769  1.00  0.00    -0.354 N 
ATOM     68  N   UNL A   1      46.981  25.459  32.813  1.00  0.00    -0.248 NA
ATOM     69  C   UNL A   1      47.023  26.215  34.990  1.00  0.00     0.031 C 
ATOM     70  C   UNL A   1      49.318  27.678  30.442  1.00  0.00     0.029 A 
ATOM     71  C   UNL A   1      49.177  26.375  30.906  1.00  0.00     0.049 A 
ATOM     72  H   UNL A   1      49.163  24.599  29.786  1.00  0.00     0.167 HD
ATOM     73  C   UNL A   1      48.300  25.683  33.116  1.00  0.00     0.074 A 
ATOM     74  C   UNL A   1      48.279  26.066  34.524  1.00  0.00     0.031 C 
ATOM     75  C   UNL A   1      49.347  25.782  32.232  1.00  0.00     0.037 A 
BRANCH  62  76
ATOM     76  C   UNL A   1      49.480  26.100  25.947  1.00  0.00     0.057 A 
ATOM     77  C   UNL A   1      50.869  25.919  25.738  1.00  0.00     0.134 A 
ATOM     78  C   UNL A   1      48.850  26.683  24.825  1.00  0.00     0.134 A 
ATOM     79  F   UNL A   1      51.647  25.315  26.644  1.00  0.00    -0.206 F 
ATOM     80  C   UNL A   1      51.552  26.320  24.568  1.00  0.00     0.040 A 
ATOM     81  C   UNL A   1      49.515  27.071  23.644  1.00  0.00     0.040 A 
ATOM     82  F   UNL A   1      47.541  26.904  24.763  1.00  0.00    -0.206 F 
ATOM     83  C   UNL A   1      50.877  26.901  23.511  1.00  0.00     0.006 A 
ENDBRANCH  62  76
BRANCH  63  84
ATOM     84  C   UNL A   1      43.429  25.843  34.081  1.00  0.00     0.057 A 
ATOM     85  C   UNL A   1      43.414  24.478  34.473  1.00  0.00     0.134 A 
ATOM     86  C   UNL A   1      42.555  26.686  34.784  1.00  0.00     0.134 A 
ATOM     87  F   UNL A   1      44.211  23.596  33.848  1.00  0.00    -0.206 F 
ATOM     88  C   UNL A   1      42.766  24.035  35.637  1.00  0.00     0.040 A 
ATOM     89  C   UNL A   1      41.886  26.241  35.944  1.00  0.00     0.040 A 
ATOM     90  F   UNL A   1      42.501  27.995  34.502  1.00  0.00    -0.206 F 
ATOM     91  C   UNL A   1      42.044  24.935  36.409  1.00  0.00     0.006 A 
ENDBRANCH  63  84
BRANCH  75  92
ATOM     92  C   UNL A   1      50.721  25.247  32.565  1.00  0.00     0.057 A 
ATOM     93  C   UNL A   1      50.965  23.885  32.783  1.00  0.00     0.134 A 
ATOM     94  C   UNL A   1      51.876  26.048  32.399  1.00  0.00     0.134 A 
ATOM     95  F   UNL A   1      49.968  22.997  32.896  1.00  0.00    -0.206 F 
ATOM     96  C   UNL A   1      52.258  23.359  32.832  1.00  0.00     0.040 A 
ATOM     97  C   UNL A   1      53.167  25.524  32.387  1.00  0.00     0.040 A 
ATOM     98  F   UNL A   1      51.812  27.371  32.188  1.00  0.00    -0.206 F 
ATOM     99  C   UNL A   1      53.362  24.172  32.609  1.00  0.00     0.006 A 
ENDBRANCH  75  92
ENDBRANCH  49  50
ENDBRANCH  42  44
ENDBRANCH  41  42
ENDBRANCH  40  41
ENDBRANCH  39  40
ENDBRANCH  38  39
ENDBRANCH  37  38
ENDBRANCH  36  37
ENDBRANCH   1  36
TORSDOF 22
ENDMDL
MODEL 3
REMARK VINA RESULT:      -9.9      4.703      7.761
REMARK SMILES Cc1ccc([C@H]2NC(=O)N(C)C3=C2C(=O)N(c2cccc(C(=O)OCCOCCOCCOCCOC(=O)c4ccc(-c5c6nc(c(-c7c(F)cccc7F)c7ccc([nH]7)c(-c7c(F)cccc7F)c7nc(c(-c8c(F)cccc8F)c8ccc5[nH]8)C=C7)C=C6)cc4)c2)C3)cc1
REMARK SMILES IDX 30 1 29 2 28 3 27 4 26 5 25 6 24 7 22 8 23 9 21 10 17 11
REMARK SMILES IDX 18 12 93 13 19 14 20 15 16 16 6 17 7 18 13 19 8 20 12 22
REMARK SMILES IDX 14 23 9 24 10 25 94 26 15 27 11 28 5 29 1 30 2 31 3 32 96 33
REMARK SMILES IDX 4 34 95 35 31 36 32 37 33 38 34 39 35 40 36 41 37 42 38 43
REMARK SMILES IDX 39 44 40 45 92 46 41 47 91 48 42 49 43 50 44 51 85 52 45 53
REMARK SMILES IDX 90 54 84 55 86 56 46 57 89 58 83 59 82 60 47 62 73 63 56 64
REMARK SMILES IDX 72 65 57 66 60 67 71 68 87 69 58 70 59 71 70 73 88 74 61 75
REMARK SMILES IDX 48 76 49 77 54 78 50 79 51 80 53 81 55 82 52 83 74 84 75 85
REMARK SMILES IDX 80 86 76 87 77 88 79 89 81 90 78 91 62 92 63 93 68 94 64 95
REMARK SMILES IDX 65 96 67 97 69 98 66 99
REMARK H PARENT 7 21 86 61 60 72
REMARK Flexibility Score: inf
ROOT
ATOM      1  O   UNL A   1      37.043  31.893  31.415  1.00  0.00    -0.377 OA
ENDROOT
BRANCH   1   2
ATOM      2  C   UNL A   1      36.224  30.864  30.883  1.00  0.00     0.188 C 
BRANCH   2   3
ATOM      3  C   UNL A   1      36.196  30.639  29.360  1.00  0.00     0.188 C 
BRANCH   3   4
ATOM      4  O   UNL A   1      35.659  31.663  28.539  1.00  0.00    -0.376 OA
BRANCH   4   5
ATOM      5  C   UNL A   1      34.673  31.196  27.629  1.00  0.00     0.202 C 
BRANCH   5   6
ATOM      6  C   UNL A   1      34.284  29.735  27.749  1.00  0.00     0.261 C 
BRANCH   6   7
ATOM      7  O   UNL A   1      32.911  29.675  27.354  1.00  0.00    -0.460 OA
BRANCH   7   8
ATOM      8  C   UNL A   1      32.462  28.462  27.032  1.00  0.00     0.338 C 
ATOM      9  O   UNL A   1      31.629  27.805  27.635  1.00  0.00    -0.246 OA
BRANCH   8  10
ATOM     10  C   UNL A   1      32.810  28.278  25.609  1.00  0.00     0.062 A 
ATOM     11  C   UNL A   1      32.516  26.716  23.803  1.00  0.00     0.045 A 
ATOM     12  C   UNL A   1      32.858  27.680  22.866  1.00  0.00     0.026 A 
ATOM     13  C   UNL A   1      32.535  27.004  25.161  1.00  0.00     0.042 A 
ATOM     14  C   UNL A   1      33.163  28.970  23.311  1.00  0.00     0.003 A 
ATOM     15  C   UNL A   1      33.111  29.275  24.679  1.00  0.00     0.016 A 
BRANCH  11  16
ATOM     16  N   UNL A   1      32.103  25.417  23.464  1.00  0.00    -0.303 N 
ATOM     17  C   UNL A   1      33.938  22.179  23.590  1.00  0.00     0.152 C 
ATOM     18  N   UNL A   1      33.250  21.014  24.129  1.00  0.00    -0.327 N 
ATOM     19  C   UNL A   1      32.999  23.306  23.655  1.00  0.00     0.066 C 
ATOM     20  C   UNL A   1      32.181  21.024  24.985  1.00  0.00     0.322 C 
ATOM     21  H   UNL A   1      33.588  20.131  23.853  1.00  0.00     0.166 HD
ATOM     22  C   UNL A   1      31.920  23.356  24.434  1.00  0.00     0.053 C 
ATOM     23  C   UNL A   1      33.117  24.582  22.971  1.00  0.00     0.258 C 
ATOM     24  O   UNL A   1      31.816  19.973  25.503  1.00  0.00    -0.248 OA
ATOM     25  N   UNL A   1      31.543  22.253  25.169  1.00  0.00    -0.299 N 
ATOM     26  C   UNL A   1      31.276  24.694  24.428  1.00  0.00     0.180 C 
ATOM     27  O   UNL A   1      34.029  24.869  22.207  1.00  0.00    -0.269 OA
ATOM     28  C   UNL A   1      30.443  22.337  26.117  1.00  0.00     0.155 C 
BRANCH  17  29
ATOM     29  C   UNL A   1      35.281  22.357  24.299  1.00  0.00    -0.021 A 
ATOM     30  C   UNL A   1      39.104  22.618  26.348  1.00  0.00     0.044 C 
ATOM     31  C   UNL A   1      37.784  22.541  25.640  1.00  0.00    -0.051 A 
ATOM     32  C   UNL A   1      37.268  21.299  25.258  1.00  0.00     0.004 A 
ATOM     33  C   UNL A   1      37.042  23.689  25.358  1.00  0.00     0.004 A 
ATOM     34  C   UNL A   1      36.039  21.211  24.594  1.00  0.00     0.006 A 
ATOM     35  C   UNL A   1      35.801  23.595  24.711  1.00  0.00     0.006 A 
ENDBRANCH  17  29
ENDBRANCH  11  16
ENDBRANCH   8  10
ENDBRANCH   7   8
ENDBRANCH   6   7
ENDBRANCH   5   6
ENDBRANCH   4   5
ENDBRANCH   3   4
ENDBRANCH   2   3
ENDBRANCH   1   2
BRANCH   1  36
ATOM     36  C   UNL A   1      38.362  31.542  31.818  1.00  0.00     0.188 C 
BRANCH  36  37
ATOM     37  C   UNL A   1      38.695  30.087  32.070  1.00  0.00     0.188 C 
BRANCH  37  38
ATOM     38  O   UNL A   1      39.511  29.627  30.997  1.00  0.00    -0.376 OA
BRANCH  38  39
ATOM     39  C   UNL A   1      39.104  28.379  30.447  1.00  0.00     0.202 C 
BRANCH  39  40
ATOM     40  C   UNL A   1      40.268  27.541  29.895  1.00  0.00     0.261 C 
BRANCH  40  41
ATOM     41  O   UNL A   1      39.982  27.177  28.529  1.00  0.00    -0.460 OA
BRANCH  41  42
ATOM     42  C   UNL A   1      39.962  25.844  28.254  1.00  0.00     0.338 C 
ATOM     43  O   UNL A   1      39.016  25.095  28.438  1.00  0.00    -0.246 OA
BRANCH  42  44
ATOM     44  C   UNL A   1      41.355  25.363  28.019  1.00  0.00     0.060 A 
ATOM     45  C   UNL A   1      41.809  24.180  28.630  1.00  0.00     0.016 A 
ATOM     46  C   UNL A   1      42.281  26.251  27.489  1.00  0.00     0.016 A 
ATOM     47  C   UNL A   1      43.181  23.986  28.875  1.00  0.00     0.010 A 
ATOM     48  C   UNL A   1      43.616  26.085  27.797  1.00  0.00     0.010 A 
ATOM     49  C   UNL A   1      44.089  24.990  28.541  1.00  0.00    -0.014 A 
BRANCH  49  50
ATOM     50  C   UNL A   1      45.487  25.081  29.030  1.00  0.00     0.031 A 
ATOM     51  C   UNL A   1      46.625  24.774  28.101  1.00  0.00     0.074 A 
ATOM     52  C   UNL A   1      45.743  25.806  30.152  1.00  0.00     0.049 A 
ATOM     53  N   UNL A   1      47.879  24.891  28.381  1.00  0.00    -0.248 NA
ATOM     54  C   UNL A   1      46.428  24.360  26.720  1.00  0.00     0.031 C 
ATOM     55  C   UNL A   1      46.986  26.483  30.500  1.00  0.00     0.029 A 
ATOM     56  N   UNL A   1      44.918  26.168  31.205  1.00  0.00    -0.354 N 
ATOM     57  C   UNL A   1      48.596  24.984  27.199  1.00  0.00     0.074 A 
ATOM     58  C   UNL A   1      47.651  24.532  26.208  1.00  0.00     0.031 C 
ATOM     59  C   UNL A   1      46.902  27.098  31.685  1.00  0.00     0.029 A 
ATOM     60  C   UNL A   1      45.688  26.629  32.286  1.00  0.00     0.049 A 
ATOM     61  H   UNL A   1      43.935  26.111  31.197  1.00  0.00     0.167 HD
ATOM     62  C   UNL A   1      49.837  25.577  27.211  1.00  0.00     0.037 A 
ATOM     63  C   UNL A   1      45.665  25.952  33.468  1.00  0.00     0.037 A 
ATOM     64  C   UNL A   1      50.235  25.947  28.604  1.00  0.00     0.049 A 
ATOM     65  C   UNL A   1      47.010  25.243  33.620  1.00  0.00     0.074 A 
ATOM     66  C   UNL A   1      50.620  27.125  29.228  1.00  0.00     0.029 A 
ATOM     67  N   UNL A   1      50.053  25.030  29.652  1.00  0.00    -0.354 N 
ATOM     68  N   UNL A   1      47.730  24.842  32.589  1.00  0.00    -0.248 NA
ATOM     69  C   UNL A   1      47.791  25.249  34.857  1.00  0.00     0.031 C 
ATOM     70  C   UNL A   1      50.524  26.944  30.643  1.00  0.00     0.029 A 
ATOM     71  C   UNL A   1      50.142  25.632  30.898  1.00  0.00     0.049 A 
ATOM     72  H   UNL A   1      49.882  24.070  29.518  1.00  0.00     0.167 HD
ATOM     73  C   UNL A   1      49.051  24.785  32.953  1.00  0.00     0.074 A 
ATOM     74  C   UNL A   1      49.025  24.954  34.403  1.00  0.00     0.031 C 
ATOM     75  C   UNL A   1      50.143  24.829  32.121  1.00  0.00     0.037 A 
BRANCH  62  76
ATOM     76  C   UNL A   1      50.640  26.043  25.964  1.00  0.00     0.057 A 
ATOM     77  C   UNL A   1      51.994  25.675  25.775  1.00  0.00     0.134 A 
ATOM     78  C   UNL A   1      50.168  26.867  24.919  1.00  0.00     0.134 A 
ATOM     79  F   UNL A   1      52.621  24.835  26.607  1.00  0.00    -0.206 F 
ATOM     80  C   UNL A   1      52.792  26.119  24.697  1.00  0.00     0.040 A 
ATOM     81  C   UNL A   1      50.946  27.305  23.828  1.00  0.00     0.040 A 
ATOM     82  F   UNL A   1      48.913  27.300  24.849  1.00  0.00    -0.206 F 
ATOM     83  C   UNL A   1      52.270  26.940  23.715  1.00  0.00     0.006 A 
ENDBRANCH  62  76
BRANCH  63  84
ATOM     84  C   UNL A   1      44.236  25.651  33.818  1.00  0.00     0.057 A 
ATOM     85  C   UNL A   1      43.945  24.263  33.891  1.00  0.00     0.134 A 
ATOM     86  C   UNL A   1      43.513  26.469  34.699  1.00  0.00     0.134 A 
ATOM     87  F   UNL A   1      44.583  23.405  33.078  1.00  0.00    -0.206 F 
ATOM     88  C   UNL A   1      43.183  23.706  34.930  1.00  0.00     0.040 A 
ATOM     89  C   UNL A   1      42.729  25.915  35.733  1.00  0.00     0.040 A 
ATOM     90  F   UNL A   1      43.721  27.793  34.721  1.00  0.00    -0.206 F 
ATOM     91  C   UNL A   1      42.618  24.534  35.890  1.00  0.00     0.006 A 
ENDBRANCH  63  84
BRANCH  75  92
ATOM     92  C   UNL A   1      51.387  24.018  32.400  1.00  0.00     0.057 A 
ATOM     93  C   UNL A   1      52.663  24.592  32.455  1.00  0.00     0.134 A 
ATOM     94  C   UNL A   1      51.300  22.694  32.894  1.00  0.00     0.134 A 
ATOM     95  F   UNL A   1      52.885  25.860  32.080  1.00  0.00    -0.206 F 
ATOM     96  C   UNL A   1      53.768  23.905  32.962  1.00  0.00     0.040 A 
ATOM     97  C   UNL A   1      52.383  22.022  33.457  1.00  0.00     0.040 A 
ATOM     98  F   UNL A   1      50.150  22.003  32.906  1.00  0.00    -0.206 F 
ATOM     99  C   UNL A   1      53.627  22.627  33.489  1.00  0.00     0.006 A 
ENDBRANCH  75  92
ENDBRANCH  49  50
ENDBRANCH  42  44
ENDBRANCH  41  42
ENDBRANCH  40  41
ENDBRANCH  39  40
ENDBRANCH  38  39
ENDBRANCH  37  38
ENDBRANCH  36  37
ENDBRANCH   1  36
TORSDOF 22
ENDMDL
