MODEL 1
REMARK VINA RESULT:      -7.1      0.000      0.000
REMARK SMILES COc1ccccc1N1C(=O)CC[C@H]1CC(=O)OCCOCCOCCOCCOC(=O)c1ccc(-c2c3nc(c(-c4c(F)cccc4F)c4ccc([nH]4)c(-c4c(F)cccc4F)c4nc(c(-c5c(F)cccc5F)c5ccc2[nH]5)C=C4)C=C3)cc1
REMARK SMILES IDX 23 1 22 2 21 3 20 4 19 5 18 6 16 7 17 8 15 9 14 10 9 11
REMARK SMILES IDX 10 12 11 13 12 14 13 15 8 16 3 17 4 18 5 19 7 20 6 21 2 22
REMARK SMILES IDX 1 23 24 24 25 25 26 26 27 27 28 28 29 29 30 30 31 31 32 32
REMARK SMILES IDX 33 33 34 34 86 35 35 36 85 37 36 38 37 39 38 40 79 41 39 42
REMARK SMILES IDX 84 43 78 44 80 45 40 46 83 47 77 48 76 49 41 51 67 52 50 53
REMARK SMILES IDX 66 54 51 55 54 56 65 57 81 58 52 59 53 60 64 62 82 63 55 64
REMARK SMILES IDX 42 65 43 66 48 67 44 68 45 69 47 70 49 71 46 72 68 73 69 74
REMARK SMILES IDX 74 75 70 76 71 77 73 78 75 79 72 80 56 81 57 82 62 83 58 84
REMARK SMILES IDX 59 85 61 86 63 87 60 88
REMARK H PARENT 80 50 54 61
REMARK Flexibility Score: inf
ROOT
ATOM      1  C   UNL A   1      36.698  31.287  40.795  1.00  0.00     0.188 C 
ENDROOT
BRANCH   1   2
ATOM      2  C   UNL A   1      36.263  32.092  39.389  1.00  0.00     0.188 C 
BRANCH   2   3
ATOM      3  O   UNL A   1      37.058  33.148  38.859  1.00  0.00    -0.376 OA
BRANCH   3   4
ATOM      4  C   UNL A   1      37.388  33.229  37.476  1.00  0.00     0.202 C 
BRANCH   4   5
ATOM      5  C   UNL A   1      38.373  32.089  37.131  1.00  0.00     0.261 C 
BRANCH   5   6
ATOM      6  O   UNL A   1      37.777  31.161  36.194  1.00  0.00    -0.463 OA
BRANCH   6   7
ATOM      7  C   UNL A   1      38.569  30.862  35.141  1.00  0.00     0.307 C 
ATOM      8  O   UNL A   1      38.888  29.717  34.821  1.00  0.00    -0.252 OA
BRANCH   7   9
ATOM      9  C   UNL A   1      38.937  32.028  34.261  1.00  0.00     0.148 C 
BRANCH   9  10
ATOM     10  C   UNL A   1      38.105  32.571  33.086  1.00  0.00     0.102 C 
ATOM     11  N   UNL A   1      37.116  31.775  32.345  1.00  0.00    -0.305 N 
ATOM     12  C   UNL A   1      36.104  32.644  31.873  1.00  0.00     0.227 C 
ATOM     13  O   UNL A   1      35.173  32.372  31.128  1.00  0.00    -0.275 OA
ATOM     14  C   UNL A   1      36.409  34.048  32.353  1.00  0.00     0.103 C 
ATOM     15  C   UNL A   1      37.351  33.823  33.510  1.00  0.00     0.036 C 
BRANCH  11  16
ATOM     16  C   UNL A   1      37.595  30.798  31.400  1.00  0.00     0.086 A 
ATOM     17  C   UNL A   1      38.890  31.357  30.285  1.00  0.00     0.142 A 
ATOM     18  C   UNL A   1      40.027  30.194  29.525  1.00  0.00     0.048 A 
ATOM     19  C   UNL A   1      39.894  28.419  29.922  1.00  0.00     0.004 A 
ATOM     20  C   UNL A   1      37.405  29.047  31.735  1.00  0.00     0.030 A 
ATOM     21  C   UNL A   1      38.537  27.825  30.981  1.00  0.00     0.002 A 
BRANCH  17  22
ATOM     22  O   UNL A   1      38.638  32.620  29.807  1.00  0.00    -0.495 OA
ATOM     23  C   UNL A   1      39.589  33.617  30.088  1.00  0.00     0.278 C 
ENDBRANCH  17  22
ENDBRANCH  11  16
ENDBRANCH   9  10
ENDBRANCH   7   9
ENDBRANCH   6   7
ENDBRANCH   5   6
ENDBRANCH   4   5
ENDBRANCH   3   4
ENDBRANCH   2   3
ENDBRANCH   1   2
BRANCH   1  24
ATOM     24  O   UNL A   1      38.294  31.355  41.978  1.00  0.00    -0.377 OA
BRANCH  24  25
ATOM     25  C   UNL A   1      39.518  30.724  42.631  1.00  0.00     0.188 C 
BRANCH  25  26
ATOM     26  C   UNL A   1      40.986  31.204  42.352  1.00  0.00     0.188 C 
BRANCH  26  27
ATOM     27  O   UNL A   1      41.242  31.760  41.074  1.00  0.00    -0.376 OA
BRANCH  27  28
ATOM     28  C   UNL A   1      41.305  33.153  40.860  1.00  0.00     0.202 C 
BRANCH  28  29
ATOM     29  C   UNL A   1      42.286  33.750  39.845  1.00  0.00     0.261 C 
BRANCH  29  30
ATOM     30  O   UNL A   1      42.390  35.173  39.807  1.00  0.00    -0.460 OA
BRANCH  30  31
ATOM     31  C   UNL A   1      41.486  35.806  39.034  1.00  0.00     0.338 C 
ATOM     32  O   UNL A   1      40.636  36.594  39.392  1.00  0.00    -0.246 OA
BRANCH  31  33
ATOM     33  C   UNL A   1      41.779  35.499  37.622  1.00  0.00     0.060 A 
ATOM     34  C   UNL A   1      40.711  35.134  36.795  1.00  0.00     0.016 A 
ATOM     35  C   UNL A   1      43.095  35.467  37.153  1.00  0.00     0.016 A 
ATOM     36  C   UNL A   1      40.961  34.644  35.520  1.00  0.00     0.010 A 
ATOM     37  C   UNL A   1      43.349  34.944  35.882  1.00  0.00     0.010 A 
ATOM     38  C   UNL A   1      42.284  34.471  35.095  1.00  0.00    -0.014 A 
BRANCH  38  39
ATOM     39  C   UNL A   1      42.531  33.527  33.981  1.00  0.00     0.031 A 
ATOM     40  C   UNL A   1      42.791  34.109  32.616  1.00  0.00     0.074 A 
ATOM     41  C   UNL A   1      42.640  32.206  34.191  1.00  0.00     0.049 A 
ATOM     42  N   UNL A   1      43.034  33.502  31.484  1.00  0.00    -0.248 NA
ATOM     43  C   UNL A   1      42.792  35.580  32.520  1.00  0.00     0.031 C 
ATOM     44  C   UNL A   1      42.504  31.541  35.486  1.00  0.00     0.029 A 
ATOM     45  N   UNL A   1      42.902  31.189  33.310  1.00  0.00    -0.354 N 
ATOM     46  C   UNL A   1      43.216  34.513  30.548  1.00  0.00     0.074 A 
ATOM     47  C   UNL A   1      43.029  35.771  31.232  1.00  0.00     0.031 C 
ATOM     48  C   UNL A   1      42.676  30.218  35.311  1.00  0.00     0.029 A 
ATOM     49  C   UNL A   1      42.890  29.946  33.891  1.00  0.00     0.049 A 
ATOM     50  H   UNL A   1      43.081  31.337  32.353  1.00  0.00     0.167 HD
ATOM     51  C   UNL A   1      43.520  34.401  29.233  1.00  0.00     0.037 A 
ATOM     52  C   UNL A   1      43.008  28.730  33.325  1.00  0.00     0.037 A 
ATOM     53  C   UNL A   1      43.697  33.146  28.554  1.00  0.00     0.049 A 
ATOM     54  C   UNL A   1      43.219  28.630  31.834  1.00  0.00     0.074 A 
ATOM     55  C   UNL A   1      43.977  32.921  27.219  1.00  0.00     0.029 A 
ATOM     56  N   UNL A   1      43.603  31.903  29.161  1.00  0.00    -0.354 N 
ATOM     57  N   UNL A   1      43.374  29.586  30.949  1.00  0.00    -0.248 NA
ATOM     58  C   UNL A   1      43.268  27.275  31.263  1.00  0.00     0.031 C 
ATOM     59  C   UNL A   1      44.000  31.539  27.006  1.00  0.00     0.029 A 
ATOM     60  C   UNL A   1      43.798  30.906  28.221  1.00  0.00     0.049 A 
ATOM     61  H   UNL A   1      43.424  31.752  30.118  1.00  0.00     0.167 HD
ATOM     62  C   UNL A   1      43.579  28.950  29.731  1.00  0.00     0.074 A 
ATOM     63  C   UNL A   1      43.541  27.526  29.992  1.00  0.00     0.031 C 
ATOM     64  C   UNL A   1      43.780  29.493  28.504  1.00  0.00     0.037 A 
BRANCH  51  65
ATOM     65  C   UNL A   1      43.641  35.668  28.438  1.00  0.00     0.057 A 
ATOM     66  C   UNL A   1      44.870  36.317  28.258  1.00  0.00     0.134 A 
ATOM     67  C   UNL A   1      42.519  36.226  27.815  1.00  0.00     0.134 A 
ATOM     68  F   UNL A   1      45.982  35.846  28.843  1.00  0.00    -0.206 F 
ATOM     69  C   UNL A   1      44.973  37.485  27.499  1.00  0.00     0.040 A 
ATOM     70  C   UNL A   1      42.614  37.376  27.032  1.00  0.00     0.040 A 
ATOM     71  F   UNL A   1      41.312  35.655  27.948  1.00  0.00    -0.206 F 
ATOM     72  C   UNL A   1      43.843  38.012  26.876  1.00  0.00     0.006 A 
ENDBRANCH  51  65
BRANCH  52  73
ATOM     73  C   UNL A   1      42.889  27.499  34.150  1.00  0.00     0.057 A 
ATOM     74  C   UNL A   1      41.650  26.888  34.375  1.00  0.00     0.134 A 
ATOM     75  C   UNL A   1      44.005  26.944  34.789  1.00  0.00     0.134 A 
ATOM     76  F   UNL A   1      40.539  27.387  33.812  1.00  0.00    -0.206 F 
ATOM     77  C   UNL A   1      41.519  25.791  35.229  1.00  0.00     0.040 A 
ATOM     78  C   UNL A   1      43.893  25.828  35.620  1.00  0.00     0.040 A 
ATOM     79  F   UNL A   1      45.221  27.483  34.623  1.00  0.00    -0.206 F 
ATOM     80  C   UNL A   1      42.644  25.256  35.852  1.00  0.00     0.006 A 
ENDBRANCH  52  73
BRANCH  64  81
ATOM     81  C   UNL A   1      44.037  28.550  27.363  1.00  0.00     0.057 A 
ATOM     82  C   UNL A   1      43.016  28.121  26.505  1.00  0.00     0.134 A 
ATOM     83  C   UNL A   1      45.336  28.099  27.096  1.00  0.00     0.134 A 
ATOM     84  F   UNL A   1      41.748  28.507  26.709  1.00  0.00    -0.206 F 
ATOM     85  C   UNL A   1      43.274  27.254  25.442  1.00  0.00     0.040 A 
ATOM     86  C   UNL A   1      45.612  27.259  26.016  1.00  0.00     0.040 A 
ATOM     87  F   UNL A   1      46.364  28.483  27.868  1.00  0.00    -0.206 F 
ATOM     88  C   UNL A   1      44.577  26.826  25.190  1.00  0.00     0.006 A 
ENDBRANCH  64  81
ENDBRANCH  38  39
ENDBRANCH  31  33
ENDBRANCH  30  31
ENDBRANCH  29  30
ENDBRANCH  28  29
ENDBRANCH  27  28
ENDBRANCH  26  27
ENDBRANCH  25  26
ENDBRANCH  24  25
ENDBRANCH   1  24
TORSDOF 23
ENDMDL
MODEL 2
REMARK VINA RESULT:      -6.7      3.773      9.631
REMARK SMILES COc1ccccc1N1C(=O)CC[C@H]1CC(=O)OCCOCCOCCOCCOC(=O)c1ccc(-c2c3nc(c(-c4c(F)cccc4F)c4ccc([nH]4)c(-c4c(F)cccc4F)c4nc(c(-c5c(F)cccc5F)c5ccc2[nH]5)C=C4)C=C3)cc1
REMARK SMILES IDX 23 1 22 2 21 3 20 4 19 5 18 6 16 7 17 8 15 9 14 10 9 11
REMARK SMILES IDX 10 12 11 13 12 14 13 15 8 16 3 17 4 18 5 19 7 20 6 21 2 22
REMARK SMILES IDX 1 23 24 24 25 25 26 26 27 27 28 28 29 29 30 30 31 31 32 32
REMARK SMILES IDX 33 33 34 34 86 35 35 36 85 37 36 38 37 39 38 40 79 41 39 42
REMARK SMILES IDX 84 43 78 44 80 45 40 46 83 47 77 48 76 49 41 51 67 52 50 53
REMARK SMILES IDX 66 54 51 55 54 56 65 57 81 58 52 59 53 60 64 62 82 63 55 64
REMARK SMILES IDX 42 65 43 66 48 67 44 68 45 69 47 70 49 71 46 72 68 73 69 74
REMARK SMILES IDX 74 75 70 76 71 77 73 78 75 79 72 80 56 81 57 82 62 83 58 84
REMARK SMILES IDX 59 85 61 86 63 87 60 88
REMARK H PARENT 80 50 54 61
REMARK Flexibility Score: inf
ROOT
ATOM      1  C   UNL A   1      36.670  30.449  27.627  1.00  0.00     0.188 C 
ENDROOT
BRANCH   1   2
ATOM      2  C   UNL A   1      38.042  29.623  28.127  1.00  0.00     0.188 C 
BRANCH   2   3
ATOM      3  O   UNL A   1      37.971  28.572  29.086  1.00  0.00    -0.376 OA
BRANCH   3   4
ATOM      4  C   UNL A   1      39.123  28.088  29.768  1.00  0.00     0.202 C 
BRANCH   4   5
ATOM      5  C   UNL A   1      40.342  28.194  28.823  1.00  0.00     0.261 C 
BRANCH   5   6
ATOM      6  O   UNL A   1      40.970  26.903  28.649  1.00  0.00    -0.463 OA
BRANCH   6   7
ATOM      7  C   UNL A   1      40.607  26.266  27.514  1.00  0.00     0.307 C 
ATOM      8  O   UNL A   1      40.767  26.726  26.384  1.00  0.00    -0.252 OA
BRANCH   7   9
ATOM      9  C   UNL A   1      40.112  24.855  27.697  1.00  0.00     0.148 C 
BRANCH   9  10
ATOM     10  C   UNL A   1      40.455  23.654  26.798  1.00  0.00     0.102 C 
ATOM     11  N   UNL A   1      41.663  22.832  26.954  1.00  0.00    -0.305 N 
ATOM     12  C   UNL A   1      41.371  21.517  26.520  1.00  0.00     0.227 C 
ATOM     13  O   UNL A   1      42.147  20.581  26.396  1.00  0.00    -0.275 OA
ATOM     14  C   UNL A   1      39.914  21.456  26.108  1.00  0.00     0.103 C 
ATOM     15  C   UNL A   1      39.307  22.653  26.798  1.00  0.00     0.036 C 
BRANCH  11  16
ATOM     16  C   UNL A   1      42.920  23.375  26.504  1.00  0.00     0.086 A 
ATOM     17  C   UNL A   1      44.215  23.485  27.746  1.00  0.00     0.142 A 
ATOM     18  C   UNL A   1      45.949  23.505  27.282  1.00  0.00     0.048 A 
ATOM     19  C   UNL A   1      46.409  23.369  25.523  1.00  0.00     0.004 A 
ATOM     20  C   UNL A   1      43.359  23.322  24.766  1.00  0.00     0.030 A 
ATOM     21  C   UNL A   1      45.110  23.343  24.245  1.00  0.00     0.002 A 
BRANCH  17  22
ATOM     22  O   UNL A   1      43.729  23.943  28.948  1.00  0.00    -0.495 OA
ATOM     23  C   UNL A   1      43.790  25.329  29.181  1.00  0.00     0.278 C 
ENDBRANCH  17  22
ENDBRANCH  11  16
ENDBRANCH   9  10
ENDBRANCH   7   9
ENDBRANCH   6   7
ENDBRANCH   5   6
ENDBRANCH   4   5
ENDBRANCH   3   4
ENDBRANCH   2   3
ENDBRANCH   1   2
BRANCH   1  24
ATOM     24  O   UNL A   1      35.123  31.248  28.586  1.00  0.00    -0.377 OA
BRANCH  24  25
ATOM     25  C   UNL A   1      34.404  32.416  29.251  1.00  0.00     0.188 C 
BRANCH  25  26
ATOM     26  C   UNL A   1      35.056  33.830  29.446  1.00  0.00     0.188 C 
BRANCH  26  27
ATOM     27  O   UNL A   1      34.790  34.489  30.672  1.00  0.00    -0.376 OA
BRANCH  27  28
ATOM     28  C   UNL A   1      34.947  33.849  31.918  1.00  0.00     0.202 C 
BRANCH  28  29
ATOM     29  C   UNL A   1      36.194  33.009  32.222  1.00  0.00     0.261 C 
BRANCH  29  30
ATOM     30  O   UNL A   1      37.100  33.525  33.195  1.00  0.00    -0.460 OA
BRANCH  30  31
ATOM     31  C   UNL A   1      37.293  32.754  34.283  1.00  0.00     0.338 C 
ATOM     32  O   UNL A   1      36.590  32.687  35.271  1.00  0.00    -0.246 OA
BRANCH  31  33
ATOM     33  C   UNL A   1      38.445  31.869  34.033  1.00  0.00     0.060 A 
ATOM     34  C   UNL A   1      39.690  32.256  34.541  1.00  0.00     0.016 A 
ATOM     35  C   UNL A   1      38.319  30.739  33.222  1.00  0.00     0.016 A 
ATOM     36  C   UNL A   1      40.834  31.566  34.163  1.00  0.00     0.010 A 
ATOM     37  C   UNL A   1      39.473  30.064  32.816  1.00  0.00     0.010 A 
ATOM     38  C   UNL A   1      40.735  30.522  33.235  1.00  0.00    -0.014 A 
BRANCH  38  39
ATOM     39  C   UNL A   1      41.960  30.139  32.496  1.00  0.00     0.031 A 
ATOM     40  C   UNL A   1      42.634  28.848  32.879  1.00  0.00     0.074 A 
ATOM     41  C   UNL A   1      42.394  30.848  31.442  1.00  0.00     0.049 A 
ATOM     42  N   UNL A   1      43.710  28.292  32.388  1.00  0.00    -0.248 NA
ATOM     43  C   UNL A   1      41.994  28.069  33.955  1.00  0.00     0.031 C 
ATOM     44  C   UNL A   1      41.765  32.061  30.921  1.00  0.00     0.029 A 
ATOM     45  N   UNL A   1      43.468  30.637  30.615  1.00  0.00    -0.354 N 
ATOM     46  C   UNL A   1      43.875  27.105  33.093  1.00  0.00     0.074 A 
ATOM     47  C   UNL A   1      42.807  27.031  34.063  1.00  0.00     0.031 C 
ATOM     48  C   UNL A   1      42.474  32.493  29.862  1.00  0.00     0.029 A 
ATOM     49  C   UNL A   1      43.624  31.612  29.663  1.00  0.00     0.049 A 
ATOM     50  H   UNL A   1      44.067  29.861  30.698  1.00  0.00     0.167 HD
ATOM     51  C   UNL A   1      44.829  26.157  32.938  1.00  0.00     0.037 A 
ATOM     52  C   UNL A   1      44.607  31.782  28.758  1.00  0.00     0.037 A 
ATOM     53  C   UNL A   1      45.894  26.239  31.977  1.00  0.00     0.049 A 
ATOM     54  C   UNL A   1      45.729  30.776  28.694  1.00  0.00     0.074 A 
ATOM     55  C   UNL A   1      46.929  25.348  31.758  1.00  0.00     0.029 A 
ATOM     56  N   UNL A   1      46.063  27.282  31.078  1.00  0.00    -0.354 N 
ATOM     57  N   UNL A   1      45.890  29.664  29.371  1.00  0.00    -0.248 NA
ATOM     58  C   UNL A   1      46.810  31.053  27.735  1.00  0.00     0.031 C 
ATOM     59  C   UNL A   1      47.756  25.877  30.763  1.00  0.00     0.029 A 
ATOM     60  C   UNL A   1      47.200  27.065  30.317  1.00  0.00     0.049 A 
ATOM     61  H   UNL A   1      45.465  28.059  30.993  1.00  0.00     0.167 HD
ATOM     62  C   UNL A   1      47.064  29.092  28.894  1.00  0.00     0.074 A 
ATOM     63  C   UNL A   1      47.567  29.973  27.861  1.00  0.00     0.031 C 
ATOM     64  C   UNL A   1      47.673  27.942  29.276  1.00  0.00     0.037 A 
BRANCH  51  65
ATOM     65  C   UNL A   1      44.782  24.970  33.855  1.00  0.00     0.057 A 
ATOM     66  C   UNL A   1      45.280  25.022  35.163  1.00  0.00     0.134 A 
ATOM     67  C   UNL A   1      44.199  23.769  33.434  1.00  0.00     0.134 A 
ATOM     68  F   UNL A   1      45.869  26.136  35.625  1.00  0.00    -0.206 F 
ATOM     69  C   UNL A   1      45.213  23.916  36.014  1.00  0.00     0.040 A 
ATOM     70  C   UNL A   1      44.100  22.667  34.283  1.00  0.00     0.040 A 
ATOM     71  F   UNL A   1      43.703  23.652  32.192  1.00  0.00    -0.206 F 
ATOM     72  C   UNL A   1      44.613  22.737  35.576  1.00  0.00     0.006 A 
ENDBRANCH  51  65
BRANCH  52  73
ATOM     73  C   UNL A   1      44.610  32.969  27.863  1.00  0.00     0.057 A 
ATOM     74  C   UNL A   1      45.000  34.231  28.325  1.00  0.00     0.134 A 
ATOM     75  C   UNL A   1      44.160  32.881  26.540  1.00  0.00     0.134 A 
ATOM     76  F   UNL A   1      45.417  34.387  29.591  1.00  0.00    -0.206 F 
ATOM     77  C   UNL A   1      44.911  35.367  27.518  1.00  0.00     0.040 A 
ATOM     78  C   UNL A   1      44.096  34.002  25.711  1.00  0.00     0.040 A 
ATOM     79  F   UNL A   1      43.765  31.703  26.033  1.00  0.00    -0.206 F 
ATOM     80  C   UNL A   1      44.461  35.253  26.205  1.00  0.00     0.006 A 
ENDBRANCH  52  73
BRANCH  64  81
ATOM     81  C   UNL A   1      48.914  27.536  28.533  1.00  0.00     0.057 A 
ATOM     82  C   UNL A   1      50.196  27.890  28.973  1.00  0.00     0.134 A 
ATOM     83  C   UNL A   1      48.823  26.742  27.383  1.00  0.00     0.134 A 
ATOM     84  F   UNL A   1      50.355  28.657  30.062  1.00  0.00    -0.206 F 
ATOM     85  C   UNL A   1      51.340  27.495  28.277  1.00  0.00     0.040 A 
ATOM     86  C   UNL A   1      49.960  26.312  26.698  1.00  0.00     0.040 A 
ATOM     87  F   UNL A   1      47.627  26.354  26.914  1.00  0.00    -0.206 F 
ATOM     88  C   UNL A   1      51.224  26.697  27.140  1.00  0.00     0.006 A 
ENDBRANCH  64  81
ENDBRANCH  38  39
ENDBRANCH  31  33
ENDBRANCH  30  31
ENDBRANCH  29  30
ENDBRANCH  28  29
ENDBRANCH  27  28
ENDBRANCH  26  27
ENDBRANCH  25  26
ENDBRANCH  24  25
ENDBRANCH   1  24
TORSDOF 23
ENDMDL
MODEL 3
REMARK VINA RESULT:      -6.7      5.319     10.993
REMARK SMILES COc1ccccc1N1C(=O)CC[C@H]1CC(=O)OCCOCCOCCOCCOC(=O)c1ccc(-c2c3nc(c(-c4c(F)cccc4F)c4ccc([nH]4)c(-c4c(F)cccc4F)c4nc(c(-c5c(F)cccc5F)c5ccc2[nH]5)C=C4)C=C3)cc1
REMARK SMILES IDX 23 1 22 2 21 3 20 4 19 5 18 6 16 7 17 8 15 9 14 10 9 11
REMARK SMILES IDX 10 12 11 13 12 14 13 15 8 16 3 17 4 18 5 19 7 20 6 21 2 22
REMARK SMILES IDX 1 23 24 24 25 25 26 26 27 27 28 28 29 29 30 30 31 31 32 32
REMARK SMILES IDX 33 33 34 34 86 35 35 36 85 37 36 38 37 39 38 40 79 41 39 42
REMARK SMILES IDX 84 43 78 44 80 45 40 46 83 47 77 48 76 49 41 51 67 52 50 53
REMARK SMILES IDX 66 54 51 55 54 56 65 57 81 58 52 59 53 60 64 62 82 63 55 64
REMARK SMILES IDX 42 65 43 66 48 67 44 68 45 69 47 70 49 71 46 72 68 73 69 74
REMARK SMILES IDX 74 75 70 76 71 77 73 78 75 79 72 80 56 81 57 82 62 83 58 84
REMARK SMILES IDX 59 85 61 86 63 87 60 88
REMARK H PARENT 80 50 54 61
REMARK Flexibility Score: inf
ROOT
ATOM      1  C   UNL A   1      38.036  30.246  28.272  1.00  0.00     0.188 C 
ENDROOT
BRANCH   1   2
ATOM      2  C   UNL A   1      39.090  28.954  28.090  1.00  0.00     0.188 C 
BRANCH   2   3
ATOM      3  O   UNL A   1      40.409  29.134  27.584  1.00  0.00    -0.376 OA
BRANCH   3   4
ATOM      4  C   UNL A   1      41.552  28.583  28.231  1.00  0.00     0.202 C 
BRANCH   4   5
ATOM      5  C   UNL A   1      42.774  28.730  27.296  1.00  0.00     0.261 C 
BRANCH   5   6
ATOM      6  O   UNL A   1      43.116  27.460  26.694  1.00  0.00    -0.463 OA
BRANCH   6   7
ATOM      7  C   UNL A   1      42.446  27.197  25.550  1.00  0.00     0.307 C 
ATOM      8  O   UNL A   1      42.514  27.891  24.537  1.00  0.00    -0.252 OA
BRANCH   7   9
ATOM      9  C   UNL A   1      41.699  25.889  25.528  1.00  0.00     0.148 C 
BRANCH   9  10
ATOM     10  C   UNL A   1      41.885  24.726  26.518  1.00  0.00     0.102 C 
ATOM     11  N   UNL A   1      43.177  24.083  26.794  1.00  0.00    -0.305 N 
ATOM     12  C   UNL A   1      43.166  23.609  28.128  1.00  0.00     0.227 C 
ATOM     13  O   UNL A   1      44.014  22.929  28.686  1.00  0.00    -0.275 OA
ATOM     14  C   UNL A   1      41.845  23.989  28.765  1.00  0.00     0.103 C 
ATOM     15  C   UNL A   1      41.345  25.111  27.888  1.00  0.00     0.036 C 
BRANCH  11  16
ATOM     16  C   UNL A   1      43.713  23.176  25.812  1.00  0.00     0.086 A 
ATOM     17  C   UNL A   1      45.257  23.680  25.040  1.00  0.00     0.142 A 
ATOM     18  C   UNL A   1      46.375  22.472  24.324  1.00  0.00     0.048 A 
ATOM     19  C   UNL A   1      45.962  20.699  24.418  1.00  0.00     0.004 A 
ATOM     20  C   UNL A   1      43.258  21.442  25.838  1.00  0.00     0.030 A 
ATOM     21  C   UNL A   1      44.364  20.177  25.119  1.00  0.00     0.002 A 
BRANCH  17  22
ATOM     22  O   UNL A   1      45.253  25.017  24.721  1.00  0.00    -0.495 OA
ATOM     23  C   UNL A   1      46.405  25.758  25.037  1.00  0.00     0.278 C 
ENDBRANCH  17  22
ENDBRANCH  11  16
ENDBRANCH   9  10
ENDBRANCH   7   9
ENDBRANCH   6   7
ENDBRANCH   5   6
ENDBRANCH   4   5
ENDBRANCH   3   4
ENDBRANCH   2   3
ENDBRANCH   1   2
BRANCH   1  24
ATOM     24  O   UNL A   1      36.132  30.544  27.784  1.00  0.00    -0.377 OA
BRANCH  24  25
ATOM     25  C   UNL A   1      34.690  30.895  28.128  1.00  0.00     0.188 C 
BRANCH  25  26
ATOM     26  C   UNL A   1      34.076  32.323  27.918  1.00  0.00     0.188 C 
BRANCH  26  27
ATOM     27  O   UNL A   1      33.763  33.060  29.087  1.00  0.00    -0.376 OA
BRANCH  27  28
ATOM     28  C   UNL A   1      34.634  34.033  29.618  1.00  0.00     0.202 C 
BRANCH  28  29
ATOM     29  C   UNL A   1      35.789  33.634  30.545  1.00  0.00     0.261 C 
BRANCH  29  30
ATOM     30  O   UNL A   1      37.011  33.241  29.922  1.00  0.00    -0.460 OA
BRANCH  30  31
ATOM     31  C   UNL A   1      38.016  32.913  30.758  1.00  0.00     0.338 C 
ATOM     32  O   UNL A   1      38.056  31.973  31.526  1.00  0.00    -0.246 OA
BRANCH  31  33
ATOM     33  C   UNL A   1      39.157  33.808  30.496  1.00  0.00     0.060 A 
ATOM     34  C   UNL A   1      39.270  34.369  29.219  1.00  0.00     0.016 A 
ATOM     35  C   UNL A   1      40.152  34.004  31.457  1.00  0.00     0.016 A 
ATOM     36  C   UNL A   1      40.426  35.051  28.864  1.00  0.00     0.010 A 
ATOM     37  C   UNL A   1      41.328  34.662  31.090  1.00  0.00     0.010 A 
ATOM     38  C   UNL A   1      41.489  35.125  29.773  1.00  0.00    -0.014 A 
BRANCH  38  39
ATOM     39  C   UNL A   1      42.838  35.408  29.232  1.00  0.00     0.031 A 
ATOM     40  C   UNL A   1      43.749  34.237  28.975  1.00  0.00     0.074 A 
ATOM     41  C   UNL A   1      43.202  36.647  28.867  1.00  0.00     0.049 A 
ATOM     42  N   UNL A   1      44.969  34.217  28.507  1.00  0.00    -0.248 NA
ATOM     43  C   UNL A   1      43.200  32.902  29.275  1.00  0.00     0.031 C 
ATOM     44  C   UNL A   1      42.367  37.842  28.978  1.00  0.00     0.029 A 
ATOM     45  N   UNL A   1      44.374  37.099  28.317  1.00  0.00    -0.354 N 
ATOM     46  C   UNL A   1      45.330  32.875  28.457  1.00  0.00     0.074 A 
ATOM     47  C   UNL A   1      44.215  32.111  28.967  1.00  0.00     0.031 C 
ATOM     48  C   UNL A   1      43.062  38.898  28.516  1.00  0.00     0.029 A 
ATOM     49  C   UNL A   1      44.398  38.457  28.119  1.00  0.00     0.049 A 
ATOM     50  H   UNL A   1      45.125  36.506  28.086  1.00  0.00     0.167 HD
ATOM     51  C   UNL A   1      46.488  32.328  28.017  1.00  0.00     0.037 A 
ATOM     52  C   UNL A   1      45.402  39.248  27.696  1.00  0.00     0.037 A 
ATOM     53  C   UNL A   1      47.598  33.093  27.518  1.00  0.00     0.049 A 
ATOM     54  C   UNL A   1      46.727  38.624  27.334  1.00  0.00     0.074 A 
ATOM     55  C   UNL A   1      48.827  32.639  27.075  1.00  0.00     0.029 A 
ATOM     56  N   UNL A   1      47.613  34.475  27.403  1.00  0.00    -0.354 N 
ATOM     57  N   UNL A   1      47.070  37.358  27.302  1.00  0.00    -0.248 NA
ATOM     58  C   UNL A   1      47.807  39.545  26.947  1.00  0.00     0.031 C 
ATOM     59  C   UNL A   1      49.607  33.751  26.742  1.00  0.00     0.029 A 
ATOM     60  C   UNL A   1      48.841  34.892  26.917  1.00  0.00     0.049 A 
ATOM     61  H   UNL A   1      46.864  35.070  27.634  1.00  0.00     0.167 HD
ATOM     62  C   UNL A   1      48.387  37.329  26.857  1.00  0.00     0.074 A 
ATOM     63  C   UNL A   1      48.776  38.703  26.617  1.00  0.00     0.031 C 
ATOM     64  C   UNL A   1      49.203  36.263  26.663  1.00  0.00     0.037 A 
BRANCH  51  65
ATOM     65  C   UNL A   1      46.623  30.836  28.092  1.00  0.00     0.057 A 
ATOM     66  C   UNL A   1      46.353  30.009  26.995  1.00  0.00     0.134 A 
ATOM     67  C   UNL A   1      47.065  30.221  29.270  1.00  0.00     0.134 A 
ATOM     68  F   UNL A   1      45.908  30.530  25.841  1.00  0.00    -0.206 F 
ATOM     69  C   UNL A   1      46.502  28.622  27.072  1.00  0.00     0.040 A 
ATOM     70  C   UNL A   1      47.245  28.840  29.351  1.00  0.00     0.040 A 
ATOM     71  F   UNL A   1      47.341  30.955  30.359  1.00  0.00    -0.206 F 
ATOM     72  C   UNL A   1      46.959  28.036  28.251  1.00  0.00     0.006 A 
ENDBRANCH  51  65
BRANCH  52  73
ATOM     73  C   UNL A   1      45.223  40.722  27.629  1.00  0.00     0.057 A 
ATOM     74  C   UNL A   1      44.646  41.337  26.512  1.00  0.00     0.134 A 
ATOM     75  C   UNL A   1      45.687  41.557  28.654  1.00  0.00     0.134 A 
ATOM     76  F   UNL A   1      44.205  40.595  25.486  1.00  0.00    -0.206 F 
ATOM     77  C   UNL A   1      44.566  42.727  26.401  1.00  0.00     0.040 A 
ATOM     78  C   UNL A   1      45.584  42.946  28.571  1.00  0.00     0.040 A 
ATOM     79  F   UNL A   1      46.257  41.034  29.750  1.00  0.00    -0.206 F 
ATOM     80  C   UNL A   1      45.033  43.535  27.435  1.00  0.00     0.006 A 
ENDBRANCH  52  73
BRANCH  64  81
ATOM     81  C   UNL A   1      50.573  36.532  26.109  1.00  0.00     0.057 A 
ATOM     82  C   UNL A   1      50.807  36.678  24.736  1.00  0.00     0.134 A 
ATOM     83  C   UNL A   1      51.667  36.688  26.971  1.00  0.00     0.134 A 
ATOM     84  F   UNL A   1      49.807  36.531  23.855  1.00  0.00    -0.206 F 
ATOM     85  C   UNL A   1      52.085  36.939  24.239  1.00  0.00     0.040 A 
ATOM     86  C   UNL A   1      52.943  36.983  26.488  1.00  0.00     0.040 A 
ATOM     87  F   UNL A   1      51.511  36.576  28.299  1.00  0.00    -0.206 F 
ATOM     88  C   UNL A   1      53.156  37.101  25.117  1.00  0.00     0.006 A 
ENDBRANCH  64  81
ENDBRANCH  38  39
ENDBRANCH  31  33
ENDBRANCH  30  31
ENDBRANCH  29  30
ENDBRANCH  28  29
ENDBRANCH  27  28
ENDBRANCH  26  27
ENDBRANCH  25  26
ENDBRANCH  24  25
ENDBRANCH   1  24
TORSDOF 23
ENDMDL
