MODEL 1
REMARK VINA RESULT:      -9.8      0.000      0.000
REMARK SMILES O=C(Nc1ccsc1C(=O)OCCOCCOCCOCCOC(=O)c1ccc(-c2c3nc(c(-c4c(F)cccc4F)c4ccc([nH]4)c(-c4c(F)cccc4F)c4nc(c(-c5c(F)cccc5F)c5ccc2[nH]5)C=C4)C=C3)cc1)c1ccc(Br)nc1
REMARK SMILES IDX 17 1 16 2 15 3 14 4 13 5 12 6 11 7 9 8 10 9 8 10 4 11 5 12
REMARK SMILES IDX 6 13 7 14 3 15 1 16 2 17 80 19 81 20 86 21 82 22 85 23 83 24
REMARK SMILES IDX 84 25 18 26 19 27 20 28 21 29 22 30 23 31 24 32 25 33 26 34
REMARK SMILES IDX 27 35 79 36 28 37 78 38 29 39 30 40 31 41 72 42 32 43 77 44
REMARK SMILES IDX 71 45 73 46 33 47 76 48 70 49 69 50 34 52 60 53 43 54 59 55
REMARK SMILES IDX 44 56 47 57 58 58 74 59 45 60 46 61 57 63 75 64 48 65 35 66
REMARK SMILES IDX 36 67 41 68 37 69 38 70 40 71 42 72 39 73 61 74 62 75 67 76
REMARK SMILES IDX 63 77 64 78 66 79 68 80 65 81 49 82 50 83 55 84 51 85 52 86
REMARK SMILES IDX 54 87 56 88 53 89
REMARK H PARENT 3 18 73 51 47 62
REMARK Flexibility Score: inf
ROOT
ATOM      1  O   UNL A   1      33.581  33.509  27.695  1.00  0.00    -0.377 OA
ENDROOT
BRANCH   1   2
ATOM      2  C   UNL A   1      34.150  32.315  28.209  1.00  0.00     0.188 C 
BRANCH   2   3
ATOM      3  C   UNL A   1      33.725  31.068  27.420  1.00  0.00     0.188 C 
BRANCH   3   4
ATOM      4  O   UNL A   1      32.314  30.993  27.209  1.00  0.00    -0.376 OA
BRANCH   4   5
ATOM      5  C   UNL A   1      31.871  30.038  26.250  1.00  0.00     0.202 C 
BRANCH   5   6
ATOM      6  C   UNL A   1      32.960  29.126  25.662  1.00  0.00     0.261 C 
BRANCH   6   7
ATOM      7  O   UNL A   1      32.933  27.763  26.120  1.00  0.00    -0.459 OA
BRANCH   7   8
ATOM      8  C   UNL A   1      33.502  26.816  25.328  1.00  0.00     0.350 C 
ATOM      9  O   UNL A   1      34.621  26.353  25.520  1.00  0.00    -0.245 OA
BRANCH   8  10
ATOM     10  C   UNL A   1      32.541  26.387  24.322  1.00  0.00     0.136 A 
ATOM     11  C   UNL A   1      31.403  25.585  24.421  1.00  0.00     0.067 A 
ATOM     12  C   UNL A   1      30.804  25.394  23.136  1.00  0.00     0.039 A 
ATOM     13  C   UNL A   1      31.516  25.980  22.114  1.00  0.00     0.068 A 
ATOM     14  S   UNL A   1      32.861  26.841  22.694  1.00  0.00    -0.135 S 
BRANCH  11  15
ATOM     15  N   UNL A   1      30.944  25.101  25.647  1.00  0.00    -0.320 N 
ATOM     16  O   UNL A   1      30.491  23.547  27.231  1.00  0.00    -0.269 OA
ATOM     17  C   UNL A   1      31.235  23.949  26.337  1.00  0.00     0.257 C 
ATOM     18  H   UNL A   1      30.295  25.690  26.098  1.00  0.00     0.170 HD
BRANCH  17  19
ATOM     19  C   UNL A   1      32.470  23.197  26.088  1.00  0.00     0.058 A 
ATOM     20  C   UNL A   1      33.567  23.326  26.940  1.00  0.00     0.018 A 
ATOM     21  C   UNL A   1      32.601  22.408  24.954  1.00  0.00     0.126 A 
ATOM     22  C   UNL A   1      34.729  22.609  26.659  1.00  0.00     0.037 A 
ATOM     23  N   UNL A   1      33.715  21.693  24.664  1.00  0.00    -0.249 NA
ATOM     24  C   UNL A   1      34.754  21.807  25.524  1.00  0.00     0.106 A 
ATOM     25  Br  UNL A   1      36.318  20.802  25.148  1.00  0.00    -0.029 Br
ENDBRANCH  17  19
ENDBRANCH  11  15
ENDBRANCH   8  10
ENDBRANCH   7   8
ENDBRANCH   6   7
ENDBRANCH   5   6
ENDBRANCH   4   5
ENDBRANCH   3   4
ENDBRANCH   2   3
ENDBRANCH   1   2
BRANCH   1  26
ATOM     26  C   UNL A   1      34.112  34.742  28.185  1.00  0.00     0.188 C 
BRANCH  26  27
ATOM     27  C   UNL A   1      33.282  35.621  29.144  1.00  0.00     0.188 C 
BRANCH  27  28
ATOM     28  O   UNL A   1      33.902  35.812  30.416  1.00  0.00    -0.376 OA
BRANCH  28  29
ATOM     29  C   UNL A   1      33.538  34.889  31.440  1.00  0.00     0.202 C 
BRANCH  29  30
ATOM     30  C   UNL A   1      34.710  34.479  32.342  1.00  0.00     0.261 C 
BRANCH  30  31
ATOM     31  O   UNL A   1      35.527  33.421  31.812  1.00  0.00    -0.460 OA
BRANCH  31  32
ATOM     32  C   UNL A   1      36.140  32.613  32.703  1.00  0.00     0.338 C 
ATOM     33  O   UNL A   1      35.853  32.451  33.875  1.00  0.00    -0.246 OA
BRANCH  32  34
ATOM     34  C   UNL A   1      37.129  31.798  31.973  1.00  0.00     0.060 A 
ATOM     35  C   UNL A   1      38.057  31.051  32.709  1.00  0.00     0.016 A 
ATOM     36  C   UNL A   1      37.154  31.787  30.576  1.00  0.00     0.016 A 
ATOM     37  C   UNL A   1      39.049  30.329  32.046  1.00  0.00     0.010 A 
ATOM     38  C   UNL A   1      38.155  31.077  29.914  1.00  0.00     0.010 A 
ATOM     39  C   UNL A   1      39.127  30.375  30.648  1.00  0.00    -0.014 A 
BRANCH  39  40
ATOM     40  C   UNL A   1      40.332  29.861  29.959  1.00  0.00     0.031 A 
ATOM     41  C   UNL A   1      41.482  30.803  29.732  1.00  0.00     0.074 A 
ATOM     42  C   UNL A   1      40.407  28.587  29.540  1.00  0.00     0.049 A 
ATOM     43  N   UNL A   1      42.617  30.597  29.115  1.00  0.00    -0.248 NA
ATOM     44  C   UNL A   1      41.327  32.163  30.274  1.00  0.00     0.031 C 
ATOM     45  C   UNL A   1      39.371  27.573  29.720  1.00  0.00     0.029 A 
ATOM     46  N   UNL A   1      41.407  27.935  28.861  1.00  0.00    -0.354 N 
ATOM     47  C   UNL A   1      43.310  31.797  29.196  1.00  0.00     0.074 A 
ATOM     48  C   UNL A   1      42.460  32.735  29.895  1.00  0.00     0.031 C 
ATOM     49  C   UNL A   1      39.783  26.426  29.150  1.00  0.00     0.029 A 
ATOM     50  C   UNL A   1      41.098  26.635  28.546  1.00  0.00     0.049 A 
ATOM     51  H   UNL A   1      42.261  28.360  28.622  1.00  0.00     0.167 HD
ATOM     52  C   UNL A   1      44.550  32.090  28.739  1.00  0.00     0.037 A 
ATOM     53  C   UNL A   1      41.794  25.728  27.834  1.00  0.00     0.037 A 
ATOM     54  C   UNL A   1      45.391  31.165  28.029  1.00  0.00     0.049 A 
ATOM     55  C   UNL A   1      43.142  26.098  27.273  1.00  0.00     0.074 A 
ATOM     56  C   UNL A   1      46.665  31.367  27.527  1.00  0.00     0.029 A 
ATOM     57  N   UNL A   1      45.036  29.863  27.713  1.00  0.00    -0.354 N 
ATOM     58  N   UNL A   1      43.801  27.226  27.379  1.00  0.00    -0.248 NA
ATOM     59  C   UNL A   1      43.842  25.066  26.493  1.00  0.00     0.031 C 
ATOM     60  C   UNL A   1      47.066  30.196  26.873  1.00  0.00     0.029 A 
ATOM     61  C   UNL A   1      46.058  29.255  27.005  1.00  0.00     0.049 A 
ATOM     62  H   UNL A   1      44.184  29.435  27.956  1.00  0.00     0.167 HD
ATOM     63  C   UNL A   1      45.000  27.032  26.703  1.00  0.00     0.074 A 
ATOM     64  C   UNL A   1      44.982  25.676  26.198  1.00  0.00     0.031 C 
ATOM     65  C   UNL A   1      46.026  27.899  26.518  1.00  0.00     0.037 A 
BRANCH  52  66
ATOM     66  C   UNL A   1      45.057  33.479  28.982  1.00  0.00     0.057 A 
ATOM     67  C   UNL A   1      44.935  34.484  28.013  1.00  0.00     0.134 A 
ATOM     68  C   UNL A   1      45.662  33.817  30.197  1.00  0.00     0.134 A 
ATOM     69  F   UNL A   1      44.381  34.216  26.821  1.00  0.00    -0.206 F 
ATOM     70  C   UNL A   1      45.415  35.774  28.240  1.00  0.00     0.040 A 
ATOM     71  C   UNL A   1      46.128  35.110  30.442  1.00  0.00     0.040 A 
ATOM     72  F   UNL A   1      45.811  32.900  31.163  1.00  0.00    -0.206 F 
ATOM     73  C   UNL A   1      46.010  36.092  29.460  1.00  0.00     0.006 A 
ENDBRANCH  52  66
BRANCH  53  74
ATOM     74  C   UNL A   1      41.227  24.378  27.597  1.00  0.00     0.057 A 
ATOM     75  C   UNL A   1      40.200  24.177  26.668  1.00  0.00     0.134 A 
ATOM     76  C   UNL A   1      41.682  23.263  28.310  1.00  0.00     0.134 A 
ATOM     77  F   UNL A   1      39.706  25.213  25.974  1.00  0.00    -0.206 F 
ATOM     78  C   UNL A   1      39.635  22.917  26.465  1.00  0.00     0.040 A 
ATOM     79  C   UNL A   1      41.140  21.993  28.103  1.00  0.00     0.040 A 
ATOM     80  F   UNL A   1      42.659  23.393  29.218  1.00  0.00    -0.206 F 
ATOM     81  C   UNL A   1      40.109  21.819  27.182  1.00  0.00     0.006 A 
ENDBRANCH  53  74
BRANCH  65  82
ATOM     82  C   UNL A   1      47.225  27.401  25.767  1.00  0.00     0.057 A 
ATOM     83  C   UNL A   1      47.334  27.535  24.377  1.00  0.00     0.134 A 
ATOM     84  C   UNL A   1      48.303  26.824  26.450  1.00  0.00     0.134 A 
ATOM     85  F   UNL A   1      46.330  28.069  23.666  1.00  0.00    -0.206 F 
ATOM     86  C   UNL A   1      48.467  27.098  23.692  1.00  0.00     0.040 A 
ATOM     87  C   UNL A   1      49.451  26.404  25.777  1.00  0.00     0.040 A 
ATOM     88  F   UNL A   1      48.264  26.675  27.783  1.00  0.00    -0.206 F 
ATOM     89  C   UNL A   1      49.534  26.537  24.393  1.00  0.00     0.006 A 
ENDBRANCH  65  82
ENDBRANCH  39  40
ENDBRANCH  32  34
ENDBRANCH  31  32
ENDBRANCH  30  31
ENDBRANCH  29  30
ENDBRANCH  28  29
ENDBRANCH  27  28
ENDBRANCH  26  27
ENDBRANCH   1  26
TORSDOF 22
ENDMDL
MODEL 2
REMARK VINA RESULT:      -9.6      4.938     10.210
REMARK SMILES O=C(Nc1ccsc1C(=O)OCCOCCOCCOCCOC(=O)c1ccc(-c2c3nc(c(-c4c(F)cccc4F)c4ccc([nH]4)c(-c4c(F)cccc4F)c4nc(c(-c5c(F)cccc5F)c5ccc2[nH]5)C=C4)C=C3)cc1)c1ccc(Br)nc1
REMARK SMILES IDX 17 1 16 2 15 3 14 4 13 5 12 6 11 7 9 8 10 9 8 10 4 11 5 12
REMARK SMILES IDX 6 13 7 14 3 15 1 16 2 17 80 19 81 20 86 21 82 22 85 23 83 24
REMARK SMILES IDX 84 25 18 26 19 27 20 28 21 29 22 30 23 31 24 32 25 33 26 34
REMARK SMILES IDX 27 35 79 36 28 37 78 38 29 39 30 40 31 41 72 42 32 43 77 44
REMARK SMILES IDX 71 45 73 46 33 47 76 48 70 49 69 50 34 52 60 53 43 54 59 55
REMARK SMILES IDX 44 56 47 57 58 58 74 59 45 60 46 61 57 63 75 64 48 65 35 66
REMARK SMILES IDX 36 67 41 68 37 69 38 70 40 71 42 72 39 73 61 74 62 75 67 76
REMARK SMILES IDX 63 77 64 78 66 79 68 80 65 81 49 82 50 83 55 84 51 85 52 86
REMARK SMILES IDX 54 87 56 88 53 89
REMARK H PARENT 3 18 73 51 47 62
REMARK Flexibility Score: inf
ROOT
ATOM      1  O   UNL A   1      41.048  21.392  25.826  1.00  0.00    -0.377 OA
ENDROOT
BRANCH   1   2
ATOM      2  C   UNL A   1      39.883  21.581  26.615  1.00  0.00     0.188 C 
BRANCH   2   3
ATOM      3  C   UNL A   1      38.612  21.742  25.767  1.00  0.00     0.188 C 
BRANCH   3   4
ATOM      4  O   UNL A   1      38.196  23.102  25.637  1.00  0.00    -0.376 OA
BRANCH   4   5
ATOM      5  C   UNL A   1      36.906  23.417  26.154  1.00  0.00     0.202 C 
BRANCH   5   6
ATOM      6  C   UNL A   1      35.733  23.247  25.175  1.00  0.00     0.261 C 
BRANCH   6   7
ATOM      7  O   UNL A   1      34.555  22.636  25.729  1.00  0.00    -0.459 OA
BRANCH   7   8
ATOM      8  C   UNL A   1      33.512  22.395  24.891  1.00  0.00     0.350 C 
ATOM      9  O   UNL A   1      33.436  21.407  24.168  1.00  0.00    -0.245 OA
BRANCH   8  10
ATOM     10  C   UNL A   1      32.492  23.417  25.082  1.00  0.00     0.136 A 
ATOM     11  C   UNL A   1      32.352  24.690  24.529  1.00  0.00     0.067 A 
ATOM     12  C   UNL A   1      31.206  25.354  25.070  1.00  0.00     0.039 A 
ATOM     13  C   UNL A   1      30.561  24.619  26.039  1.00  0.00     0.068 A 
ATOM     14  S   UNL A   1      31.271  23.090  26.248  1.00  0.00    -0.135 S 
BRANCH  11  15
ATOM     15  N   UNL A   1      33.227  25.173  23.554  1.00  0.00    -0.320 N 
ATOM     16  O   UNL A   1      33.835  26.251  21.658  1.00  0.00    -0.269 OA
ATOM     17  C   UNL A   1      33.097  26.192  22.640  1.00  0.00     0.257 C 
ATOM     18  H   UNL A   1      34.089  24.700  23.513  1.00  0.00     0.170 HD
BRANCH  17  19
ATOM     19  C   UNL A   1      32.133  27.280  22.836  1.00  0.00     0.058 A 
ATOM     20  C   UNL A   1      32.376  28.289  23.767  1.00  0.00     0.018 A 
ATOM     21  C   UNL A   1      30.921  27.280  22.159  1.00  0.00     0.126 A 
ATOM     22  C   UNL A   1      31.425  29.295  23.937  1.00  0.00     0.037 A 
ATOM     23  N   UNL A   1      29.986  28.250  22.298  1.00  0.00    -0.249 NA
ATOM     24  C   UNL A   1      30.260  29.239  23.181  1.00  0.00     0.106 A 
ATOM     25  Br  UNL A   1      28.974  30.619  23.380  1.00  0.00    -0.029 Br
ENDBRANCH  17  19
ENDBRANCH  11  15
ENDBRANCH   8  10
ENDBRANCH   7   8
ENDBRANCH   6   7
ENDBRANCH   5   6
ENDBRANCH   4   5
ENDBRANCH   3   4
ENDBRANCH   2   3
ENDBRANCH   1   2
BRANCH   1  26
ATOM     26  C   UNL A   1      42.035  20.494  26.336  1.00  0.00     0.188 C 
BRANCH  26  27
ATOM     27  C   UNL A   1      43.146  19.952  25.412  1.00  0.00     0.188 C 
BRANCH  27  28
ATOM     28  O   UNL A   1      44.463  20.201  25.905  1.00  0.00    -0.376 OA
BRANCH  28  29
ATOM     29  C   UNL A   1      45.342  20.903  25.029  1.00  0.00     0.202 C 
BRANCH  29  30
ATOM     30  C   UNL A   1      45.816  22.252  25.589  1.00  0.00     0.261 C 
BRANCH  30  31
ATOM     31  O   UNL A   1      44.792  23.017  26.246  1.00  0.00    -0.460 OA
BRANCH  31  32
ATOM     32  C   UNL A   1      43.949  23.719  25.458  1.00  0.00     0.338 C 
ATOM     33  O   UNL A   1      43.662  23.493  24.297  1.00  0.00    -0.246 OA
BRANCH  32  34
ATOM     34  C   UNL A   1      43.272  24.724  26.298  1.00  0.00     0.060 A 
ATOM     35  C   UNL A   1      43.810  26.015  26.364  1.00  0.00     0.016 A 
ATOM     36  C   UNL A   1      42.130  24.390  27.031  1.00  0.00     0.016 A 
ATOM     37  C   UNL A   1      43.234  26.965  27.206  1.00  0.00     0.010 A 
ATOM     38  C   UNL A   1      41.563  25.336  27.885  1.00  0.00     0.010 A 
ATOM     39  C   UNL A   1      42.135  26.615  28.003  1.00  0.00    -0.014 A 
BRANCH  39  40
ATOM     40  C   UNL A   1      41.704  27.510  29.100  1.00  0.00     0.031 A 
ATOM     41  C   UNL A   1      42.438  27.438  30.410  1.00  0.00     0.074 A 
ATOM     42  C   UNL A   1      40.681  28.367  28.943  1.00  0.00     0.049 A 
ATOM     43  N   UNL A   1      42.216  28.085  31.525  1.00  0.00    -0.248 NA
ATOM     44  C   UNL A   1      43.577  26.507  30.469  1.00  0.00     0.031 C 
ATOM     45  C   UNL A   1      39.906  28.545  27.718  1.00  0.00     0.029 A 
ATOM     46  N   UNL A   1      40.114  29.242  29.835  1.00  0.00    -0.354 N 
ATOM     47  C   UNL A   1      43.186  27.643  32.414  1.00  0.00     0.074 A 
ATOM     48  C   UNL A   1      43.980  26.652  31.722  1.00  0.00     0.031 C 
ATOM     49  C   UNL A   1      38.950  29.465  27.940  1.00  0.00     0.029 A 
ATOM     50  C   UNL A   1      39.032  29.919  29.328  1.00  0.00     0.049 A 
ATOM     51  H   UNL A   1      40.449  29.370  30.751  1.00  0.00     0.167 HD
ATOM     52  C   UNL A   1      43.404  28.033  33.692  1.00  0.00     0.037 A 
ATOM     53  C   UNL A   1      38.197  30.789  29.925  1.00  0.00     0.037 A 
ATOM     54  C   UNL A   1      42.606  29.006  34.389  1.00  0.00     0.049 A 
ATOM     55  C   UNL A   1      38.415  31.156  31.370  1.00  0.00     0.074 A 
ATOM     56  C   UNL A   1      42.748  29.470  35.684  1.00  0.00     0.029 A 
ATOM     57  N   UNL A   1      41.508  29.656  33.847  1.00  0.00    -0.354 N 
ATOM     58  N   UNL A   1      39.351  30.754  32.194  1.00  0.00    -0.248 NA
ATOM     59  C   UNL A   1      37.458  32.101  31.966  1.00  0.00     0.031 C 
ATOM     60  C   UNL A   1      41.711  30.375  35.939  1.00  0.00     0.029 A 
ATOM     61  C   UNL A   1      40.951  30.503  34.788  1.00  0.00     0.049 A 
ATOM     62  H   UNL A   1      41.175  29.531  32.929  1.00  0.00     0.167 HD
ATOM     63  C   UNL A   1      39.112  31.413  33.395  1.00  0.00     0.074 A 
ATOM     64  C   UNL A   1      37.948  32.248  33.189  1.00  0.00     0.031 C 
ATOM     65  C   UNL A   1      39.796  31.335  34.563  1.00  0.00     0.037 A 
BRANCH  52  66
ATOM     66  C   UNL A   1      44.544  27.389  34.418  1.00  0.00     0.057 A 
ATOM     67  C   UNL A   1      45.807  27.994  34.488  1.00  0.00     0.134 A 
ATOM     68  C   UNL A   1      44.378  26.158  35.063  1.00  0.00     0.134 A 
ATOM     69  F   UNL A   1      46.034  29.166  33.873  1.00  0.00    -0.206 F 
ATOM     70  C   UNL A   1      46.869  27.387  35.159  1.00  0.00     0.040 A 
ATOM     71  C   UNL A   1      45.428  25.552  35.755  1.00  0.00     0.040 A 
ATOM     72  F   UNL A   1      43.195  25.527  35.032  1.00  0.00    -0.206 F 
ATOM     73  C   UNL A   1      46.679  26.164  35.799  1.00  0.00     0.006 A 
ENDBRANCH  52  66
BRANCH  53  74
ATOM     74  C   UNL A   1      37.064  31.371  29.166  1.00  0.00     0.057 A 
ATOM     75  C   UNL A   1      37.116  32.681  28.677  1.00  0.00     0.134 A 
ATOM     76  C   UNL A   1      35.893  30.639  28.932  1.00  0.00     0.134 A 
ATOM     77  F   UNL A   1      38.201  33.439  28.893  1.00  0.00    -0.206 F 
ATOM     78  C   UNL A   1      36.040  33.250  27.994  1.00  0.00     0.040 A 
ATOM     79  C   UNL A   1      34.817  31.188  28.232  1.00  0.00     0.040 A 
ATOM     80  F   UNL A   1      35.781  29.381  29.380  1.00  0.00    -0.206 F 
ATOM     81  C   UNL A   1      34.887  32.500  27.767  1.00  0.00     0.006 A 
ENDBRANCH  53  74
BRANCH  65  82
ATOM     82  C   UNL A   1      39.325  32.195  35.697  1.00  0.00     0.057 A 
ATOM     83  C   UNL A   1      39.770  33.513  35.857  1.00  0.00     0.134 A 
ATOM     84  C   UNL A   1      38.378  31.713  36.610  1.00  0.00     0.134 A 
ATOM     85  F   UNL A   1      40.684  34.028  35.022  1.00  0.00    -0.206 F 
ATOM     86  C   UNL A   1      39.301  34.317  36.897  1.00  0.00     0.040 A 
ATOM     87  C   UNL A   1      37.886  32.516  37.640  1.00  0.00     0.040 A 
ATOM     88  F   UNL A   1      37.906  30.462  36.506  1.00  0.00    -0.206 F 
ATOM     89  C   UNL A   1      38.350  33.821  37.788  1.00  0.00     0.006 A 
ENDBRANCH  65  82
ENDBRANCH  39  40
ENDBRANCH  32  34
ENDBRANCH  31  32
ENDBRANCH  30  31
ENDBRANCH  29  30
ENDBRANCH  28  29
ENDBRANCH  27  28
ENDBRANCH  26  27
ENDBRANCH   1  26
TORSDOF 22
ENDMDL
MODEL 3
REMARK VINA RESULT:      -9.6      3.435      8.046
REMARK SMILES O=C(Nc1ccsc1C(=O)OCCOCCOCCOCCOC(=O)c1ccc(-c2c3nc(c(-c4c(F)cccc4F)c4ccc([nH]4)c(-c4c(F)cccc4F)c4nc(c(-c5c(F)cccc5F)c5ccc2[nH]5)C=C4)C=C3)cc1)c1ccc(Br)nc1
REMARK SMILES IDX 17 1 16 2 15 3 14 4 13 5 12 6 11 7 9 8 10 9 8 10 4 11 5 12
REMARK SMILES IDX 6 13 7 14 3 15 1 16 2 17 80 19 81 20 86 21 82 22 85 23 83 24
REMARK SMILES IDX 84 25 18 26 19 27 20 28 21 29 22 30 23 31 24 32 25 33 26 34
REMARK SMILES IDX 27 35 79 36 28 37 78 38 29 39 30 40 31 41 72 42 32 43 77 44
REMARK SMILES IDX 71 45 73 46 33 47 76 48 70 49 69 50 34 52 60 53 43 54 59 55
REMARK SMILES IDX 44 56 47 57 58 58 74 59 45 60 46 61 57 63 75 64 48 65 35 66
REMARK SMILES IDX 36 67 41 68 37 69 38 70 40 71 42 72 39 73 61 74 62 75 67 76
REMARK SMILES IDX 63 77 64 78 66 79 68 80 65 81 49 82 50 83 55 84 51 85 52 86
REMARK SMILES IDX 54 87 56 88 53 89
REMARK H PARENT 3 18 73 51 47 62
REMARK Flexibility Score: inf
ROOT
ATOM      1  O   UNL A   1      34.874  24.242  25.620  1.00  0.00    -0.377 OA
ENDROOT
BRANCH   1   2
ATOM      2  C   UNL A   1      34.505  25.476  25.022  1.00  0.00     0.188 C 
BRANCH   2   3
ATOM      3  C   UNL A   1      33.683  26.369  25.963  1.00  0.00     0.188 C 
BRANCH   3   4
ATOM      4  O   UNL A   1      33.346  27.630  25.384  1.00  0.00    -0.376 OA
BRANCH   4   5
ATOM      5  C   UNL A   1      33.623  27.779  23.995  1.00  0.00     0.202 C 
BRANCH   5   6
ATOM      6  C   UNL A   1      32.423  28.156  23.111  1.00  0.00     0.261 C 
BRANCH   6   7
ATOM      7  O   UNL A   1      31.584  27.056  22.713  1.00  0.00    -0.459 OA
BRANCH   7   8
ATOM      8  C   UNL A   1      30.460  26.822  23.440  1.00  0.00     0.350 C 
ATOM      9  O   UNL A   1      29.435  27.488  23.340  1.00  0.00    -0.245 OA
BRANCH   8  10
ATOM     10  C   UNL A   1      30.643  25.619  24.239  1.00  0.00     0.136 A 
ATOM     11  C   UNL A   1      31.250  24.399  23.938  1.00  0.00     0.067 A 
ATOM     12  C   UNL A   1      31.133  23.489  25.037  1.00  0.00     0.039 A 
ATOM     13  C   UNL A   1      30.405  24.000  26.088  1.00  0.00     0.068 A 
ATOM     14  S   UNL A   1      29.930  25.607  25.804  1.00  0.00    -0.135 S 
BRANCH  11  15
ATOM     15  N   UNL A   1      31.901  24.177  22.724  1.00  0.00    -0.320 N 
ATOM     16  O   UNL A   1      33.488  23.348  21.336  1.00  0.00    -0.269 OA
ATOM     17  C   UNL A   1      32.773  23.191  22.325  1.00  0.00     0.257 C 
ATOM     18  H   UNL A   1      31.702  24.846  22.028  1.00  0.00     0.170 HD
BRANCH  17  19
ATOM     19  C   UNL A   1      32.834  21.897  23.013  1.00  0.00     0.058 A 
ATOM     20  C   UNL A   1      33.731  21.688  24.060  1.00  0.00     0.018 A 
ATOM     21  C   UNL A   1      32.060  20.830  22.580  1.00  0.00     0.126 A 
ATOM     22  C   UNL A   1      33.771  20.438  24.676  1.00  0.00     0.037 A 
ATOM     23  N   UNL A   1      32.073  19.609  23.167  1.00  0.00    -0.249 NA
ATOM     24  C   UNL A   1      32.926  19.441  24.206  1.00  0.00     0.106 A 
ATOM     25  Br  UNL A   1      32.949  17.745  25.055  1.00  0.00    -0.029 Br
ENDBRANCH  17  19
ENDBRANCH  11  15
ENDBRANCH   8  10
ENDBRANCH   7   8
ENDBRANCH   6   7
ENDBRANCH   5   6
ENDBRANCH   4   5
ENDBRANCH   3   4
ENDBRANCH   2   3
ENDBRANCH   1   2
BRANCH   1  26
ATOM     26  C   UNL A   1      36.273  23.973  25.735  1.00  0.00     0.188 C 
BRANCH  26  27
ATOM     27  C   UNL A   1      37.019  23.237  24.602  1.00  0.00     0.188 C 
BRANCH  27  28
ATOM     28  O   UNL A   1      37.276  21.862  24.894  1.00  0.00    -0.376 OA
BRANCH  28  29
ATOM     29  C   UNL A   1      38.443  21.589  25.666  1.00  0.00     0.202 C 
BRANCH  29  30
ATOM     30  C   UNL A   1      39.130  20.268  25.294  1.00  0.00     0.261 C 
BRANCH  30  31
ATOM     31  O   UNL A   1      39.967  19.720  26.326  1.00  0.00    -0.460 OA
BRANCH  31  32
ATOM     32  C   UNL A   1      41.299  19.720  26.100  1.00  0.00     0.338 C 
ATOM     33  O   UNL A   1      41.939  18.910  25.454  1.00  0.00    -0.246 OA
BRANCH  32  34
ATOM     34  C   UNL A   1      41.849  20.985  26.621  1.00  0.00     0.060 A 
ATOM     35  C   UNL A   1      41.731  21.253  27.990  1.00  0.00     0.016 A 
ATOM     36  C   UNL A   1      42.455  21.907  25.764  1.00  0.00     0.016 A 
ATOM     37  C   UNL A   1      42.177  22.473  28.499  1.00  0.00     0.010 A 
ATOM     38  C   UNL A   1      42.886  23.132  26.270  1.00  0.00     0.010 A 
ATOM     39  C   UNL A   1      42.716  23.434  27.633  1.00  0.00    -0.014 A 
BRANCH  39  40
ATOM     40  C   UNL A   1      42.917  24.823  28.104  1.00  0.00     0.031 A 
ATOM     41  C   UNL A   1      44.305  25.250  28.492  1.00  0.00     0.074 A 
ATOM     42  C   UNL A   1      41.893  25.688  28.190  1.00  0.00     0.049 A 
ATOM     43  N   UNL A   1      44.719  26.394  28.975  1.00  0.00    -0.248 NA
ATOM     44  C   UNL A   1      45.370  24.249  28.314  1.00  0.00     0.031 C 
ATOM     45  C   UNL A   1      40.509  25.401  27.823  1.00  0.00     0.029 A 
ATOM     46  N   UNL A   1      41.866  26.988  28.629  1.00  0.00    -0.354 N 
ATOM     47  C   UNL A   1      46.089  26.251  29.154  1.00  0.00     0.074 A 
ATOM     48  C   UNL A   1      46.433  24.903  28.758  1.00  0.00     0.031 C 
ATOM     49  C   UNL A   1      39.760  26.491  28.068  1.00  0.00     0.029 A 
ATOM     50  C   UNL A   1      40.610  27.541  28.630  1.00  0.00     0.049 A 
ATOM     51  H   UNL A   1      42.670  27.476  28.918  1.00  0.00     0.167 HD
ATOM     52  C   UNL A   1      46.984  27.163  29.599  1.00  0.00     0.037 A 
ATOM     53  C   UNL A   1      40.195  28.749  29.054  1.00  0.00     0.037 A 
ATOM     54  C   UNL A   1      46.643  28.498  30.010  1.00  0.00     0.049 A 
ATOM     55  C   UNL A   1      41.198  29.725  29.613  1.00  0.00     0.074 A 
ATOM     56  C   UNL A   1      47.478  29.499  30.474  1.00  0.00     0.029 A 
ATOM     57  N   UNL A   1      45.356  29.015  30.013  1.00  0.00    -0.354 N 
ATOM     58  N   UNL A   1      42.494  29.591  29.753  1.00  0.00    -0.248 NA
ATOM     59  C   UNL A   1      40.677  31.021  30.073  1.00  0.00     0.031 C 
ATOM     60  C   UNL A   1      46.691  30.611  30.795  1.00  0.00     0.029 A 
ATOM     61  C   UNL A   1      45.372  30.315  30.490  1.00  0.00     0.049 A 
ATOM     62  H   UNL A   1      44.552  28.530  29.721  1.00  0.00     0.167 HD
ATOM     63  C   UNL A   1      42.946  30.790  30.292  1.00  0.00     0.074 A 
ATOM     64  C   UNL A   1      41.787  31.643  30.445  1.00  0.00     0.031 C 
ATOM     65  C   UNL A   1      44.209  31.153  30.628  1.00  0.00     0.037 A 
BRANCH  52  66
ATOM     66  C   UNL A   1      48.416  26.733  29.680  1.00  0.00     0.057 A 
ATOM     67  C   UNL A   1      49.313  26.968  28.629  1.00  0.00     0.134 A 
ATOM     68  C   UNL A   1      48.906  26.087  30.820  1.00  0.00     0.134 A 
ATOM     69  F   UNL A   1      48.898  27.566  27.501  1.00  0.00    -0.206 F 
ATOM     70  C   UNL A   1      50.645  26.559  28.704  1.00  0.00     0.040 A 
ATOM     71  C   UNL A   1      50.242  25.692  30.915  1.00  0.00     0.040 A 
ATOM     72  F   UNL A   1      48.097  25.831  31.858  1.00  0.00    -0.206 F 
ATOM     73  C   UNL A   1      51.114  25.923  29.852  1.00  0.00     0.006 A 
ENDBRANCH  52  66
BRANCH  53  74
ATOM     74  C   UNL A   1      38.758  29.109  28.982  1.00  0.00     0.057 A 
ATOM     75  C   UNL A   1      38.193  29.594  27.798  1.00  0.00     0.134 A 
ATOM     76  C   UNL A   1      37.924  28.999  30.100  1.00  0.00     0.134 A 
ATOM     77  F   UNL A   1      38.949  29.747  26.701  1.00  0.00    -0.206 F 
ATOM     78  C   UNL A   1      36.850  29.971  27.730  1.00  0.00     0.040 A 
ATOM     79  C   UNL A   1      36.574  29.352  30.042  1.00  0.00     0.040 A 
ATOM     80  F   UNL A   1      38.409  28.546  31.264  1.00  0.00    -0.206 F 
ATOM     81  C   UNL A   1      36.036  29.846  28.855  1.00  0.00     0.006 A 
ENDBRANCH  53  74
BRANCH  65  82
ATOM     82  C   UNL A   1      44.409  32.539  31.163  1.00  0.00     0.057 A 
ATOM     83  C   UNL A   1      44.417  32.805  32.538  1.00  0.00     0.134 A 
ATOM     84  C   UNL A   1      44.645  33.611  30.293  1.00  0.00     0.134 A 
ATOM     85  F   UNL A   1      44.186  31.823  33.422  1.00  0.00    -0.206 F 
ATOM     86  C   UNL A   1      44.637  34.093  33.028  1.00  0.00     0.040 A 
ATOM     87  C   UNL A   1      44.889  34.898  30.772  1.00  0.00     0.040 A 
ATOM     88  F   UNL A   1      44.659  33.420  28.965  1.00  0.00    -0.206 F 
ATOM     89  C   UNL A   1      44.882  35.143  32.144  1.00  0.00     0.006 A 
ENDBRANCH  65  82
ENDBRANCH  39  40
ENDBRANCH  32  34
ENDBRANCH  31  32
ENDBRANCH  30  31
ENDBRANCH  29  30
ENDBRANCH  28  29
ENDBRANCH  27  28
ENDBRANCH  26  27
ENDBRANCH   1  26
TORSDOF 22
ENDMDL
