MODEL 1
REMARK VINA RESULT:      -9.3      0.000      0.000
REMARK SMILES O=C(OCCOCCOCCOCCOC(=O)c1cccc(OCC(F)F)c1)c1ccc(-c2c3nc(c(-c4c(F)cccc4F)c4ccc([nH]4)c(-c4c(F)cccc4F)c4nc(c(-c5c(F)cccc5F)c5ccc2[nH]5)C=C4)C=C3)cc1
REMARK SMILES IDX 10 1 9 2 8 3 7 4 6 5 5 6 4 7 3 8 2 9 1 10 29 11 30 12 82 13
REMARK SMILES IDX 31 14 81 15 32 16 33 17 34 18 75 19 35 20 80 21 74 22 76 23
REMARK SMILES IDX 36 24 79 25 73 26 72 27 37 29 63 30 46 31 62 32 47 33 50 34
REMARK SMILES IDX 61 35 77 36 48 37 49 38 60 40 78 41 51 42 38 43 39 44 44 45
REMARK SMILES IDX 40 46 41 47 43 48 45 49 42 50 64 51 65 52 70 53 66 54 67 55
REMARK SMILES IDX 69 56 71 57 68 58 52 59 53 60 58 61 54 62 55 63 57 64 59 65
REMARK SMILES IDX 56 66 11 67 12 68 13 69 14 70 15 71 16 72 17 73 18 74 19 75
REMARK SMILES IDX 28 76 20 77 22 78 21 79 23 80 24 81 25 82 26 83 27 84
REMARK H PARENT 76 28 50 39
REMARK Flexibility Score: inf
ROOT
ATOM      1  C   UNL A   1      38.371  19.825  25.242  1.00  0.00     0.188 C 
ENDROOT
BRANCH   1   2
ATOM      2  O   UNL A   1      39.741  19.453  25.352  1.00  0.00    -0.377 OA
BRANCH   2   3
ATOM      3  C   UNL A   1      40.486  20.034  26.421  1.00  0.00     0.188 C 
BRANCH   3   4
ATOM      4  C   UNL A   1      41.904  19.492  26.597  1.00  0.00     0.188 C 
BRANCH   4   5
ATOM      5  O   UNL A   1      42.469  19.154  25.330  1.00  0.00    -0.376 OA
BRANCH   5   6
ATOM      6  C   UNL A   1      43.549  19.972  24.889  1.00  0.00     0.202 C 
BRANCH   6   7
ATOM      7  C   UNL A   1      43.744  21.250  25.706  1.00  0.00     0.261 C 
BRANCH   7   8
ATOM      8  O   UNL A   1      43.139  22.400  25.097  1.00  0.00    -0.460 OA
BRANCH   8   9
ATOM      9  C   UNL A   1      43.555  23.690  25.160  1.00  0.00     0.338 C 
ATOM     10  O   UNL A   1      44.385  24.076  24.339  1.00  0.00    -0.246 OA
BRANCH   9  11
ATOM     11  C   UNL A   1      43.051  24.688  26.155  1.00  0.00     0.060 A 
ATOM     12  C   UNL A   1      43.460  26.019  26.243  1.00  0.00     0.016 A 
ATOM     13  C   UNL A   1      42.021  24.266  27.013  1.00  0.00     0.016 A 
ATOM     14  C   UNL A   1      42.928  26.890  27.180  1.00  0.00     0.010 A 
ATOM     15  C   UNL A   1      41.453  25.143  27.943  1.00  0.00     0.010 A 
ATOM     16  C   UNL A   1      41.929  26.455  28.041  1.00  0.00    -0.014 A 
BRANCH  16  17
ATOM     17  C   UNL A   1      41.535  27.357  29.135  1.00  0.00     0.031 A 
ATOM     18  C   UNL A   1      42.389  27.372  30.365  1.00  0.00     0.074 A 
ATOM     19  C   UNL A   1      40.538  28.241  28.950  1.00  0.00     0.049 A 
ATOM     20  N   UNL A   1      42.221  28.021  31.483  1.00  0.00    -0.248 NA
ATOM     21  C   UNL A   1      43.614  26.552  30.322  1.00  0.00     0.031 C 
ATOM     22  C   UNL A   1      39.760  28.394  27.717  1.00  0.00     0.029 A 
ATOM     23  N   UNL A   1      40.028  29.198  29.785  1.00  0.00    -0.354 N 
ATOM     24  C   UNL A   1      43.291  27.656  32.289  1.00  0.00     0.074 A 
ATOM     25  C   UNL A   1      44.110  26.737  31.535  1.00  0.00     0.031 C 
ATOM     26  C   UNL A   1      38.879  29.395  27.875  1.00  0.00     0.029 A 
ATOM     27  C   UNL A   1      38.978  29.896  29.240  1.00  0.00     0.049 A 
ATOM     28  H   UNL A   1      40.380  29.369  30.689  1.00  0.00     0.167 HD
ATOM     29  C   UNL A   1      43.549  28.054  33.554  1.00  0.00     0.037 A 
ATOM     30  C   UNL A   1      38.163  30.802  29.811  1.00  0.00     0.037 A 
ATOM     31  C   UNL A   1      42.715  28.982  34.265  1.00  0.00     0.049 A 
ATOM     32  C   UNL A   1      38.410  31.146  31.257  1.00  0.00     0.074 A 
ATOM     33  C   UNL A   1      42.824  29.422  35.569  1.00  0.00     0.029 A 
ATOM     34  N   UNL A   1      41.610  29.616  33.712  1.00  0.00    -0.354 N 
ATOM     35  N   UNL A   1      39.377  30.741  32.049  1.00  0.00    -0.248 NA
ATOM     36  C   UNL A   1      37.449  32.052  31.897  1.00  0.00     0.031 C 
ATOM     37  C   UNL A   1      41.754  30.289  35.820  1.00  0.00     0.029 A 
ATOM     38  C   UNL A   1      41.011  30.429  34.655  1.00  0.00     0.049 A 
ATOM     39  H   UNL A   1      41.298  29.502  32.785  1.00  0.00     0.167 HD
ATOM     40  C   UNL A   1      39.150  31.353  33.273  1.00  0.00     0.074 A 
ATOM     41  C   UNL A   1      37.968  32.177  33.109  1.00  0.00     0.031 C 
ATOM     42  C   UNL A   1      39.843  31.243  34.434  1.00  0.00     0.037 A 
BRANCH  29  43
ATOM     43  C   UNL A   1      44.716  27.422  34.250  1.00  0.00     0.057 A 
ATOM     44  C   UNL A   1      45.993  27.997  34.249  1.00  0.00     0.134 A 
ATOM     45  C   UNL A   1      44.559  26.198  34.913  1.00  0.00     0.134 A 
ATOM     46  F   UNL A   1      46.221  29.150  33.604  1.00  0.00    -0.206 F 
ATOM     47  C   UNL A   1      47.075  27.369  34.871  1.00  0.00     0.040 A 
ATOM     48  C   UNL A   1      45.627  25.571  35.556  1.00  0.00     0.040 A 
ATOM     49  F   UNL A   1      43.364  25.588  34.939  1.00  0.00    -0.206 F 
ATOM     50  C   UNL A   1      46.892  26.154  35.531  1.00  0.00     0.006 A 
ENDBRANCH  29  43
BRANCH  30  51
ATOM     51  C   UNL A   1      37.010  31.374  29.066  1.00  0.00     0.057 A 
ATOM     52  C   UNL A   1      37.019  32.691  28.592  1.00  0.00     0.134 A 
ATOM     53  C   UNL A   1      35.842  30.627  28.849  1.00  0.00     0.134 A 
ATOM     54  F   UNL A   1      38.095  33.469  28.783  1.00  0.00    -0.206 F 
ATOM     55  C   UNL A   1      35.907  33.252  27.957  1.00  0.00     0.040 A 
ATOM     56  C   UNL A   1      34.736  31.164  28.188  1.00  0.00     0.040 A 
ATOM     57  F   UNL A   1      35.759  29.360  29.277  1.00  0.00    -0.206 F 
ATOM     58  C   UNL A   1      34.762  32.486  27.750  1.00  0.00     0.006 A 
ENDBRANCH  30  51
BRANCH  42  59
ATOM     59  C   UNL A   1      39.355  32.062  35.589  1.00  0.00     0.057 A 
ATOM     60  C   UNL A   1      39.761  33.388  35.773  1.00  0.00     0.134 A 
ATOM     61  C   UNL A   1      38.427  31.529  36.490  1.00  0.00     0.134 A 
ATOM     62  F   UNL A   1      40.659  33.947  34.948  1.00  0.00    -0.206 F 
ATOM     63  C   UNL A   1      39.274  34.153  36.833  1.00  0.00     0.040 A 
ATOM     64  C   UNL A   1      37.910  32.294  37.535  1.00  0.00     0.040 A 
ATOM     65  F   UNL A   1      37.992  30.268  36.356  1.00  0.00    -0.206 F 
ATOM     66  C   UNL A   1      38.340  33.609  37.711  1.00  0.00     0.006 A 
ENDBRANCH  42  59
ENDBRANCH  16  17
ENDBRANCH   9  11
ENDBRANCH   8   9
ENDBRANCH   7   8
ENDBRANCH   6   7
ENDBRANCH   5   6
ENDBRANCH   4   5
ENDBRANCH   3   4
ENDBRANCH   2   3
ENDBRANCH   1   2
BRANCH   1  67
ATOM     67  C   UNL A   1      38.002  21.325  25.299  1.00  0.00     0.188 C 
BRANCH  67  68
ATOM     68  O   UNL A   1      37.174  21.771  24.234  1.00  0.00    -0.376 OA
BRANCH  68  69
ATOM     69  C   UNL A   1      35.776  21.779  24.498  1.00  0.00     0.202 C 
BRANCH  69  70
ATOM     70  C   UNL A   1      35.159  23.128  24.889  1.00  0.00     0.261 C 
BRANCH  70  71
ATOM     71  O   UNL A   1      33.839  23.392  24.388  1.00  0.00    -0.460 OA
BRANCH  71  72
ATOM     72  C   UNL A   1      33.682  24.115  23.253  1.00  0.00     0.338 C 
ATOM     73  O   UNL A   1      34.117  23.862  22.153  1.00  0.00    -0.246 OA
BRANCH  72  74
ATOM     74  C   UNL A   1      32.672  25.159  23.572  1.00  0.00     0.063 A 
ATOM     75  C   UNL A   1      31.411  24.771  24.040  1.00  0.00     0.016 A 
ATOM     76  C   UNL A   1      33.048  26.510  23.581  1.00  0.00     0.062 A 
ATOM     77  C   UNL A   1      30.549  25.733  24.566  1.00  0.00     0.005 A 
ATOM     78  C   UNL A   1      32.174  27.478  24.073  1.00  0.00     0.120 A 
ATOM     79  C   UNL A   1      30.933  27.079  24.581  1.00  0.00     0.046 A 
BRANCH  78  80
ATOM     80  O   UNL A   1      32.417  28.821  24.146  1.00  0.00    -0.488 OA
BRANCH  80  81
ATOM     81  C   UNL A   1      33.113  29.320  25.293  1.00  0.00     0.302 C 
BRANCH  81  82
ATOM     82  C   UNL A   1      33.274  28.260  26.372  1.00  0.00     0.379 C 
ATOM     83  F   UNL A   1      34.575  28.143  26.736  1.00  0.00    -0.207 F 
ATOM     84  F   UNL A   1      32.604  28.651  27.488  1.00  0.00    -0.207 F 
ENDBRANCH  81  82
ENDBRANCH  80  81
ENDBRANCH  78  80
ENDBRANCH  72  74
ENDBRANCH  71  72
ENDBRANCH  70  71
ENDBRANCH  69  70
ENDBRANCH  68  69
ENDBRANCH  67  68
ENDBRANCH   1  67
TORSDOF 23
ENDMDL
MODEL 2
REMARK VINA RESULT:      -9.2      5.386      9.045
REMARK SMILES O=C(OCCOCCOCCOCCOC(=O)c1cccc(OCC(F)F)c1)c1ccc(-c2c3nc(c(-c4c(F)cccc4F)c4ccc([nH]4)c(-c4c(F)cccc4F)c4nc(c(-c5c(F)cccc5F)c5ccc2[nH]5)C=C4)C=C3)cc1
REMARK SMILES IDX 10 1 9 2 8 3 7 4 6 5 5 6 4 7 3 8 2 9 1 10 29 11 30 12 82 13
REMARK SMILES IDX 31 14 81 15 32 16 33 17 34 18 75 19 35 20 80 21 74 22 76 23
REMARK SMILES IDX 36 24 79 25 73 26 72 27 37 29 63 30 46 31 62 32 47 33 50 34
REMARK SMILES IDX 61 35 77 36 48 37 49 38 60 40 78 41 51 42 38 43 39 44 44 45
REMARK SMILES IDX 40 46 41 47 43 48 45 49 42 50 64 51 65 52 70 53 66 54 67 55
REMARK SMILES IDX 69 56 71 57 68 58 52 59 53 60 58 61 54 62 55 63 57 64 59 65
REMARK SMILES IDX 56 66 11 67 12 68 13 69 14 70 15 71 16 72 17 73 18 74 19 75
REMARK SMILES IDX 28 76 20 77 22 78 21 79 23 80 24 81 25 82 26 83 27 84
REMARK H PARENT 76 28 50 39
REMARK Flexibility Score: inf
ROOT
ATOM      1  C   UNL A   1      40.762  22.767  27.857  1.00  0.00     0.188 C 
ENDROOT
BRANCH   1   2
ATOM      2  O   UNL A   1      41.733  21.766  27.576  1.00  0.00    -0.377 OA
BRANCH   2   3
ATOM      3  C   UNL A   1      41.281  20.414  27.545  1.00  0.00     0.188 C 
BRANCH   3   4
ATOM      4  C   UNL A   1      40.674  19.958  26.218  1.00  0.00     0.188 C 
BRANCH   4   5
ATOM      5  O   UNL A   1      41.442  18.893  25.659  1.00  0.00    -0.376 OA
BRANCH   5   6
ATOM      6  C   UNL A   1      42.621  18.532  26.373  1.00  0.00     0.202 C 
BRANCH   6   7
ATOM      7  C   UNL A   1      43.823  18.213  25.483  1.00  0.00     0.261 C 
BRANCH   7   8
ATOM      8  O   UNL A   1      44.037  19.196  24.459  1.00  0.00    -0.460 OA
BRANCH   8   9
ATOM      9  C   UNL A   1      45.130  19.976  24.273  1.00  0.00     0.338 C 
ATOM     10  O   UNL A   1      46.091  19.500  23.671  1.00  0.00    -0.246 OA
BRANCH   9  11
ATOM     11  C   UNL A   1      45.238  21.397  24.732  1.00  0.00     0.060 A 
ATOM     12  C   UNL A   1      45.015  22.522  23.938  1.00  0.00     0.016 A 
ATOM     13  C   UNL A   1      45.503  21.606  26.096  1.00  0.00     0.016 A 
ATOM     14  C   UNL A   1      45.112  23.808  24.443  1.00  0.00     0.010 A 
ATOM     15  C   UNL A   1      45.574  22.898  26.627  1.00  0.00     0.010 A 
ATOM     16  C   UNL A   1      45.402  24.004  25.787  1.00  0.00    -0.014 A 
BRANCH  16  17
ATOM     17  C   UNL A   1      45.679  25.380  26.229  1.00  0.00     0.031 A 
ATOM     18  C   UNL A   1      44.557  26.150  26.852  1.00  0.00     0.074 A 
ATOM     19  C   UNL A   1      46.940  25.849  26.210  1.00  0.00     0.049 A 
ATOM     20  N   UNL A   1      44.525  27.388  27.258  1.00  0.00    -0.248 NA
ATOM     21  C   UNL A   1      43.296  25.414  27.063  1.00  0.00     0.031 C 
ATOM     22  C   UNL A   1      48.117  25.099  25.762  1.00  0.00     0.029 A 
ATOM     23  N   UNL A   1      47.448  27.057  26.606  1.00  0.00    -0.354 N 
ATOM     24  C   UNL A   1      43.236  27.591  27.731  1.00  0.00     0.074 A 
ATOM     25  C   UNL A   1      42.514  26.351  27.574  1.00  0.00     0.031 C 
ATOM     26  C   UNL A   1      49.211  25.861  25.919  1.00  0.00     0.029 A 
ATOM     27  C   UNL A   1      48.801  27.175  26.404  1.00  0.00     0.049 A 
ATOM     28  H   UNL A   1      46.896  27.772  26.999  1.00  0.00     0.167 HD
ATOM     29  C   UNL A   1      42.709  28.726  28.241  1.00  0.00     0.037 A 
ATOM     30  C   UNL A   1      49.599  28.248  26.548  1.00  0.00     0.037 A 
ATOM     31  C   UNL A   1      43.467  29.936  28.395  1.00  0.00     0.049 A 
ATOM     32  C   UNL A   1      48.963  29.530  27.017  1.00  0.00     0.074 A 
ATOM     33  C   UNL A   1      43.044  31.174  28.838  1.00  0.00     0.029 A 
ATOM     34  N   UNL A   1      44.821  30.048  28.106  1.00  0.00    -0.354 N 
ATOM     35  N   UNL A   1      47.722  29.748  27.390  1.00  0.00    -0.248 NA
ATOM     36  C   UNL A   1      49.822  30.719  27.066  1.00  0.00     0.031 C 
ATOM     37  C   UNL A   1      44.134  32.049  28.772  1.00  0.00     0.029 A 
ATOM     38  C   UNL A   1      45.248  31.342  28.339  1.00  0.00     0.049 A 
ATOM     39  H   UNL A   1      45.392  29.315  27.782  1.00  0.00     0.167 HD
ATOM     40  C   UNL A   1      47.655  31.091  27.733  1.00  0.00     0.074 A 
ATOM     41  C   UNL A   1      48.989  31.630  27.547  1.00  0.00     0.031 C 
ATOM     42  C   UNL A   1      46.594  31.822  28.153  1.00  0.00     0.037 A 
BRANCH  29  43
ATOM     43  C   UNL A   1      41.250  28.718  28.578  1.00  0.00     0.057 A 
ATOM     44  C   UNL A   1      40.776  28.451  29.868  1.00  0.00     0.134 A 
ATOM     45  C   UNL A   1      40.298  28.957  27.577  1.00  0.00     0.134 A 
ATOM     46  F   UNL A   1      41.632  28.180  30.865  1.00  0.00    -0.206 F 
ATOM     47  C   UNL A   1      39.408  28.410  30.149  1.00  0.00     0.040 A 
ATOM     48  C   UNL A   1      38.930  28.939  27.849  1.00  0.00     0.040 A 
ATOM     49  F   UNL A   1      40.685  29.205  26.316  1.00  0.00    -0.206 F 
ATOM     50  C   UNL A   1      38.480  28.658  29.138  1.00  0.00     0.006 A 
ENDBRANCH  29  43
BRANCH  30  51
ATOM     51  C   UNL A   1      51.038  28.190  26.176  1.00  0.00     0.057 A 
ATOM     52  C   UNL A   1      51.459  28.272  24.843  1.00  0.00     0.134 A 
ATOM     53  C   UNL A   1      52.034  28.001  27.147  1.00  0.00     0.134 A 
ATOM     54  F   UNL A   1      50.559  28.431  23.861  1.00  0.00    -0.206 F 
ATOM     55  C   UNL A   1      52.804  28.142  24.487  1.00  0.00     0.040 A 
ATOM     56  C   UNL A   1      53.384  27.902  26.808  1.00  0.00     0.040 A 
ATOM     57  F   UNL A   1      51.707  27.910  28.444  1.00  0.00    -0.206 F 
ATOM     58  C   UNL A   1      53.772  27.960  25.472  1.00  0.00     0.006 A 
ENDBRANCH  30  51
BRANCH  42  59
ATOM     59  C   UNL A   1      46.853  33.262  28.473  1.00  0.00     0.057 A 
ATOM     60  C   UNL A   1      46.700  34.268  27.513  1.00  0.00     0.134 A 
ATOM     61  C   UNL A   1      47.205  33.644  29.773  1.00  0.00     0.134 A 
ATOM     62  F   UNL A   1      46.377  33.960  26.248  1.00  0.00    -0.206 F 
ATOM     63  C   UNL A   1      46.912  35.610  27.831  1.00  0.00     0.040 A 
ATOM     64  C   UNL A   1      47.389  34.984  30.109  1.00  0.00     0.040 A 
ATOM     65  F   UNL A   1      47.354  32.724  30.738  1.00  0.00    -0.206 F 
ATOM     66  C   UNL A   1      47.248  35.970  29.134  1.00  0.00     0.006 A 
ENDBRANCH  42  59
ENDBRANCH  16  17
ENDBRANCH   9  11
ENDBRANCH   8   9
ENDBRANCH   7   8
ENDBRANCH   6   7
ENDBRANCH   5   6
ENDBRANCH   4   5
ENDBRANCH   3   4
ENDBRANCH   2   3
ENDBRANCH   1   2
BRANCH   1  67
ATOM     67  C   UNL A   1      40.164  23.572  26.680  1.00  0.00     0.188 C 
BRANCH  67  68
ATOM     68  O   UNL A   1      38.871  23.151  26.272  1.00  0.00    -0.376 OA
BRANCH  68  69
ATOM     69  C   UNL A   1      37.819  24.087  26.482  1.00  0.00     0.202 C 
BRANCH  69  70
ATOM     70  C   UNL A   1      36.402  23.618  26.126  1.00  0.00     0.261 C 
BRANCH  70  71
ATOM     71  O   UNL A   1      36.308  22.416  25.345  1.00  0.00    -0.460 OA
BRANCH  71  72
ATOM     72  C   UNL A   1      36.022  22.494  24.023  1.00  0.00     0.338 C 
ATOM     73  O   UNL A   1      36.801  22.628  23.108  1.00  0.00    -0.246 OA
BRANCH  72  74
ATOM     74  C   UNL A   1      34.582  22.145  23.897  1.00  0.00     0.063 A 
ATOM     75  C   UNL A   1      33.822  22.729  22.876  1.00  0.00     0.016 A 
ATOM     76  C   UNL A   1      34.048  21.106  24.674  1.00  0.00     0.062 A 
ATOM     77  C   UNL A   1      32.548  22.233  22.601  1.00  0.00     0.005 A 
ATOM     78  C   UNL A   1      32.761  20.634  24.424  1.00  0.00     0.120 A 
ATOM     79  C   UNL A   1      32.024  21.191  23.372  1.00  0.00     0.046 A 
BRANCH  78  80
ATOM     80  O   UNL A   1      32.126  19.627  25.097  1.00  0.00    -0.488 OA
BRANCH  80  81
ATOM     81  C   UNL A   1      32.825  18.390  25.277  1.00  0.00     0.302 C 
BRANCH  81  82
ATOM     82  C   UNL A   1      32.866  17.564  24.000  1.00  0.00     0.379 C 
ATOM     83  F   UNL A   1      33.993  17.832  23.295  1.00  0.00    -0.207 F 
ATOM     84  F   UNL A   1      32.926  16.246  24.321  1.00  0.00    -0.207 F 
ENDBRANCH  81  82
ENDBRANCH  80  81
ENDBRANCH  78  80
ENDBRANCH  72  74
ENDBRANCH  71  72
ENDBRANCH  70  71
ENDBRANCH  69  70
ENDBRANCH  68  69
ENDBRANCH  67  68
ENDBRANCH   1  67
TORSDOF 23
ENDMDL
MODEL 3
REMARK VINA RESULT:      -9.1      1.566      1.960
REMARK SMILES O=C(OCCOCCOCCOCCOC(=O)c1cccc(OCC(F)F)c1)c1ccc(-c2c3nc(c(-c4c(F)cccc4F)c4ccc([nH]4)c(-c4c(F)cccc4F)c4nc(c(-c5c(F)cccc5F)c5ccc2[nH]5)C=C4)C=C3)cc1
REMARK SMILES IDX 10 1 9 2 8 3 7 4 6 5 5 6 4 7 3 8 2 9 1 10 29 11 30 12 82 13
REMARK SMILES IDX 31 14 81 15 32 16 33 17 34 18 75 19 35 20 80 21 74 22 76 23
REMARK SMILES IDX 36 24 79 25 73 26 72 27 37 29 63 30 46 31 62 32 47 33 50 34
REMARK SMILES IDX 61 35 77 36 48 37 49 38 60 40 78 41 51 42 38 43 39 44 44 45
REMARK SMILES IDX 40 46 41 47 43 48 45 49 42 50 64 51 65 52 70 53 66 54 67 55
REMARK SMILES IDX 69 56 71 57 68 58 52 59 53 60 58 61 54 62 55 63 57 64 59 65
REMARK SMILES IDX 56 66 11 67 12 68 13 69 14 70 15 71 16 72 17 73 18 74 19 75
REMARK SMILES IDX 28 76 20 77 22 78 21 79 23 80 24 81 25 82 26 83 27 84
REMARK H PARENT 76 28 50 39
REMARK Flexibility Score: inf
ROOT
ATOM      1  C   UNL A   1      37.822  20.914  25.114  1.00  0.00     0.188 C 
ENDROOT
BRANCH   1   2
ATOM      2  O   UNL A   1      39.208  20.698  25.357  1.00  0.00    -0.377 OA
BRANCH   2   3
ATOM      3  C   UNL A   1      39.779  21.362  26.483  1.00  0.00     0.188 C 
BRANCH   3   4
ATOM      4  C   UNL A   1      40.978  20.656  27.117  1.00  0.00     0.188 C 
BRANCH   4   5
ATOM      5  O   UNL A   1      41.483  19.648  26.242  1.00  0.00    -0.376 OA
BRANCH   5   6
ATOM      6  C   UNL A   1      42.713  19.948  25.588  1.00  0.00     0.202 C 
BRANCH   6   7
ATOM      7  C   UNL A   1      43.348  21.271  26.018  1.00  0.00     0.261 C 
BRANCH   7   8
ATOM      8  O   UNL A   1      42.912  22.385  25.224  1.00  0.00    -0.460 OA
BRANCH   8   9
ATOM      9  C   UNL A   1      43.360  23.664  25.271  1.00  0.00     0.338 C 
ATOM     10  O   UNL A   1      44.199  24.019  24.444  1.00  0.00    -0.246 OA
BRANCH   9  11
ATOM     11  C   UNL A   1      42.882  24.687  26.253  1.00  0.00     0.060 A 
ATOM     12  C   UNL A   1      43.340  26.002  26.338  1.00  0.00     0.016 A 
ATOM     13  C   UNL A   1      41.826  24.310  27.100  1.00  0.00     0.016 A 
ATOM     14  C   UNL A   1      42.830  26.899  27.263  1.00  0.00     0.010 A 
ATOM     15  C   UNL A   1      41.280  25.214  28.018  1.00  0.00     0.010 A 
ATOM     16  C   UNL A   1      41.804  26.507  28.114  1.00  0.00    -0.014 A 
BRANCH  16  17
ATOM     17  C   UNL A   1      41.431  27.431  29.197  1.00  0.00     0.031 A 
ATOM     18  C   UNL A   1      42.296  27.455  30.419  1.00  0.00     0.074 A 
ATOM     19  C   UNL A   1      40.442  28.323  29.007  1.00  0.00     0.049 A 
ATOM     20  N   UNL A   1      42.147  28.123  31.528  1.00  0.00    -0.248 NA
ATOM     21  C   UNL A   1      43.512  26.620  30.377  1.00  0.00     0.031 C 
ATOM     22  C   UNL A   1      39.655  28.466  27.779  1.00  0.00     0.029 A 
ATOM     23  N   UNL A   1      39.952  29.299  29.832  1.00  0.00    -0.354 N 
ATOM     24  C   UNL A   1      43.220  27.758  32.329  1.00  0.00     0.074 A 
ATOM     25  C   UNL A   1      44.022  26.819  31.582  1.00  0.00     0.031 C 
ATOM     26  C   UNL A   1      38.787  29.479  27.930  1.00  0.00     0.029 A 
ATOM     27  C   UNL A   1      38.905  30.001  29.286  1.00  0.00     0.049 A 
ATOM     28  H   UNL A   1      40.313  29.480  30.730  1.00  0.00     0.167 HD
ATOM     29  C   UNL A   1      43.495  28.173  33.585  1.00  0.00     0.037 A 
ATOM     30  C   UNL A   1      38.106  30.925  29.851  1.00  0.00     0.037 A 
ATOM     31  C   UNL A   1      42.678  29.121  34.290  1.00  0.00     0.049 A 
ATOM     32  C   UNL A   1      38.370  31.289  31.288  1.00  0.00     0.074 A 
ATOM     33  C   UNL A   1      42.805  29.581  35.586  1.00  0.00     0.029 A 
ATOM     34  N   UNL A   1      41.575  29.759  33.737  1.00  0.00    -0.354 N 
ATOM     35  N   UNL A   1      39.339  30.885  32.078  1.00  0.00    -0.248 NA
ATOM     36  C   UNL A   1      37.426  32.215  31.923  1.00  0.00     0.031 C 
ATOM     37  C   UNL A   1      41.747  30.463  35.833  1.00  0.00     0.029 A 
ATOM     38  C   UNL A   1      40.994  30.594  34.673  1.00  0.00     0.049 A 
ATOM     39  H   UNL A   1      41.253  29.635  32.816  1.00  0.00     0.167 HD
ATOM     40  C   UNL A   1      39.131  31.518  33.295  1.00  0.00     0.074 A 
ATOM     41  C   UNL A   1      37.957  32.353  33.128  1.00  0.00     0.031 C 
ATOM     42  C   UNL A   1      39.834  31.418  34.450  1.00  0.00     0.037 A 
BRANCH  29  43
ATOM     43  C   UNL A   1      44.661  27.539  34.280  1.00  0.00     0.057 A 
ATOM     44  C   UNL A   1      45.974  27.997  34.118  1.00  0.00     0.134 A 
ATOM     45  C   UNL A   1      44.463  26.428  35.111  1.00  0.00     0.134 A 
ATOM     46  F   UNL A   1      46.237  29.035  33.310  1.00  0.00    -0.206 F 
ATOM     47  C   UNL A   1      47.050  27.364  34.745  1.00  0.00     0.040 A 
ATOM     48  C   UNL A   1      45.527  25.800  35.759  1.00  0.00     0.040 A 
ATOM     49  F   UNL A   1      43.231  25.929  35.298  1.00  0.00    -0.206 F 
ATOM     50  C   UNL A   1      46.827  26.264  35.572  1.00  0.00     0.006 A 
ENDBRANCH  29  43
BRANCH  30  51
ATOM     51  C   UNL A   1      36.952  31.499  29.107  1.00  0.00     0.057 A 
ATOM     52  C   UNL A   1      36.989  32.792  28.572  1.00  0.00     0.134 A 
ATOM     53  C   UNL A   1      35.757  30.780  28.952  1.00  0.00     0.134 A 
ATOM     54  F   UNL A   1      38.093  33.544  28.702  1.00  0.00    -0.206 F 
ATOM     55  C   UNL A   1      35.879  33.358  27.939  1.00  0.00     0.040 A 
ATOM     56  C   UNL A   1      34.651  31.321  28.294  1.00  0.00     0.040 A 
ATOM     57  F   UNL A   1      35.645  29.537  29.440  1.00  0.00    -0.206 F 
ATOM     58  C   UNL A   1      34.706  32.620  27.795  1.00  0.00     0.006 A 
ENDBRANCH  30  51
BRANCH  42  59
ATOM     59  C   UNL A   1      39.366  32.261  35.596  1.00  0.00     0.057 A 
ATOM     60  C   UNL A   1      39.805  33.578  35.768  1.00  0.00     0.134 A 
ATOM     61  C   UNL A   1      38.424  31.760  36.503  1.00  0.00     0.134 A 
ATOM     62  F   UNL A   1      40.717  34.106  34.938  1.00  0.00    -0.206 F 
ATOM     63  C   UNL A   1      39.338  34.366  36.820  1.00  0.00     0.040 A 
ATOM     64  C   UNL A   1      37.927  32.548  37.539  1.00  0.00     0.040 A 
ATOM     65  F   UNL A   1      37.958  30.509  36.381  1.00  0.00    -0.206 F 
ATOM     66  C   UNL A   1      38.389  33.853  37.703  1.00  0.00     0.006 A 
ENDBRANCH  42  59
ENDBRANCH  16  17
ENDBRANCH   9  11
ENDBRANCH   8   9
ENDBRANCH   7   8
ENDBRANCH   6   7
ENDBRANCH   5   6
ENDBRANCH   4   5
ENDBRANCH   3   4
ENDBRANCH   2   3
ENDBRANCH   1   2
BRANCH   1  67
ATOM     67  C   UNL A   1      37.323  22.359  24.889  1.00  0.00     0.188 C 
BRANCH  67  68
ATOM     68  O   UNL A   1      36.022  22.621  25.395  1.00  0.00    -0.376 OA
BRANCH  68  69
ATOM     69  C   UNL A   1      35.588  23.974  25.316  1.00  0.00     0.202 C 
BRANCH  69  70
ATOM     70  C   UNL A   1      34.142  24.205  24.856  1.00  0.00     0.261 C 
BRANCH  70  71
ATOM     71  O   UNL A   1      33.575  25.487  25.162  1.00  0.00    -0.460 OA
BRANCH  71  72
ATOM     72  C   UNL A   1      32.395  25.560  25.826  1.00  0.00     0.338 C 
ATOM     73  O   UNL A   1      31.957  24.777  26.637  1.00  0.00    -0.246 OA
BRANCH  72  74
ATOM     74  C   UNL A   1      31.850  26.914  25.538  1.00  0.00     0.063 A 
ATOM     75  C   UNL A   1      32.208  27.986  26.365  1.00  0.00     0.016 A 
ATOM     76  C   UNL A   1      31.142  27.140  24.349  1.00  0.00     0.062 A 
ATOM     77  C   UNL A   1      31.901  29.288  25.969  1.00  0.00     0.005 A 
ATOM     78  C   UNL A   1      30.804  28.437  23.970  1.00  0.00     0.120 A 
ATOM     79  C   UNL A   1      31.204  29.508  24.777  1.00  0.00     0.046 A 
BRANCH  78  80
ATOM     80  O   UNL A   1      30.126  28.796  22.838  1.00  0.00    -0.488 OA
BRANCH  80  81
ATOM     81  C   UNL A   1      28.752  29.177  22.965  1.00  0.00     0.302 C 
BRANCH  81  82
ATOM     82  C   UNL A   1      28.535  30.651  22.656  1.00  0.00     0.379 C 
ATOM     83  F   UNL A   1      29.563  31.141  21.920  1.00  0.00    -0.207 F 
ATOM     84  F   UNL A   1      27.423  30.788  21.888  1.00  0.00    -0.207 F 
ENDBRANCH  81  82
ENDBRANCH  80  81
ENDBRANCH  78  80
ENDBRANCH  72  74
ENDBRANCH  71  72
ENDBRANCH  70  71
ENDBRANCH  69  70
ENDBRANCH  68  69
ENDBRANCH  67  68
ENDBRANCH   1  67
TORSDOF 23
ENDMDL
