MODEL 1
REMARK VINA RESULT:      -9.2      0.000      0.000
REMARK SMILES CCC1(CC)CCN(C(=O)NC(CC)(CC)C(=O)OCCOCCOCCOCCOC(=O)c2ccc(-c3c4nc(c(-c5c(F)cccc5F)c5ccc([nH]5)c(-c5c(F)cccc5F)c5nc(c(-c6c(F)cccc6F)c6ccc3[nH]6)C=C5)C=C4)cc2)CC1
REMARK SMILES IDX 25 1 24 2 23 3 22 4 21 5 20 6 19 7 17 8 18 9 12 10 11 11
REMARK SMILES IDX 3 12 6 13 89 14 7 15 88 16 8 17 9 18 10 19 2 21 1 22 4 23
REMARK SMILES IDX 5 24 13 25 14 26 15 27 16 28 26 29 27 30 28 31 29 32 30 33
REMARK SMILES IDX 31 34 32 35 33 36 34 37 35 38 87 39 36 40 86 41 37 42 38 43
REMARK SMILES IDX 39 44 80 45 40 46 85 47 79 48 81 49 41 50 84 51 78 52 77 53
REMARK SMILES IDX 42 55 68 56 51 57 67 58 52 59 55 60 66 61 82 62 53 63 54 64
REMARK SMILES IDX 65 66 83 67 56 68 43 69 44 70 49 71 45 72 46 73 48 74 50 75
REMARK SMILES IDX 47 76 69 77 70 78 75 79 71 80 72 81 74 82 76 83 73 84 57 85
REMARK SMILES IDX 58 86 63 87 59 88 60 89 62 90 64 91 61 92
REMARK H PARENT 11 20 81 54 55 65
REMARK Flexibility Score: inf
ROOT
ATOM      1  O   UNL A   1      40.406  21.250  27.613  1.00  0.00    -0.377 OA
ENDROOT
BRANCH   1   2
ATOM      2  C   UNL A   1      40.185  22.350  26.745  1.00  0.00     0.188 C 
BRANCH   2   3
ATOM      3  C   UNL A   1      38.901  23.165  26.866  1.00  0.00     0.188 C 
BRANCH   3   4
ATOM      4  O   UNL A   1      38.313  23.543  25.632  1.00  0.00    -0.376 OA
BRANCH   4   5
ATOM      5  C   UNL A   1      37.281  22.821  24.986  1.00  0.00     0.202 C 
BRANCH   5   6
ATOM      6  C   UNL A   1      37.080  21.329  25.219  1.00  0.00     0.261 C 
BRANCH   6   7
ATOM      7  O   UNL A   1      35.770  20.871  24.874  1.00  0.00    -0.461 OA
BRANCH   7   8
ATOM      8  C   UNL A   1      34.702  21.232  25.631  1.00  0.00     0.331 C 
ATOM      9  O   UNL A   1      34.800  21.616  26.791  1.00  0.00    -0.249 OA
BRANCH   8  10
ATOM     10  C   UNL A   1      33.353  21.117  24.810  1.00  0.00     0.139 C 
BRANCH  10  11
ATOM     11  N   UNL A   1      32.008  21.441  25.477  1.00  0.00    -0.322 N 
ATOM     12  C   UNL A   1      31.203  26.671  25.199  1.00  0.00    -0.027 C 
ATOM     13  C   UNL A   1      30.070  26.042  26.072  1.00  0.00     0.028 C 
ATOM     14  C   UNL A   1      32.018  25.531  24.636  1.00  0.00     0.028 C 
ATOM     15  C   UNL A   1      30.188  24.543  26.548  1.00  0.00     0.122 C 
ATOM     16  C   UNL A   1      32.393  24.450  25.619  1.00  0.00     0.122 C 
ATOM     17  N   UNL A   1      31.222  23.699  25.912  1.00  0.00    -0.325 N 
ATOM     18  C   UNL A   1      31.065  22.349  25.808  1.00  0.00     0.318 C 
ATOM     19  O   UNL A   1      29.981  21.828  26.106  1.00  0.00    -0.249 OA
ATOM     20  H   UNL A   1      31.678  20.583  25.828  1.00  0.00     0.166 HD
BRANCH  12  21
ATOM     21  C   UNL A   1      32.140  27.714  25.903  1.00  0.00     0.004 C 
ATOM     22  C   UNL A   1      31.880  28.127  27.350  1.00  0.00     0.004 C 
ENDBRANCH  12  21
BRANCH  12  23
ATOM     23  C   UNL A   1      30.582  27.374  23.923  1.00  0.00     0.004 C 
ATOM     24  C   UNL A   1      29.101  27.150  23.661  1.00  0.00     0.004 C 
ENDBRANCH  12  23
ENDBRANCH  10  11
BRANCH  10  25
ATOM     25  C   UNL A   1      33.351  19.549  24.611  1.00  0.00     0.037 C 
ATOM     26  C   UNL A   1      32.885  18.669  25.764  1.00  0.00     0.007 C 
ENDBRANCH  10  25
BRANCH  10  27
ATOM     27  C   UNL A   1      33.472  21.776  23.371  1.00  0.00     0.037 C 
ATOM     28  C   UNL A   1      34.161  23.129  23.235  1.00  0.00     0.007 C 
ENDBRANCH  10  27
ENDBRANCH   8  10
ENDBRANCH   7   8
ENDBRANCH   6   7
ENDBRANCH   5   6
ENDBRANCH   4   5
ENDBRANCH   3   4
ENDBRANCH   2   3
ENDBRANCH   1   2
BRANCH   1  29
ATOM     29  C   UNL A   1      41.712  20.710  27.639  1.00  0.00     0.188 C 
BRANCH  29  30
ATOM     30  C   UNL A   1      42.322  20.397  26.258  1.00  0.00     0.188 C 
BRANCH  30  31
ATOM     31  O   UNL A   1      43.452  21.204  25.944  1.00  0.00    -0.376 OA
BRANCH  31  32
ATOM     32  C   UNL A   1      43.442  21.912  24.716  1.00  0.00     0.202 C 
BRANCH  32  33
ATOM     33  C   UNL A   1      44.385  23.117  24.575  1.00  0.00     0.261 C 
BRANCH  33  34
ATOM     34  O   UNL A   1      43.906  24.374  25.070  1.00  0.00    -0.460 OA
BRANCH  34  35
ATOM     35  C   UNL A   1      44.796  25.368  25.323  1.00  0.00     0.338 C 
ATOM     36  O   UNL A   1      45.706  25.724  24.629  1.00  0.00    -0.246 OA
BRANCH  35  37
ATOM     37  C   UNL A   1      44.248  26.116  26.496  1.00  0.00     0.060 A 
ATOM     38  C   UNL A   1      43.314  25.458  27.316  1.00  0.00     0.016 A 
ATOM     39  C   UNL A   1      44.803  27.337  26.908  1.00  0.00     0.016 A 
ATOM     40  C   UNL A   1      42.949  26.013  28.547  1.00  0.00     0.010 A 
ATOM     41  C   UNL A   1      44.406  27.911  28.120  1.00  0.00     0.010 A 
ATOM     42  C   UNL A   1      43.455  27.266  28.930  1.00  0.00    -0.014 A 
BRANCH  42  43
ATOM     43  C   UNL A   1      42.697  28.053  29.935  1.00  0.00     0.031 A 
ATOM     44  C   UNL A   1      43.283  28.073  31.321  1.00  0.00     0.074 A 
ATOM     45  C   UNL A   1      41.573  28.738  29.662  1.00  0.00     0.049 A 
ATOM     46  N   UNL A   1      42.875  28.690  32.397  1.00  0.00    -0.248 NA
ATOM     47  C   UNL A   1      44.509  27.275  31.514  1.00  0.00     0.031 C 
ATOM     48  C   UNL A   1      40.910  28.820  28.363  1.00  0.00     0.029 A 
ATOM     49  N   UNL A   1      40.786  29.503  30.490  1.00  0.00    -0.354 N 
ATOM     50  C   UNL A   1      43.798  28.362  33.382  1.00  0.00     0.074 A 
ATOM     51  C   UNL A   1      44.759  27.460  32.796  1.00  0.00     0.031 C 
ATOM     52  C   UNL A   1      39.810  29.587  28.484  1.00  0.00     0.029 A 
ATOM     53  C   UNL A   1      39.680  30.035  29.871  1.00  0.00     0.049 A 
ATOM     54  H   UNL A   1      40.995  29.656  31.440  1.00  0.00     0.167 HD
ATOM     55  C   UNL A   1      43.853  28.782  34.665  1.00  0.00     0.037 A 
ATOM     56  C   UNL A   1      38.681  30.787  30.377  1.00  0.00     0.037 A 
ATOM     57  C   UNL A   1      42.883  29.653  35.262  1.00  0.00     0.049 A 
ATOM     58  C   UNL A   1      38.718  31.188  31.834  1.00  0.00     0.074 A 
ATOM     59  C   UNL A   1      42.847  30.145  36.553  1.00  0.00     0.029 A 
ATOM     60  N   UNL A   1      41.763  30.142  34.608  1.00  0.00    -0.354 N 
ATOM     61  N   UNL A   1      39.622  30.916  32.746  1.00  0.00    -0.248 NA
ATOM     62  C   UNL A   1      37.599  32.005  32.328  1.00  0.00     0.031 C 
ATOM     63  C   UNL A   1      41.672  30.889  36.697  1.00  0.00     0.029 A 
ATOM     64  C   UNL A   1      41.012  30.911  35.477  1.00  0.00     0.049 A 
ATOM     65  H   UNL A   1      41.537  29.969  33.666  1.00  0.00     0.167 HD
ATOM     66  C   UNL A   1      39.199  31.554  33.908  1.00  0.00     0.074 A 
ATOM     67  C   UNL A   1      37.960  32.232  33.584  1.00  0.00     0.031 C 
ATOM     68  C   UNL A   1      39.785  31.583  35.132  1.00  0.00     0.037 A 
BRANCH  55  69
ATOM     69  C   UNL A   1      44.982  28.255  35.499  1.00  0.00     0.057 A 
ATOM     70  C   UNL A   1      44.865  27.069  36.238  1.00  0.00     0.134 A 
ATOM     71  C   UNL A   1      46.185  28.961  35.594  1.00  0.00     0.134 A 
ATOM     72  F   UNL A   1      43.724  26.362  36.218  1.00  0.00    -0.206 F 
ATOM     73  C   UNL A   1      45.895  26.623  37.067  1.00  0.00     0.040 A 
ATOM     74  C   UNL A   1      47.234  28.509  36.394  1.00  0.00     0.040 A 
ATOM     75  F   UNL A   1      46.356  30.108  34.920  1.00  0.00    -0.206 F 
ATOM     76  C   UNL A   1      47.087  27.342  37.142  1.00  0.00     0.006 A 
ENDBRANCH  55  69
BRANCH  56  77
ATOM     77  C   UNL A   1      37.554  31.219  29.507  1.00  0.00     0.057 A 
ATOM     78  C   UNL A   1      37.527  32.490  28.922  1.00  0.00     0.134 A 
ATOM     79  C   UNL A   1      36.463  30.377  29.261  1.00  0.00     0.134 A 
ATOM     80  F   UNL A   1      38.526  33.357  29.143  1.00  0.00    -0.206 F 
ATOM     81  C   UNL A   1      36.453  32.913  28.134  1.00  0.00     0.040 A 
ATOM     82  C   UNL A   1      35.393  30.777  28.456  1.00  0.00     0.040 A 
ATOM     83  F   UNL A   1      36.420  29.148  29.798  1.00  0.00    -0.206 F 
ATOM     84  C   UNL A   1      35.384  32.052  27.894  1.00  0.00     0.006 A 
ENDBRANCH  56  77
BRANCH  68  85
ATOM     85  C   UNL A   1      39.124  32.403  36.203  1.00  0.00     0.057 A 
ATOM     86  C   UNL A   1      38.165  31.864  37.069  1.00  0.00     0.134 A 
ATOM     87  C   UNL A   1      39.508  33.735  36.412  1.00  0.00     0.134 A 
ATOM     88  F   UNL A   1      37.749  30.597  36.919  1.00  0.00    -0.206 F 
ATOM     89  C   UNL A   1      37.596  32.627  38.091  1.00  0.00     0.040 A 
ATOM     90  C   UNL A   1      38.968  34.497  37.448  1.00  0.00     0.040 A 
ATOM     91  F   UNL A   1      40.434  34.308  35.629  1.00  0.00    -0.206 F 
ATOM     92  C   UNL A   1      38.004  33.945  38.287  1.00  0.00     0.006 A 
ENDBRANCH  68  85
ENDBRANCH  42  43
ENDBRANCH  35  37
ENDBRANCH  34  35
ENDBRANCH  33  34
ENDBRANCH  32  33
ENDBRANCH  31  32
ENDBRANCH  30  31
ENDBRANCH  29  30
ENDBRANCH   1  29
TORSDOF 25
ENDMDL
MODEL 2
REMARK VINA RESULT:      -8.5      5.052      9.281
REMARK SMILES CCC1(CC)CCN(C(=O)NC(CC)(CC)C(=O)OCCOCCOCCOCCOC(=O)c2ccc(-c3c4nc(c(-c5c(F)cccc5F)c5ccc([nH]5)c(-c5c(F)cccc5F)c5nc(c(-c6c(F)cccc6F)c6ccc3[nH]6)C=C5)C=C4)cc2)CC1
REMARK SMILES IDX 25 1 24 2 23 3 22 4 21 5 20 6 19 7 17 8 18 9 12 10 11 11
REMARK SMILES IDX 3 12 6 13 89 14 7 15 88 16 8 17 9 18 10 19 2 21 1 22 4 23
REMARK SMILES IDX 5 24 13 25 14 26 15 27 16 28 26 29 27 30 28 31 29 32 30 33
REMARK SMILES IDX 31 34 32 35 33 36 34 37 35 38 87 39 36 40 86 41 37 42 38 43
REMARK SMILES IDX 39 44 80 45 40 46 85 47 79 48 81 49 41 50 84 51 78 52 77 53
REMARK SMILES IDX 42 55 68 56 51 57 67 58 52 59 55 60 66 61 82 62 53 63 54 64
REMARK SMILES IDX 65 66 83 67 56 68 43 69 44 70 49 71 45 72 46 73 48 74 50 75
REMARK SMILES IDX 47 76 69 77 70 78 75 79 71 80 72 81 74 82 76 83 73 84 57 85
REMARK SMILES IDX 58 86 63 87 59 88 60 89 62 90 64 91 61 92
REMARK H PARENT 11 20 81 54 55 65
REMARK Flexibility Score: inf
ROOT
ATOM      1  O   UNL A   1      38.993  22.189  25.843  1.00  0.00    -0.377 OA
ENDROOT
BRANCH   1   2
ATOM      2  C   UNL A   1      37.919  23.098  25.663  1.00  0.00     0.188 C 
BRANCH   2   3
ATOM      3  C   UNL A   1      36.975  22.928  24.476  1.00  0.00     0.188 C 
BRANCH   3   4
ATOM      4  O   UNL A   1      36.017  23.962  24.320  1.00  0.00    -0.376 OA
BRANCH   4   5
ATOM      5  C   UNL A   1      35.437  24.678  25.395  1.00  0.00     0.202 C 
BRANCH   5   6
ATOM      6  C   UNL A   1      34.358  25.730  25.168  1.00  0.00     0.261 C 
BRANCH   6   7
ATOM      7  O   UNL A   1      33.922  25.814  23.809  1.00  0.00    -0.461 OA
BRANCH   7   8
ATOM      8  C   UNL A   1      33.357  26.958  23.346  1.00  0.00     0.331 C 
ATOM      9  O   UNL A   1      34.005  27.874  22.851  1.00  0.00    -0.249 OA
BRANCH   8  10
ATOM     10  C   UNL A   1      31.783  26.926  23.507  1.00  0.00     0.139 C 
BRANCH  10  11
ATOM     11  N   UNL A   1      31.137  26.154  24.667  1.00  0.00    -0.322 N 
ATOM     12  C   UNL A   1      32.668  21.090  24.389  1.00  0.00    -0.027 C 
ATOM     13  C   UNL A   1      31.596  21.221  25.519  1.00  0.00     0.028 C 
ATOM     14  C   UNL A   1      32.976  22.486  23.902  1.00  0.00     0.028 C 
ATOM     15  C   UNL A   1      30.767  22.554  25.662  1.00  0.00     0.122 C 
ATOM     16  C   UNL A   1      31.778  23.367  23.649  1.00  0.00     0.122 C 
ATOM     17  N   UNL A   1      31.235  23.738  24.909  1.00  0.00    -0.325 N 
ATOM     18  C   UNL A   1      30.986  25.002  25.356  1.00  0.00     0.318 C 
ATOM     19  O   UNL A   1      30.500  25.175  26.482  1.00  0.00    -0.249 OA
ATOM     20  H   UNL A   1      30.561  26.808  25.126  1.00  0.00     0.166 HD
BRANCH  12  21
ATOM     21  C   UNL A   1      32.308  20.158  23.180  1.00  0.00     0.004 C 
ATOM     22  C   UNL A   1      32.526  18.650  23.279  1.00  0.00     0.004 C 
ENDBRANCH  12  21
BRANCH  12  23
ATOM     23  C   UNL A   1      34.039  20.576  24.994  1.00  0.00     0.004 C 
ATOM     24  C   UNL A   1      34.440  21.116  26.359  1.00  0.00     0.004 C 
ENDBRANCH  12  23
ENDBRANCH  10  11
BRANCH  10  25
ATOM     25  C   UNL A   1      31.446  26.087  22.211  1.00  0.00     0.037 C 
ATOM     26  C   UNL A   1      32.554  25.842  21.194  1.00  0.00     0.007 C 
ENDBRANCH  10  25
BRANCH  10  27
ATOM     27  C   UNL A   1      31.135  28.363  23.322  1.00  0.00     0.037 C 
ATOM     28  C   UNL A   1      31.060  29.298  24.523  1.00  0.00     0.007 C 
ENDBRANCH  10  27
ENDBRANCH   8  10
ENDBRANCH   7   8
ENDBRANCH   6   7
ENDBRANCH   5   6
ENDBRANCH   4   5
ENDBRANCH   3   4
ENDBRANCH   2   3
ENDBRANCH   1   2
BRANCH   1  29
ATOM     29  C   UNL A   1      39.881  22.456  26.911  1.00  0.00     0.188 C 
BRANCH  29  30
ATOM     30  C   UNL A   1      40.798  21.284  27.313  1.00  0.00     0.188 C 
BRANCH  30  31
ATOM     31  O   UNL A   1      41.638  20.836  26.254  1.00  0.00    -0.376 OA
BRANCH  31  32
ATOM     32  C   UNL A   1      41.822  19.438  26.098  1.00  0.00     0.202 C 
BRANCH  32  33
ATOM     33  C   UNL A   1      43.228  18.936  25.733  1.00  0.00     0.261 C 
BRANCH  33  34
ATOM     34  O   UNL A   1      44.285  19.903  25.756  1.00  0.00    -0.460 OA
BRANCH  34  35
ATOM     35  C   UNL A   1      44.744  20.409  24.583  1.00  0.00     0.338 C 
ATOM     36  O   UNL A   1      44.572  19.966  23.482  1.00  0.00    -0.246 OA
BRANCH  35  37
ATOM     37  C   UNL A   1      45.260  21.775  24.903  1.00  0.00     0.060 A 
ATOM     38  C   UNL A   1      45.339  22.147  26.257  1.00  0.00     0.016 A 
ATOM     39  C   UNL A   1      45.862  22.578  23.921  1.00  0.00     0.016 A 
ATOM     40  C   UNL A   1      46.027  23.308  26.626  1.00  0.00     0.010 A 
ATOM     41  C   UNL A   1      46.513  23.760  24.288  1.00  0.00     0.010 A 
ATOM     42  C   UNL A   1      46.572  24.145  25.639  1.00  0.00    -0.014 A 
BRANCH  42  43
ATOM     43  C   UNL A   1      46.824  25.566  25.983  1.00  0.00     0.031 A 
ATOM     44  C   UNL A   1      45.613  26.360  26.393  1.00  0.00     0.074 A 
ATOM     45  C   UNL A   1      48.040  26.139  25.968  1.00  0.00     0.049 A 
ATOM     46  N   UNL A   1      45.515  27.604  26.778  1.00  0.00    -0.248 NA
ATOM     47  C   UNL A   1      44.328  25.638  26.359  1.00  0.00     0.031 C 
ATOM     48  C   UNL A   1      49.295  25.484  25.611  1.00  0.00     0.029 A 
ATOM     49  N   UNL A   1      48.409  27.430  26.268  1.00  0.00    -0.354 N 
ATOM     50  C   UNL A   1      44.166  27.803  27.040  1.00  0.00     0.074 A 
ATOM     51  C   UNL A   1      43.476  26.575  26.729  1.00  0.00     0.031 C 
ATOM     52  C   UNL A   1      50.296  26.380  25.704  1.00  0.00     0.029 A 
ATOM     53  C   UNL A   1      49.751  27.677  26.109  1.00  0.00     0.049 A 
ATOM     54  H   UNL A   1      47.768  28.115  26.568  1.00  0.00     0.167 HD
ATOM     55  C   UNL A   1      43.547  28.909  27.511  1.00  0.00     0.037 A 
ATOM     56  C   UNL A   1      50.447  28.821  26.267  1.00  0.00     0.037 A 
ATOM     57  C   UNL A   1      44.223  30.142  27.790  1.00  0.00     0.049 A 
ATOM     58  C   UNL A   1      49.728  30.070  26.723  1.00  0.00     0.074 A 
ATOM     59  C   UNL A   1      43.693  31.322  28.275  1.00  0.00     0.029 A 
ATOM     60  N   UNL A   1      45.577  30.357  27.586  1.00  0.00    -0.354 N 
ATOM     61  N   UNL A   1      48.460  30.237  27.018  1.00  0.00    -0.248 NA
ATOM     62  C   UNL A   1      50.539  31.288  26.873  1.00  0.00     0.031 C 
ATOM     63  C   UNL A   1      44.719  32.272  28.311  1.00  0.00     0.029 A 
ATOM     64  C   UNL A   1      45.898  31.662  27.909  1.00  0.00     0.049 A 
ATOM     65  H   UNL A   1      46.214  29.682  27.260  1.00  0.00     0.167 HD
ATOM     66  C   UNL A   1      48.330  31.563  27.418  1.00  0.00     0.074 A 
ATOM     67  C   UNL A   1      49.649  32.155  27.334  1.00  0.00     0.031 C 
ATOM     68  C   UNL A   1      47.220  32.230  27.826  1.00  0.00     0.037 A 
BRANCH  55  69
ATOM     69  C   UNL A   1      42.063  28.823  27.698  1.00  0.00     0.057 A 
ATOM     70  C   UNL A   1      41.170  28.977  26.628  1.00  0.00     0.134 A 
ATOM     71  C   UNL A   1      41.519  28.620  28.971  1.00  0.00     0.134 A 
ATOM     72  F   UNL A   1      41.628  29.208  25.387  1.00  0.00    -0.206 F 
ATOM     73  C   UNL A   1      39.789  28.966  26.824  1.00  0.00     0.040 A 
ATOM     74  C   UNL A   1      40.139  28.576  29.174  1.00  0.00     0.040 A 
ATOM     75  F   UNL A   1      42.318  28.476  30.038  1.00  0.00    -0.206 F 
ATOM     76  C   UNL A   1      39.270  28.760  28.101  1.00  0.00     0.006 A 
ENDBRANCH  55  69
BRANCH  56  77
ATOM     77  C   UNL A   1      51.910  28.853  25.996  1.00  0.00     0.057 A 
ATOM     78  C   UNL A   1      52.410  29.088  24.709  1.00  0.00     0.134 A 
ATOM     79  C   UNL A   1      52.843  28.623  27.014  1.00  0.00     0.134 A 
ATOM     80  F   UNL A   1      51.568  29.284  23.684  1.00  0.00    -0.206 F 
ATOM     81  C   UNL A   1      53.781  29.083  24.443  1.00  0.00     0.040 A 
ATOM     82  C   UNL A   1      54.218  28.639  26.767  1.00  0.00     0.040 A 
ATOM     83  F   UNL A   1      52.432  28.383  28.268  1.00  0.00    -0.206 F 
ATOM     84  C   UNL A   1      54.691  28.864  25.476  1.00  0.00     0.006 A 
ENDBRANCH  56  77
BRANCH  68  85
ATOM     85  C   UNL A   1      47.384  33.660  28.253  1.00  0.00     0.057 A 
ATOM     86  C   UNL A   1      47.679  34.013  29.575  1.00  0.00     0.134 A 
ATOM     87  C   UNL A   1      47.315  34.693  27.308  1.00  0.00     0.134 A 
ATOM     88  F   UNL A   1      47.754  33.074  30.530  1.00  0.00    -0.206 F 
ATOM     89  C   UNL A   1      47.877  35.345  29.947  1.00  0.00     0.040 A 
ATOM     90  C   UNL A   1      47.540  36.023  27.661  1.00  0.00     0.040 A 
ATOM     91  F   UNL A   1      47.052  34.422  26.020  1.00  0.00    -0.206 F 
ATOM     92  C   UNL A   1      47.815  36.353  28.986  1.00  0.00     0.006 A 
ENDBRANCH  68  85
ENDBRANCH  42  43
ENDBRANCH  35  37
ENDBRANCH  34  35
ENDBRANCH  33  34
ENDBRANCH  32  33
ENDBRANCH  31  32
ENDBRANCH  30  31
ENDBRANCH  29  30
ENDBRANCH   1  29
TORSDOF 25
ENDMDL
MODEL 3
REMARK VINA RESULT:      -8.2      6.539      9.707
REMARK SMILES CCC1(CC)CCN(C(=O)NC(CC)(CC)C(=O)OCCOCCOCCOCCOC(=O)c2ccc(-c3c4nc(c(-c5c(F)cccc5F)c5ccc([nH]5)c(-c5c(F)cccc5F)c5nc(c(-c6c(F)cccc6F)c6ccc3[nH]6)C=C5)C=C4)cc2)CC1
REMARK SMILES IDX 25 1 24 2 23 3 22 4 21 5 20 6 19 7 17 8 18 9 12 10 11 11
REMARK SMILES IDX 3 12 6 13 89 14 7 15 88 16 8 17 9 18 10 19 2 21 1 22 4 23
REMARK SMILES IDX 5 24 13 25 14 26 15 27 16 28 26 29 27 30 28 31 29 32 30 33
REMARK SMILES IDX 31 34 32 35 33 36 34 37 35 38 87 39 36 40 86 41 37 42 38 43
REMARK SMILES IDX 39 44 80 45 40 46 85 47 79 48 81 49 41 50 84 51 78 52 77 53
REMARK SMILES IDX 42 55 68 56 51 57 67 58 52 59 55 60 66 61 82 62 53 63 54 64
REMARK SMILES IDX 65 66 83 67 56 68 43 69 44 70 49 71 45 72 46 73 48 74 50 75
REMARK SMILES IDX 47 76 69 77 70 78 75 79 71 80 72 81 74 82 76 83 73 84 57 85
REMARK SMILES IDX 58 86 63 87 59 88 60 89 62 90 64 91 61 92
REMARK H PARENT 11 20 81 54 55 65
REMARK Flexibility Score: inf
ROOT
ATOM      1  O   UNL A   1      38.029  22.164  25.054  1.00  0.00    -0.377 OA
ENDROOT
BRANCH   1   2
ATOM      2  C   UNL A   1      36.800  21.728  24.497  1.00  0.00     0.188 C 
BRANCH   2   3
ATOM      3  C   UNL A   1      35.723  22.751  24.146  1.00  0.00     0.188 C 
BRANCH   3   4
ATOM      4  O   UNL A   1      35.548  23.787  25.099  1.00  0.00    -0.376 OA
BRANCH   4   5
ATOM      5  C   UNL A   1      34.635  23.731  26.179  1.00  0.00     0.202 C 
BRANCH   5   6
ATOM      6  C   UNL A   1      33.218  24.276  26.061  1.00  0.00     0.261 C 
BRANCH   6   7
ATOM      7  O   UNL A   1      33.147  25.701  26.149  1.00  0.00    -0.461 OA
BRANCH   7   8
ATOM      8  C   UNL A   1      31.941  26.323  26.133  1.00  0.00     0.331 C 
ATOM      9  O   UNL A   1      31.020  26.024  26.886  1.00  0.00    -0.249 OA
BRANCH   8  10
ATOM     10  C   UNL A   1      31.906  27.479  25.051  1.00  0.00     0.139 C 
BRANCH  10  11
ATOM     11  N   UNL A   1      31.799  28.948  25.487  1.00  0.00    -0.322 N 
ATOM     12  C   UNL A   1      36.085  30.178  28.350  1.00  0.00    -0.027 C 
ATOM     13  C   UNL A   1      35.095  31.387  28.395  1.00  0.00     0.028 C 
ATOM     14  C   UNL A   1      35.513  29.170  27.382  1.00  0.00     0.028 C 
ATOM     15  C   UNL A   1      33.625  31.218  27.853  1.00  0.00     0.122 C 
ATOM     16  C   UNL A   1      34.040  28.881  27.535  1.00  0.00     0.122 C 
ATOM     17  N   UNL A   1      33.321  30.010  27.056  1.00  0.00    -0.325 N 
ATOM     18  C   UNL A   1      32.339  30.018  26.110  1.00  0.00     0.318 C 
ATOM     19  O   UNL A   1      31.792  31.084  25.795  1.00  0.00    -0.249 OA
ATOM     20  H   UNL A   1      30.924  29.254  25.156  1.00  0.00     0.166 HD
BRANCH  12  21
ATOM     21  C   UNL A   1      36.419  29.489  29.719  1.00  0.00     0.004 C 
ATOM     22  C   UNL A   1      36.172  30.228  31.032  1.00  0.00     0.004 C 
ENDBRANCH  12  21
BRANCH  12  23
ATOM     23  C   UNL A   1      37.456  30.619  27.692  1.00  0.00     0.004 C 
ATOM     24  C   UNL A   1      38.733  30.132  28.358  1.00  0.00     0.004 C 
ENDBRANCH  12  23
ENDBRANCH  10  11
BRANCH  10  25
ATOM     25  C   UNL A   1      30.506  27.133  24.405  1.00  0.00     0.037 C 
ATOM     26  C   UNL A   1      30.021  27.972  23.229  1.00  0.00     0.007 C 
ENDBRANCH  10  25
BRANCH  10  27
ATOM     27  C   UNL A   1      33.009  27.277  23.928  1.00  0.00     0.037 C 
ATOM     28  C   UNL A   1      33.612  28.506  23.258  1.00  0.00     0.007 C 
ENDBRANCH  10  27
ENDBRANCH   8  10
ENDBRANCH   7   8
ENDBRANCH   6   7
ENDBRANCH   5   6
ENDBRANCH   4   5
ENDBRANCH   3   4
ENDBRANCH   2   3
ENDBRANCH   1   2
BRANCH   1  29
ATOM     29  C   UNL A   1      38.786  21.201  25.760  1.00  0.00     0.188 C 
BRANCH  29  30
ATOM     30  C   UNL A   1      40.186  21.665  26.211  1.00  0.00     0.188 C 
BRANCH  30  31
ATOM     31  O   UNL A   1      40.198  22.233  27.516  1.00  0.00    -0.376 OA
BRANCH  31  32
ATOM     32  C   UNL A   1      40.819  23.497  27.684  1.00  0.00     0.202 C 
BRANCH  32  33
ATOM     33  C   UNL A   1      41.117  24.323  26.422  1.00  0.00     0.261 C 
BRANCH  33  34
ATOM     34  O   UNL A   1      42.419  24.171  25.843  1.00  0.00    -0.460 OA
BRANCH  34  35
ATOM     35  C   UNL A   1      43.479  23.928  26.656  1.00  0.00     0.338 C 
ATOM     36  O   UNL A   1      43.788  22.883  27.157  1.00  0.00    -0.246 OA
BRANCH  35  37
ATOM     37  C   UNL A   1      44.342  25.146  26.575  1.00  0.00     0.060 A 
ATOM     38  C   UNL A   1      44.907  25.631  27.768  1.00  0.00     0.016 A 
ATOM     39  C   UNL A   1      44.770  25.658  25.340  1.00  0.00     0.016 A 
ATOM     40  C   UNL A   1      45.902  26.614  27.723  1.00  0.00     0.010 A 
ATOM     41  C   UNL A   1      45.734  26.670  25.299  1.00  0.00     0.010 A 
ATOM     42  C   UNL A   1      46.282  27.173  26.492  1.00  0.00    -0.014 A 
BRANCH  42  43
ATOM     43  C   UNL A   1      46.919  28.513  26.495  1.00  0.00     0.031 A 
ATOM     44  C   UNL A   1      48.418  28.521  26.366  1.00  0.00     0.074 A 
ATOM     45  C   UNL A   1      46.237  29.669  26.579  1.00  0.00     0.049 A 
ATOM     46  N   UNL A   1      49.251  29.526  26.307  1.00  0.00    -0.248 NA
ATOM     47  C   UNL A   1      49.066  27.198  26.297  1.00  0.00     0.031 C 
ATOM     48  C   UNL A   1      44.787  29.806  26.688  1.00  0.00     0.029 A 
ATOM     49  N   UNL A   1      46.699  30.965  26.587  1.00  0.00    -0.354 N 
ATOM     50  C   UNL A   1      50.510  28.953  26.183  1.00  0.00     0.074 A 
ATOM     51  C   UNL A   1      50.343  27.520  26.221  1.00  0.00     0.031 C 
ATOM     52  C   UNL A   1      44.478  31.116  26.761  1.00  0.00     0.029 A 
ATOM     53  C   UNL A   1      45.708  31.907  26.721  1.00  0.00     0.049 A 
ATOM     54  H   UNL A   1      47.652  31.195  26.504  1.00  0.00     0.167 HD
ATOM     55  C   UNL A   1      51.708  29.561  26.038  1.00  0.00     0.037 A 
ATOM     56  C   UNL A   1      45.795  33.251  26.810  1.00  0.00     0.037 A 
ATOM     57  C   UNL A   1      51.884  30.984  26.032  1.00  0.00     0.049 A 
ATOM     58  C   UNL A   1      47.151  33.914  26.721  1.00  0.00     0.074 A 
ATOM     59  C   UNL A   1      53.053  31.706  25.886  1.00  0.00     0.029 A 
ATOM     60  N   UNL A   1      50.858  31.901  26.203  1.00  0.00    -0.354 N 
ATOM     61  N   UNL A   1      48.332  33.367  26.552  1.00  0.00    -0.248 NA
ATOM     62  C   UNL A   1      47.183  35.380  26.829  1.00  0.00     0.031 C 
ATOM     63  C   UNL A   1      52.741  33.062  26.025  1.00  0.00     0.029 A 
ATOM     64  C   UNL A   1      51.370  33.185  26.193  1.00  0.00     0.049 A 
ATOM     65  H   UNL A   1      49.907  31.672  26.313  1.00  0.00     0.167 HD
ATOM     66  C   UNL A   1      49.239  34.421  26.500  1.00  0.00     0.074 A 
ATOM     67  C   UNL A   1      48.471  35.640  26.649  1.00  0.00     0.031 C 
ATOM     68  C   UNL A   1      50.586  34.385  26.336  1.00  0.00     0.037 A 
BRANCH  55  69
ATOM     69  C   UNL A   1      52.907  28.670  25.923  1.00  0.00     0.057 A 
ATOM     70  C   UNL A   1      53.369  28.205  24.683  1.00  0.00     0.134 A 
ATOM     71  C   UNL A   1      53.585  28.241  27.069  1.00  0.00     0.134 A 
ATOM     72  F   UNL A   1      52.742  28.552  23.548  1.00  0.00    -0.206 F 
ATOM     73  C   UNL A   1      54.443  27.319  24.593  1.00  0.00     0.040 A 
ATOM     74  C   UNL A   1      54.680  27.380  26.989  1.00  0.00     0.040 A 
ATOM     75  F   UNL A   1      53.187  28.641  28.286  1.00  0.00    -0.206 F 
ATOM     76  C   UNL A   1      55.105  26.908  25.748  1.00  0.00     0.006 A 
ENDBRANCH  55  69
BRANCH  56  77
ATOM     77  C   UNL A   1      44.568  34.071  26.994  1.00  0.00     0.057 A 
ATOM     78  C   UNL A   1      44.051  34.338  28.267  1.00  0.00     0.134 A 
ATOM     79  C   UNL A   1      43.869  34.589  25.897  1.00  0.00     0.134 A 
ATOM     80  F   UNL A   1      44.656  33.845  29.358  1.00  0.00    -0.206 F 
ATOM     81  C   UNL A   1      42.879  35.078  28.443  1.00  0.00     0.040 A 
ATOM     82  C   UNL A   1      42.709  35.350  26.058  1.00  0.00     0.040 A 
ATOM     83  F   UNL A   1      44.305  34.364  24.648  1.00  0.00    -0.206 F 
ATOM     84  C   UNL A   1      42.207  35.592  27.336  1.00  0.00     0.006 A 
ENDBRANCH  56  77
BRANCH  68  85
ATOM     85  C   UNL A   1      51.315  35.697  26.267  1.00  0.00     0.057 A 
ATOM     86  C   UNL A   1      51.785  36.349  27.413  1.00  0.00     0.134 A 
ATOM     87  C   UNL A   1      51.614  36.275  25.025  1.00  0.00     0.134 A 
ATOM     88  F   UNL A   1      51.529  35.851  28.632  1.00  0.00    -0.206 F 
ATOM     89  C   UNL A   1      52.504  37.543  27.328  1.00  0.00     0.040 A 
ATOM     90  C   UNL A   1      52.357  37.451  24.927  1.00  0.00     0.040 A 
ATOM     91  F   UNL A   1      51.209  35.692  23.887  1.00  0.00    -0.206 F 
ATOM     92  C   UNL A   1      52.799  38.093  26.082  1.00  0.00     0.006 A 
ENDBRANCH  68  85
ENDBRANCH  42  43
ENDBRANCH  35  37
ENDBRANCH  34  35
ENDBRANCH  33  34
ENDBRANCH  32  33
ENDBRANCH  31  32
ENDBRANCH  30  31
ENDBRANCH  29  30
ENDBRANCH   1  29
TORSDOF 25
ENDMDL
