MODEL 1
REMARK VINA RESULT:     -10.4      0.000      0.000
REMARK SMILES CC(C)Nc1cc2ccccc2cc1C(=O)OCCOCCOCCOCCOC(=O)c1ccc(-c2c3nc(c(-c4c(F)cccc4F)c4ccc([nH]4)c(-c4c(F)cccc4F)c4nc(c(-c5c(F)cccc5F)c5ccc2[nH]5)C=C4)C=C3)cc1
REMARK SMILES IDX 23 1 22 2 21 3 20 4 19 5 18 6 17 7 15 8 16 9 14 10 5 11 6 12
REMARK SMILES IDX 7 13 13 14 8 15 12 16 9 17 11 18 10 19 4 20 2 22 1 23 3 24
REMARK SMILES IDX 24 25 25 26 26 27 27 28 28 29 29 30 30 31 31 32 32 33 33 34
REMARK SMILES IDX 85 35 34 36 84 37 35 38 36 39 37 40 78 41 38 42 83 43 77 44
REMARK SMILES IDX 79 45 39 46 82 47 76 48 75 49 40 51 66 52 49 53 65 54 50 55
REMARK SMILES IDX 53 56 64 57 80 58 51 59 52 60 63 62 81 63 54 64 41 65 42 66
REMARK SMILES IDX 47 67 43 68 44 69 46 70 48 71 45 72 67 73 68 74 73 75 69 76
REMARK SMILES IDX 70 77 72 78 74 79 71 80 55 81 56 82 61 83 57 84 58 85 60 86
REMARK SMILES IDX 62 87 59 88
REMARK H PARENT 4 21 79 50 53 61
REMARK Flexibility Score: inf
ROOT
ATOM      1  O   UNL A   1      42.192  20.112  26.981  1.00  0.00    -0.377 OA
ENDROOT
BRANCH   1   2
ATOM      2  C   UNL A   1      40.860  20.518  27.275  1.00  0.00     0.188 C 
BRANCH   2   3
ATOM      3  C   UNL A   1      40.572  21.995  27.646  1.00  0.00     0.188 C 
BRANCH   3   4
ATOM      4  O   UNL A   1      39.584  22.613  26.840  1.00  0.00    -0.376 OA
BRANCH   4   5
ATOM      5  C   UNL A   1      38.811  21.902  25.895  1.00  0.00     0.202 C 
BRANCH   5   6
ATOM      6  C   UNL A   1      37.479  22.456  25.386  1.00  0.00     0.261 C 
BRANCH   6   7
ATOM      7  O   UNL A   1      36.341  22.041  26.137  1.00  0.00    -0.460 OA
BRANCH   7   8
ATOM      8  C   UNL A   1      35.172  22.667  25.895  1.00  0.00     0.340 C 
ATOM      9  O   UNL A   1      34.919  23.834  26.147  1.00  0.00    -0.246 OA
BRANCH   8  10
ATOM     10  C   UNL A   1      34.292  21.792  25.083  1.00  0.00     0.083 A 
ATOM     11  C   UNL A   1      33.115  22.177  24.412  1.00  0.00     0.050 A 
ATOM     12  C   UNL A   1      32.473  21.166  23.654  1.00  0.00     0.035 A 
ATOM     13  C   UNL A   1      32.909  19.829  23.612  1.00  0.00    -0.016 A 
ATOM     14  C   UNL A   1      34.701  20.438  25.102  1.00  0.00     0.026 A 
ATOM     15  C   UNL A   1      32.275  18.864  22.810  1.00  0.00     0.009 A 
ATOM     16  C   UNL A   1      34.011  19.449  24.393  1.00  0.00    -0.017 A 
ATOM     17  C   UNL A   1      32.704  17.537  22.814  1.00  0.00     0.001 A 
ATOM     18  C   UNL A   1      34.407  18.101  24.428  1.00  0.00     0.009 A 
ATOM     19  C   UNL A   1      33.755  17.151  23.641  1.00  0.00     0.001 A 
BRANCH  11  20
ATOM     20  N   UNL A   1      32.518  23.423  24.342  1.00  0.00    -0.382 N 
ATOM     21  H   UNL A   1      32.772  23.965  23.559  1.00  0.00     0.160 HD
BRANCH  20  22
ATOM     22  C   UNL A   1      31.571  24.054  25.245  1.00  0.00     0.073 C 
ATOM     23  C   UNL A   1      30.474  24.705  24.405  1.00  0.00     0.030 C 
ATOM     24  C   UNL A   1      30.962  22.996  26.168  1.00  0.00     0.030 C 
ENDBRANCH  20  22
ENDBRANCH  11  20
ENDBRANCH   8  10
ENDBRANCH   7   8
ENDBRANCH   6   7
ENDBRANCH   5   6
ENDBRANCH   4   5
ENDBRANCH   3   4
ENDBRANCH   2   3
ENDBRANCH   1   2
BRANCH   1  25
ATOM     25  C   UNL A   1      42.389  19.472  25.731  1.00  0.00     0.188 C 
BRANCH  25  26
ATOM     26  C   UNL A   1      43.880  19.334  25.369  1.00  0.00     0.188 C 
BRANCH  26  27
ATOM     27  O   UNL A   1      44.395  19.990  24.225  1.00  0.00    -0.376 OA
BRANCH  27  28
ATOM     28  C   UNL A   1      44.950  21.294  24.284  1.00  0.00     0.202 C 
BRANCH  28  29
ATOM     29  C   UNL A   1      44.183  22.616  24.062  1.00  0.00     0.261 C 
BRANCH  29  30
ATOM     30  O   UNL A   1      43.854  23.419  25.191  1.00  0.00    -0.460 OA
BRANCH  30  31
ATOM     31  C   UNL A   1      44.517  24.584  25.312  1.00  0.00     0.338 C 
ATOM     32  O   UNL A   1      45.552  24.920  24.759  1.00  0.00    -0.246 OA
BRANCH  31  33
ATOM     33  C   UNL A   1      43.683  25.471  26.139  1.00  0.00     0.060 A 
ATOM     34  C   UNL A   1      43.751  26.857  25.945  1.00  0.00     0.016 A 
ATOM     35  C   UNL A   1      42.844  24.925  27.112  1.00  0.00     0.016 A 
ATOM     36  C   UNL A   1      43.006  27.711  26.753  1.00  0.00     0.010 A 
ATOM     37  C   UNL A   1      42.124  25.780  27.943  1.00  0.00     0.010 A 
ATOM     38  C   UNL A   1      42.237  27.174  27.790  1.00  0.00    -0.014 A 
BRANCH  38  39
ATOM     39  C   UNL A   1      41.764  28.049  28.883  1.00  0.00     0.031 A 
ATOM     40  C   UNL A   1      42.537  28.031  30.170  1.00  0.00     0.074 A 
ATOM     41  C   UNL A   1      40.672  28.816  28.748  1.00  0.00     0.049 A 
ATOM     42  N   UNL A   1      42.256  28.585  31.319  1.00  0.00    -0.248 NA
ATOM     43  C   UNL A   1      43.798  27.271  30.156  1.00  0.00     0.031 C 
ATOM     44  C   UNL A   1      39.884  28.963  27.527  1.00  0.00     0.029 A 
ATOM     45  N   UNL A   1      40.030  29.604  29.668  1.00  0.00    -0.354 N 
ATOM     46  C   UNL A   1      43.292  28.221  32.170  1.00  0.00     0.074 A 
ATOM     47  C   UNL A   1      44.189  27.376  31.414  1.00  0.00     0.031 C 
ATOM     48  C   UNL A   1      38.847  29.781  27.779  1.00  0.00     0.029 A 
ATOM     49  C   UNL A   1      38.877  30.171  29.189  1.00  0.00     0.049 A 
ATOM     50  H   UNL A   1      40.362  29.746  30.583  1.00  0.00     0.167 HD
ATOM     51  C   UNL A   1      43.478  28.562  33.466  1.00  0.00     0.037 A 
ATOM     52  C   UNL A   1      37.941  30.897  29.832  1.00  0.00     0.037 A 
ATOM     53  C   UNL A   1      42.568  29.390  34.211  1.00  0.00     0.049 A 
ATOM     54  C   UNL A   1      38.111  31.182  31.301  1.00  0.00     0.074 A 
ATOM     55  C   UNL A   1      42.655  29.801  35.528  1.00  0.00     0.029 A 
ATOM     56  N   UNL A   1      41.392  29.923  33.699  1.00  0.00    -0.354 N 
ATOM     57  N   UNL A   1      39.090  30.840  32.105  1.00  0.00    -0.248 NA
ATOM     58  C   UNL A   1      37.043  31.953  31.955  1.00  0.00     0.031 C 
ATOM     59  C   UNL A   1      41.501  30.531  35.832  1.00  0.00     0.029 A 
ATOM     60  C   UNL A   1      40.731  30.637  34.683  1.00  0.00     0.049 A 
ATOM     61  H   UNL A   1      41.076  29.809  32.774  1.00  0.00     0.167 HD
ATOM     62  C   UNL A   1      38.781  31.392  33.344  1.00  0.00     0.074 A 
ATOM     63  C   UNL A   1      37.519  32.084  33.186  1.00  0.00     0.031 C 
ATOM     64  C   UNL A   1      39.484  31.339  34.501  1.00  0.00     0.037 A 
BRANCH  51  65
ATOM     65  C   UNL A   1      44.683  27.992  34.157  1.00  0.00     0.057 A 
ATOM     66  C   UNL A   1      44.650  26.758  34.820  1.00  0.00     0.134 A 
ATOM     67  C   UNL A   1      45.891  28.702  34.179  1.00  0.00     0.134 A 
ATOM     68  F   UNL A   1      43.521  26.034  34.854  1.00  0.00    -0.206 F 
ATOM     69  C   UNL A   1      45.759  26.273  35.516  1.00  0.00     0.040 A 
ATOM     70  C   UNL A   1      47.017  28.210  34.841  1.00  0.00     0.040 A 
ATOM     71  F   UNL A   1      45.996  29.890  33.561  1.00  0.00    -0.206 F 
ATOM     72  C   UNL A   1      46.948  26.998  35.523  1.00  0.00     0.006 A 
ENDBRANCH  51  65
BRANCH  52  73
ATOM     73  C   UNL A   1      36.761  31.405  29.089  1.00  0.00     0.057 A 
ATOM     74  C   UNL A   1      36.697  32.738  28.667  1.00  0.00     0.134 A 
ATOM     75  C   UNL A   1      35.675  30.578  28.778  1.00  0.00     0.134 A 
ATOM     76  F   UNL A   1      37.698  33.584  28.953  1.00  0.00    -0.206 F 
ATOM     77  C   UNL A   1      35.593  33.234  27.973  1.00  0.00     0.040 A 
ATOM     78  C   UNL A   1      34.574  31.054  28.063  1.00  0.00     0.040 A 
ATOM     79  F   UNL A   1      35.675  29.290  29.150  1.00  0.00    -0.206 F 
ATOM     80  C   UNL A   1      34.530  32.388  27.663  1.00  0.00     0.006 A 
ENDBRANCH  52  73
BRANCH  64  81
ATOM     81  C   UNL A   1      38.952  32.109  35.678  1.00  0.00     0.057 A 
ATOM     82  C   UNL A   1      38.201  31.503  36.692  1.00  0.00     0.134 A 
ATOM     83  C   UNL A   1      39.269  33.466  35.830  1.00  0.00     0.134 A 
ATOM     84  F   UNL A   1      37.855  30.210  36.603  1.00  0.00    -0.206 F 
ATOM     85  C   UNL A   1      37.772  32.224  37.808  1.00  0.00     0.040 A 
ATOM     86  C   UNL A   1      38.872  34.188  36.956  1.00  0.00     0.040 A 
ATOM     87  F   UNL A   1      39.996  34.105  34.901  1.00  0.00    -0.206 F 
ATOM     88  C   UNL A   1      38.116  33.567  37.947  1.00  0.00     0.006 A 
ENDBRANCH  64  81
ENDBRANCH  38  39
ENDBRANCH  31  33
ENDBRANCH  30  31
ENDBRANCH  29  30
ENDBRANCH  28  29
ENDBRANCH  27  28
ENDBRANCH  26  27
ENDBRANCH  25  26
ENDBRANCH   1  25
TORSDOF 22
ENDMDL
MODEL 2
REMARK VINA RESULT:     -10.1      0.600      6.179
REMARK SMILES CC(C)Nc1cc2ccccc2cc1C(=O)OCCOCCOCCOCCOC(=O)c1ccc(-c2c3nc(c(-c4c(F)cccc4F)c4ccc([nH]4)c(-c4c(F)cccc4F)c4nc(c(-c5c(F)cccc5F)c5ccc2[nH]5)C=C4)C=C3)cc1
REMARK SMILES IDX 23 1 22 2 21 3 20 4 19 5 18 6 17 7 15 8 16 9 14 10 5 11 6 12
REMARK SMILES IDX 7 13 13 14 8 15 12 16 9 17 11 18 10 19 4 20 2 22 1 23 3 24
REMARK SMILES IDX 24 25 25 26 26 27 27 28 28 29 29 30 30 31 31 32 32 33 33 34
REMARK SMILES IDX 85 35 34 36 84 37 35 38 36 39 37 40 78 41 38 42 83 43 77 44
REMARK SMILES IDX 79 45 39 46 82 47 76 48 75 49 40 51 66 52 49 53 65 54 50 55
REMARK SMILES IDX 53 56 64 57 80 58 51 59 52 60 63 62 81 63 54 64 41 65 42 66
REMARK SMILES IDX 47 67 43 68 44 69 46 70 48 71 45 72 67 73 68 74 73 75 69 76
REMARK SMILES IDX 70 77 72 78 74 79 71 80 55 81 56 82 61 83 57 84 58 85 60 86
REMARK SMILES IDX 62 87 59 88
REMARK H PARENT 4 21 79 50 53 61
REMARK Flexibility Score: inf
ROOT
ATOM      1  O   UNL A   1      42.396  20.510  27.041  1.00  0.00    -0.377 OA
ENDROOT
BRANCH   1   2
ATOM      2  C   UNL A   1      41.038  20.831  27.323  1.00  0.00     0.188 C 
BRANCH   2   3
ATOM      3  C   UNL A   1      40.620  22.314  27.493  1.00  0.00     0.188 C 
BRANCH   3   4
ATOM      4  O   UNL A   1      39.450  22.672  26.777  1.00  0.00    -0.376 OA
BRANCH   4   5
ATOM      5  C   UNL A   1      38.769  21.775  25.925  1.00  0.00     0.202 C 
BRANCH   5   6
ATOM      6  C   UNL A   1      37.437  22.158  25.276  1.00  0.00     0.261 C 
BRANCH   6   7
ATOM      7  O   UNL A   1      36.303  22.017  26.127  1.00  0.00    -0.460 OA
BRANCH   7   8
ATOM      8  C   UNL A   1      35.147  22.583  25.727  1.00  0.00     0.340 C 
ATOM      9  O   UNL A   1      34.880  23.773  25.772  1.00  0.00    -0.246 OA
BRANCH   8  10
ATOM     10  C   UNL A   1      34.313  21.579  25.024  1.00  0.00     0.083 A 
ATOM     11  C   UNL A   1      33.054  21.802  24.431  1.00  0.00     0.050 A 
ATOM     12  C   UNL A   1      32.474  20.692  23.769  1.00  0.00     0.035 A 
ATOM     13  C   UNL A   1      33.051  19.408  23.749  1.00  0.00    -0.016 A 
ATOM     14  C   UNL A   1      34.869  20.280  25.068  1.00  0.00     0.026 A 
ATOM     15  C   UNL A   1      32.469  18.343  23.040  1.00  0.00     0.009 A 
ATOM     16  C   UNL A   1      34.242  19.188  24.456  1.00  0.00    -0.017 A 
ATOM     17  C   UNL A   1      33.042  17.070  23.067  1.00  0.00     0.001 A 
ATOM     18  C   UNL A   1      34.785  17.894  24.517  1.00  0.00     0.009 A 
ATOM     19  C   UNL A   1      34.187  16.841  23.824  1.00  0.00     0.001 A 
BRANCH  11  20
ATOM     20  N   UNL A   1      32.319  22.972  24.355  1.00  0.00    -0.382 N 
ATOM     21  H   UNL A   1      32.263  23.373  23.457  1.00  0.00     0.160 HD
BRANCH  20  22
ATOM     22  C   UNL A   1      31.616  23.699  25.398  1.00  0.00     0.073 C 
ATOM     23  C   UNL A   1      30.751  24.768  24.732  1.00  0.00     0.030 C 
ATOM     24  C   UNL A   1      30.733  22.732  26.189  1.00  0.00     0.030 C 
ENDBRANCH  20  22
ENDBRANCH  11  20
ENDBRANCH   8  10
ENDBRANCH   7   8
ENDBRANCH   6   7
ENDBRANCH   5   6
ENDBRANCH   4   5
ENDBRANCH   3   4
ENDBRANCH   2   3
ENDBRANCH   1   2
BRANCH   1  25
ATOM     25  C   UNL A   1      42.642  19.874  25.798  1.00  0.00     0.188 C 
BRANCH  25  26
ATOM     26  C   UNL A   1      44.123  19.955  25.379  1.00  0.00     0.188 C 
BRANCH  26  27
ATOM     27  O   UNL A   1      44.476  20.524  24.132  1.00  0.00    -0.376 OA
BRANCH  27  28
ATOM     28  C   UNL A   1      45.030  21.825  24.021  1.00  0.00     0.202 C 
BRANCH  28  29
ATOM     29  C   UNL A   1      44.234  23.145  23.941  1.00  0.00     0.261 C 
BRANCH  29  30
ATOM     30  O   UNL A   1      43.877  23.809  25.150  1.00  0.00    -0.460 OA
BRANCH  30  31
ATOM     31  C   UNL A   1      44.575  24.918  25.454  1.00  0.00     0.338 C 
ATOM     32  O   UNL A   1      45.620  25.308  24.955  1.00  0.00    -0.246 OA
BRANCH  31  33
ATOM     33  C   UNL A   1      43.770  25.685  26.418  1.00  0.00     0.060 A 
ATOM     34  C   UNL A   1      43.988  27.062  26.555  1.00  0.00     0.016 A 
ATOM     35  C   UNL A   1      42.808  25.032  27.191  1.00  0.00     0.016 A 
ATOM     36  C   UNL A   1      43.269  27.791  27.497  1.00  0.00     0.010 A 
ATOM     37  C   UNL A   1      42.112  25.754  28.157  1.00  0.00     0.010 A 
ATOM     38  C   UNL A   1      42.372  27.125  28.338  1.00  0.00    -0.014 A 
BRANCH  38  39
ATOM     39  C   UNL A   1      41.902  27.779  29.577  1.00  0.00     0.031 A 
ATOM     40  C   UNL A   1      40.676  28.641  29.484  1.00  0.00     0.074 A 
ATOM     41  C   UNL A   1      42.553  27.634  30.741  1.00  0.00     0.049 A 
ATOM     42  N   UNL A   1      40.145  29.434  30.376  1.00  0.00    -0.248 NA
ATOM     43  C   UNL A   1      39.959  28.608  28.198  1.00  0.00     0.031 C 
ATOM     44  C   UNL A   1      43.712  26.773  30.963  1.00  0.00     0.029 A 
ATOM     45  N   UNL A   1      42.333  28.233  31.954  1.00  0.00    -0.354 N 
ATOM     46  C   UNL A   1      39.046  30.010  29.752  1.00  0.00     0.074 A 
ATOM     47  C   UNL A   1      39.005  29.501  28.400  1.00  0.00     0.031 C 
ATOM     48  C   UNL A   1      44.115  26.913  32.238  1.00  0.00     0.029 A 
ATOM     49  C   UNL A   1      43.271  27.908  32.900  1.00  0.00     0.049 A 
ATOM     50  H   UNL A   1      41.577  28.838  32.128  1.00  0.00     0.167 HD
ATOM     51  C   UNL A   1      38.150  30.887  30.263  1.00  0.00     0.037 A 
ATOM     52  C   UNL A   1      43.440  28.389  34.147  1.00  0.00     0.037 A 
ATOM     53  C   UNL A   1      38.212  31.399  31.606  1.00  0.00     0.049 A 
ATOM     54  C   UNL A   1      42.495  29.441  34.666  1.00  0.00     0.074 A 
ATOM     55  C   UNL A   1      37.360  32.291  32.230  1.00  0.00     0.029 A 
ATOM     56  N   UNL A   1      39.197  31.070  32.527  1.00  0.00    -0.354 N 
ATOM     57  N   UNL A   1      41.456  29.986  34.077  1.00  0.00    -0.248 NA
ATOM     58  C   UNL A   1      42.748  29.949  36.022  1.00  0.00     0.031 C 
ATOM     59  C   UNL A   1      37.863  32.548  33.509  1.00  0.00     0.029 A 
ATOM     60  C   UNL A   1      38.988  31.761  33.707  1.00  0.00     0.049 A 
ATOM     61  H   UNL A   1      39.935  30.438  32.365  1.00  0.00     0.167 HD
ATOM     62  C   UNL A   1      40.905  30.863  35.006  1.00  0.00     0.074 A 
ATOM     63  C   UNL A   1      41.730  30.783  36.193  1.00  0.00     0.031 C 
ATOM     64  C   UNL A   1      39.809  31.652  34.889  1.00  0.00     0.037 A 
BRANCH  51  65
ATOM     65  C   UNL A   1      37.070  31.375  29.342  1.00  0.00     0.057 A 
ATOM     66  C   UNL A   1      37.105  32.648  28.756  1.00  0.00     0.134 A 
ATOM     67  C   UNL A   1      35.962  30.566  29.055  1.00  0.00     0.134 A 
ATOM     68  F   UNL A   1      38.127  33.482  29.003  1.00  0.00    -0.206 F 
ATOM     69  C   UNL A   1      36.061  33.114  27.956  1.00  0.00     0.040 A 
ATOM     70  C   UNL A   1      34.929  31.007  28.227  1.00  0.00     0.040 A 
ATOM     71  F   UNL A   1      35.864  29.333  29.578  1.00  0.00    -0.206 F 
ATOM     72  C   UNL A   1      34.970  32.290  27.686  1.00  0.00     0.006 A 
ENDBRANCH  51  65
BRANCH  52  73
ATOM     73  C   UNL A   1      44.549  27.878  34.992  1.00  0.00     0.057 A 
ATOM     74  C   UNL A   1      44.381  26.736  35.784  1.00  0.00     0.134 A 
ATOM     75  C   UNL A   1      45.798  28.509  35.027  1.00  0.00     0.134 A 
ATOM     76  F   UNL A   1      43.200  26.101  35.808  1.00  0.00    -0.206 F 
ATOM     77  C   UNL A   1      45.410  26.246  36.589  1.00  0.00     0.040 A 
ATOM     78  C   UNL A   1      46.845  28.016  35.808  1.00  0.00     0.040 A 
ATOM     79  F   UNL A   1      46.026  29.605  34.289  1.00  0.00    -0.206 F 
ATOM     80  C   UNL A   1      46.649  26.883  36.596  1.00  0.00     0.006 A 
ENDBRANCH  52  73
BRANCH  64  81
ATOM     81  C   UNL A   1      39.385  32.442  36.095  1.00  0.00     0.057 A 
ATOM     82  C   UNL A   1      39.859  33.734  36.350  1.00  0.00     0.134 A 
ATOM     83  C   UNL A   1      38.422  31.922  36.971  1.00  0.00     0.134 A 
ATOM     84  F   UNL A   1      40.789  34.287  35.556  1.00  0.00    -0.206 F 
ATOM     85  C   UNL A   1      39.402  34.474  37.442  1.00  0.00     0.040 A 
ATOM     86  C   UNL A   1      37.935  32.665  38.048  1.00  0.00     0.040 A 
ATOM     87  F   UNL A   1      37.916  30.695  36.778  1.00  0.00    -0.206 F 
ATOM     88  C   UNL A   1      38.430  33.944  38.288  1.00  0.00     0.006 A 
ENDBRANCH  64  81
ENDBRANCH  38  39
ENDBRANCH  31  33
ENDBRANCH  30  31
ENDBRANCH  29  30
ENDBRANCH  28  29
ENDBRANCH  27  28
ENDBRANCH  26  27
ENDBRANCH  25  26
ENDBRANCH   1  25
TORSDOF 22
ENDMDL
MODEL 3
REMARK VINA RESULT:     -10.0      4.212      9.106
REMARK SMILES CC(C)Nc1cc2ccccc2cc1C(=O)OCCOCCOCCOCCOC(=O)c1ccc(-c2c3nc(c(-c4c(F)cccc4F)c4ccc([nH]4)c(-c4c(F)cccc4F)c4nc(c(-c5c(F)cccc5F)c5ccc2[nH]5)C=C4)C=C3)cc1
REMARK SMILES IDX 23 1 22 2 21 3 20 4 19 5 18 6 17 7 15 8 16 9 14 10 5 11 6 12
REMARK SMILES IDX 7 13 13 14 8 15 12 16 9 17 11 18 10 19 4 20 2 22 1 23 3 24
REMARK SMILES IDX 24 25 25 26 26 27 27 28 28 29 29 30 30 31 31 32 32 33 33 34
REMARK SMILES IDX 85 35 34 36 84 37 35 38 36 39 37 40 78 41 38 42 83 43 77 44
REMARK SMILES IDX 79 45 39 46 82 47 76 48 75 49 40 51 66 52 49 53 65 54 50 55
REMARK SMILES IDX 53 56 64 57 80 58 51 59 52 60 63 62 81 63 54 64 41 65 42 66
REMARK SMILES IDX 47 67 43 68 44 69 46 70 48 71 45 72 67 73 68 74 73 75 69 76
REMARK SMILES IDX 70 77 72 78 74 79 71 80 55 81 56 82 61 83 57 84 58 85 60 86
REMARK SMILES IDX 62 87 59 88
REMARK H PARENT 4 21 79 50 53 61
REMARK Flexibility Score: inf
ROOT
ATOM      1  O   UNL A   1      30.630  27.932  24.666  1.00  0.00    -0.377 OA
ENDROOT
BRANCH   1   2
ATOM      2  C   UNL A   1      30.390  26.990  23.627  1.00  0.00     0.188 C 
BRANCH   2   3
ATOM      3  C   UNL A   1      31.273  27.012  22.352  1.00  0.00     0.188 C 
BRANCH   3   4
ATOM      4  O   UNL A   1      32.404  26.160  22.416  1.00  0.00    -0.376 OA
BRANCH   4   5
ATOM      5  C   UNL A   1      32.462  25.025  23.254  1.00  0.00     0.202 C 
BRANCH   5   6
ATOM      6  C   UNL A   1      33.146  25.086  24.621  1.00  0.00     0.261 C 
BRANCH   6   7
ATOM      7  O   UNL A   1      33.866  23.908  24.974  1.00  0.00    -0.460 OA
BRANCH   7   8
ATOM      8  C   UNL A   1      33.186  22.921  25.590  1.00  0.00     0.340 C 
ATOM      9  O   UNL A   1      32.127  23.044  26.185  1.00  0.00    -0.246 OA
BRANCH   8  10
ATOM     10  C   UNL A   1      33.800  21.610  25.269  1.00  0.00     0.083 A 
ATOM     11  C   UNL A   1      35.125  21.216  25.540  1.00  0.00     0.050 A 
ATOM     12  C   UNL A   1      35.464  19.887  25.183  1.00  0.00     0.035 A 
ATOM     13  C   UNL A   1      34.582  19.009  24.524  1.00  0.00    -0.016 A 
ATOM     14  C   UNL A   1      32.928  20.761  24.549  1.00  0.00     0.026 A 
ATOM     15  C   UNL A   1      34.937  17.682  24.229  1.00  0.00     0.009 A 
ATOM     16  C   UNL A   1      33.311  19.474  24.154  1.00  0.00    -0.017 A 
ATOM     17  C   UNL A   1      34.058  16.843  23.543  1.00  0.00     0.001 A 
ATOM     18  C   UNL A   1      32.451  18.638  23.422  1.00  0.00     0.009 A 
ATOM     19  C   UNL A   1      32.825  17.328  23.119  1.00  0.00     0.001 A 
BRANCH  11  20
ATOM     20  N   UNL A   1      36.139  21.926  26.158  1.00  0.00    -0.382 N 
ATOM     21  H   UNL A   1      36.123  21.907  27.143  1.00  0.00     0.160 HD
BRANCH  20  22
ATOM     22  C   UNL A   1      37.225  22.697  25.576  1.00  0.00     0.073 C 
ATOM     23  C   UNL A   1      38.535  21.969  25.870  1.00  0.00     0.030 C 
ATOM     24  C   UNL A   1      37.018  22.809  24.064  1.00  0.00     0.030 C 
ENDBRANCH  20  22
ENDBRANCH  11  20
ENDBRANCH   8  10
ENDBRANCH   7   8
ENDBRANCH   6   7
ENDBRANCH   5   6
ENDBRANCH   4   5
ENDBRANCH   3   4
ENDBRANCH   2   3
ENDBRANCH   1   2
BRANCH   1  25
ATOM     25  C   UNL A   1      30.920  29.258  24.253  1.00  0.00     0.188 C 
BRANCH  25  26
ATOM     26  C   UNL A   1      31.770  30.023  25.285  1.00  0.00     0.188 C 
BRANCH  26  27
ATOM     27  O   UNL A   1      31.689  29.687  26.658  1.00  0.00    -0.376 OA
BRANCH  27  28
ATOM     28  C   UNL A   1      32.729  28.999  27.334  1.00  0.00     0.202 C 
BRANCH  28  29
ATOM     29  C   UNL A   1      34.185  29.488  27.492  1.00  0.00     0.261 C 
BRANCH  29  30
ATOM     30  O   UNL A   1      34.429  30.880  27.675  1.00  0.00    -0.460 OA
BRANCH  30  31
ATOM     31  C   UNL A   1      35.113  31.228  28.780  1.00  0.00     0.338 C 
ATOM     32  O   UNL A   1      34.769  31.995  29.666  1.00  0.00    -0.246 OA
BRANCH  31  33
ATOM     33  C   UNL A   1      36.325  30.394  28.818  1.00  0.00     0.060 A 
ATOM     34  C   UNL A   1      36.633  29.682  29.985  1.00  0.00     0.016 A 
ATOM     35  C   UNL A   1      37.157  30.329  27.699  1.00  0.00     0.016 A 
ATOM     36  C   UNL A   1      37.801  28.928  30.053  1.00  0.00     0.010 A 
ATOM     37  C   UNL A   1      38.343  29.603  27.778  1.00  0.00     0.010 A 
ATOM     38  C   UNL A   1      38.685  28.936  28.969  1.00  0.00    -0.014 A 
BRANCH  38  39
ATOM     39  C   UNL A   1      40.079  28.483  29.154  1.00  0.00     0.031 A 
ATOM     40  C   UNL A   1      41.052  29.460  29.748  1.00  0.00     0.074 A 
ATOM     41  C   UNL A   1      40.475  27.256  28.787  1.00  0.00     0.049 A 
ATOM     42  N   UNL A   1      42.349  29.369  29.881  1.00  0.00    -0.248 NA
ATOM     43  C   UNL A   1      40.478  30.719  30.251  1.00  0.00     0.031 C 
ATOM     44  C   UNL A   1      39.607  26.204  28.263  1.00  0.00     0.029 A 
ATOM     45  N   UNL A   1      41.728  26.698  28.785  1.00  0.00    -0.354 N 
ATOM     46  C   UNL A   1      42.747  30.567  30.461  1.00  0.00     0.074 A 
ATOM     47  C   UNL A   1      41.562  31.378  30.625  1.00  0.00     0.031 C 
ATOM     48  C   UNL A   1      40.359  25.129  27.971  1.00  0.00     0.029 A 
ATOM     49  C   UNL A   1      41.763  25.438  28.244  1.00  0.00     0.049 A 
ATOM     50  H   UNL A   1      42.524  27.157  29.136  1.00  0.00     0.167 HD
ATOM     51  C   UNL A   1      43.992  30.955  30.824  1.00  0.00     0.037 A 
ATOM     52  C   UNL A   1      42.817  24.644  27.974  1.00  0.00     0.037 A 
ATOM     53  C   UNL A   1      45.165  30.144  30.639  1.00  0.00     0.049 A 
ATOM     54  C   UNL A   1      44.207  25.133  28.290  1.00  0.00     0.074 A 
ATOM     55  C   UNL A   1      46.476  30.434  30.968  1.00  0.00     0.029 A 
ATOM     56  N   UNL A   1      45.165  28.883  30.057  1.00  0.00    -0.354 N 
ATOM     57  N   UNL A   1      44.584  26.264  28.839  1.00  0.00    -0.248 NA
ATOM     58  C   UNL A   1      45.320  24.236  27.946  1.00  0.00     0.031 C 
ATOM     59  C   UNL A   1      47.278  29.375  30.531  1.00  0.00     0.029 A 
ATOM     60  C   UNL A   1      46.458  28.393  29.996  1.00  0.00     0.049 A 
ATOM     61  H   UNL A   1      44.365  28.408  29.737  1.00  0.00     0.167 HD
ATOM     62  C   UNL A   1      45.969  26.194  28.949  1.00  0.00     0.074 A 
ATOM     63  C   UNL A   1      46.365  24.913  28.402  1.00  0.00     0.031 C 
ATOM     64  C   UNL A   1      46.831  27.103  29.467  1.00  0.00     0.037 A 
BRANCH  51  65
ATOM     65  C   UNL A   1      44.137  32.331  31.405  1.00  0.00     0.057 A 
ATOM     66  C   UNL A   1      44.144  32.562  32.787  1.00  0.00     0.134 A 
ATOM     67  C   UNL A   1      44.246  33.448  30.566  1.00  0.00     0.134 A 
ATOM     68  F   UNL A   1      44.024  31.540  33.648  1.00  0.00    -0.206 F 
ATOM     69  C   UNL A   1      44.211  33.854  33.312  1.00  0.00     0.040 A 
ATOM     70  C   UNL A   1      44.350  34.742  31.079  1.00  0.00     0.040 A 
ATOM     71  F   UNL A   1      44.250  33.301  29.231  1.00  0.00    -0.206 F 
ATOM     72  C   UNL A   1      44.319  34.948  32.456  1.00  0.00     0.006 A 
ENDBRANCH  51  65
BRANCH  52  73
ATOM     73  C   UNL A   1      42.599  23.305  27.374  1.00  0.00     0.057 A 
ATOM     74  C   UNL A   1      42.727  23.107  25.994  1.00  0.00     0.134 A 
ATOM     75  C   UNL A   1      42.263  22.193  28.156  1.00  0.00     0.134 A 
ATOM     76  F   UNL A   1      43.026  24.139  25.191  1.00  0.00    -0.206 F 
ATOM     77  C   UNL A   1      42.518  21.856  25.412  1.00  0.00     0.040 A 
ATOM     78  C   UNL A   1      42.077  20.930  27.590  1.00  0.00     0.040 A 
ATOM     79  F   UNL A   1      42.129  22.314  29.484  1.00  0.00    -0.206 F 
ATOM     80  C   UNL A   1      42.199  20.762  26.213  1.00  0.00     0.006 A 
ENDBRANCH  52  73
BRANCH  64  81
ATOM     81  C   UNL A   1      48.284  26.726  29.540  1.00  0.00     0.057 A 
ATOM     82  C   UNL A   1      48.829  26.053  30.640  1.00  0.00     0.134 A 
ATOM     83  C   UNL A   1      49.130  26.975  28.451  1.00  0.00     0.134 A 
ATOM     84  F   UNL A   1      48.076  25.792  31.720  1.00  0.00    -0.206 F 
ATOM     85  C   UNL A   1      50.167  25.655  30.660  1.00  0.00     0.040 A 
ATOM     86  C   UNL A   1      50.461  26.555  28.446  1.00  0.00     0.040 A 
ATOM     87  F   UNL A   1      48.669  27.606  27.360  1.00  0.00    -0.206 F 
ATOM     88  C   UNL A   1      50.983  25.896  29.556  1.00  0.00     0.006 A 
ENDBRANCH  64  81
ENDBRANCH  38  39
ENDBRANCH  31  33
ENDBRANCH  30  31
ENDBRANCH  29  30
ENDBRANCH  28  29
ENDBRANCH  27  28
ENDBRANCH  26  27
ENDBRANCH  25  26
ENDBRANCH   1  25
TORSDOF 22
ENDMDL
