MODEL 1
REMARK VINA RESULT:     -10.2      0.000      0.000
REMARK SMILES Nc1ccc(C(=O)NC[C@@H]2CC[C@@H](C(=O)OCCOCCOCCOCCOC(=O)c3ccc(-c4c5nc(c(-c6c(F)cccc6F)c6ccc([nH]6)c(-c6c(F)cccc6F)c6nc(c(-c7c(F)cccc7F)c7ccc4[nH]7)C=C6)C=C5)cc3)O2)cc1Cl
REMARK SMILES IDX 21 1 20 2 19 3 18 4 17 5 16 6 14 7 15 8 13 9 10 10 11 11
REMARK SMILES IDX 85 12 12 13 9 14 8 15 6 16 7 17 5 19 2 20 3 21 87 22 4 23
REMARK SMILES IDX 86 24 88 25 1 26 22 29 23 30 24 31 25 32 26 33 27 34 28 35
REMARK SMILES IDX 29 36 30 37 31 38 32 39 84 40 33 41 83 42 34 43 35 44 36 45
REMARK SMILES IDX 77 46 37 47 82 48 76 49 78 50 38 51 81 52 75 53 74 54 39 56
REMARK SMILES IDX 65 57 48 58 64 59 49 60 52 61 63 62 79 63 50 64 51 65 62 67
REMARK SMILES IDX 80 68 53 69 40 70 41 71 46 72 42 73 43 74 45 75 47 76 44 77
REMARK SMILES IDX 66 78 67 79 72 80 68 81 69 82 71 83 73 84 70 85 54 86 55 87
REMARK SMILES IDX 60 88 56 89 57 90 59 91 61 92 58 93
REMARK H PARENT 8 18 1 27 1 28 78 55 52 66
REMARK Flexibility Score: inf
ROOT
ATOM      1  C   UNL A   1      33.290  35.543  28.292  1.00  0.00     0.188 C 
ENDROOT
BRANCH   1   2
ATOM      2  C   UNL A   1      34.700  35.147  28.776  1.00  0.00     0.188 C 
BRANCH   2   3
ATOM      3  O   UNL A   1      34.929  33.934  29.480  1.00  0.00    -0.376 OA
BRANCH   3   4
ATOM      4  C   UNL A   1      34.299  32.712  29.118  1.00  0.00     0.202 C 
BRANCH   4   5
ATOM      5  C   UNL A   1      34.847  31.751  28.049  1.00  0.00     0.261 C 
BRANCH   5   6
ATOM      6  O   UNL A   1      34.002  30.644  27.748  1.00  0.00    -0.461 OA
BRANCH   6   7
ATOM      7  C   UNL A   1      34.585  29.575  27.145  1.00  0.00     0.335 C 
ATOM      8  O   UNL A   1      35.740  29.207  27.309  1.00  0.00    -0.249 OA
BRANCH   7   9
ATOM      9  C   UNL A   1      33.540  28.833  26.312  1.00  0.00     0.228 C 
ATOM     10  C   UNL A   1      32.831  26.630  26.530  1.00  0.00     0.138 C 
ATOM     11  C   UNL A   1      31.602  27.517  26.665  1.00  0.00     0.037 C 
ATOM     12  O   UNL A   1      33.888  27.473  26.051  1.00  0.00    -0.361 OA
ATOM     13  C   UNL A   1      32.193  28.848  27.028  1.00  0.00     0.047 C 
BRANCH  10  14
ATOM     14  C   UNL A   1      32.694  25.411  25.600  1.00  0.00     0.148 C 
BRANCH  14  15
ATOM     15  N   UNL A   1      33.211  25.636  24.262  1.00  0.00    -0.349 N 
ATOM     16  C   UNL A   1      32.801  26.353  23.172  1.00  0.00     0.251 C 
ATOM     17  O   UNL A   1      33.494  26.223  22.160  1.00  0.00    -0.269 OA
ATOM     18  H   UNL A   1      34.056  25.157  24.100  1.00  0.00     0.163 HD
BRANCH  16  19
ATOM     19  C   UNL A   1      31.622  27.269  23.110  1.00  0.00     0.041 A 
ATOM     20  C   UNL A   1      29.207  28.779  23.031  1.00  0.00     0.050 A 
ATOM     21  C   UNL A   1      30.445  29.375  22.773  1.00  0.00     0.028 A 
ATOM     22  C   UNL A   1      29.199  27.428  23.403  1.00  0.00     0.064 A 
ATOM     23  C   UNL A   1      31.641  28.633  22.815  1.00  0.00     0.016 A 
ATOM     24  C   UNL A   1      30.382  26.684  23.427  1.00  0.00     0.036 A 
ATOM     25  Cl  UNL A   1      27.721  26.635  23.826  1.00  0.00    -0.082 Cl
BRANCH  20  26
ATOM     26  N   UNL A   1      28.053  29.557  23.051  1.00  0.00    -0.398 N 
ATOM     27  H   UNL A   1      27.298  29.332  22.462  1.00  0.00     0.156 HD
ATOM     28  H   UNL A   1      27.993  30.333  23.655  1.00  0.00     0.156 HD
ENDBRANCH  20  26
ENDBRANCH  16  19
ENDBRANCH  14  15
ENDBRANCH  10  14
ENDBRANCH   7   9
ENDBRANCH   6   7
ENDBRANCH   5   6
ENDBRANCH   4   5
ENDBRANCH   3   4
ENDBRANCH   2   3
ENDBRANCH   1   2
BRANCH   1  29
ATOM     29  O   UNL A   1      32.464  36.052  29.322  1.00  0.00    -0.377 OA
BRANCH  29  30
ATOM     30  C   UNL A   1      33.129  36.787  30.344  1.00  0.00     0.188 C 
BRANCH  30  31
ATOM     31  C   UNL A   1      32.715  36.537  31.810  1.00  0.00     0.188 C 
BRANCH  31  32
ATOM     32  O   UNL A   1      32.802  35.172  32.211  1.00  0.00    -0.376 OA
BRANCH  32  33
ATOM     33  C   UNL A   1      34.040  34.714  32.739  1.00  0.00     0.202 C 
BRANCH  33  34
ATOM     34  C   UNL A   1      34.076  33.246  33.191  1.00  0.00     0.261 C 
BRANCH  34  35
ATOM     35  O   UNL A   1      35.099  32.435  32.589  1.00  0.00    -0.460 OA
BRANCH  35  36
ATOM     36  C   UNL A   1      36.251  32.283  33.279  1.00  0.00     0.338 C 
ATOM     37  O   UNL A   1      36.446  32.541  34.448  1.00  0.00    -0.246 OA
BRANCH  36  38
ATOM     38  C   UNL A   1      37.201  31.542  32.420  1.00  0.00     0.060 A 
ATOM     39  C   UNL A   1      38.178  30.748  33.036  1.00  0.00     0.016 A 
ATOM     40  C   UNL A   1      37.140  31.634  31.028  1.00  0.00     0.016 A 
ATOM     41  C   UNL A   1      39.121  30.077  32.260  1.00  0.00     0.010 A 
ATOM     42  C   UNL A   1      38.101  30.976  30.252  1.00  0.00     0.010 A 
ATOM     43  C   UNL A   1      39.117  30.223  30.867  1.00  0.00    -0.014 A 
BRANCH  43  44
ATOM     44  C   UNL A   1      40.281  29.740  30.084  1.00  0.00     0.031 A 
ATOM     45  C   UNL A   1      41.418  30.690  29.821  1.00  0.00     0.074 A 
ATOM     46  C   UNL A   1      40.357  28.464  29.661  1.00  0.00     0.049 A 
ATOM     47  N   UNL A   1      42.531  30.495  29.162  1.00  0.00    -0.248 NA
ATOM     48  C   UNL A   1      41.282  32.045  30.382  1.00  0.00     0.031 C 
ATOM     49  C   UNL A   1      39.343  27.436  29.883  1.00  0.00     0.029 A 
ATOM     50  N   UNL A   1      41.340  27.821  28.950  1.00  0.00    -0.354 N 
ATOM     51  C   UNL A   1      43.229  31.694  29.237  1.00  0.00     0.074 A 
ATOM     52  C   UNL A   1      42.398  32.625  29.968  1.00  0.00     0.031 C 
ATOM     53  C   UNL A   1      39.750  26.292  29.307  1.00  0.00     0.029 A 
ATOM     54  C   UNL A   1      41.039  26.514  28.654  1.00  0.00     0.049 A 
ATOM     55  H   UNL A   1      42.180  28.255  28.679  1.00  0.00     0.167 HD
ATOM     56  C   UNL A   1      44.461  31.988  28.758  1.00  0.00     0.037 A 
ATOM     57  C   UNL A   1      41.718  25.610  27.920  1.00  0.00     0.037 A 
ATOM     58  C   UNL A   1      45.286  31.067  28.022  1.00  0.00     0.049 A 
ATOM     59  C   UNL A   1      43.050  25.990  27.324  1.00  0.00     0.074 A 
ATOM     60  C   UNL A   1      46.545  31.277  27.486  1.00  0.00     0.029 A 
ATOM     61  N   UNL A   1      44.932  29.763  27.713  1.00  0.00    -0.354 N 
ATOM     62  N   UNL A   1      43.710  27.121  27.419  1.00  0.00    -0.248 NA
ATOM     63  C   UNL A   1      43.737  24.964  26.525  1.00  0.00     0.031 C 
ATOM     64  C   UNL A   1      46.932  30.115  26.812  1.00  0.00     0.029 A 
ATOM     65  C   UNL A   1      45.940  29.161  26.977  1.00  0.00     0.049 A 
ATOM     66  H   UNL A   1      44.089  29.328  27.977  1.00  0.00     0.167 HD
ATOM     67  C   UNL A   1      44.896  26.931  26.719  1.00  0.00     0.074 A 
ATOM     68  C   UNL A   1      44.877  25.570  26.225  1.00  0.00     0.031 C 
ATOM     69  C   UNL A   1      45.910  27.804  26.499  1.00  0.00     0.037 A 
BRANCH  56  70
ATOM     70  C   UNL A   1      44.990  33.370  29.006  1.00  0.00     0.057 A 
ATOM     71  C   UNL A   1      45.817  33.657  30.099  1.00  0.00     0.134 A 
ATOM     72  C   UNL A   1      44.712  34.415  28.116  1.00  0.00     0.134 A 
ATOM     73  F   UNL A   1      46.109  32.705  31.000  1.00  0.00    -0.206 F 
ATOM     74  C   UNL A   1      46.338  34.936  30.305  1.00  0.00     0.040 A 
ATOM     75  C   UNL A   1      45.247  35.691  28.295  1.00  0.00     0.040 A 
ATOM     76  F   UNL A   1      43.928  34.208  27.046  1.00  0.00    -0.206 F 
ATOM     77  C   UNL A   1      46.062  35.955  29.396  1.00  0.00     0.006 A 
ENDBRANCH  56  70
BRANCH  57  78
ATOM     78  C   UNL A   1      41.147  24.260  27.671  1.00  0.00     0.057 A 
ATOM     79  C   UNL A   1      41.639  23.123  28.323  1.00  0.00     0.134 A 
ATOM     80  C   UNL A   1      40.132  24.068  26.725  1.00  0.00     0.134 A 
ATOM     81  F   UNL A   1      42.628  23.235  29.222  1.00  0.00    -0.206 F 
ATOM     82  C   UNL A   1      41.168  21.844  28.020  1.00  0.00     0.040 A 
ATOM     83  C   UNL A   1      39.630  22.798  26.435  1.00  0.00     0.040 A 
ATOM     84  F   UNL A   1      39.615  25.114  26.063  1.00  0.00    -0.206 F 
ATOM     85  C   UNL A   1      40.158  21.679  27.075  1.00  0.00     0.006 A 
ENDBRANCH  57  78
BRANCH  69  86
ATOM     86  C   UNL A   1      47.097  27.301  25.725  1.00  0.00     0.057 A 
ATOM     87  C   UNL A   1      47.224  27.505  24.345  1.00  0.00     0.134 A 
ATOM     88  C   UNL A   1      48.138  26.625  26.376  1.00  0.00     0.134 A 
ATOM     89  F   UNL A   1      46.259  28.135  23.659  1.00  0.00    -0.206 F 
ATOM     90  C   UNL A   1      48.325  27.022  23.634  1.00  0.00     0.040 A 
ATOM     91  C   UNL A   1      49.259  26.167  25.682  1.00  0.00     0.040 A 
ATOM     92  F   UNL A   1      48.089  26.408  27.699  1.00  0.00    -0.206 F 
ATOM     93  C   UNL A   1      49.349  26.357  24.304  1.00  0.00     0.006 A 
ENDBRANCH  69  86
ENDBRANCH  43  44
ENDBRANCH  36  38
ENDBRANCH  35  36
ENDBRANCH  34  35
ENDBRANCH  33  34
ENDBRANCH  32  33
ENDBRANCH  31  32
ENDBRANCH  30  31
ENDBRANCH  29  30
ENDBRANCH   1  29
TORSDOF 24
ENDMDL
MODEL 2
REMARK VINA RESULT:     -10.2      1.595      2.723
REMARK SMILES Nc1ccc(C(=O)NC[C@@H]2CC[C@@H](C(=O)OCCOCCOCCOCCOC(=O)c3ccc(-c4c5nc(c(-c6c(F)cccc6F)c6ccc([nH]6)c(-c6c(F)cccc6F)c6nc(c(-c7c(F)cccc7F)c7ccc4[nH]7)C=C6)C=C5)cc3)O2)cc1Cl
REMARK SMILES IDX 21 1 20 2 19 3 18 4 17 5 16 6 14 7 15 8 13 9 10 10 11 11
REMARK SMILES IDX 85 12 12 13 9 14 8 15 6 16 7 17 5 19 2 20 3 21 87 22 4 23
REMARK SMILES IDX 86 24 88 25 1 26 22 29 23 30 24 31 25 32 26 33 27 34 28 35
REMARK SMILES IDX 29 36 30 37 31 38 32 39 84 40 33 41 83 42 34 43 35 44 36 45
REMARK SMILES IDX 77 46 37 47 82 48 76 49 78 50 38 51 81 52 75 53 74 54 39 56
REMARK SMILES IDX 65 57 48 58 64 59 49 60 52 61 63 62 79 63 50 64 51 65 62 67
REMARK SMILES IDX 80 68 53 69 40 70 41 71 46 72 42 73 43 74 45 75 47 76 44 77
REMARK SMILES IDX 66 78 67 79 72 80 68 81 69 82 71 83 73 84 70 85 54 86 55 87
REMARK SMILES IDX 60 88 56 89 57 90 59 91 61 92 58 93
REMARK H PARENT 8 18 1 27 1 28 78 55 52 66
REMARK Flexibility Score: inf
ROOT
ATOM      1  C   UNL A   1      33.323  35.435  28.620  1.00  0.00     0.188 C 
ENDROOT
BRANCH   1   2
ATOM      2  C   UNL A   1      34.513  34.662  29.223  1.00  0.00     0.188 C 
BRANCH   2   3
ATOM      3  O   UNL A   1      34.455  33.259  29.433  1.00  0.00    -0.376 OA
BRANCH   3   4
ATOM      4  C   UNL A   1      33.868  32.370  28.491  1.00  0.00     0.202 C 
BRANCH   4   5
ATOM      5  C   UNL A   1      34.671  31.579  27.445  1.00  0.00     0.261 C 
BRANCH   5   6
ATOM      6  O   UNL A   1      34.030  30.401  26.964  1.00  0.00    -0.461 OA
BRANCH   6   7
ATOM      7  C   UNL A   1      34.563  29.212  27.351  1.00  0.00     0.335 C 
ATOM      8  O   UNL A   1      35.305  29.043  28.309  1.00  0.00    -0.249 OA
BRANCH   7   9
ATOM      9  C   UNL A   1      34.003  28.096  26.471  1.00  0.00     0.228 C 
ATOM     10  C   UNL A   1      31.904  27.967  25.479  1.00  0.00     0.138 C 
ATOM     11  C   UNL A   1      32.937  27.865  24.367  1.00  0.00     0.037 C 
ATOM     12  O   UNL A   1      32.622  27.826  26.713  1.00  0.00    -0.361 OA
ATOM     13  C   UNL A   1      34.162  28.461  24.997  1.00  0.00     0.047 C 
BRANCH  10  14
ATOM     14  C   UNL A   1      30.756  26.943  25.439  1.00  0.00     0.148 C 
BRANCH  14  15
ATOM     15  N   UNL A   1      30.892  25.874  26.413  1.00  0.00    -0.349 N 
ATOM     16  C   UNL A   1      31.628  24.725  26.494  1.00  0.00     0.251 C 
ATOM     17  O   UNL A   1      31.399  24.017  27.478  1.00  0.00    -0.269 OA
ATOM     18  H   UNL A   1      30.318  26.009  27.201  1.00  0.00     0.163 HD
BRANCH  16  19
ATOM     19  C   UNL A   1      32.671  24.273  25.523  1.00  0.00     0.041 A 
ATOM     20  C   UNL A   1      34.856  23.508  23.864  1.00  0.00     0.050 A 
ATOM     21  C   UNL A   1      33.535  23.396  23.421  1.00  0.00     0.028 A 
ATOM     22  C   UNL A   1      35.068  23.940  25.180  1.00  0.00     0.064 A 
ATOM     23  C   UNL A   1      32.452  23.770  24.240  1.00  0.00     0.016 A 
ATOM     24  C   UNL A   1      33.997  24.329  25.988  1.00  0.00     0.036 A 
ATOM     25  Cl  UNL A   1      36.667  24.022  25.838  1.00  0.00    -0.082 Cl
BRANCH  20  26
ATOM     26  N   UNL A   1      35.899  23.063  23.056  1.00  0.00    -0.398 N 
ATOM     27  H   UNL A   1      35.980  23.392  22.132  1.00  0.00     0.156 HD
ATOM     28  H   UNL A   1      36.554  22.418  23.409  1.00  0.00     0.156 HD
ENDBRANCH  20  26
ENDBRANCH  16  19
ENDBRANCH  14  15
ENDBRANCH  10  14
ENDBRANCH   7   9
ENDBRANCH   6   7
ENDBRANCH   5   6
ENDBRANCH   4   5
ENDBRANCH   3   4
ENDBRANCH   2   3
ENDBRANCH   1   2
BRANCH   1  29
ATOM     29  O   UNL A   1      32.453  35.980  29.594  1.00  0.00    -0.377 OA
BRANCH  29  30
ATOM     30  C   UNL A   1      33.073  36.753  30.616  1.00  0.00     0.188 C 
BRANCH  30  31
ATOM     31  C   UNL A   1      32.678  36.476  32.083  1.00  0.00     0.188 C 
BRANCH  31  32
ATOM     32  O   UNL A   1      32.792  35.107  32.464  1.00  0.00    -0.376 OA
BRANCH  32  33
ATOM     33  C   UNL A   1      34.079  34.623  32.821  1.00  0.00     0.202 C 
BRANCH  33  34
ATOM     34  C   UNL A   1      34.150  33.147  33.242  1.00  0.00     0.261 C 
BRANCH  34  35
ATOM     35  O   UNL A   1      35.188  32.371  32.621  1.00  0.00    -0.460 OA
BRANCH  35  36
ATOM     36  C   UNL A   1      36.369  32.286  33.275  1.00  0.00     0.338 C 
ATOM     37  O   UNL A   1      36.590  32.575  34.432  1.00  0.00    -0.246 OA
BRANCH  36  38
ATOM     38  C   UNL A   1      37.323  31.573  32.398  1.00  0.00     0.060 A 
ATOM     39  C   UNL A   1      38.258  30.713  32.990  1.00  0.00     0.016 A 
ATOM     40  C   UNL A   1      37.307  31.755  31.013  1.00  0.00     0.016 A 
ATOM     41  C   UNL A   1      39.206  30.065  32.199  1.00  0.00     0.010 A 
ATOM     42  C   UNL A   1      38.273  31.119  30.224  1.00  0.00     0.010 A 
ATOM     43  C   UNL A   1      39.248  30.299  30.818  1.00  0.00    -0.014 A 
BRANCH  43  44
ATOM     44  C   UNL A   1      40.422  29.831  30.040  1.00  0.00     0.031 A 
ATOM     45  C   UNL A   1      41.549  30.796  29.786  1.00  0.00     0.074 A 
ATOM     46  C   UNL A   1      40.514  28.559  29.613  1.00  0.00     0.049 A 
ATOM     47  N   UNL A   1      42.668  30.616  29.132  1.00  0.00    -0.248 NA
ATOM     48  C   UNL A   1      41.394  32.147  30.351  1.00  0.00     0.031 C 
ATOM     49  C   UNL A   1      39.511  27.518  29.826  1.00  0.00     0.029 A 
ATOM     50  N   UNL A   1      41.508  27.929  28.905  1.00  0.00    -0.354 N 
ATOM     51  C   UNL A   1      43.352  31.822  29.215  1.00  0.00     0.074 A 
ATOM     52  C   UNL A   1      42.506  32.741  29.945  1.00  0.00     0.031 C 
ATOM     53  C   UNL A   1      39.934  26.380  29.248  1.00  0.00     0.029 A 
ATOM     54  C   UNL A   1      41.224  26.620  28.602  1.00  0.00     0.049 A 
ATOM     55  H   UNL A   1      42.345  28.374  28.639  1.00  0.00     0.167 HD
ATOM     56  C   UNL A   1      44.582  32.133  28.743  1.00  0.00     0.037 A 
ATOM     57  C   UNL A   1      41.917  25.726  27.869  1.00  0.00     0.037 A 
ATOM     58  C   UNL A   1      45.421  31.223  28.008  1.00  0.00     0.049 A 
ATOM     59  C   UNL A   1      43.247  26.124  27.281  1.00  0.00     0.074 A 
ATOM     60  C   UNL A   1      46.681  31.450  27.479  1.00  0.00     0.029 A 
ATOM     61  N   UNL A   1      45.084  29.916  27.693  1.00  0.00    -0.354 N 
ATOM     62  N   UNL A   1      43.893  27.262  27.383  1.00  0.00    -0.248 NA
ATOM     63  C   UNL A   1      43.950  25.109  26.481  1.00  0.00     0.031 C 
ATOM     64  C   UNL A   1      47.085  30.294  26.803  1.00  0.00     0.029 A 
ATOM     65  C   UNL A   1      46.102  29.329  26.960  1.00  0.00     0.049 A 
ATOM     66  H   UNL A   1      44.245  29.471  27.951  1.00  0.00     0.167 HD
ATOM     67  C   UNL A   1      45.085  27.088  26.688  1.00  0.00     0.074 A 
ATOM     68  C   UNL A   1      45.084  25.728  26.190  1.00  0.00     0.031 C 
ATOM     69  C   UNL A   1      46.091  27.973  26.476  1.00  0.00     0.037 A 
BRANCH  56  70
ATOM     70  C   UNL A   1      45.094  33.520  28.999  1.00  0.00     0.057 A 
ATOM     71  C   UNL A   1      45.889  33.818  30.113  1.00  0.00     0.134 A 
ATOM     72  C   UNL A   1      44.833  34.558  28.096  1.00  0.00     0.134 A 
ATOM     73  F   UNL A   1      46.162  32.873  31.026  1.00  0.00    -0.206 F 
ATOM     74  C   UNL A   1      46.394  35.101  30.327  1.00  0.00     0.040 A 
ATOM     75  C   UNL A   1      45.354  35.838  28.284  1.00  0.00     0.040 A 
ATOM     76  F   UNL A   1      44.081  34.340  27.006  1.00  0.00    -0.206 F 
ATOM     77  C   UNL A   1      46.136  36.114  29.406  1.00  0.00     0.006 A 
ENDBRANCH  56  70
BRANCH  57  78
ATOM     78  C   UNL A   1      41.362  24.371  27.612  1.00  0.00     0.057 A 
ATOM     79  C   UNL A   1      40.362  24.156  26.657  1.00  0.00     0.134 A 
ATOM     80  C   UNL A   1      41.778  23.265  28.365  1.00  0.00     0.134 A 
ATOM     81  F   UNL A   1      39.902  25.178  25.920  1.00  0.00    -0.206 F 
ATOM     82  C   UNL A   1      39.773  22.902  26.481  1.00  0.00     0.040 A 
ATOM     83  C   UNL A   1      41.220  21.999  28.178  1.00  0.00     0.040 A 
ATOM     84  F   UNL A   1      42.732  23.400  29.299  1.00  0.00    -0.206 F 
ATOM     85  C   UNL A   1      40.205  21.818  27.243  1.00  0.00     0.006 A 
ENDBRANCH  57  78
BRANCH  69  86
ATOM     86  C   UNL A   1      47.287  27.487  25.707  1.00  0.00     0.057 A 
ATOM     87  C   UNL A   1      48.380  26.879  26.339  1.00  0.00     0.134 A 
ATOM     88  C   UNL A   1      47.335  27.608  24.311  1.00  0.00     0.134 A 
ATOM     89  F   UNL A   1      48.403  26.741  27.673  1.00  0.00    -0.206 F 
ATOM     90  C   UNL A   1      49.491  26.443  25.616  1.00  0.00     0.040 A 
ATOM     91  C   UNL A   1      48.426  27.146  23.575  1.00  0.00     0.040 A 
ATOM     92  F   UNL A   1      46.317  28.167  23.640  1.00  0.00    -0.206 F 
ATOM     93  C   UNL A   1      49.513  26.571  24.228  1.00  0.00     0.006 A 
ENDBRANCH  69  86
ENDBRANCH  43  44
ENDBRANCH  36  38
ENDBRANCH  35  36
ENDBRANCH  34  35
ENDBRANCH  33  34
ENDBRANCH  32  33
ENDBRANCH  31  32
ENDBRANCH  30  31
ENDBRANCH  29  30
ENDBRANCH   1  29
TORSDOF 24
ENDMDL
MODEL 3
REMARK VINA RESULT:      -9.5      5.239     11.095
REMARK SMILES Nc1ccc(C(=O)NC[C@@H]2CC[C@@H](C(=O)OCCOCCOCCOCCOC(=O)c3ccc(-c4c5nc(c(-c6c(F)cccc6F)c6ccc([nH]6)c(-c6c(F)cccc6F)c6nc(c(-c7c(F)cccc7F)c7ccc4[nH]7)C=C6)C=C5)cc3)O2)cc1Cl
REMARK SMILES IDX 21 1 20 2 19 3 18 4 17 5 16 6 14 7 15 8 13 9 10 10 11 11
REMARK SMILES IDX 85 12 12 13 9 14 8 15 6 16 7 17 5 19 2 20 3 21 87 22 4 23
REMARK SMILES IDX 86 24 88 25 1 26 22 29 23 30 24 31 25 32 26 33 27 34 28 35
REMARK SMILES IDX 29 36 30 37 31 38 32 39 84 40 33 41 83 42 34 43 35 44 36 45
REMARK SMILES IDX 77 46 37 47 82 48 76 49 78 50 38 51 81 52 75 53 74 54 39 56
REMARK SMILES IDX 65 57 48 58 64 59 49 60 52 61 63 62 79 63 50 64 51 65 62 67
REMARK SMILES IDX 80 68 53 69 40 70 41 71 46 72 42 73 43 74 45 75 47 76 44 77
REMARK SMILES IDX 66 78 67 79 72 80 68 81 69 82 71 83 73 84 70 85 54 86 55 87
REMARK SMILES IDX 60 88 56 89 57 90 59 91 61 92 58 93
REMARK H PARENT 8 18 1 27 1 28 78 55 52 66
REMARK Flexibility Score: inf
ROOT
ATOM      1  C   UNL A   1      43.478  18.577  25.550  1.00  0.00     0.188 C 
ENDROOT
BRANCH   1   2
ATOM      2  C   UNL A   1      42.773  18.674  26.918  1.00  0.00     0.188 C 
BRANCH   2   3
ATOM      3  O   UNL A   1      41.853  19.718  27.204  1.00  0.00    -0.376 OA
BRANCH   3   4
ATOM      4  C   UNL A   1      40.790  20.060  26.324  1.00  0.00     0.202 C 
BRANCH   4   5
ATOM      5  C   UNL A   1      39.949  21.341  26.455  1.00  0.00     0.261 C 
BRANCH   5   6
ATOM      6  O   UNL A   1      39.034  21.570  25.387  1.00  0.00    -0.461 OA
BRANCH   6   7
ATOM      7  C   UNL A   1      37.930  22.307  25.674  1.00  0.00     0.335 C 
ATOM      8  O   UNL A   1      37.908  23.319  26.362  1.00  0.00    -0.249 OA
BRANCH   7   9
ATOM      9  C   UNL A   1      36.732  21.741  24.912  1.00  0.00     0.228 C 
ATOM     10  C   UNL A   1      34.475  22.180  25.256  1.00  0.00     0.138 C 
ATOM     11  C   UNL A   1      34.793  22.543  23.813  1.00  0.00     0.037 C 
ATOM     12  O   UNL A   1      35.611  21.459  25.751  1.00  0.00    -0.361 OA
ATOM     13  C   UNL A   1      36.282  22.727  23.838  1.00  0.00     0.047 C 
BRANCH  10  14
ATOM     14  C   UNL A   1      33.204  21.344  25.485  1.00  0.00     0.148 C 
BRANCH  14  15
ATOM     15  N   UNL A   1      32.297  21.914  26.466  1.00  0.00    -0.349 N 
ATOM     16  C   UNL A   1      31.506  23.028  26.522  1.00  0.00     0.251 C 
ATOM     17  O   UNL A   1      30.925  23.212  27.595  1.00  0.00    -0.269 OA
ATOM     18  H   UNL A   1      32.240  21.370  27.285  1.00  0.00     0.163 HD
BRANCH  16  19
ATOM     19  C   UNL A   1      31.280  24.007  25.417  1.00  0.00     0.041 A 
ATOM     20  C   UNL A   1      30.857  26.085  23.514  1.00  0.00     0.050 A 
ATOM     21  C   UNL A   1      30.806  24.738  23.142  1.00  0.00     0.028 A 
ATOM     22  C   UNL A   1      31.195  26.382  24.841  1.00  0.00     0.064 A 
ATOM     23  C   UNL A   1      31.019  23.709  24.079  1.00  0.00     0.016 A 
ATOM     24  C   UNL A   1      31.388  25.363  25.777  1.00  0.00     0.036 A 
ATOM     25  Cl  UNL A   1      31.367  28.023  25.365  1.00  0.00    -0.082 Cl
BRANCH  20  26
ATOM     26  N   UNL A   1      30.713  27.078  22.549  1.00  0.00    -0.398 N 
ATOM     27  H   UNL A   1      30.988  28.001  22.748  1.00  0.00     0.156 HD
ATOM     28  H   UNL A   1      30.335  26.855  21.667  1.00  0.00     0.156 HD
ENDBRANCH  20  26
ENDBRANCH  16  19
ENDBRANCH  14  15
ENDBRANCH  10  14
ENDBRANCH   7   9
ENDBRANCH   6   7
ENDBRANCH   5   6
ENDBRANCH   4   5
ENDBRANCH   3   4
ENDBRANCH   2   3
ENDBRANCH   1   2
BRANCH   1  29
ATOM     29  O   UNL A   1      44.798  18.075  25.632  1.00  0.00    -0.377 OA
BRANCH  29  30
ATOM     30  C   UNL A   1      45.836  19.010  25.353  1.00  0.00     0.188 C 
BRANCH  30  31
ATOM     31  C   UNL A   1      45.457  20.330  24.645  1.00  0.00     0.188 C 
BRANCH  31  32
ATOM     32  O   UNL A   1      45.690  21.495  25.430  1.00  0.00    -0.376 OA
BRANCH  32  33
ATOM     33  C   UNL A   1      44.903  22.647  25.158  1.00  0.00     0.202 C 
BRANCH  33  34
ATOM     34  C   UNL A   1      44.217  23.295  26.370  1.00  0.00     0.261 C 
BRANCH  34  35
ATOM     35  O   UNL A   1      42.863  23.729  26.161  1.00  0.00    -0.460 OA
BRANCH  35  36
ATOM     36  C   UNL A   1      42.676  25.022  25.814  1.00  0.00     0.338 C 
ATOM     37  O   UNL A   1      42.482  25.462  24.700  1.00  0.00    -0.246 OA
BRANCH  36  38
ATOM     38  C   UNL A   1      42.535  25.811  27.057  1.00  0.00     0.060 A 
ATOM     39  C   UNL A   1      41.532  25.449  27.966  1.00  0.00     0.016 A 
ATOM     40  C   UNL A   1      43.371  26.898  27.322  1.00  0.00     0.016 A 
ATOM     41  C   UNL A   1      41.336  26.201  29.124  1.00  0.00     0.010 A 
ATOM     42  C   UNL A   1      43.159  27.664  28.474  1.00  0.00     0.010 A 
ATOM     43  C   UNL A   1      42.118  27.339  29.362  1.00  0.00    -0.014 A 
BRANCH  43  44
ATOM     44  C   UNL A   1      41.719  28.280  30.438  1.00  0.00     0.031 A 
ATOM     45  C   UNL A   1      42.490  28.265  31.731  1.00  0.00     0.074 A 
ATOM     46  C   UNL A   1      40.729  29.172  30.254  1.00  0.00     0.049 A 
ATOM     47  N   UNL A   1      42.323  28.988  32.808  1.00  0.00    -0.248 NA
ATOM     48  C   UNL A   1      43.603  27.306  31.818  1.00  0.00     0.031 C 
ATOM     49  C   UNL A   1      39.931  29.315  29.038  1.00  0.00     0.029 A 
ATOM     50  N   UNL A   1      40.224  30.127  31.102  1.00  0.00    -0.354 N 
ATOM     51  C   UNL A   1      43.312  28.580  33.694  1.00  0.00     0.074 A 
ATOM     52  C   UNL A   1      44.049  27.516  33.047  1.00  0.00     0.031 C 
ATOM     53  C   UNL A   1      39.027  30.293  29.222  1.00  0.00     0.029 A 
ATOM     54  C   UNL A   1      39.164  30.825  30.576  1.00  0.00     0.049 A 
ATOM     55  H   UNL A   1      40.588  30.296  32.001  1.00  0.00     0.167 HD
ATOM     56  C   UNL A   1      43.596  29.060  34.928  1.00  0.00     0.037 A 
ATOM     57  C   UNL A   1      38.382  31.770  31.135  1.00  0.00     0.037 A 
ATOM     58  C   UNL A   1      42.858  30.111  35.578  1.00  0.00     0.049 A 
ATOM     59  C   UNL A   1      38.665  32.227  32.544  1.00  0.00     0.074 A 
ATOM     60  C   UNL A   1      43.063  30.658  36.833  1.00  0.00     0.029 A 
ATOM     61  N   UNL A   1      41.770  30.770  35.027  1.00  0.00    -0.354 N 
ATOM     62  N   UNL A   1      39.616  31.848  33.365  1.00  0.00    -0.248 NA
ATOM     63  C   UNL A   1      37.770  33.252  33.103  1.00  0.00     0.031 C 
ATOM     64  C   UNL A   1      42.069  31.615  37.059  1.00  0.00     0.029 A 
ATOM     65  C   UNL A   1      41.280  31.705  35.923  1.00  0.00     0.049 A 
ATOM     66  H   UNL A   1      41.399  30.598  34.130  1.00  0.00     0.167 HD
ATOM     67  C   UNL A   1      39.450  32.605  34.519  1.00  0.00     0.074 A 
ATOM     68  C   UNL A   1      38.323  33.484  34.284  1.00  0.00     0.031 C 
ATOM     69  C   UNL A   1      40.162  32.577  35.673  1.00  0.00     0.037 A 
BRANCH  56  70
ATOM     70  C   UNL A   1      44.749  28.444  35.664  1.00  0.00     0.057 A 
ATOM     71  C   UNL A   1      44.580  27.333  36.500  1.00  0.00     0.134 A 
ATOM     72  C   UNL A   1      46.050  28.934  35.497  1.00  0.00     0.134 A 
ATOM     73  F   UNL A   1      43.357  26.824  36.717  1.00  0.00    -0.206 F 
ATOM     74  C   UNL A   1      45.661  26.739  37.153  1.00  0.00     0.040 A 
ATOM     75  C   UNL A   1      47.143  28.334  36.123  1.00  0.00     0.040 A 
ATOM     76  F   UNL A   1      46.282  29.994  34.708  1.00  0.00    -0.206 F 
ATOM     77  C   UNL A   1      46.949  27.234  36.958  1.00  0.00     0.006 A 
ENDBRANCH  56  70
BRANCH  57  78
ATOM     78  C   UNL A   1      37.229  32.334  30.384  1.00  0.00     0.057 A 
ATOM     79  C   UNL A   1      37.375  33.438  29.536  1.00  0.00     0.134 A 
ATOM     80  C   UNL A   1      35.937  31.817  30.548  1.00  0.00     0.134 A 
ATOM     81  F   UNL A   1      38.582  33.996  29.355  1.00  0.00    -0.206 F 
ATOM     82  C   UNL A   1      36.278  34.027  28.905  1.00  0.00     0.040 A 
ATOM     83  C   UNL A   1      34.836  32.378  29.898  1.00  0.00     0.040 A 
ATOM     84  F   UNL A   1      35.726  30.761  31.347  1.00  0.00    -0.206 F 
ATOM     85  C   UNL A   1      35.003  33.494  29.084  1.00  0.00     0.006 A 
ENDBRANCH  57  78
BRANCH  69  86
ATOM     86  C   UNL A   1      39.768  33.548  36.750  1.00  0.00     0.057 A 
ATOM     87  C   UNL A   1      38.868  33.204  37.768  1.00  0.00     0.134 A 
ATOM     88  C   UNL A   1      40.316  34.838  36.783  1.00  0.00     0.134 A 
ATOM     89  F   UNL A   1      38.299  31.990  37.789  1.00  0.00    -0.206 F 
ATOM     90  C   UNL A   1      38.500  34.118  38.756  1.00  0.00     0.040 A 
ATOM     91  C   UNL A   1      39.981  35.749  37.785  1.00  0.00     0.040 A 
ATOM     92  F   UNL A   1      41.195  35.229  35.848  1.00  0.00    -0.206 F 
ATOM     93  C   UNL A   1      39.062  35.394  38.770  1.00  0.00     0.006 A 
ENDBRANCH  69  86
ENDBRANCH  43  44
ENDBRANCH  36  38
ENDBRANCH  35  36
ENDBRANCH  34  35
ENDBRANCH  33  34
ENDBRANCH  32  33
ENDBRANCH  31  32
ENDBRANCH  30  31
ENDBRANCH  29  30
ENDBRANCH   1  29
TORSDOF 24
ENDMDL
