MODEL 1
REMARK VINA RESULT:     -10.1      0.000      0.000
REMARK SMILES CCc1n[nH]c(C(=O)N[C@@]2(C(=O)OCCOCCOCCOCCOC(=O)c3ccc(-c4c5nc(c(-c6c(F)cccc6F)c6ccc([nH]6)c(-c6c(F)cccc6F)c6nc(c(-c7c(F)cccc7F)c7ccc4[nH]7)C=C6)C=C5)cc3)CCCC[C@H]2C)n1
REMARK SMILES IDX 18 1 17 2 16 3 15 4 14 5 13 6 11 7 12 8 10 9 82 10 86 11
REMARK SMILES IDX 83 12 85 13 87 14 84 15 9 16 7 17 8 18 6 20 3 21 4 22 88 23
REMARK SMILES IDX 5 24 2 26 1 27 19 28 20 29 21 30 22 31 23 32 24 33 25 34
REMARK SMILES IDX 26 35 27 36 28 37 29 38 81 39 30 40 80 41 31 42 32 43 33 44
REMARK SMILES IDX 74 45 34 46 79 47 73 48 75 49 35 50 78 51 72 52 71 53 36 55
REMARK SMILES IDX 62 56 45 57 61 58 46 59 49 60 60 61 76 62 47 63 48 64 59 66
REMARK SMILES IDX 77 67 50 68 37 69 38 70 43 71 39 72 40 73 42 74 44 75 41 76
REMARK SMILES IDX 63 77 64 78 69 79 65 80 66 81 68 82 70 83 67 84 51 85 52 86
REMARK SMILES IDX 57 87 53 88 54 89 56 90 58 91 55 92
REMARK H PARENT 9 19 5 25 75 54 49 65
REMARK Flexibility Score: inf
ROOT
ATOM      1  C   UNL A   1      40.632  21.798  27.363  1.00  0.00     0.188 C 
ENDROOT
BRANCH   1   2
ATOM      2  C   UNL A   1      39.483  22.433  26.577  1.00  0.00     0.188 C 
BRANCH   2   3
ATOM      3  O   UNL A   1      38.895  21.513  25.667  1.00  0.00    -0.376 OA
BRANCH   3   4
ATOM      4  C   UNL A   1      37.637  21.806  25.076  1.00  0.00     0.202 C 
BRANCH   4   5
ATOM      5  C   UNL A   1      37.028  23.227  25.092  1.00  0.00     0.261 C 
BRANCH   5   6
ATOM      6  O   UNL A   1      35.597  23.447  25.214  1.00  0.00    -0.461 OA
BRANCH   6   7
ATOM      7  C   UNL A   1      34.811  23.543  24.117  1.00  0.00     0.332 C 
ATOM      8  O   UNL A   1      35.204  23.332  22.978  1.00  0.00    -0.249 OA
BRANCH   7   9
ATOM      9  C   UNL A   1      33.324  23.865  24.432  1.00  0.00     0.141 C 
ATOM     10  C   UNL A   1      32.391  23.036  23.527  1.00  0.00     0.041 C 
ATOM     11  C   UNL A   1      33.117  25.416  24.176  1.00  0.00     0.023 C 
ATOM     12  C   UNL A   1      30.943  23.517  23.567  1.00  0.00     0.003 C 
ATOM     13  C   UNL A   1      31.648  25.857  24.054  1.00  0.00     0.006 C 
ATOM     14  C   UNL A   1      33.779  26.330  25.224  1.00  0.00     0.011 C 
ATOM     15  C   UNL A   1      30.842  24.968  23.125  1.00  0.00     0.000 C 
BRANCH   9  16
ATOM     16  N   UNL A   1      33.051  23.559  25.868  1.00  0.00    -0.333 N 
ATOM     17  C   UNL A   1      32.909  22.362  26.550  1.00  0.00     0.289 C 
ATOM     18  O   UNL A   1      32.727  22.458  27.767  1.00  0.00    -0.266 OA
ATOM     19  H   UNL A   1      32.953  24.358  26.436  1.00  0.00     0.165 HD
BRANCH  17  20
ATOM     20  C   UNL A   1      33.110  21.068  25.920  1.00  0.00     0.214 A 
ATOM     21  C   UNL A   1      33.035  19.427  24.579  1.00  0.00     0.151 A 
ATOM     22  N   UNL A   1      34.341  19.510  24.861  1.00  0.00    -0.158 NA
ATOM     23  N   UNL A   1      32.235  20.303  25.287  1.00  0.00    -0.207 NA
ATOM     24  N   UNL A   1      34.363  20.555  25.710  1.00  0.00    -0.255 N 
ATOM     25  H   UNL A   1      35.181  20.906  26.130  1.00  0.00     0.192 HD
BRANCH  21  26
ATOM     26  C   UNL A   1      32.527  18.677  23.396  1.00  0.00     0.076 C 
ATOM     27  C   UNL A   1      33.214  17.356  23.126  1.00  0.00     0.012 C 
ENDBRANCH  21  26
ENDBRANCH  17  20
ENDBRANCH   9  16
ENDBRANCH   7   9
ENDBRANCH   6   7
ENDBRANCH   5   6
ENDBRANCH   4   5
ENDBRANCH   3   4
ENDBRANCH   2   3
ENDBRANCH   1   2
BRANCH   1  28
ATOM     28  O   UNL A   1      40.798  20.433  27.024  1.00  0.00    -0.377 OA
BRANCH  28  29
ATOM     29  C   UNL A   1      42.117  19.916  27.043  1.00  0.00     0.188 C 
BRANCH  29  30
ATOM     30  C   UNL A   1      42.820  19.443  25.753  1.00  0.00     0.188 C 
BRANCH  30  31
ATOM     31  O   UNL A   1      43.396  20.508  25.005  1.00  0.00    -0.376 OA
BRANCH  31  32
ATOM     32  C   UNL A   1      44.784  20.750  25.044  1.00  0.00     0.202 C 
BRANCH  32  33
ATOM     33  C   UNL A   1      45.198  22.180  25.405  1.00  0.00     0.261 C 
BRANCH  33  34
ATOM     34  O   UNL A   1      44.296  22.899  26.252  1.00  0.00    -0.460 OA
BRANCH  34  35
ATOM     35  C   UNL A   1      43.738  24.028  25.765  1.00  0.00     0.338 C 
ATOM     36  O   UNL A   1      43.352  24.224  24.626  1.00  0.00    -0.246 OA
BRANCH  35  37
ATOM     37  C   UNL A   1      43.458  24.915  26.921  1.00  0.00     0.060 A 
ATOM     38  C   UNL A   1      42.798  24.373  28.034  1.00  0.00     0.016 A 
ATOM     39  C   UNL A   1      43.954  26.224  26.963  1.00  0.00     0.016 A 
ATOM     40  C   UNL A   1      42.595  25.154  29.171  1.00  0.00     0.010 A 
ATOM     41  C   UNL A   1      43.722  27.016  28.089  1.00  0.00     0.010 A 
ATOM     42  C   UNL A   1      43.002  26.496  29.176  1.00  0.00    -0.014 A 
BRANCH  42  43
ATOM     43  C   UNL A   1      42.377  27.420  30.150  1.00  0.00     0.031 A 
ATOM     44  C   UNL A   1      43.026  27.507  31.506  1.00  0.00     0.074 A 
ATOM     45  C   UNL A   1      41.308  28.175  29.851  1.00  0.00     0.049 A 
ATOM     46  N   UNL A   1      42.718  28.253  32.533  1.00  0.00    -0.248 NA
ATOM     47  C   UNL A   1      44.190  26.628  31.728  1.00  0.00     0.031 C 
ATOM     48  C   UNL A   1      40.610  28.196  28.566  1.00  0.00     0.029 A 
ATOM     49  N   UNL A   1      40.621  29.077  30.623  1.00  0.00    -0.354 N 
ATOM     50  C   UNL A   1      43.658  27.947  33.509  1.00  0.00     0.074 A 
ATOM     51  C   UNL A   1      44.523  26.922  32.972  1.00  0.00     0.031 C 
ATOM     52  C   UNL A   1      39.584  29.065  28.644  1.00  0.00     0.029 A 
ATOM     53  C   UNL A   1      39.548  29.648  29.985  1.00  0.00     0.049 A 
ATOM     54  H   UNL A   1      40.874  29.295  31.550  1.00  0.00     0.167 HD
ATOM     55  C   UNL A   1      43.800  28.480  34.742  1.00  0.00     0.037 A 
ATOM     56  C   UNL A   1      38.642  30.534  30.444  1.00  0.00     0.037 A 
ATOM     57  C   UNL A   1      42.920  29.472  35.291  1.00  0.00     0.049 A 
ATOM     58  C   UNL A   1      38.775  31.059  31.852  1.00  0.00     0.074 A 
ATOM     59  C   UNL A   1      42.959  30.068  36.538  1.00  0.00     0.029 A 
ATOM     60  N   UNL A   1      41.830  30.005  34.620  1.00  0.00    -0.354 N 
ATOM     61  N   UNL A   1      39.688  30.793  32.755  1.00  0.00    -0.248 NA
ATOM     62  C   UNL A   1      37.754  32.019  32.300  1.00  0.00     0.031 C 
ATOM     63  C   UNL A   1      41.865  30.934  36.637  1.00  0.00     0.029 A 
ATOM     64  C   UNL A   1      41.177  30.913  35.434  1.00  0.00     0.049 A 
ATOM     65  H   UNL A   1      41.561  29.773  33.703  1.00  0.00     0.167 HD
ATOM     66  C   UNL A   1      39.375  31.576  33.859  1.00  0.00     0.074 A 
ATOM     67  C   UNL A   1      38.191  32.334  33.510  1.00  0.00     0.031 C 
ATOM     68  C   UNL A   1      40.010  31.666  35.055  1.00  0.00     0.037 A 
BRANCH  55  69
ATOM     69  C   UNL A   1      44.935  27.970  35.578  1.00  0.00     0.057 A 
ATOM     70  C   UNL A   1      46.217  28.531  35.499  1.00  0.00     0.134 A 
ATOM     71  C   UNL A   1      44.747  26.901  36.461  1.00  0.00     0.134 A 
ATOM     72  F   UNL A   1      46.468  29.538  34.649  1.00  0.00    -0.206 F 
ATOM     73  C   UNL A   1      47.278  28.033  36.257  1.00  0.00     0.040 A 
ATOM     74  C   UNL A   1      45.794  26.411  37.242  1.00  0.00     0.040 A 
ATOM     75  F   UNL A   1      43.547  26.315  36.576  1.00  0.00    -0.206 F 
ATOM     76  C   UNL A   1      47.065  26.973  37.137  1.00  0.00     0.006 A 
ENDBRANCH  55  69
BRANCH  56  77
ATOM     77  C   UNL A   1      37.526  30.990  29.574  1.00  0.00     0.057 A 
ATOM     78  C   UNL A   1      36.420  30.170  29.319  1.00  0.00     0.134 A 
ATOM     79  C   UNL A   1      37.563  32.237  28.939  1.00  0.00     0.134 A 
ATOM     80  F   UNL A   1      36.339  28.954  29.877  1.00  0.00    -0.206 F 
ATOM     81  C   UNL A   1      35.401  30.564  28.449  1.00  0.00     0.040 A 
ATOM     82  C   UNL A   1      36.540  32.653  28.084  1.00  0.00     0.040 A 
ATOM     83  F   UNL A   1      38.596  33.068  29.136  1.00  0.00    -0.206 F 
ATOM     84  C   UNL A   1      35.459  31.811  27.830  1.00  0.00     0.006 A 
ENDBRANCH  56  77
BRANCH  68  85
ATOM     85  C   UNL A   1      39.469  32.652  36.049  1.00  0.00     0.057 A 
ATOM     86  C   UNL A   1      38.452  32.316  36.950  1.00  0.00     0.134 A 
ATOM     87  C   UNL A   1      40.010  33.942  36.132  1.00  0.00     0.134 A 
ATOM     88  F   UNL A   1      37.889  31.100  36.917  1.00  0.00    -0.206 F 
ATOM     89  C   UNL A   1      37.973  33.238  37.883  1.00  0.00     0.040 A 
ATOM     90  C   UNL A   1      39.558  34.863  37.076  1.00  0.00     0.040 A 
ATOM     91  F   UNL A   1      40.997  34.322  35.305  1.00  0.00    -0.206 F 
ATOM     92  C   UNL A   1      38.531  34.514  37.951  1.00  0.00     0.006 A 
ENDBRANCH  68  85
ENDBRANCH  42  43
ENDBRANCH  35  37
ENDBRANCH  34  35
ENDBRANCH  33  34
ENDBRANCH  32  33
ENDBRANCH  31  32
ENDBRANCH  30  31
ENDBRANCH  29  30
ENDBRANCH  28  29
ENDBRANCH   1  28
TORSDOF 23
ENDMDL
MODEL 2
REMARK VINA RESULT:      -9.9      4.546      6.868
REMARK SMILES CCc1n[nH]c(C(=O)N[C@@]2(C(=O)OCCOCCOCCOCCOC(=O)c3ccc(-c4c5nc(c(-c6c(F)cccc6F)c6ccc([nH]6)c(-c6c(F)cccc6F)c6nc(c(-c7c(F)cccc7F)c7ccc4[nH]7)C=C6)C=C5)cc3)CCCC[C@H]2C)n1
REMARK SMILES IDX 18 1 17 2 16 3 15 4 14 5 13 6 11 7 12 8 10 9 82 10 86 11
REMARK SMILES IDX 83 12 85 13 87 14 84 15 9 16 7 17 8 18 6 20 3 21 4 22 88 23
REMARK SMILES IDX 5 24 2 26 1 27 19 28 20 29 21 30 22 31 23 32 24 33 25 34
REMARK SMILES IDX 26 35 27 36 28 37 29 38 81 39 30 40 80 41 31 42 32 43 33 44
REMARK SMILES IDX 74 45 34 46 79 47 73 48 75 49 35 50 78 51 72 52 71 53 36 55
REMARK SMILES IDX 62 56 45 57 61 58 46 59 49 60 60 61 76 62 47 63 48 64 59 66
REMARK SMILES IDX 77 67 50 68 37 69 38 70 43 71 39 72 40 73 42 74 44 75 41 76
REMARK SMILES IDX 63 77 64 78 69 79 65 80 66 81 68 82 70 83 67 84 51 85 52 86
REMARK SMILES IDX 57 87 53 88 54 89 56 90 58 91 55 92
REMARK H PARENT 9 19 5 25 75 54 49 65
REMARK Flexibility Score: inf
ROOT
ATOM      1  C   UNL A   1      40.032  22.295  26.604  1.00  0.00     0.188 C 
ENDROOT
BRANCH   1   2
ATOM      2  C   UNL A   1      39.070  23.407  27.028  1.00  0.00     0.188 C 
BRANCH   2   3
ATOM      3  O   UNL A   1      38.051  23.619  26.061  1.00  0.00    -0.376 OA
BRANCH   3   4
ATOM      4  C   UNL A   1      37.674  22.565  25.186  1.00  0.00     0.202 C 
BRANCH   4   5
ATOM      5  C   UNL A   1      36.643  22.762  24.050  1.00  0.00     0.261 C 
BRANCH   5   6
ATOM      6  O   UNL A   1      35.644  23.815  24.097  1.00  0.00    -0.461 OA
BRANCH   6   7
ATOM      7  C   UNL A   1      34.419  23.637  23.549  1.00  0.00     0.332 C 
ATOM      8  O   UNL A   1      34.236  23.293  22.390  1.00  0.00    -0.249 OA
BRANCH   7   9
ATOM      9  C   UNL A   1      33.246  23.825  24.552  1.00  0.00     0.141 C 
ATOM     10  C   UNL A   1      31.997  23.063  24.066  1.00  0.00     0.041 C 
ATOM     11  C   UNL A   1      32.952  25.380  24.640  1.00  0.00     0.023 C 
ATOM     12  C   UNL A   1      30.733  23.446  24.830  1.00  0.00     0.003 C 
ATOM     13  C   UNL A   1      31.594  25.743  25.266  1.00  0.00     0.006 C 
ATOM     14  C   UNL A   1      34.026  26.193  25.387  1.00  0.00     0.011 C 
ATOM     15  C   UNL A   1      30.447  24.932  24.693  1.00  0.00     0.000 C 
BRANCH   9  16
ATOM     16  N   UNL A   1      33.665  23.323  25.893  1.00  0.00    -0.333 N 
ATOM     17  C   UNL A   1      33.784  22.042  26.408  1.00  0.00     0.289 C 
ATOM     18  O   UNL A   1      34.205  21.968  27.567  1.00  0.00    -0.266 OA
ATOM     19  H   UNL A   1      33.899  24.035  26.532  1.00  0.00     0.165 HD
BRANCH  17  20
ATOM     20  C   UNL A   1      33.579  20.849  25.606  1.00  0.00     0.214 A 
ATOM     21  C   UNL A   1      33.833  18.969  24.658  1.00  0.00     0.151 A 
ATOM     22  N   UNL A   1      32.579  18.892  25.120  1.00  0.00    -0.158 NA
ATOM     23  N   UNL A   1      34.445  20.192  24.850  1.00  0.00    -0.207 NA
ATOM     24  N   UNL A   1      32.442  20.091  25.715  1.00  0.00    -0.255 N 
ATOM     25  H   UNL A   1      31.623  20.390  26.173  1.00  0.00     0.192 HD
BRANCH  21  26
ATOM     26  C   UNL A   1      34.602  17.759  24.251  1.00  0.00     0.076 C 
ATOM     27  C   UNL A   1      33.988  16.953  23.126  1.00  0.00     0.012 C 
ENDBRANCH  21  26
ENDBRANCH  17  20
ENDBRANCH   9  16
ENDBRANCH   7   9
ENDBRANCH   6   7
ENDBRANCH   5   6
ENDBRANCH   4   5
ENDBRANCH   3   4
ENDBRANCH   2   3
ENDBRANCH   1   2
BRANCH   1  28
ATOM     28  O   UNL A   1      40.434  21.508  27.710  1.00  0.00    -0.377 OA
BRANCH  28  29
ATOM     29  C   UNL A   1      41.157  20.322  27.433  1.00  0.00     0.188 C 
BRANCH  29  30
ATOM     30  C   UNL A   1      40.825  19.439  26.210  1.00  0.00     0.188 C 
BRANCH  30  31
ATOM     31  O   UNL A   1      41.948  19.199  25.370  1.00  0.00    -0.376 OA
BRANCH  31  32
ATOM     32  C   UNL A   1      42.872  18.178  25.673  1.00  0.00     0.202 C 
BRANCH  32  33
ATOM     33  C   UNL A   1      44.294  18.645  25.997  1.00  0.00     0.261 C 
BRANCH  33  34
ATOM     34  O   UNL A   1      45.209  18.681  24.898  1.00  0.00    -0.460 OA
BRANCH  34  35
ATOM     35  C   UNL A   1      44.990  19.590  23.923  1.00  0.00     0.338 C 
ATOM     36  O   UNL A   1      44.746  19.365  22.751  1.00  0.00    -0.246 OA
BRANCH  35  37
ATOM     37  C   UNL A   1      44.864  20.915  24.578  1.00  0.00     0.060 A 
ATOM     38  C   UNL A   1      44.158  21.926  23.908  1.00  0.00     0.016 A 
ATOM     39  C   UNL A   1      45.318  21.120  25.887  1.00  0.00     0.016 A 
ATOM     40  C   UNL A   1      43.946  23.156  24.530  1.00  0.00     0.010 A 
ATOM     41  C   UNL A   1      45.134  22.362  26.497  1.00  0.00     0.010 A 
ATOM     42  C   UNL A   1      44.488  23.396  25.801  1.00  0.00    -0.014 A 
BRANCH  42  43
ATOM     43  C   UNL A   1      44.676  24.799  26.235  1.00  0.00     0.031 A 
ATOM     44  C   UNL A   1      46.065  25.364  26.103  1.00  0.00     0.074 A 
ATOM     45  C   UNL A   1      43.667  25.556  26.697  1.00  0.00     0.049 A 
ATOM     46  N   UNL A   1      46.508  26.564  26.370  1.00  0.00    -0.248 NA
ATOM     47  C   UNL A   1      47.097  24.442  25.593  1.00  0.00     0.031 C 
ATOM     48  C   UNL A   1      42.277  25.128  26.846  1.00  0.00     0.029 A 
ATOM     49  N   UNL A   1      43.668  26.859  27.126  1.00  0.00    -0.354 N 
ATOM     50  C   UNL A   1      47.857  26.543  26.041  1.00  0.00     0.074 A 
ATOM     51  C   UNL A   1      48.174  25.207  25.595  1.00  0.00     0.031 C 
ATOM     52  C   UNL A   1      41.559  26.152  27.344  1.00  0.00     0.029 A 
ATOM     53  C   UNL A   1      42.442  27.299  27.560  1.00  0.00     0.049 A 
ATOM     54  H   UNL A   1      44.473  27.427  27.124  1.00  0.00     0.167 HD
ATOM     55  C   UNL A   1      48.756  27.551  26.095  1.00  0.00     0.037 A 
ATOM     56  C   UNL A   1      42.086  28.492  28.076  1.00  0.00     0.037 A 
ATOM     57  C   UNL A   1      48.451  28.869  26.572  1.00  0.00     0.049 A 
ATOM     58  C   UNL A   1      43.124  29.580  28.198  1.00  0.00     0.074 A 
ATOM     59  C   UNL A   1      49.290  29.962  26.689  1.00  0.00     0.029 A 
ATOM     60  N   UNL A   1      47.203  29.266  27.026  1.00  0.00    -0.354 N 
ATOM     61  N   UNL A   1      44.389  29.564  27.851  1.00  0.00    -0.248 NA
ATOM     62  C   UNL A   1      42.679  30.858  28.774  1.00  0.00     0.031 C 
ATOM     63  C   UNL A   1      48.557  31.011  27.252  1.00  0.00     0.029 A 
ATOM     64  C   UNL A   1      47.252  30.586  27.439  1.00  0.00     0.049 A 
ATOM     65  H   UNL A   1      46.402  28.696  27.051  1.00  0.00     0.167 HD
ATOM     66  C   UNL A   1      44.880  30.833  28.130  1.00  0.00     0.074 A 
ATOM     67  C   UNL A   1      43.774  31.598  28.669  1.00  0.00     0.031 C 
ATOM     68  C   UNL A   1      46.131  31.327  27.955  1.00  0.00     0.037 A 
BRANCH  55  69
ATOM     69  C   UNL A   1      50.153  27.242  25.648  1.00  0.00     0.057 A 
ATOM     70  C   UNL A   1      51.141  26.832  26.554  1.00  0.00     0.134 A 
ATOM     71  C   UNL A   1      50.516  27.365  24.303  1.00  0.00     0.134 A 
ATOM     72  F   UNL A   1      50.862  26.724  27.862  1.00  0.00    -0.206 F 
ATOM     73  C   UNL A   1      52.448  26.574  26.138  1.00  0.00     0.040 A 
ATOM     74  C   UNL A   1      51.814  27.086  23.872  1.00  0.00     0.040 A 
ATOM     75  F   UNL A   1      49.620  27.762  23.388  1.00  0.00    -0.206 F 
ATOM     76  C   UNL A   1      52.785  26.695  24.791  1.00  0.00     0.006 A 
ENDBRANCH  55  69
BRANCH  56  77
ATOM     77  C   UNL A   1      40.688  28.735  28.519  1.00  0.00     0.057 A 
ATOM     78  C   UNL A   1      40.301  28.536  29.851  1.00  0.00     0.134 A 
ATOM     79  C   UNL A   1      39.695  29.124  27.612  1.00  0.00     0.134 A 
ATOM     80  F   UNL A   1      41.200  28.137  30.762  1.00  0.00    -0.206 F 
ATOM     81  C   UNL A   1      38.975  28.696  30.259  1.00  0.00     0.040 A 
ATOM     82  C   UNL A   1      38.370  29.310  28.012  1.00  0.00     0.040 A 
ATOM     83  F   UNL A   1      39.997  29.327  26.322  1.00  0.00    -0.206 F 
ATOM     84  C   UNL A   1      38.006  29.086  29.339  1.00  0.00     0.006 A 
ENDBRANCH  56  77
BRANCH  68  85
ATOM     85  C   UNL A   1      46.356  32.770  28.299  1.00  0.00     0.057 A 
ATOM     86  C   UNL A   1      46.161  33.795  27.367  1.00  0.00     0.134 A 
ATOM     87  C   UNL A   1      46.729  33.138  29.599  1.00  0.00     0.134 A 
ATOM     88  F   UNL A   1      45.810  33.509  26.105  1.00  0.00    -0.206 F 
ATOM     89  C   UNL A   1      46.355  35.136  27.708  1.00  0.00     0.040 A 
ATOM     90  C   UNL A   1      46.901  34.474  29.958  1.00  0.00     0.040 A 
ATOM     91  F   UNL A   1      46.919  32.204  30.544  1.00  0.00    -0.206 F 
ATOM     92  C   UNL A   1      46.721  35.478  29.008  1.00  0.00     0.006 A 
ENDBRANCH  68  85
ENDBRANCH  42  43
ENDBRANCH  35  37
ENDBRANCH  34  35
ENDBRANCH  33  34
ENDBRANCH  32  33
ENDBRANCH  31  32
ENDBRANCH  30  31
ENDBRANCH  29  30
ENDBRANCH  28  29
ENDBRANCH   1  28
TORSDOF 23
ENDMDL
MODEL 3
REMARK VINA RESULT:      -9.7      4.551      8.109
REMARK SMILES CCc1n[nH]c(C(=O)N[C@@]2(C(=O)OCCOCCOCCOCCOC(=O)c3ccc(-c4c5nc(c(-c6c(F)cccc6F)c6ccc([nH]6)c(-c6c(F)cccc6F)c6nc(c(-c7c(F)cccc7F)c7ccc4[nH]7)C=C6)C=C5)cc3)CCCC[C@H]2C)n1
REMARK SMILES IDX 18 1 17 2 16 3 15 4 14 5 13 6 11 7 12 8 10 9 82 10 86 11
REMARK SMILES IDX 83 12 85 13 87 14 84 15 9 16 7 17 8 18 6 20 3 21 4 22 88 23
REMARK SMILES IDX 5 24 2 26 1 27 19 28 20 29 21 30 22 31 23 32 24 33 25 34
REMARK SMILES IDX 26 35 27 36 28 37 29 38 81 39 30 40 80 41 31 42 32 43 33 44
REMARK SMILES IDX 74 45 34 46 79 47 73 48 75 49 35 50 78 51 72 52 71 53 36 55
REMARK SMILES IDX 62 56 45 57 61 58 46 59 49 60 60 61 76 62 47 63 48 64 59 66
REMARK SMILES IDX 77 67 50 68 37 69 38 70 43 71 39 72 40 73 42 74 44 75 41 76
REMARK SMILES IDX 63 77 64 78 69 79 65 80 66 81 68 82 70 83 67 84 51 85 52 86
REMARK SMILES IDX 57 87 53 88 54 89 56 90 58 91 55 92
REMARK H PARENT 9 19 5 25 75 54 49 65
REMARK Flexibility Score: inf
ROOT
ATOM      1  C   UNL A   1      40.097  22.515  26.605  1.00  0.00     0.188 C 
ENDROOT
BRANCH   1   2
ATOM      2  C   UNL A   1      39.261  23.704  27.084  1.00  0.00     0.188 C 
BRANCH   2   3
ATOM      3  O   UNL A   1      38.030  23.799  26.380  1.00  0.00    -0.376 OA
BRANCH   3   4
ATOM      4  C   UNL A   1      37.572  22.702  25.603  1.00  0.00     0.202 C 
BRANCH   4   5
ATOM      5  C   UNL A   1      36.746  22.894  24.309  1.00  0.00     0.261 C 
BRANCH   5   6
ATOM      6  O   UNL A   1      35.734  23.929  24.192  1.00  0.00    -0.461 OA
BRANCH   6   7
ATOM      7  C   UNL A   1      34.557  23.685  23.571  1.00  0.00     0.332 C 
ATOM      8  O   UNL A   1      34.467  23.275  22.423  1.00  0.00    -0.249 OA
BRANCH   7   9
ATOM      9  C   UNL A   1      33.311  23.889  24.478  1.00  0.00     0.141 C 
ATOM     10  C   UNL A   1      32.105  23.111  23.915  1.00  0.00     0.041 C 
ATOM     11  C   UNL A   1      33.006  25.444  24.509  1.00  0.00     0.023 C 
ATOM     12  C   UNL A   1      30.785  23.504  24.574  1.00  0.00     0.003 C 
ATOM     13  C   UNL A   1      31.604  25.814  25.023  1.00  0.00     0.006 C 
ATOM     14  C   UNL A   1      34.019  26.278  25.317  1.00  0.00     0.011 C 
ATOM     15  C   UNL A   1      30.506  24.985  24.383  1.00  0.00     0.000 C 
BRANCH   9  16
ATOM     16  N   UNL A   1      33.628  23.418  25.858  1.00  0.00    -0.333 N 
ATOM     17  C   UNL A   1      33.672  22.151  26.418  1.00  0.00     0.289 C 
ATOM     18  O   UNL A   1      34.018  22.102  27.602  1.00  0.00    -0.266 OA
ATOM     19  H   UNL A   1      33.847  24.142  26.488  1.00  0.00     0.165 HD
BRANCH  17  20
ATOM     20  C   UNL A   1      33.477  20.940  25.642  1.00  0.00     0.214 A 
ATOM     21  C   UNL A   1      33.758  19.055  24.710  1.00  0.00     0.151 A 
ATOM     22  N   UNL A   1      32.528  18.943  25.225  1.00  0.00    -0.158 NA
ATOM     23  N   UNL A   1      34.334  20.302  24.859  1.00  0.00    -0.207 NA
ATOM     24  N   UNL A   1      32.373  20.145  25.809  1.00  0.00    -0.255 N 
ATOM     25  H   UNL A   1      31.564  20.421  26.296  1.00  0.00     0.192 HD
BRANCH  21  26
ATOM     26  C   UNL A   1      34.552  17.867  24.287  1.00  0.00     0.076 C 
ATOM     27  C   UNL A   1      33.958  17.065  23.150  1.00  0.00     0.012 C 
ENDBRANCH  21  26
ENDBRANCH  17  20
ENDBRANCH   9  16
ENDBRANCH   7   9
ENDBRANCH   6   7
ENDBRANCH   5   6
ENDBRANCH   4   5
ENDBRANCH   3   4
ENDBRANCH   2   3
ENDBRANCH   1   2
BRANCH   1  28
ATOM     28  O   UNL A   1      40.508  21.702  27.689  1.00  0.00    -0.377 OA
BRANCH  28  29
ATOM     29  C   UNL A   1      41.127  20.467  27.374  1.00  0.00     0.188 C 
BRANCH  29  30
ATOM     30  C   UNL A   1      40.667  19.615  26.171  1.00  0.00     0.188 C 
BRANCH  30  31
ATOM     31  O   UNL A   1      41.723  19.290  25.276  1.00  0.00    -0.376 OA
BRANCH  31  32
ATOM     32  C   UNL A   1      42.683  18.315  25.615  1.00  0.00     0.202 C 
BRANCH  32  33
ATOM     33  C   UNL A   1      44.035  18.853  26.093  1.00  0.00     0.261 C 
BRANCH  33  34
ATOM     34  O   UNL A   1      45.051  18.979  25.093  1.00  0.00    -0.460 OA
BRANCH  34  35
ATOM     35  C   UNL A   1      44.859  19.886  24.111  1.00  0.00     0.338 C 
ATOM     36  O   UNL A   1      44.506  19.665  22.965  1.00  0.00    -0.246 OA
BRANCH  35  37
ATOM     37  C   UNL A   1      44.926  21.231  24.734  1.00  0.00     0.060 A 
ATOM     38  C   UNL A   1      44.240  22.287  24.117  1.00  0.00     0.016 A 
ATOM     39  C   UNL A   1      45.544  21.421  25.976  1.00  0.00     0.016 A 
ATOM     40  C   UNL A   1      44.210  23.544  24.720  1.00  0.00     0.010 A 
ATOM     41  C   UNL A   1      45.541  22.687  26.564  1.00  0.00     0.010 A 
ATOM     42  C   UNL A   1      44.913  23.761  25.913  1.00  0.00    -0.014 A 
BRANCH  42  43
ATOM     43  C   UNL A   1      45.271  25.150  26.280  1.00  0.00     0.031 A 
ATOM     44  C   UNL A   1      44.160  26.012  26.818  1.00  0.00     0.074 A 
ATOM     45  C   UNL A   1      46.522  25.628  26.176  1.00  0.00     0.049 A 
ATOM     46  N   UNL A   1      44.193  27.245  27.249  1.00  0.00    -0.248 NA
ATOM     47  C   UNL A   1      42.825  25.387  26.882  1.00  0.00     0.031 C 
ATOM     48  C   UNL A   1      47.684  24.882  25.693  1.00  0.00     0.029 A 
ATOM     49  N   UNL A   1      47.019  26.870  26.477  1.00  0.00    -0.354 N 
ATOM     50  C   UNL A   1      42.894  27.532  27.650  1.00  0.00     0.074 A 
ATOM     51  C   UNL A   1      42.088  26.366  27.377  1.00  0.00     0.031 C 
ATOM     52  C   UNL A   1      48.760  25.690  25.723  1.00  0.00     0.029 A 
ATOM     53  C   UNL A   1      48.359  27.009  26.213  1.00  0.00     0.049 A 
ATOM     54  H   UNL A   1      46.466  27.596  26.848  1.00  0.00     0.167 HD
ATOM     55  C   UNL A   1      42.414  28.665  28.209  1.00  0.00     0.037 A 
ATOM     56  C   UNL A   1      49.159  28.085  26.349  1.00  0.00     0.037 A 
ATOM     57  C   UNL A   1      43.205  29.837  28.447  1.00  0.00     0.049 A 
ATOM     58  C   UNL A   1      48.584  29.364  26.904  1.00  0.00     0.074 A 
ATOM     59  C   UNL A   1      42.816  31.048  28.990  1.00  0.00     0.029 A 
ATOM     60  N   UNL A   1      44.553  29.944  28.142  1.00  0.00    -0.354 N 
ATOM     61  N   UNL A   1      47.364  29.616  27.316  1.00  0.00    -0.248 NA
ATOM     62  C   UNL A   1      49.502  30.506  27.025  1.00  0.00     0.031 C 
ATOM     63  C   UNL A   1      43.922  31.903  28.976  1.00  0.00     0.029 A 
ATOM     64  C   UNL A   1      45.009  31.208  28.470  1.00  0.00     0.049 A 
ATOM     65  H   UNL A   1      45.104  29.229  27.750  1.00  0.00     0.167 HD
ATOM     66  C   UNL A   1      47.377  30.927  27.776  1.00  0.00     0.074 A 
ATOM     67  C   UNL A   1      48.729  31.416  27.600  1.00  0.00     0.031 C 
ATOM     68  C   UNL A   1      46.365  31.663  28.300  1.00  0.00     0.037 A 
BRANCH  55  69
ATOM     69  C   UNL A   1      40.958  28.682  28.568  1.00  0.00     0.057 A 
ATOM     70  C   UNL A   1      39.973  29.014  27.628  1.00  0.00     0.134 A 
ATOM     71  C   UNL A   1      40.539  28.375  29.867  1.00  0.00     0.134 A 
ATOM     72  F   UNL A   1      40.313  29.348  26.374  1.00  0.00    -0.206 F 
ATOM     73  C   UNL A   1      38.622  29.058  27.974  1.00  0.00     0.040 A 
ATOM     74  C   UNL A   1      39.189  28.391  30.218  1.00  0.00     0.040 A 
ATOM     75  F   UNL A   1      41.434  28.058  30.814  1.00  0.00    -0.206 F 
ATOM     76  C   UNL A   1      38.227  28.739  29.273  1.00  0.00     0.006 A 
ENDBRANCH  55  69
BRANCH  56  77
ATOM     77  C   UNL A   1      50.592  28.013  25.959  1.00  0.00     0.057 A 
ATOM     78  C   UNL A   1      51.601  27.860  26.919  1.00  0.00     0.134 A 
ATOM     79  C   UNL A   1      50.989  28.142  24.623  1.00  0.00     0.134 A 
ATOM     80  F   UNL A   1      51.286  27.758  28.218  1.00  0.00    -0.206 F 
ATOM     81  C   UNL A   1      52.952  27.861  26.567  1.00  0.00     0.040 A 
ATOM     82  C   UNL A   1      52.336  28.121  24.254  1.00  0.00     0.040 A 
ATOM     83  F   UNL A   1      50.074  28.296  23.656  1.00  0.00    -0.206 F 
ATOM     84  C   UNL A   1      53.323  27.989  25.230  1.00  0.00     0.006 A 
ENDBRANCH  56  77
BRANCH  68  85
ATOM     85  C   UNL A   1      46.693  33.050  28.768  1.00  0.00     0.057 A 
ATOM     86  C   UNL A   1      47.151  33.308  30.066  1.00  0.00     0.134 A 
ATOM     87  C   UNL A   1      46.591  34.136  27.888  1.00  0.00     0.134 A 
ATOM     88  F   UNL A   1      47.263  32.312  30.957  1.00  0.00    -0.206 F 
ATOM     89  C   UNL A   1      47.471  34.602  30.480  1.00  0.00     0.040 A 
ATOM     90  C   UNL A   1      46.933  35.429  28.283  1.00  0.00     0.040 A 
ATOM     91  F   UNL A   1      46.172  33.954  26.627  1.00  0.00    -0.206 F 
ATOM     92  C   UNL A   1      47.368  35.666  29.586  1.00  0.00     0.006 A 
ENDBRANCH  68  85
ENDBRANCH  42  43
ENDBRANCH  35  37
ENDBRANCH  34  35
ENDBRANCH  33  34
ENDBRANCH  32  33
ENDBRANCH  31  32
ENDBRANCH  30  31
ENDBRANCH  29  30
ENDBRANCH  28  29
ENDBRANCH   1  28
TORSDOF 23
ENDMDL
