MODEL 1
REMARK VINA RESULT:     -10.8      0.000      0.000
REMARK SMILES CC(C)COc1cccc(C(=O)Nc2ccc(O)c(C(=O)OCCOCCOCCOCCOC(=O)c3ccc(-c4c5nc(c(-c6c(F)cccc6F)c6ccc([nH]6)c(-c6c(F)cccc6F)c6nc(c(-c7c(F)cccc7F)c7ccc4[nH]7)C=C6)C=C5)cc3)c2)c1
REMARK SMILES IDX 26 1 25 2 24 3 23 4 22 5 20 6 21 7 19 8 14 9 15 10 91 11
REMARK SMILES IDX 16 12 17 13 13 14 11 15 12 16 10 18 6 19 7 20 92 21 8 22
REMARK SMILES IDX 9 23 5 24 4 25 2 26 1 27 3 28 18 29 27 31 28 32 29 33 30 34
REMARK SMILES IDX 31 35 32 36 33 37 34 38 35 39 36 40 37 41 38 42 90 43 39 44
REMARK SMILES IDX 89 45 40 46 41 47 42 48 83 49 43 50 88 51 82 52 84 53 44 54
REMARK SMILES IDX 87 55 81 56 80 57 45 59 71 60 54 61 70 62 55 63 58 64 69 65
REMARK SMILES IDX 85 66 56 67 57 68 68 70 86 71 59 72 46 73 47 74 52 75 48 76
REMARK SMILES IDX 49 77 51 78 53 79 50 80 72 81 73 82 78 83 74 84 75 85 77 86
REMARK SMILES IDX 79 87 76 88 60 89 61 90 66 91 62 92 63 93 65 94 67 95 64 96
REMARK H PARENT 13 17 18 30 84 58 58 69
REMARK Flexibility Score: inf
ROOT
ATOM      1  C   UNL A   1      40.791  20.343  26.138  1.00  0.00     0.188 C 
ENDROOT
BRANCH   1   2
ATOM      2  O   UNL A   1      40.296  21.641  25.848  1.00  0.00    -0.376 OA
BRANCH   2   3
ATOM      3  C   UNL A   1      39.317  22.331  26.609  1.00  0.00     0.202 C 
BRANCH   3   4
ATOM      4  C   UNL A   1      38.155  23.158  26.031  1.00  0.00     0.261 C 
BRANCH   4   5
ATOM      5  O   UNL A   1      36.891  22.505  25.937  1.00  0.00    -0.460 OA
BRANCH   5   6
ATOM      6  C   UNL A   1      36.553  22.154  24.681  1.00  0.00     0.342 C 
ATOM      7  O   UNL A   1      37.250  21.547  23.878  1.00  0.00    -0.246 OA
BRANCH   6   8
ATOM      8  C   UNL A   1      35.140  22.465  24.380  1.00  0.00     0.103 A 
ATOM      9  C   UNL A   1      33.600  23.480  22.868  1.00  0.00     0.042 A 
ATOM     10  C   UNL A   1      32.565  22.671  23.360  1.00  0.00     0.030 A 
ATOM     11  C   UNL A   1      34.831  23.509  23.516  1.00  0.00     0.045 A 
ATOM     12  C   UNL A   1      32.828  21.737  24.362  1.00  0.00     0.049 A 
ATOM     13  C   UNL A   1      34.131  21.584  24.810  1.00  0.00     0.130 A 
BRANCH   9  14
ATOM     14  N   UNL A   1      33.415  24.105  21.624  1.00  0.00    -0.322 N 
ATOM     15  C   UNL A   1      32.844  25.332  21.305  1.00  0.00     0.255 C 
ATOM     16  O   UNL A   1      32.621  25.576  20.118  1.00  0.00    -0.269 OA
ATOM     17  H   UNL A   1      33.743  23.590  20.852  1.00  0.00     0.170 HD
BRANCH  15  18
ATOM     18  C   UNL A   1      32.575  26.418  22.309  1.00  0.00     0.043 A 
ATOM     19  C   UNL A   1      31.036  27.864  23.547  1.00  0.00     0.120 A 
ATOM     20  C   UNL A   1      32.119  28.555  24.080  1.00  0.00     0.046 A 
ATOM     21  C   UNL A   1      31.283  26.778  22.713  1.00  0.00     0.060 A 
ATOM     22  C   UNL A   1      33.424  28.140  23.792  1.00  0.00     0.005 A 
ATOM     23  C   UNL A   1      33.652  27.084  22.899  1.00  0.00     0.014 A 
BRANCH  19  24
ATOM     24  O   UNL A   1      29.798  28.431  23.657  1.00  0.00    -0.493 OA
BRANCH  24  25
ATOM     25  C   UNL A   1      29.146  28.956  22.483  1.00  0.00     0.232 C 
BRANCH  25  26
ATOM     26  C   UNL A   1      28.823  30.463  22.518  1.00  0.00     0.020 C 
ATOM     27  C   UNL A   1      28.459  31.029  21.145  1.00  0.00     0.011 C 
ATOM     28  C   UNL A   1      27.707  30.824  23.503  1.00  0.00     0.011 C 
ENDBRANCH  25  26
ENDBRANCH  24  25
ENDBRANCH  19  24
ENDBRANCH  15  18
ENDBRANCH   9  14
BRANCH  13  29
ATOM     29  O   UNL A   1      34.377  20.518  25.633  1.00  0.00    -0.507 OA
ATOM     30  H   UNL A   1      35.070  19.920  25.433  1.00  0.00     0.293 HD
ENDBRANCH  13  29
ENDBRANCH   6   8
ENDBRANCH   5   6
ENDBRANCH   4   5
ENDBRANCH   3   4
ENDBRANCH   2   3
ENDBRANCH   1   2
BRANCH   1  31
ATOM     31  C   UNL A   1      41.710  20.069  27.339  1.00  0.00     0.188 C 
BRANCH  31  32
ATOM     32  O   UNL A   1      42.456  18.879  27.250  1.00  0.00    -0.377 OA
BRANCH  32  33
ATOM     33  C   UNL A   1      42.825  18.453  25.948  1.00  0.00     0.188 C 
BRANCH  33  34
ATOM     34  C   UNL A   1      44.216  18.821  25.378  1.00  0.00     0.188 C 
BRANCH  34  35
ATOM     35  O   UNL A   1      44.220  19.671  24.240  1.00  0.00    -0.376 OA
BRANCH  35  36
ATOM     36  C   UNL A   1      44.716  20.997  24.322  1.00  0.00     0.202 C 
BRANCH  36  37
ATOM     37  C   UNL A   1      44.243  21.910  25.467  1.00  0.00     0.261 C 
BRANCH  37  38
ATOM     38  O   UNL A   1      43.531  23.092  25.082  1.00  0.00    -0.460 OA
BRANCH  38  39
ATOM     39  C   UNL A   1      44.184  24.265  25.198  1.00  0.00     0.338 C 
ATOM     40  O   UNL A   1      45.186  24.614  24.595  1.00  0.00    -0.246 OA
BRANCH  39  41
ATOM     41  C   UNL A   1      43.358  25.163  26.029  1.00  0.00     0.060 A 
ATOM     42  C   UNL A   1      43.721  26.515  26.113  1.00  0.00     0.016 A 
ATOM     43  C   UNL A   1      42.226  24.687  26.696  1.00  0.00     0.016 A 
ATOM     44  C   UNL A   1      42.986  27.384  26.910  1.00  0.00     0.010 A 
ATOM     45  C   UNL A   1      41.510  25.553  27.527  1.00  0.00     0.010 A 
ATOM     46  C   UNL A   1      41.920  26.890  27.672  1.00  0.00    -0.014 A 
BRANCH  46  47
ATOM     47  C   UNL A   1      41.438  27.698  28.814  1.00  0.00     0.031 A 
ATOM     48  C   UNL A   1      42.187  27.578  30.115  1.00  0.00     0.074 A 
ATOM     49  C   UNL A   1      40.414  28.557  28.691  1.00  0.00     0.049 A 
ATOM     50  N   UNL A   1      41.963  28.163  31.262  1.00  0.00    -0.248 NA
ATOM     51  C   UNL A   1      43.350  26.674  30.117  1.00  0.00     0.031 C 
ATOM     52  C   UNL A   1      39.653  28.800  27.467  1.00  0.00     0.029 A 
ATOM     53  N   UNL A   1      39.840  29.387  29.619  1.00  0.00    -0.354 N 
ATOM     54  C   UNL A   1      42.949  27.693  32.120  1.00  0.00     0.074 A 
ATOM     55  C   UNL A   1      43.755  26.753  31.375  1.00  0.00     0.031 C 
ATOM     56  C   UNL A   1      38.697  29.711  27.725  1.00  0.00     0.029 A 
ATOM     57  C   UNL A   1      38.763  30.088  29.136  1.00  0.00     0.049 A 
ATOM     58  H   UNL A   1      40.168  29.473  30.543  1.00  0.00     0.167 HD
ATOM     59  C   UNL A   1      43.169  28.022  33.414  1.00  0.00     0.037 A 
ATOM     60  C   UNL A   1      37.916  30.920  29.774  1.00  0.00     0.037 A 
ATOM     61  C   UNL A   1      42.363  28.958  34.150  1.00  0.00     0.049 A 
ATOM     62  C   UNL A   1      38.135  31.212  31.238  1.00  0.00     0.074 A 
ATOM     63  C   UNL A   1      42.504  29.368  35.464  1.00  0.00     0.029 A 
ATOM     64  N   UNL A   1      41.259  29.622  33.637  1.00  0.00    -0.354 N 
ATOM     65  N   UNL A   1      39.080  30.778  32.039  1.00  0.00    -0.248 NA
ATOM     66  C   UNL A   1      37.173  32.117  31.884  1.00  0.00     0.031 C 
ATOM     67  C   UNL A   1      41.450  30.236  35.763  1.00  0.00     0.029 A 
ATOM     68  C   UNL A   1      40.694  30.420  34.617  1.00  0.00     0.049 A 
ATOM     69  H   UNL A   1      40.927  29.537  32.714  1.00  0.00     0.167 HD
ATOM     70  C   UNL A   1      38.848  31.385  33.268  1.00  0.00     0.074 A 
ATOM     71  C   UNL A   1      37.681  32.225  33.103  1.00  0.00     0.031 C 
ATOM     72  C   UNL A   1      39.541  31.264  34.429  1.00  0.00     0.037 A 
BRANCH  59  73
ATOM     73  C   UNL A   1      44.303  27.340  34.121  1.00  0.00     0.057 A 
ATOM     74  C   UNL A   1      45.587  27.895  34.178  1.00  0.00     0.134 A 
ATOM     75  C   UNL A   1      44.097  26.119  34.776  1.00  0.00     0.134 A 
ATOM     76  F   UNL A   1      45.858  29.051  33.553  1.00  0.00    -0.206 F 
ATOM     77  C   UNL A   1      46.631  27.253  34.848  1.00  0.00     0.040 A 
ATOM     78  C   UNL A   1      45.124  25.482  35.474  1.00  0.00     0.040 A 
ATOM     79  F   UNL A   1      42.890  25.531  34.757  1.00  0.00    -0.206 F 
ATOM     80  C   UNL A   1      46.396  26.047  35.507  1.00  0.00     0.006 A 
ENDBRANCH  59  73
BRANCH  60  81
ATOM     81  C   UNL A   1      36.770  31.525  29.047  1.00  0.00     0.057 A 
ATOM     82  C   UNL A   1      36.793  32.860  28.629  1.00  0.00     0.134 A 
ATOM     83  C   UNL A   1      35.605  30.791  28.791  1.00  0.00     0.134 A 
ATOM     84  F   UNL A   1      37.870  33.624  28.867  1.00  0.00    -0.206 F 
ATOM     85  C   UNL A   1      35.692  33.452  28.006  1.00  0.00     0.040 A 
ATOM     86  C   UNL A   1      34.508  31.360  28.144  1.00  0.00     0.040 A 
ATOM     87  F   UNL A   1      35.516  29.507  29.167  1.00  0.00    -0.206 F 
ATOM     88  C   UNL A   1      34.546  32.699  27.758  1.00  0.00     0.006 A 
ENDBRANCH  60  81
BRANCH  72  89
ATOM     89  C   UNL A   1      39.094  32.101  35.593  1.00  0.00     0.057 A 
ATOM     90  C   UNL A   1      39.488  33.436  35.750  1.00  0.00     0.134 A 
ATOM     91  C   UNL A   1      38.220  31.570  36.552  1.00  0.00     0.134 A 
ATOM     92  F   UNL A   1      40.329  34.004  34.873  1.00  0.00    -0.206 F 
ATOM     93  C   UNL A   1      39.054  34.201  36.835  1.00  0.00     0.040 A 
ATOM     94  C   UNL A   1      37.754  32.334  37.622  1.00  0.00     0.040 A 
ATOM     95  F   UNL A   1      37.791  30.302  36.455  1.00  0.00    -0.206 F 
ATOM     96  C   UNL A   1      38.179  33.652  37.770  1.00  0.00     0.006 A 
ENDBRANCH  72  89
ENDBRANCH  46  47
ENDBRANCH  39  41
ENDBRANCH  38  39
ENDBRANCH  37  38
ENDBRANCH  36  37
ENDBRANCH  35  36
ENDBRANCH  34  35
ENDBRANCH  33  34
ENDBRANCH  32  33
ENDBRANCH  31  32
ENDBRANCH   1  31
TORSDOF 26
ENDMDL
MODEL 2
REMARK VINA RESULT:     -10.8      1.403      2.346
REMARK SMILES CC(C)COc1cccc(C(=O)Nc2ccc(O)c(C(=O)OCCOCCOCCOCCOC(=O)c3ccc(-c4c5nc(c(-c6c(F)cccc6F)c6ccc([nH]6)c(-c6c(F)cccc6F)c6nc(c(-c7c(F)cccc7F)c7ccc4[nH]7)C=C6)C=C5)cc3)c2)c1
REMARK SMILES IDX 26 1 25 2 24 3 23 4 22 5 20 6 21 7 19 8 14 9 15 10 91 11
REMARK SMILES IDX 16 12 17 13 13 14 11 15 12 16 10 18 6 19 7 20 92 21 8 22
REMARK SMILES IDX 9 23 5 24 4 25 2 26 1 27 3 28 18 29 27 31 28 32 29 33 30 34
REMARK SMILES IDX 31 35 32 36 33 37 34 38 35 39 36 40 37 41 38 42 90 43 39 44
REMARK SMILES IDX 89 45 40 46 41 47 42 48 83 49 43 50 88 51 82 52 84 53 44 54
REMARK SMILES IDX 87 55 81 56 80 57 45 59 71 60 54 61 70 62 55 63 58 64 69 65
REMARK SMILES IDX 85 66 56 67 57 68 68 70 86 71 59 72 46 73 47 74 52 75 48 76
REMARK SMILES IDX 49 77 51 78 53 79 50 80 72 81 73 82 78 83 74 84 75 85 77 86
REMARK SMILES IDX 79 87 76 88 60 89 61 90 66 91 62 92 63 93 65 94 67 95 64 96
REMARK H PARENT 13 17 18 30 84 58 58 69
REMARK Flexibility Score: inf
ROOT
ATOM      1  C   UNL A   1      40.737  20.136  26.439  1.00  0.00     0.188 C 
ENDROOT
BRANCH   1   2
ATOM      2  O   UNL A   1      40.193  21.393  26.815  1.00  0.00    -0.376 OA
BRANCH   2   3
ATOM      3  C   UNL A   1      39.135  22.059  26.142  1.00  0.00     0.202 C 
BRANCH   3   4
ATOM      4  C   UNL A   1      37.930  21.375  25.474  1.00  0.00     0.261 C 
BRANCH   4   5
ATOM      5  O   UNL A   1      37.072  22.209  24.699  1.00  0.00    -0.460 OA
BRANCH   5   6
ATOM      6  C   UNL A   1      36.042  22.725  25.397  1.00  0.00     0.342 C 
ATOM      7  O   UNL A   1      36.112  23.497  26.344  1.00  0.00    -0.246 OA
BRANCH   6   8
ATOM      8  C   UNL A   1      34.736  22.367  24.805  1.00  0.00     0.103 A 
ATOM      9  C   UNL A   1      32.407  22.013  25.178  1.00  0.00     0.042 A 
ATOM     10  C   UNL A   1      32.140  22.256  23.823  1.00  0.00     0.030 A 
ATOM     11  C   UNL A   1      33.720  21.876  25.617  1.00  0.00     0.045 A 
ATOM     12  C   UNL A   1      33.184  22.575  22.954  1.00  0.00     0.049 A 
ATOM     13  C   UNL A   1      34.465  22.707  23.467  1.00  0.00     0.130 A 
BRANCH   9  14
ATOM     14  N   UNL A   1      31.338  22.091  26.085  1.00  0.00    -0.322 N 
ATOM     15  C   UNL A   1      30.717  23.195  26.660  1.00  0.00     0.255 C 
ATOM     16  O   UNL A   1      29.922  22.999  27.580  1.00  0.00    -0.269 OA
ATOM     17  H   UNL A   1      30.966  21.221  26.359  1.00  0.00     0.170 HD
BRANCH  15  18
ATOM     18  C   UNL A   1      30.883  24.603  26.160  1.00  0.00     0.043 A 
ATOM     19  C   UNL A   1      30.099  26.528  24.868  1.00  0.00     0.120 A 
ATOM     20  C   UNL A   1      31.300  27.183  25.120  1.00  0.00     0.046 A 
ATOM     21  C   UNL A   1      29.892  25.274  25.432  1.00  0.00     0.060 A 
ATOM     22  C   UNL A   1      32.261  26.588  25.947  1.00  0.00     0.005 A 
ATOM     23  C   UNL A   1      32.059  25.298  26.454  1.00  0.00     0.014 A 
BRANCH  19  24
ATOM     24  O   UNL A   1      29.294  27.025  23.881  1.00  0.00    -0.493 OA
BRANCH  24  25
ATOM     25  C   UNL A   1      29.809  28.018  22.972  1.00  0.00     0.232 C 
BRANCH  25  26
ATOM     26  C   UNL A   1      29.029  29.348  22.927  1.00  0.00     0.020 C 
ATOM     27  C   UNL A   1      29.452  30.250  21.767  1.00  0.00     0.011 C 
ATOM     28  C   UNL A   1      27.510  29.161  22.869  1.00  0.00     0.011 C 
ENDBRANCH  25  26
ENDBRANCH  24  25
ENDBRANCH  19  24
ENDBRANCH  15  18
ENDBRANCH   9  14
BRANCH  13  29
ATOM     29  O   UNL A   1      35.414  23.225  22.626  1.00  0.00    -0.507 OA
ATOM     30  H   UNL A   1      35.327  23.119  21.700  1.00  0.00     0.293 HD
ENDBRANCH  13  29
ENDBRANCH   6   8
ENDBRANCH   5   6
ENDBRANCH   4   5
ENDBRANCH   3   4
ENDBRANCH   2   3
ENDBRANCH   1   2
BRANCH   1  31
ATOM     31  C   UNL A   1      41.891  19.482  27.216  1.00  0.00     0.188 C 
BRANCH  31  32
ATOM     32  O   UNL A   1      42.801  18.761  26.420  1.00  0.00    -0.377 OA
BRANCH  32  33
ATOM     33  C   UNL A   1      43.366  19.448  25.316  1.00  0.00     0.188 C 
BRANCH  33  34
ATOM     34  C   UNL A   1      44.831  19.171  24.899  1.00  0.00     0.188 C 
BRANCH  34  35
ATOM     35  O   UNL A   1      45.813  20.036  25.452  1.00  0.00    -0.376 OA
BRANCH  35  36
ATOM     36  C   UNL A   1      46.019  21.336  24.925  1.00  0.00     0.202 C 
BRANCH  36  37
ATOM     37  C   UNL A   1      45.886  22.557  25.853  1.00  0.00     0.261 C 
BRANCH  37  38
ATOM     38  O   UNL A   1      44.556  22.913  26.245  1.00  0.00    -0.460 OA
BRANCH  38  39
ATOM     39  C   UNL A   1      43.854  23.688  25.395  1.00  0.00     0.338 C 
ATOM     40  O   UNL A   1      43.674  23.499  24.202  1.00  0.00    -0.246 OA
BRANCH  39  41
ATOM     41  C   UNL A   1      43.144  24.707  26.192  1.00  0.00     0.060 A 
ATOM     42  C   UNL A   1      43.735  25.971  26.335  1.00  0.00     0.016 A 
ATOM     43  C   UNL A   1      41.902  24.433  26.769  1.00  0.00     0.016 A 
ATOM     44  C   UNL A   1      43.112  26.947  27.104  1.00  0.00     0.010 A 
ATOM     45  C   UNL A   1      41.294  25.401  27.573  1.00  0.00     0.010 A 
ATOM     46  C   UNL A   1      41.925  26.641  27.780  1.00  0.00    -0.014 A 
BRANCH  46  47
ATOM     47  C   UNL A   1      41.514  27.506  28.908  1.00  0.00     0.031 A 
ATOM     48  C   UNL A   1      42.317  27.417  30.179  1.00  0.00     0.074 A 
ATOM     49  C   UNL A   1      40.509  28.389  28.794  1.00  0.00     0.049 A 
ATOM     50  N   UNL A   1      42.159  28.053  31.310  1.00  0.00    -0.248 NA
ATOM     51  C   UNL A   1      43.455  26.482  30.168  1.00  0.00     0.031 C 
ATOM     52  C   UNL A   1      39.701  28.604  27.595  1.00  0.00     0.029 A 
ATOM     53  N   UNL A   1      39.998  29.270  29.711  1.00  0.00    -0.354 N 
ATOM     54  C   UNL A   1      43.169  27.590  32.143  1.00  0.00     0.074 A 
ATOM     55  C   UNL A   1      43.916  26.599  31.403  1.00  0.00     0.031 C 
ATOM     56  C   UNL A   1      38.782  29.550  27.857  1.00  0.00     0.029 A 
ATOM     57  C   UNL A   1      38.919  29.982  29.247  1.00  0.00     0.049 A 
ATOM     58  H   UNL A   1      40.369  29.383  30.616  1.00  0.00     0.167 HD
ATOM     59  C   UNL A   1      43.454  27.964  33.412  1.00  0.00     0.037 A 
ATOM     60  C   UNL A   1      38.124  30.861  29.887  1.00  0.00     0.037 A 
ATOM     61  C   UNL A   1      42.706  28.949  34.143  1.00  0.00     0.049 A 
ATOM     62  C   UNL A   1      38.414  31.204  31.327  1.00  0.00     0.074 A 
ATOM     63  C   UNL A   1      42.915  29.407  35.432  1.00  0.00     0.029 A 
ATOM     64  N   UNL A   1      41.599  29.623  33.652  1.00  0.00    -0.354 N 
ATOM     65  N   UNL A   1      39.382  30.776  32.103  1.00  0.00    -0.248 NA
ATOM     66  C   UNL A   1      37.506  32.160  31.977  1.00  0.00     0.031 C 
ATOM     67  C   UNL A   1      41.899  30.315  35.741  1.00  0.00     0.029 A 
ATOM     68  C   UNL A   1      41.098  30.475  34.622  1.00  0.00     0.049 A 
ATOM     69  H   UNL A   1      41.224  29.512  32.748  1.00  0.00     0.167 HD
ATOM     70  C   UNL A   1      39.220  31.438  33.316  1.00  0.00     0.074 A 
ATOM     71  C   UNL A   1      38.070  32.303  33.167  1.00  0.00     0.031 C 
ATOM     72  C   UNL A   1      39.960  31.343  34.449  1.00  0.00     0.037 A 
BRANCH  59  73
ATOM     73  C   UNL A   1      44.600  27.278  34.096  1.00  0.00     0.057 A 
ATOM     74  C   UNL A   1      44.419  26.139  34.891  1.00  0.00     0.134 A 
ATOM     75  C   UNL A   1      45.908  27.751  33.934  1.00  0.00     0.134 A 
ATOM     76  F   UNL A   1      43.189  25.647  35.106  1.00  0.00    -0.206 F 
ATOM     77  C   UNL A   1      45.495  25.505  35.515  1.00  0.00     0.040 A 
ATOM     78  C   UNL A   1      46.996  27.110  34.528  1.00  0.00     0.040 A 
ATOM     79  F   UNL A   1      46.151  28.840  33.187  1.00  0.00    -0.206 F 
ATOM     80  C   UNL A   1      46.790  25.986  35.324  1.00  0.00     0.006 A 
ENDBRANCH  59  73
BRANCH  60  81
ATOM     81  C   UNL A   1      36.963  31.469  29.186  1.00  0.00     0.057 A 
ATOM     82  C   UNL A   1      35.788  30.745  28.953  1.00  0.00     0.134 A 
ATOM     83  C   UNL A   1      37.018  32.780  28.695  1.00  0.00     0.134 A 
ATOM     84  F   UNL A   1      35.682  29.476  29.376  1.00  0.00    -0.206 F 
ATOM     85  C   UNL A   1      34.721  31.290  28.236  1.00  0.00     0.040 A 
ATOM     86  C   UNL A   1      35.949  33.348  28.002  1.00  0.00     0.040 A 
ATOM     87  F   UNL A   1      38.114  33.529  28.883  1.00  0.00    -0.206 F 
ATOM     88  C   UNL A   1      34.799  32.598  27.762  1.00  0.00     0.006 A 
ENDBRANCH  60  81
BRANCH  72  89
ATOM     89  C   UNL A   1      39.587  32.238  35.597  1.00  0.00     0.057 A 
ATOM     90  C   UNL A   1      38.664  31.852  36.577  1.00  0.00     0.134 A 
ATOM     91  C   UNL A   1      40.195  33.493  35.741  1.00  0.00     0.134 A 
ATOM     92  F   UNL A   1      38.040  30.668  36.495  1.00  0.00    -0.206 F 
ATOM     93  C   UNL A   1      38.337  32.695  37.641  1.00  0.00     0.040 A 
ATOM     94  C   UNL A   1      39.900  34.329  36.817  1.00  0.00     0.040 A 
ATOM     95  F   UNL A   1      41.099  33.920  34.845  1.00  0.00    -0.206 F 
ATOM     96  C   UNL A   1      38.961  33.935  37.767  1.00  0.00     0.006 A 
ENDBRANCH  72  89
ENDBRANCH  46  47
ENDBRANCH  39  41
ENDBRANCH  38  39
ENDBRANCH  37  38
ENDBRANCH  36  37
ENDBRANCH  35  36
ENDBRANCH  34  35
ENDBRANCH  33  34
ENDBRANCH  32  33
ENDBRANCH  31  32
ENDBRANCH   1  31
TORSDOF 26
ENDMDL
MODEL 3
REMARK VINA RESULT:     -10.6      4.498     10.794
REMARK SMILES CC(C)COc1cccc(C(=O)Nc2ccc(O)c(C(=O)OCCOCCOCCOCCOC(=O)c3ccc(-c4c5nc(c(-c6c(F)cccc6F)c6ccc([nH]6)c(-c6c(F)cccc6F)c6nc(c(-c7c(F)cccc7F)c7ccc4[nH]7)C=C6)C=C5)cc3)c2)c1
REMARK SMILES IDX 26 1 25 2 24 3 23 4 22 5 20 6 21 7 19 8 14 9 15 10 91 11
REMARK SMILES IDX 16 12 17 13 13 14 11 15 12 16 10 18 6 19 7 20 92 21 8 22
REMARK SMILES IDX 9 23 5 24 4 25 2 26 1 27 3 28 18 29 27 31 28 32 29 33 30 34
REMARK SMILES IDX 31 35 32 36 33 37 34 38 35 39 36 40 37 41 38 42 90 43 39 44
REMARK SMILES IDX 89 45 40 46 41 47 42 48 83 49 43 50 88 51 82 52 84 53 44 54
REMARK SMILES IDX 87 55 81 56 80 57 45 59 71 60 54 61 70 62 55 63 58 64 69 65
REMARK SMILES IDX 85 66 56 67 57 68 68 70 86 71 59 72 46 73 47 74 52 75 48 76
REMARK SMILES IDX 49 77 51 78 53 79 50 80 72 81 73 82 78 83 74 84 75 85 77 86
REMARK SMILES IDX 79 87 76 88 60 89 61 90 66 91 62 92 63 93 65 94 67 95 64 96
REMARK H PARENT 13 17 18 30 84 58 58 69
REMARK Flexibility Score: inf
ROOT
ATOM      1  C   UNL A   1      33.279  34.101  28.407  1.00  0.00     0.188 C 
ENDROOT
BRANCH   1   2
ATOM      2  O   UNL A   1      32.250  33.751  27.493  1.00  0.00    -0.376 OA
BRANCH   2   3
ATOM      3  C   UNL A   1      31.769  32.434  27.271  1.00  0.00     0.202 C 
BRANCH   3   4
ATOM      4  C   UNL A   1      32.609  31.249  26.765  1.00  0.00     0.261 C 
BRANCH   4   5
ATOM      5  O   UNL A   1      31.909  30.033  26.512  1.00  0.00    -0.460 OA
BRANCH   5   6
ATOM      6  C   UNL A   1      32.687  29.051  26.018  1.00  0.00     0.342 C 
ATOM      7  O   UNL A   1      33.897  28.930  26.166  1.00  0.00    -0.246 OA
BRANCH   6   8
ATOM      8  C   UNL A   1      31.895  27.995  25.354  1.00  0.00     0.103 A 
ATOM      9  C   UNL A   1      30.696  25.948  25.600  1.00  0.00     0.042 A 
ATOM     10  C   UNL A   1      29.960  26.224  24.438  1.00  0.00     0.030 A 
ATOM     11  C   UNL A   1      31.791  26.738  25.937  1.00  0.00     0.045 A 
ATOM     12  C   UNL A   1      30.185  27.410  23.738  1.00  0.00     0.049 A 
ATOM     13  C   UNL A   1      31.095  28.325  24.244  1.00  0.00     0.130 A 
BRANCH   9  14
ATOM     14  N   UNL A   1      30.192  24.982  26.486  1.00  0.00    -0.322 N 
ATOM     15  C   UNL A   1      30.609  23.679  26.737  1.00  0.00     0.255 C 
ATOM     16  O   UNL A   1      29.883  22.960  27.425  1.00  0.00    -0.269 OA
ATOM     17  H   UNL A   1      29.416  25.275  27.017  1.00  0.00     0.170 HD
BRANCH  15  18
ATOM     18  C   UNL A   1      31.940  23.128  26.304  1.00  0.00     0.043 A 
ATOM     19  C   UNL A   1      33.290  21.500  25.073  1.00  0.00     0.120 A 
ATOM     20  C   UNL A   1      34.443  22.033  25.640  1.00  0.00     0.046 A 
ATOM     21  C   UNL A   1      32.066  22.087  25.375  1.00  0.00     0.060 A 
ATOM     22  C   UNL A   1      34.359  23.152  26.476  1.00  0.00     0.005 A 
ATOM     23  C   UNL A   1      33.111  23.689  26.818  1.00  0.00     0.014 A 
BRANCH  19  24
ATOM     24  O   UNL A   1      33.382  20.282  24.459  1.00  0.00    -0.493 OA
BRANCH  24  25
ATOM     25  C   UNL A   1      32.234  19.411  24.426  1.00  0.00     0.232 C 
BRANCH  25  26
ATOM     26  C   UNL A   1      32.543  17.904  24.330  1.00  0.00     0.020 C 
ATOM     27  C   UNL A   1      33.610  17.578  23.284  1.00  0.00     0.011 C 
ATOM     28  C   UNL A   1      32.967  17.284  25.665  1.00  0.00     0.011 C 
ENDBRANCH  25  26
ENDBRANCH  24  25
ENDBRANCH  19  24
ENDBRANCH  15  18
ENDBRANCH   9  14
BRANCH  13  29
ATOM     29  O   UNL A   1      31.127  29.556  23.645  1.00  0.00    -0.507 OA
ATOM     30  H   UNL A   1      31.796  29.756  23.021  1.00  0.00     0.293 HD
ENDBRANCH  13  29
ENDBRANCH   6   8
ENDBRANCH   5   6
ENDBRANCH   4   5
ENDBRANCH   3   4
ENDBRANCH   2   3
ENDBRANCH   1   2
BRANCH   1  31
ATOM     31  C   UNL A   1      33.519  35.553  28.848  1.00  0.00     0.188 C 
BRANCH  31  32
ATOM     32  O   UNL A   1      32.517  36.088  29.680  1.00  0.00    -0.377 OA
BRANCH  32  33
ATOM     33  C   UNL A   1      32.575  35.738  31.053  1.00  0.00     0.188 C 
BRANCH  33  34
ATOM     34  C   UNL A   1      33.561  36.467  31.998  1.00  0.00     0.188 C 
BRANCH  34  35
ATOM     35  O   UNL A   1      34.748  35.760  32.329  1.00  0.00    -0.376 OA
BRANCH  35  36
ATOM     36  C   UNL A   1      34.996  35.336  33.660  1.00  0.00     0.202 C 
BRANCH  36  37
ATOM     37  C   UNL A   1      34.852  33.846  34.017  1.00  0.00     0.261 C 
BRANCH  37  38
ATOM     38  O   UNL A   1      35.692  32.937  33.297  1.00  0.00    -0.460 OA
BRANCH  38  39
ATOM     39  C   UNL A   1      35.159  32.337  32.215  1.00  0.00     0.338 C 
ATOM     40  O   UNL A   1      34.072  32.561  31.707  1.00  0.00    -0.246 OA
BRANCH  39  41
ATOM     41  C   UNL A   1      36.207  31.498  31.601  1.00  0.00     0.060 A 
ATOM     42  C   UNL A   1      37.169  30.914  32.438  1.00  0.00     0.016 A 
ATOM     43  C   UNL A   1      36.228  31.266  30.223  1.00  0.00     0.016 A 
ATOM     44  C   UNL A   1      38.189  30.143  31.893  1.00  0.00     0.010 A 
ATOM     45  C   UNL A   1      37.275  30.523  29.672  1.00  0.00     0.010 A 
ATOM     46  C   UNL A   1      38.283  30.003  30.503  1.00  0.00    -0.014 A 
BRANCH  46  47
ATOM     47  C   UNL A   1      39.574  29.567  29.926  1.00  0.00     0.031 A 
ATOM     48  C   UNL A   1      40.680  30.585  29.851  1.00  0.00     0.074 A 
ATOM     49  C   UNL A   1      39.784  28.298  29.541  1.00  0.00     0.049 A 
ATOM     50  N   UNL A   1      41.894  30.463  29.381  1.00  0.00    -0.248 NA
ATOM     51  C   UNL A   1      40.372  31.924  30.383  1.00  0.00     0.031 C 
ATOM     52  C   UNL A   1      38.808  27.214  29.621  1.00  0.00     0.029 A 
ATOM     53  N   UNL A   1      40.900  27.712  29.001  1.00  0.00    -0.354 N 
ATOM     54  C   UNL A   1      42.487  31.707  29.553  1.00  0.00     0.074 A 
ATOM     55  C   UNL A   1      41.496  32.579  30.141  1.00  0.00     0.031 C 
ATOM     56  C   UNL A   1      39.365  26.092  29.131  1.00  0.00     0.029 A 
ATOM     57  C   UNL A   1      40.723  26.389  28.677  1.00  0.00     0.049 A 
ATOM     58  H   UNL A   1      41.747  28.192  28.859  1.00  0.00     0.167 HD
ATOM     59  C   UNL A   1      43.751  32.088  29.254  1.00  0.00     0.037 A 
ATOM     60  C   UNL A   1      41.558  25.530  28.062  1.00  0.00     0.037 A 
ATOM     61  C   UNL A   1      44.732  31.216  28.667  1.00  0.00     0.049 A 
ATOM     62  C   UNL A   1      42.936  26.000  27.667  1.00  0.00     0.074 A 
ATOM     63  C   UNL A   1      46.044  31.499  28.331  1.00  0.00     0.029 A 
ATOM     64  N   UNL A   1      44.504  29.893  28.322  1.00  0.00    -0.354 N 
ATOM     65  N   UNL A   1      43.498  27.172  27.849  1.00  0.00    -0.248 NA
ATOM     66  C   UNL A   1      43.800  25.023  26.988  1.00  0.00     0.031 C 
ATOM     67  C   UNL A   1      46.592  30.364  27.728  1.00  0.00     0.029 A 
ATOM     68  C   UNL A   1      45.645  29.353  27.752  1.00  0.00     0.049 A 
ATOM     69  H   UNL A   1      43.658  29.410  28.460  1.00  0.00     0.167 HD
ATOM     70  C   UNL A   1      44.789  27.060  27.343  1.00  0.00     0.074 A 
ATOM     71  C   UNL A   1      44.929  25.704  26.858  1.00  0.00     0.031 C 
ATOM     72  C   UNL A   1      45.772  27.994  27.290  1.00  0.00     0.037 A 
BRANCH  59  73
ATOM     73  C   UNL A   1      44.129  33.515  29.525  1.00  0.00     0.057 A 
ATOM     74  C   UNL A   1      44.055  34.505  28.537  1.00  0.00     0.134 A 
ATOM     75  C   UNL A   1      44.546  33.907  30.803  1.00  0.00     0.134 A 
ATOM     76  F   UNL A   1      43.683  34.192  27.286  1.00  0.00    -0.206 F 
ATOM     77  C   UNL A   1      44.400  35.831  28.805  1.00  0.00     0.040 A 
ATOM     78  C   UNL A   1      44.866  35.234  31.091  1.00  0.00     0.040 A 
ATOM     79  F   UNL A   1      44.642  33.007  31.794  1.00  0.00    -0.206 F 
ATOM     80  C   UNL A   1      44.797  36.199  30.090  1.00  0.00     0.006 A 
ENDBRANCH  59  73
BRANCH  60  81
ATOM     81  C   UNL A   1      41.119  24.143  27.759  1.00  0.00     0.057 A 
ATOM     82  C   UNL A   1      41.618  23.046  28.470  1.00  0.00     0.134 A 
ATOM     83  C   UNL A   1      40.217  23.880  26.720  1.00  0.00     0.134 A 
ATOM     84  F   UNL A   1      42.504  23.230  29.460  1.00  0.00    -0.206 F 
ATOM     85  C   UNL A   1      41.259  21.737  28.144  1.00  0.00     0.040 A 
ATOM     86  C   UNL A   1      39.826  22.578  26.402  1.00  0.00     0.040 A 
ATOM     87  F   UNL A   1      39.701  24.885  25.999  1.00  0.00    -0.206 F 
ATOM     88  C   UNL A   1      40.357  21.501  27.109  1.00  0.00     0.006 A 
ENDBRANCH  60  81
BRANCH  72  89
ATOM     89  C   UNL A   1      47.104  27.566  26.742  1.00  0.00     0.057 A 
ATOM     90  C   UNL A   1      47.450  27.739  25.396  1.00  0.00     0.134 A 
ATOM     91  C   UNL A   1      48.070  27.007  27.590  1.00  0.00     0.134 A 
ATOM     92  F   UNL A   1      46.569  28.260  24.528  1.00  0.00    -0.206 F 
ATOM     93  C   UNL A   1      48.696  27.343  24.907  1.00  0.00     0.040 A 
ATOM     94  C   UNL A   1      49.331  26.638  27.120  1.00  0.00     0.040 A 
ATOM     95  F   UNL A   1      47.811  26.826  28.894  1.00  0.00    -0.206 F 
ATOM     96  C   UNL A   1      49.643  26.797  25.772  1.00  0.00     0.006 A 
ENDBRANCH  72  89
ENDBRANCH  46  47
ENDBRANCH  39  41
ENDBRANCH  38  39
ENDBRANCH  37  38
ENDBRANCH  36  37
ENDBRANCH  35  36
ENDBRANCH  34  35
ENDBRANCH  33  34
ENDBRANCH  32  33
ENDBRANCH  31  32
ENDBRANCH   1  31
TORSDOF 26
ENDMDL
