MODEL 1
REMARK VINA RESULT:     -10.3      0.000      0.000
REMARK SMILES CCc1nn(-c2ccncn2)c(Cl)c1C(=O)OCCOCCOCCOCCOC(=O)c1ccc(-c2c3nc(c(-c4c(F)cccc4F)c4ccc([nH]4)c(-c4c(F)cccc4F)c4nc(c(-c5c(F)cccc5F)c5ccc2[nH]5)C=C4)C=C3)cc1
REMARK SMILES IDX 24 1 23 2 22 3 21 4 20 5 19 6 18 7 17 8 15 9 16 10 14 11
REMARK SMILES IDX 3 12 4 13 5 14 12 15 13 16 2 17 1 18 6 19 7 20 11 21 8 22
REMARK SMILES IDX 10 23 9 24 25 25 26 26 27 27 28 28 29 29 30 30 31 31 32 32
REMARK SMILES IDX 33 33 85 34 34 35 84 36 35 37 36 38 37 39 78 40 38 41 83 42
REMARK SMILES IDX 77 43 79 44 39 45 82 46 76 47 75 48 40 50 66 51 49 52 65 53
REMARK SMILES IDX 50 54 53 55 64 56 80 57 51 58 52 59 63 61 81 62 54 63 41 64
REMARK SMILES IDX 42 65 47 66 43 67 44 68 46 69 48 70 45 71 67 72 68 73 73 74
REMARK SMILES IDX 69 75 70 76 72 77 74 78 71 79 55 80 56 81 61 82 57 83 58 84
REMARK SMILES IDX 60 85 62 86 59 87
REMARK H PARENT 79 49 53 60
REMARK Flexibility Score: inf
ROOT
ATOM      1  C   UNL A   1      38.968  22.367  26.309  1.00  0.00     0.188 C 
ENDROOT
BRANCH   1   2
ATOM      2  O   UNL A   1      38.413  22.108  25.019  1.00  0.00    -0.377 OA
BRANCH   2   3
ATOM      3  C   UNL A   1      37.387  21.135  24.889  1.00  0.00     0.188 C 
BRANCH   3   4
ATOM      4  C   UNL A   1      35.919  21.613  24.934  1.00  0.00     0.188 C 
BRANCH   4   5
ATOM      5  O   UNL A   1      35.502  22.260  23.742  1.00  0.00    -0.376 OA
BRANCH   5   6
ATOM      6  C   UNL A   1      35.182  23.637  23.793  1.00  0.00     0.202 C 
BRANCH   6   7
ATOM      7  C   UNL A   1      33.792  24.064  23.306  1.00  0.00     0.261 C 
BRANCH   7   8
ATOM      8  O   UNL A   1      32.988  23.004  22.774  1.00  0.00    -0.460 OA
BRANCH   8   9
ATOM      9  C   UNL A   1      31.921  22.600  23.507  1.00  0.00     0.343 C 
ATOM     10  O   UNL A   1      30.787  23.048  23.376  1.00  0.00    -0.246 OA
BRANCH   9  11
ATOM     11  C   UNL A   1      32.257  21.458  24.330  1.00  0.00     0.120 A 
ATOM     12  C   UNL A   1      32.606  21.375  25.714  1.00  0.00     0.079 A 
ATOM     13  N   UNL A   1      32.989  20.134  26.062  1.00  0.00    -0.169 NA
ATOM     14  N   UNL A   1      32.853  19.400  24.926  1.00  0.00    -0.203 N 
ATOM     15  C   UNL A   1      32.460  20.177  23.869  1.00  0.00     0.149 A 
ATOM     16  Cl  UNL A   1      32.414  19.536  22.285  1.00  0.00    -0.061 Cl
BRANCH  12  17
ATOM     17  C   UNL A   1      32.690  22.468  26.743  1.00  0.00     0.056 C 
ATOM     18  C   UNL A   1      33.801  22.304  27.768  1.00  0.00     0.011 C 
ENDBRANCH  12  17
BRANCH  14  19
ATOM     19  C   UNL A   1      33.163  18.019  24.895  1.00  0.00     0.158 A 
ATOM     20  C   UNL A   1      32.249  17.129  25.432  1.00  0.00     0.069 A 
ATOM     21  N   UNL A   1      34.410  17.673  24.503  1.00  0.00    -0.217 NA
ATOM     22  C   UNL A   1      32.698  15.834  25.554  1.00  0.00     0.117 A 
ATOM     23  C   UNL A   1      34.723  16.381  24.658  1.00  0.00     0.224 A 
ATOM     24  N   UNL A   1      33.927  15.434  25.176  1.00  0.00    -0.245 NA
ENDBRANCH  14  19
ENDBRANCH   9  11
ENDBRANCH   8   9
ENDBRANCH   7   8
ENDBRANCH   6   7
ENDBRANCH   5   6
ENDBRANCH   4   5
ENDBRANCH   3   4
ENDBRANCH   2   3
ENDBRANCH   1   2
BRANCH   1  25
ATOM     25  C   UNL A   1      40.166  21.563  26.895  1.00  0.00     0.188 C 
BRANCH  25  26
ATOM     26  O   UNL A   1      40.485  20.345  26.231  1.00  0.00    -0.376 OA
BRANCH  26  27
ATOM     27  C   UNL A   1      41.496  19.492  26.739  1.00  0.00     0.202 C 
BRANCH  27  28
ATOM     28  C   UNL A   1      42.634  19.207  25.761  1.00  0.00     0.261 C 
BRANCH  28  29
ATOM     29  O   UNL A   1      43.197  20.395  25.237  1.00  0.00    -0.460 OA
BRANCH  29  30
ATOM     30  C   UNL A   1      44.535  20.351  25.083  1.00  0.00     0.338 C 
ATOM     31  O   UNL A   1      45.280  19.430  25.372  1.00  0.00    -0.246 OA
BRANCH  30  32
ATOM     32  C   UNL A   1      44.988  21.651  24.566  1.00  0.00     0.060 A 
ATOM     33  C   UNL A   1      46.114  22.135  25.225  1.00  0.00     0.016 A 
ATOM     34  C   UNL A   1      44.003  22.488  24.019  1.00  0.00     0.016 A 
ATOM     35  C   UNL A   1      45.998  23.385  25.763  1.00  0.00     0.010 A 
ATOM     36  C   UNL A   1      43.876  23.730  24.572  1.00  0.00     0.010 A 
ATOM     37  C   UNL A   1      44.807  24.087  25.539  1.00  0.00    -0.014 A 
BRANCH  37  38
ATOM     38  C   UNL A   1      44.549  25.197  26.410  1.00  0.00     0.031 A 
ATOM     39  C   UNL A   1      45.630  26.188  26.407  1.00  0.00     0.074 A 
ATOM     40  C   UNL A   1      43.426  25.293  27.139  1.00  0.00     0.049 A 
ATOM     41  N   UNL A   1      46.467  26.434  27.353  1.00  0.00    -0.248 NA
ATOM     42  C   UNL A   1      45.927  26.845  25.128  1.00  0.00     0.031 C 
ATOM     43  C   UNL A   1      42.180  24.531  27.040  1.00  0.00     0.029 A 
ATOM     44  N   UNL A   1      43.158  26.205  28.103  1.00  0.00    -0.354 N 
ATOM     45  C   UNL A   1      47.314  27.407  26.847  1.00  0.00     0.074 A 
ATOM     46  C   UNL A   1      47.046  27.495  25.435  1.00  0.00     0.031 C 
ATOM     47  C   UNL A   1      41.222  25.173  27.748  1.00  0.00     0.029 A 
ATOM     48  C   UNL A   1      41.822  26.305  28.436  1.00  0.00     0.049 A 
ATOM     49  H   UNL A   1      43.857  26.751  28.530  1.00  0.00     0.167 HD
ATOM     50  C   UNL A   1      48.031  28.215  27.668  1.00  0.00     0.037 A 
ATOM     51  C   UNL A   1      41.278  27.333  29.130  1.00  0.00     0.037 A 
ATOM     52  C   UNL A   1      48.110  27.682  29.004  1.00  0.00     0.049 A 
ATOM     53  C   UNL A   1      42.385  28.008  29.869  1.00  0.00     0.074 A 
ATOM     54  C   UNL A   1      48.643  26.529  29.550  1.00  0.00     0.029 A 
ATOM     55  N   UNL A   1      47.256  28.185  29.955  1.00  0.00    -0.354 N 
ATOM     56  N   UNL A   1      43.026  27.466  30.869  1.00  0.00    -0.248 NA
ATOM     57  C   UNL A   1      43.094  29.092  29.200  1.00  0.00     0.031 C 
ATOM     58  C   UNL A   1      47.743  26.156  30.589  1.00  0.00     0.029 A 
ATOM     59  C   UNL A   1      46.732  27.116  30.637  1.00  0.00     0.049 A 
ATOM     60  H   UNL A   1      47.056  29.137  30.117  1.00  0.00     0.167 HD
ATOM     61  C   UNL A   1      44.353  27.844  30.699  1.00  0.00     0.074 A 
ATOM     62  C   UNL A   1      44.318  28.916  29.709  1.00  0.00     0.031 C 
ATOM     63  C   UNL A   1      45.381  27.067  31.152  1.00  0.00     0.037 A 
BRANCH  50  64
ATOM     64  C   UNL A   1      48.381  29.633  27.328  1.00  0.00     0.057 A 
ATOM     65  C   UNL A   1      49.728  29.988  27.167  1.00  0.00     0.134 A 
ATOM     66  C   UNL A   1      47.475  30.711  27.406  1.00  0.00     0.134 A 
ATOM     67  F   UNL A   1      50.685  29.050  27.104  1.00  0.00    -0.206 F 
ATOM     68  C   UNL A   1      50.148  31.322  27.140  1.00  0.00     0.040 A 
ATOM     69  C   UNL A   1      47.877  32.044  27.321  1.00  0.00     0.040 A 
ATOM     70  F   UNL A   1      46.174  30.541  27.671  1.00  0.00    -0.206 F 
ATOM     71  C   UNL A   1      49.222  32.355  27.219  1.00  0.00     0.006 A 
ENDBRANCH  50  64
BRANCH  51  72
ATOM     72  C   UNL A   1      39.950  27.952  28.910  1.00  0.00     0.057 A 
ATOM     73  C   UNL A   1      38.993  27.992  29.932  1.00  0.00     0.134 A 
ATOM     74  C   UNL A   1      39.668  28.733  27.774  1.00  0.00     0.134 A 
ATOM     75  F   UNL A   1      39.189  27.321  31.076  1.00  0.00    -0.206 F 
ATOM     76  C   UNL A   1      37.830  28.770  29.833  1.00  0.00     0.040 A 
ATOM     77  C   UNL A   1      38.507  29.503  27.657  1.00  0.00     0.040 A 
ATOM     78  F   UNL A   1      40.549  28.850  26.769  1.00  0.00    -0.206 F 
ATOM     79  C   UNL A   1      37.588  29.532  28.695  1.00  0.00     0.006 A 
ENDBRANCH  51  72
BRANCH  63  80
ATOM     80  C   UNL A   1      45.039  25.894  32.030  1.00  0.00     0.057 A 
ATOM     81  C   UNL A   1      44.862  25.996  33.419  1.00  0.00     0.134 A 
ATOM     82  C   UNL A   1      44.711  24.668  31.442  1.00  0.00     0.134 A 
ATOM     83  F   UNL A   1      45.040  27.160  34.054  1.00  0.00    -0.206 F 
ATOM     84  C   UNL A   1      44.431  24.914  34.191  1.00  0.00     0.040 A 
ATOM     85  C   UNL A   1      44.245  23.589  32.198  1.00  0.00     0.040 A 
ATOM     86  F   UNL A   1      44.788  24.515  30.110  1.00  0.00    -0.206 F 
ATOM     87  C   UNL A   1      44.115  23.706  33.579  1.00  0.00     0.006 A 
ENDBRANCH  63  80
ENDBRANCH  37  38
ENDBRANCH  30  32
ENDBRANCH  29  30
ENDBRANCH  28  29
ENDBRANCH  27  28
ENDBRANCH  26  27
ENDBRANCH  25  26
ENDBRANCH   1  25
TORSDOF 22
ENDMDL
MODEL 2
REMARK VINA RESULT:     -10.2      3.466      4.915
REMARK SMILES CCc1nn(-c2ccncn2)c(Cl)c1C(=O)OCCOCCOCCOCCOC(=O)c1ccc(-c2c3nc(c(-c4c(F)cccc4F)c4ccc([nH]4)c(-c4c(F)cccc4F)c4nc(c(-c5c(F)cccc5F)c5ccc2[nH]5)C=C4)C=C3)cc1
REMARK SMILES IDX 24 1 23 2 22 3 21 4 20 5 19 6 18 7 17 8 15 9 16 10 14 11
REMARK SMILES IDX 3 12 4 13 5 14 12 15 13 16 2 17 1 18 6 19 7 20 11 21 8 22
REMARK SMILES IDX 10 23 9 24 25 25 26 26 27 27 28 28 29 29 30 30 31 31 32 32
REMARK SMILES IDX 33 33 85 34 34 35 84 36 35 37 36 38 37 39 78 40 38 41 83 42
REMARK SMILES IDX 77 43 79 44 39 45 82 46 76 47 75 48 40 50 66 51 49 52 65 53
REMARK SMILES IDX 50 54 53 55 64 56 80 57 51 58 52 59 63 61 81 62 54 63 41 64
REMARK SMILES IDX 42 65 47 66 43 67 44 68 46 69 48 70 45 71 67 72 68 73 73 74
REMARK SMILES IDX 69 75 70 76 72 77 74 78 71 79 55 80 56 81 61 82 57 83 58 84
REMARK SMILES IDX 60 85 62 86 59 87
REMARK H PARENT 79 49 53 60
REMARK Flexibility Score: inf
ROOT
ATOM      1  C   UNL A   1      38.007  21.370  25.366  1.00  0.00     0.188 C 
ENDROOT
BRANCH   1   2
ATOM      2  O   UNL A   1      36.705  21.950  25.448  1.00  0.00    -0.377 OA
BRANCH   2   3
ATOM      3  C   UNL A   1      36.080  22.419  24.262  1.00  0.00     0.188 C 
BRANCH   3   4
ATOM      4  C   UNL A   1      35.219  23.698  24.349  1.00  0.00     0.188 C 
BRANCH   4   5
ATOM      5  O   UNL A   1      34.719  24.127  23.093  1.00  0.00    -0.376 OA
BRANCH   5   6
ATOM      6  C   UNL A   1      33.559  24.934  23.062  1.00  0.00     0.202 C 
BRANCH   6   7
ATOM      7  C   UNL A   1      32.438  24.608  24.057  1.00  0.00     0.261 C 
BRANCH   7   8
ATOM      8  O   UNL A   1      32.476  25.359  25.276  1.00  0.00    -0.460 OA
BRANCH   8   9
ATOM      9  C   UNL A   1      31.321  25.933  25.695  1.00  0.00     0.343 C 
ATOM     10  O   UNL A   1      30.535  25.405  26.475  1.00  0.00    -0.246 OA
BRANCH   9  11
ATOM     11  C   UNL A   1      31.226  27.305  25.244  1.00  0.00     0.120 A 
ATOM     12  C   UNL A   1      31.890  28.485  25.701  1.00  0.00     0.079 A 
ATOM     13  N   UNL A   1      31.411  29.593  25.107  1.00  0.00    -0.169 NA
ATOM     14  N   UNL A   1      30.471  29.138  24.238  1.00  0.00    -0.203 N 
ATOM     15  C   UNL A   1      30.312  27.781  24.333  1.00  0.00     0.149 A 
ATOM     16  Cl  UNL A   1      29.050  26.990  23.494  1.00  0.00    -0.061 Cl
BRANCH  12  17
ATOM     17  C   UNL A   1      32.926  28.639  26.780  1.00  0.00     0.056 C 
ATOM     18  C   UNL A   1      34.336  28.920  26.284  1.00  0.00     0.011 C 
ENDBRANCH  12  17
BRANCH  14  19
ATOM     19  C   UNL A   1      29.736  30.023  23.412  1.00  0.00     0.158 A 
ATOM     20  C   UNL A   1      29.769  29.822  22.043  1.00  0.00     0.069 A 
ATOM     21  N   UNL A   1      29.194  31.112  24.000  1.00  0.00    -0.217 NA
ATOM     22  C   UNL A   1      29.207  30.828  21.292  1.00  0.00     0.117 A 
ATOM     23  C   UNL A   1      28.664  32.013  23.164  1.00  0.00     0.224 A 
ATOM     24  N   UNL A   1      28.649  31.932  21.825  1.00  0.00    -0.245 NA
ENDBRANCH  14  19
ENDBRANCH   9  11
ENDBRANCH   8   9
ENDBRANCH   7   8
ENDBRANCH   6   7
ENDBRANCH   5   6
ENDBRANCH   4   5
ENDBRANCH   3   4
ENDBRANCH   2   3
ENDBRANCH   1   2
BRANCH   1  25
ATOM     25  C   UNL A   1      38.252  19.890  24.945  1.00  0.00     0.188 C 
BRANCH  25  26
ATOM     26  O   UNL A   1      39.445  19.290  25.439  1.00  0.00    -0.376 OA
BRANCH  26  27
ATOM     27  C   UNL A   1      40.403  20.064  26.139  1.00  0.00     0.202 C 
BRANCH  27  28
ATOM     28  C   UNL A   1      41.828  19.516  26.076  1.00  0.00     0.261 C 
BRANCH  28  29
ATOM     29  O   UNL A   1      42.784  20.539  25.867  1.00  0.00    -0.460 OA
BRANCH  29  30
ATOM     30  C   UNL A   1      43.871  20.146  25.175  1.00  0.00     0.338 C 
ATOM     31  O   UNL A   1      44.219  19.002  24.937  1.00  0.00    -0.246 OA
BRANCH  30  32
ATOM     32  C   UNL A   1      44.642  21.341  24.800  1.00  0.00     0.060 A 
ATOM     33  C   UNL A   1      45.662  21.633  25.700  1.00  0.00     0.016 A 
ATOM     34  C   UNL A   1      43.959  22.326  24.071  1.00  0.00     0.016 A 
ATOM     35  C   UNL A   1      45.647  22.892  26.229  1.00  0.00     0.010 A 
ATOM     36  C   UNL A   1      43.929  23.580  24.611  1.00  0.00     0.010 A 
ATOM     37  C   UNL A   1      44.672  23.785  25.767  1.00  0.00    -0.014 A 
BRANCH  37  38
ATOM     38  C   UNL A   1      44.424  24.937  26.586  1.00  0.00     0.031 A 
ATOM     39  C   UNL A   1      45.522  25.909  26.552  1.00  0.00     0.074 A 
ATOM     40  C   UNL A   1      43.296  25.082  27.298  1.00  0.00     0.049 A 
ATOM     41  N   UNL A   1      46.353  26.182  27.496  1.00  0.00    -0.248 NA
ATOM     42  C   UNL A   1      45.842  26.504  25.249  1.00  0.00     0.031 C 
ATOM     43  C   UNL A   1      42.039  24.337  27.218  1.00  0.00     0.029 A 
ATOM     44  N   UNL A   1      43.033  26.039  28.219  1.00  0.00    -0.354 N 
ATOM     45  C   UNL A   1      47.222  27.119  26.958  1.00  0.00     0.074 A 
ATOM     46  C   UNL A   1      46.969  27.150  25.540  1.00  0.00     0.031 C 
ATOM     47  C   UNL A   1      41.084  25.024  27.889  1.00  0.00     0.029 A 
ATOM     48  C   UNL A   1      41.696  26.175  28.534  1.00  0.00     0.049 A 
ATOM     49  H   UNL A   1      43.737  26.591  28.630  1.00  0.00     0.167 HD
ATOM     50  C   UNL A   1      47.943  27.949  27.751  1.00  0.00     0.037 A 
ATOM     51  C   UNL A   1      41.161  27.241  29.177  1.00  0.00     0.037 A 
ATOM     52  C   UNL A   1      47.999  27.473  29.109  1.00  0.00     0.049 A 
ATOM     53  C   UNL A   1      42.272  27.929  29.898  1.00  0.00     0.074 A 
ATOM     54  C   UNL A   1      48.508  26.336  29.710  1.00  0.00     0.029 A 
ATOM     55  N   UNL A   1      47.144  28.031  30.029  1.00  0.00    -0.354 N 
ATOM     56  N   UNL A   1      42.894  27.420  30.927  1.00  0.00    -0.248 NA
ATOM     57  C   UNL A   1      43.006  28.972  29.190  1.00  0.00     0.031 C 
ATOM     58  C   UNL A   1      47.592  26.023  30.754  1.00  0.00     0.029 A 
ATOM     59  C   UNL A   1      46.596  27.000  30.750  1.00  0.00     0.049 A 
ATOM     60  H   UNL A   1      46.959  28.991  30.147  1.00  0.00     0.167 HD
ATOM     61  C   UNL A   1      44.229  27.769  30.755  1.00  0.00     0.074 A 
ATOM     62  C   UNL A   1      44.222  28.798  29.720  1.00  0.00     0.031 C 
ATOM     63  C   UNL A   1      45.239  26.995  31.252  1.00  0.00     0.037 A 
BRANCH  50  64
ATOM     64  C   UNL A   1      48.320  29.345  27.354  1.00  0.00     0.057 A 
ATOM     65  C   UNL A   1      49.674  29.713  27.337  1.00  0.00     0.134 A 
ATOM     66  C   UNL A   1      47.402  30.409  27.239  1.00  0.00     0.134 A 
ATOM     67  F   UNL A   1      50.639  28.790  27.463  1.00  0.00    -0.206 F 
ATOM     68  C   UNL A   1      50.082  31.048  27.264  1.00  0.00     0.040 A 
ATOM     69  C   UNL A   1      47.799  31.740  27.107  1.00  0.00     0.040 A 
ATOM     70  F   UNL A   1      46.079  30.235  27.351  1.00  0.00    -0.206 F 
ATOM     71  C   UNL A   1      49.143  32.067  27.151  1.00  0.00     0.006 A 
ENDBRANCH  50  64
BRANCH  51  72
ATOM     72  C   UNL A   1      39.847  27.871  28.916  1.00  0.00     0.057 A 
ATOM     73  C   UNL A   1      38.891  27.997  29.932  1.00  0.00     0.134 A 
ATOM     74  C   UNL A   1      39.580  28.583  27.732  1.00  0.00     0.134 A 
ATOM     75  F   UNL A   1      39.074  27.397  31.117  1.00  0.00    -0.206 F 
ATOM     76  C   UNL A   1      37.744  28.789  29.782  1.00  0.00     0.040 A 
ATOM     77  C   UNL A   1      38.435  29.366  27.563  1.00  0.00     0.040 A 
ATOM     78  F   UNL A   1      40.463  28.616  26.722  1.00  0.00    -0.206 F 
ATOM     79  C   UNL A   1      37.517  29.482  28.597  1.00  0.00     0.006 A 
ENDBRANCH  51  72
BRANCH  63  80
ATOM     80  C   UNL A   1      44.869  25.868  32.176  1.00  0.00     0.057 A 
ATOM     81  C   UNL A   1      44.559  24.574  31.730  1.00  0.00     0.134 A 
ATOM     82  C   UNL A   1      44.993  26.045  33.559  1.00  0.00     0.134 A 
ATOM     83  F   UNL A   1      44.531  24.282  30.425  1.00  0.00    -0.206 F 
ATOM     84  C   UNL A   1      44.332  23.519  32.619  1.00  0.00     0.040 A 
ATOM     85  C   UNL A   1      44.804  24.991  34.457  1.00  0.00     0.040 A 
ATOM     86  F   UNL A   1      45.355  27.238  34.058  1.00  0.00    -0.206 F 
ATOM     87  C   UNL A   1      44.460  23.725  33.988  1.00  0.00     0.006 A 
ENDBRANCH  63  80
ENDBRANCH  37  38
ENDBRANCH  30  32
ENDBRANCH  29  30
ENDBRANCH  28  29
ENDBRANCH  27  28
ENDBRANCH  26  27
ENDBRANCH  25  26
ENDBRANCH   1  25
TORSDOF 22
ENDMDL
MODEL 3
REMARK VINA RESULT:     -10.1      5.358      9.878
REMARK SMILES CCc1nn(-c2ccncn2)c(Cl)c1C(=O)OCCOCCOCCOCCOC(=O)c1ccc(-c2c3nc(c(-c4c(F)cccc4F)c4ccc([nH]4)c(-c4c(F)cccc4F)c4nc(c(-c5c(F)cccc5F)c5ccc2[nH]5)C=C4)C=C3)cc1
REMARK SMILES IDX 24 1 23 2 22 3 21 4 20 5 19 6 18 7 17 8 15 9 16 10 14 11
REMARK SMILES IDX 3 12 4 13 5 14 12 15 13 16 2 17 1 18 6 19 7 20 11 21 8 22
REMARK SMILES IDX 10 23 9 24 25 25 26 26 27 27 28 28 29 29 30 30 31 31 32 32
REMARK SMILES IDX 33 33 85 34 34 35 84 36 35 37 36 38 37 39 78 40 38 41 83 42
REMARK SMILES IDX 77 43 79 44 39 45 82 46 76 47 75 48 40 50 66 51 49 52 65 53
REMARK SMILES IDX 50 54 53 55 64 56 80 57 51 58 52 59 63 61 81 62 54 63 41 64
REMARK SMILES IDX 42 65 47 66 43 67 44 68 46 69 48 70 45 71 67 72 68 73 73 74
REMARK SMILES IDX 69 75 70 76 72 77 74 78 71 79 55 80 56 81 61 82 57 83 58 84
REMARK SMILES IDX 60 85 62 86 59 87
REMARK H PARENT 79 49 53 60
REMARK Flexibility Score: inf
ROOT
ATOM      1  C   UNL A   1      33.012  30.956  27.024  1.00  0.00     0.188 C 
ENDROOT
BRANCH   1   2
ATOM      2  O   UNL A   1      32.855  29.578  26.688  1.00  0.00    -0.377 OA
BRANCH   2   3
ATOM      3  C   UNL A   1      31.734  29.177  25.913  1.00  0.00     0.188 C 
BRANCH   3   4
ATOM      4  C   UNL A   1      31.695  27.727  25.383  1.00  0.00     0.188 C 
BRANCH   4   5
ATOM      5  O   UNL A   1      32.060  27.618  24.017  1.00  0.00    -0.376 OA
BRANCH   5   6
ATOM      6  C   UNL A   1      32.870  26.530  23.614  1.00  0.00     0.202 C 
BRANCH   6   7
ATOM      7  C   UNL A   1      32.672  25.190  24.333  1.00  0.00     0.261 C 
BRANCH   7   8
ATOM      8  O   UNL A   1      33.868  24.426  24.524  1.00  0.00    -0.460 OA
BRANCH   8   9
ATOM      9  C   UNL A   1      34.203  23.535  23.558  1.00  0.00     0.343 C 
ATOM     10  O   UNL A   1      34.324  23.822  22.372  1.00  0.00    -0.246 OA
BRANCH   9  11
ATOM     11  C   UNL A   1      34.569  22.257  24.130  1.00  0.00     0.120 A 
ATOM     12  C   UNL A   1      35.823  21.779  24.621  1.00  0.00     0.079 A 
ATOM     13  N   UNL A   1      35.773  20.473  24.940  1.00  0.00    -0.169 NA
ATOM     14  N   UNL A   1      34.486  20.109  24.699  1.00  0.00    -0.203 N 
ATOM     15  C   UNL A   1      33.760  21.145  24.174  1.00  0.00     0.149 A 
ATOM     16  Cl  UNL A   1      32.172  20.891  23.594  1.00  0.00    -0.061 Cl
BRANCH  12  17
ATOM     17  C   UNL A   1      37.142  22.493  24.720  1.00  0.00     0.056 C 
ATOM     18  C   UNL A   1      37.220  23.556  25.805  1.00  0.00     0.011 C 
ENDBRANCH  12  17
BRANCH  14  19
ATOM     19  C   UNL A   1      34.037  18.785  24.922  1.00  0.00     0.158 A 
ATOM     20  C   UNL A   1      34.738  17.746  24.335  1.00  0.00     0.069 A 
ATOM     21  N   UNL A   1      32.848  18.632  25.547  1.00  0.00    -0.217 NA
ATOM     22  C   UNL A   1      34.135  16.513  24.422  1.00  0.00     0.117 A 
ATOM     23  C   UNL A   1      32.372  17.382  25.580  1.00  0.00     0.224 A 
ATOM     24  N   UNL A   1      32.956  16.303  25.037  1.00  0.00    -0.245 NA
ENDBRANCH  14  19
ENDBRANCH   9  11
ENDBRANCH   8   9
ENDBRANCH   7   8
ENDBRANCH   6   7
ENDBRANCH   5   6
ENDBRANCH   4   5
ENDBRANCH   3   4
ENDBRANCH   2   3
ENDBRANCH   1   2
BRANCH   1  25
ATOM     25  C   UNL A   1      34.193  31.490  27.888  1.00  0.00     0.188 C 
BRANCH  25  26
ATOM     26  O   UNL A   1      34.710  32.765  27.520  1.00  0.00    -0.376 OA
BRANCH  26  27
ATOM     27  C   UNL A   1      35.107  33.694  28.513  1.00  0.00     0.202 C 
BRANCH  27  28
ATOM     28  C   UNL A   1      33.979  34.164  29.428  1.00  0.00     0.261 C 
BRANCH  28  29
ATOM     29  O   UNL A   1      34.457  34.948  30.506  1.00  0.00    -0.460 OA
BRANCH  29  30
ATOM     30  C   UNL A   1      33.653  34.951  31.586  1.00  0.00     0.338 C 
ATOM     31  O   UNL A   1      32.491  35.318  31.639  1.00  0.00    -0.246 OA
BRANCH  30  32
ATOM     32  C   UNL A   1      34.433  34.502  32.750  1.00  0.00     0.060 A 
ATOM     33  C   UNL A   1      35.575  35.265  32.965  1.00  0.00     0.016 A 
ATOM     34  C   UNL A   1      34.350  33.138  33.073  1.00  0.00     0.016 A 
ATOM     35  C   UNL A   1      36.751  34.574  33.023  1.00  0.00     0.010 A 
ATOM     36  C   UNL A   1      35.526  32.444  33.110  1.00  0.00     0.010 A 
ATOM     37  C   UNL A   1      36.695  33.176  32.941  1.00  0.00    -0.014 A 
BRANCH  37  38
ATOM     38  C   UNL A   1      37.921  32.507  32.615  1.00  0.00     0.031 A 
ATOM     39  C   UNL A   1      38.863  32.463  33.738  1.00  0.00     0.074 A 
ATOM     40  C   UNL A   1      38.154  31.985  31.401  1.00  0.00     0.049 A 
ATOM     41  N   UNL A   1      39.968  33.113  33.856  1.00  0.00    -0.248 NA
ATOM     42  C   UNL A   1      38.424  31.757  34.947  1.00  0.00     0.031 C 
ATOM     43  C   UNL A   1      37.223  31.731  30.300  1.00  0.00     0.029 A 
ATOM     44  N   UNL A   1      39.324  31.482  30.943  1.00  0.00    -0.354 N 
ATOM     45  C   UNL A   1      40.460  32.772  35.107  1.00  0.00     0.074 A 
ATOM     46  C   UNL A   1      39.398  32.081  35.794  1.00  0.00     0.031 C 
ATOM     47  C   UNL A   1      37.825  30.912  29.405  1.00  0.00     0.029 A 
ATOM     48  C   UNL A   1      39.203  30.696  29.814  1.00  0.00     0.049 A 
ATOM     49  H   UNL A   1      40.188  31.662  31.378  1.00  0.00     0.167 HD
ATOM     50  C   UNL A   1      41.776  32.904  35.408  1.00  0.00     0.037 A 
ATOM     51  C   UNL A   1      40.160  29.852  29.359  1.00  0.00     0.037 A 
ATOM     52  C   UNL A   1      42.450  33.772  34.478  1.00  0.00     0.049 A 
ATOM     53  C   UNL A   1      41.459  30.293  29.945  1.00  0.00     0.074 A 
ATOM     54  C   UNL A   1      42.318  35.105  34.136  1.00  0.00     0.029 A 
ATOM     55  N   UNL A   1      43.177  33.196  33.464  1.00  0.00    -0.354 N 
ATOM     56  N   UNL A   1      42.063  31.404  29.618  1.00  0.00    -0.248 NA
ATOM     57  C   UNL A   1      41.855  29.734  31.232  1.00  0.00     0.031 C 
ATOM     58  C   UNL A   1      42.563  35.158  32.733  1.00  0.00     0.029 A 
ATOM     59  C   UNL A   1      42.859  33.863  32.307  1.00  0.00     0.049 A 
ATOM     60  H   UNL A   1      43.809  32.445  33.551  1.00  0.00     0.167 HD
ATOM     61  C   UNL A   1      42.590  31.895  30.807  1.00  0.00     0.074 A 
ATOM     62  C   UNL A   1      42.508  30.781  31.748  1.00  0.00     0.031 C 
ATOM     63  C   UNL A   1      42.775  33.234  31.007  1.00  0.00     0.037 A 
BRANCH  50  64
ATOM     64  C   UNL A   1      42.499  31.993  36.354  1.00  0.00     0.057 A 
ATOM     65  C   UNL A   1      43.040  32.520  37.536  1.00  0.00     0.134 A 
ATOM     66  C   UNL A   1      42.908  30.682  36.032  1.00  0.00     0.134 A 
ATOM     67  F   UNL A   1      42.743  33.766  37.934  1.00  0.00    -0.206 F 
ATOM     68  C   UNL A   1      43.963  31.812  38.313  1.00  0.00     0.040 A 
ATOM     69  C   UNL A   1      43.783  29.945  36.831  1.00  0.00     0.040 A 
ATOM     70  F   UNL A   1      42.569  30.084  34.883  1.00  0.00    -0.206 F 
ATOM     71  C   UNL A   1      44.338  30.521  37.960  1.00  0.00     0.006 A 
ENDBRANCH  50  64
BRANCH  51  72
ATOM     72  C   UNL A   1      39.953  28.519  28.748  1.00  0.00     0.057 A 
ATOM     73  C   UNL A   1      40.425  28.231  27.462  1.00  0.00     0.134 A 
ATOM     74  C   UNL A   1      39.501  27.415  29.497  1.00  0.00     0.134 A 
ATOM     75  F   UNL A   1      40.922  29.205  26.685  1.00  0.00    -0.206 F 
ATOM     76  C   UNL A   1      40.454  26.925  26.953  1.00  0.00     0.040 A 
ATOM     77  C   UNL A   1      39.513  26.109  28.998  1.00  0.00     0.040 A 
ATOM     78  F   UNL A   1      39.112  27.548  30.773  1.00  0.00    -0.206 F 
ATOM     79  C   UNL A   1      40.002  25.859  27.725  1.00  0.00     0.006 A 
ENDBRANCH  51  72
BRANCH  63  80
ATOM     80  C   UNL A   1      42.595  34.150  29.828  1.00  0.00     0.057 A 
ATOM     81  C   UNL A   1      41.375  34.764  29.506  1.00  0.00     0.134 A 
ATOM     82  C   UNL A   1      43.717  34.557  29.098  1.00  0.00     0.134 A 
ATOM     83  F   UNL A   1      40.271  34.524  30.222  1.00  0.00    -0.206 F 
ATOM     84  C   UNL A   1      41.267  35.701  28.474  1.00  0.00     0.040 A 
ATOM     85  C   UNL A   1      43.630  35.519  28.087  1.00  0.00     0.040 A 
ATOM     86  F   UNL A   1      44.931  34.066  29.394  1.00  0.00    -0.206 F 
ATOM     87  C   UNL A   1      42.399  36.085  27.764  1.00  0.00     0.006 A 
ENDBRANCH  63  80
ENDBRANCH  37  38
ENDBRANCH  30  32
ENDBRANCH  29  30
ENDBRANCH  28  29
ENDBRANCH  27  28
ENDBRANCH  26  27
ENDBRANCH  25  26
ENDBRANCH   1  25
TORSDOF 22
ENDMDL
