MODEL 1
REMARK VINA RESULT:     -11.2      0.000      0.000
REMARK SMILES O=C1CCCC2=C1[C@H](c1ccc([N+](=O)[O-])cc1)CC(=O)N2c1ccccc1C(=O)OCCOCCOCCOCCOC(=O)c1ccc(-c2c3nc(c(-c4c(F)cccc4F)c4ccc([nH]4)c(-c4c(F)cccc4F)c4nc(c(-c5c(F)cccc5F)c5ccc2[nH]5)C=C4)C=C3)cc1
REMARK SMILES IDX 35 1 34 2 33 3 32 4 31 5 30 6 28 7 29 8 27 9 22 10 23 11
REMARK SMILES IDX 24 12 26 13 25 14 21 15 1 16 2 17 3 18 7 19 4 20 6 21 8 22
REMARK SMILES IDX 5 23 18 24 19 25 20 26 9 27 10 28 17 29 11 30 16 31 12 32
REMARK SMILES IDX 13 33 14 34 15 35 36 36 37 37 38 38 39 39 40 40 41 41 42 42
REMARK SMILES IDX 43 43 44 44 45 45 46 46 98 47 47 48 97 49 48 50 49 51 50 52
REMARK SMILES IDX 91 53 51 54 96 55 90 56 92 57 52 58 95 59 89 60 88 61 53 63
REMARK SMILES IDX 79 64 62 65 78 66 63 67 66 68 77 69 93 70 64 71 65 72 76 74
REMARK SMILES IDX 94 75 67 76 54 77 55 78 60 79 56 80 57 81 59 82 61 83 58 84
REMARK SMILES IDX 80 85 81 86 86 87 82 88 83 89 85 90 87 91 84 92 68 93 69 94
REMARK SMILES IDX 74 95 70 96 71 97 73 98 75 99 72 100
REMARK H PARENT 92 62 66 73
REMARK Flexibility Score: inf
ROOT
ATOM      1  C   UNL A   1      40.406  21.105  26.964  1.00  0.00     0.188 C 
ENDROOT
BRANCH   1   2
ATOM      2  C   UNL A   1      39.333  21.794  26.106  1.00  0.00     0.188 C 
BRANCH   2   3
ATOM      3  O   UNL A   1      39.116  23.151  26.491  1.00  0.00    -0.376 OA
BRANCH   3   4
ATOM      4  C   UNL A   1      37.889  23.759  26.126  1.00  0.00     0.202 C 
BRANCH   4   5
ATOM      5  C   UNL A   1      37.259  23.208  24.846  1.00  0.00     0.261 C 
BRANCH   5   6
ATOM      6  O   UNL A   1      35.873  23.523  24.680  1.00  0.00    -0.460 OA
BRANCH   6   7
ATOM      7  C   UNL A   1      35.011  23.034  25.594  1.00  0.00     0.340 C 
ATOM      8  O   UNL A   1      34.890  23.435  26.739  1.00  0.00    -0.246 OA
BRANCH   7   9
ATOM      9  C   UNL A   1      34.155  21.973  24.992  1.00  0.00     0.084 A 
ATOM     10  C   UNL A   1      32.846  22.150  24.484  1.00  0.00     0.063 A 
ATOM     11  C   UNL A   1      32.160  20.998  24.036  1.00  0.00     0.027 A 
ATOM     12  C   UNL A   1      32.728  19.722  24.105  1.00  0.00     0.002 A 
ATOM     13  C   UNL A   1      34.716  20.678  25.054  1.00  0.00     0.018 A 
ATOM     14  C   UNL A   1      34.004  19.560  24.622  1.00  0.00     0.001 A 
BRANCH  10  15
ATOM     15  N   UNL A   1      32.117  23.408  24.435  1.00  0.00    -0.284 N 
ATOM     16  O   UNL A   1      30.687  27.172  21.999  1.00  0.00    -0.294 OA
ATOM     17  C   UNL A   1      31.604  26.407  22.272  1.00  0.00     0.161 C 
ATOM     18  C   UNL A   1      32.872  26.329  21.479  1.00  0.00     0.081 C 
ATOM     19  C   UNL A   1      31.541  25.503  23.448  1.00  0.00     0.023 C 
ATOM     20  C   UNL A   1      32.904  24.925  20.920  1.00  0.00     0.015 C 
ATOM     21  C   UNL A   1      32.127  24.291  23.335  1.00  0.00     0.033 C 
ATOM     22  C   UNL A   1      30.847  26.035  24.670  1.00  0.00     0.064 C 
ATOM     23  C   UNL A   1      32.783  23.860  22.022  1.00  0.00     0.055 C 
ATOM     24  C   UNL A   1      30.368  24.849  25.498  1.00  0.00     0.114 C 
ATOM     25  C   UNL A   1      31.375  23.721  25.606  1.00  0.00     0.232 C 
ATOM     26  O   UNL A   1      31.433  23.085  26.662  1.00  0.00    -0.274 OA
BRANCH  22  27
ATOM     27  C   UNL A   1      31.715  27.089  25.371  1.00  0.00    -0.039 A 
ATOM     28  C   UNL A   1      32.876  26.784  26.086  1.00  0.00     0.011 A 
ATOM     29  C   UNL A   1      31.338  28.452  25.288  1.00  0.00     0.011 A 
ATOM     30  C   UNL A   1      33.654  27.809  26.642  1.00  0.00     0.086 A 
ATOM     31  C   UNL A   1      32.128  29.481  25.806  1.00  0.00     0.086 A 
ATOM     32  C   UNL A   1      33.297  29.148  26.476  1.00  0.00     0.269 A 
BRANCH  32  33
ATOM     33  N   UNL A   1      34.139  30.196  27.040  1.00  0.00     0.062 N 
ATOM     34  O   UNL A   1      33.606  31.293  27.260  1.00  0.00    -0.258 OA
ATOM     35  O   UNL A   1      35.322  29.920  27.276  1.00  0.00    -0.258 OA
ENDBRANCH  32  33
ENDBRANCH  22  27
ENDBRANCH  10  15
ENDBRANCH   7   9
ENDBRANCH   6   7
ENDBRANCH   5   6
ENDBRANCH   4   5
ENDBRANCH   3   4
ENDBRANCH   2   3
ENDBRANCH   1   2
BRANCH   1  36
ATOM     36  O   UNL A   1      40.565  19.714  26.737  1.00  0.00    -0.377 OA
BRANCH  36  37
ATOM     37  C   UNL A   1      41.736  19.342  26.033  1.00  0.00     0.188 C 
BRANCH  37  38
ATOM     38  C   UNL A   1      42.949  20.278  26.215  1.00  0.00     0.188 C 
BRANCH  38  39
ATOM     39  O   UNL A   1      43.778  20.658  25.121  1.00  0.00    -0.376 OA
BRANCH  39  40
ATOM     40  C   UNL A   1      44.196  22.001  24.976  1.00  0.00     0.202 C 
BRANCH  40  41
ATOM     41  C   UNL A   1      43.118  23.074  24.734  1.00  0.00     0.261 C 
BRANCH  41  42
ATOM     42  O   UNL A   1      42.791  23.933  25.840  1.00  0.00    -0.460 OA
BRANCH  42  43
ATOM     43  C   UNL A   1      43.307  25.182  25.800  1.00  0.00     0.338 C 
ATOM     44  O   UNL A   1      44.123  25.618  25.002  1.00  0.00    -0.246 OA
BRANCH  43  45
ATOM     45  C   UNL A   1      42.646  26.021  26.833  1.00  0.00     0.060 A 
ATOM     46  C   UNL A   1      42.982  27.377  26.907  1.00  0.00     0.016 A 
ATOM     47  C   UNL A   1      41.726  25.486  27.743  1.00  0.00     0.016 A 
ATOM     48  C   UNL A   1      42.411  28.190  27.892  1.00  0.00     0.010 A 
ATOM     49  C   UNL A   1      41.177  26.297  28.751  1.00  0.00     0.010 A 
ATOM     50  C   UNL A   1      41.526  27.654  28.843  1.00  0.00    -0.014 A 
BRANCH  50  51
ATOM     51  C   UNL A   1      41.147  28.484  30.023  1.00  0.00     0.031 A 
ATOM     52  C   UNL A   1      42.019  28.416  31.241  1.00  0.00     0.074 A 
ATOM     53  C   UNL A   1      40.088  29.315  30.025  1.00  0.00     0.049 A 
ATOM     54  N   UNL A   1      41.933  29.088  32.359  1.00  0.00    -0.248 NA
ATOM     55  C   UNL A   1      43.117  27.439  31.200  1.00  0.00     0.031 C 
ATOM     56  C   UNL A   1      39.131  29.439  28.942  1.00  0.00     0.029 A 
ATOM     57  N   UNL A   1      39.652  30.236  30.952  1.00  0.00    -0.354 N 
ATOM     58  C   UNL A   1      42.956  28.605  33.161  1.00  0.00     0.074 A 
ATOM     59  C   UNL A   1      43.652  27.589  32.400  1.00  0.00     0.031 C 
ATOM     60  C   UNL A   1      38.287  30.450  29.203  1.00  0.00     0.029 A 
ATOM     61  C   UNL A   1      38.583  30.993  30.523  1.00  0.00     0.049 A 
ATOM     62  H   UNL A   1      40.065  30.342  31.839  1.00  0.00     0.167 HD
ATOM     63  C   UNL A   1      43.268  28.952  34.431  1.00  0.00     0.037 A 
ATOM     64  C   UNL A   1      37.906  31.990  31.129  1.00  0.00     0.037 A 
ATOM     65  C   UNL A   1      42.543  29.916  35.212  1.00  0.00     0.049 A 
ATOM     66  C   UNL A   1      38.259  32.337  32.553  1.00  0.00     0.074 A 
ATOM     67  C   UNL A   1      42.761  30.301  36.523  1.00  0.00     0.029 A 
ATOM     68  N   UNL A   1      41.443  30.631  34.762  1.00  0.00    -0.354 N 
ATOM     69  N   UNL A   1      39.236  31.880  33.298  1.00  0.00    -0.248 NA
ATOM     70  C   UNL A   1      37.384  33.301  33.239  1.00  0.00     0.031 C 
ATOM     71  C   UNL A   1      41.762  31.210  36.883  1.00  0.00     0.029 A 
ATOM     72  C   UNL A   1      40.957  31.438  35.779  1.00  0.00     0.049 A 
ATOM     73  H   UNL A   1      41.064  30.574  33.856  1.00  0.00     0.167 HD
ATOM     74  C   UNL A   1      39.095  32.499  34.534  1.00  0.00     0.074 A 
ATOM     75  C   UNL A   1      37.959  33.392  34.429  1.00  0.00     0.031 C 
ATOM     76  C   UNL A   1      39.829  32.328  35.660  1.00  0.00     0.037 A 
BRANCH  63  77
ATOM     77  C   UNL A   1      44.399  28.204  35.067  1.00  0.00     0.057 A 
ATOM     78  C   UNL A   1      44.208  26.972  35.706  1.00  0.00     0.134 A 
ATOM     79  C   UNL A   1      45.688  28.748  35.077  1.00  0.00     0.134 A 
ATOM     80  F   UNL A   1      42.989  26.413  35.756  1.00  0.00    -0.206 F 
ATOM     81  C   UNL A   1      45.255  26.323  36.361  1.00  0.00     0.040 A 
ATOM     82  C   UNL A   1      46.749  28.096  35.705  1.00  0.00     0.040 A 
ATOM     83  F   UNL A   1      45.935  29.929  34.489  1.00  0.00    -0.206 F 
ATOM     84  C   UNL A   1      46.531  26.886  36.359  1.00  0.00     0.006 A 
ENDBRANCH  63  77
BRANCH  64  85
ATOM     85  C   UNL A   1      36.793  32.709  30.442  1.00  0.00     0.057 A 
ATOM     86  C   UNL A   1      35.454  32.363  30.676  1.00  0.00     0.134 A 
ATOM     87  C   UNL A   1      37.030  33.710  29.492  1.00  0.00     0.134 A 
ATOM     88  F   UNL A   1      35.151  31.389  31.547  1.00  0.00    -0.206 F 
ATOM     89  C   UNL A   1      34.403  32.963  29.978  1.00  0.00     0.040 A 
ATOM     90  C   UNL A   1      35.988  34.347  28.814  1.00  0.00     0.040 A 
ATOM     91  F   UNL A   1      38.285  34.089  29.204  1.00  0.00    -0.206 F 
ATOM     92  C   UNL A   1      34.669  33.965  29.048  1.00  0.00     0.006 A 
ENDBRANCH  64  85
BRANCH  76  93
ATOM     93  C   UNL A   1      39.451  33.144  36.861  1.00  0.00     0.057 A 
ATOM     94  C   UNL A   1      38.486  32.712  37.780  1.00  0.00     0.134 A 
ATOM     95  C   UNL A   1      40.099  34.358  37.127  1.00  0.00     0.134 A 
ATOM     96  F   UNL A   1      37.818  31.567  37.578  1.00  0.00    -0.206 F 
ATOM     97  C   UNL A   1      38.167  33.466  38.911  1.00  0.00     0.040 A 
ATOM     98  C   UNL A   1      39.809  35.106  38.268  1.00  0.00     0.040 A 
ATOM     99  F   UNL A   1      41.038  34.825  36.291  1.00  0.00    -0.206 F 
ATOM    100  C   UNL A   1      38.836  34.663  39.161  1.00  0.00     0.006 A 
ENDBRANCH  76  93
ENDBRANCH  50  51
ENDBRANCH  43  45
ENDBRANCH  42  43
ENDBRANCH  41  42
ENDBRANCH  40  41
ENDBRANCH  39  40
ENDBRANCH  38  39
ENDBRANCH  37  38
ENDBRANCH  36  37
ENDBRANCH   1  36
TORSDOF 23
ENDMDL
MODEL 2
REMARK VINA RESULT:     -11.0      0.863      5.745
REMARK SMILES O=C1CCCC2=C1[C@H](c1ccc([N+](=O)[O-])cc1)CC(=O)N2c1ccccc1C(=O)OCCOCCOCCOCCOC(=O)c1ccc(-c2c3nc(c(-c4c(F)cccc4F)c4ccc([nH]4)c(-c4c(F)cccc4F)c4nc(c(-c5c(F)cccc5F)c5ccc2[nH]5)C=C4)C=C3)cc1
REMARK SMILES IDX 35 1 34 2 33 3 32 4 31 5 30 6 28 7 29 8 27 9 22 10 23 11
REMARK SMILES IDX 24 12 26 13 25 14 21 15 1 16 2 17 3 18 7 19 4 20 6 21 8 22
REMARK SMILES IDX 5 23 18 24 19 25 20 26 9 27 10 28 17 29 11 30 16 31 12 32
REMARK SMILES IDX 13 33 14 34 15 35 36 36 37 37 38 38 39 39 40 40 41 41 42 42
REMARK SMILES IDX 43 43 44 44 45 45 46 46 98 47 47 48 97 49 48 50 49 51 50 52
REMARK SMILES IDX 91 53 51 54 96 55 90 56 92 57 52 58 95 59 89 60 88 61 53 63
REMARK SMILES IDX 79 64 62 65 78 66 63 67 66 68 77 69 93 70 64 71 65 72 76 74
REMARK SMILES IDX 94 75 67 76 54 77 55 78 60 79 56 80 57 81 59 82 61 83 58 84
REMARK SMILES IDX 80 85 81 86 86 87 82 88 83 89 85 90 87 91 84 92 68 93 69 94
REMARK SMILES IDX 74 95 70 96 71 97 73 98 75 99 72 100
REMARK H PARENT 92 62 66 73
REMARK Flexibility Score: inf
ROOT
ATOM      1  C   UNL A   1      40.710  21.535  26.837  1.00  0.00     0.188 C 
ENDROOT
BRANCH   1   2
ATOM      2  C   UNL A   1      39.635  22.016  25.849  1.00  0.00     0.188 C 
BRANCH   2   3
ATOM      3  O   UNL A   1      38.477  22.525  26.510  1.00  0.00    -0.376 OA
BRANCH   3   4
ATOM      4  C   UNL A   1      37.872  23.695  25.986  1.00  0.00     0.202 C 
BRANCH   4   5
ATOM      5  C   UNL A   1      36.837  23.441  24.888  1.00  0.00     0.261 C 
BRANCH   5   6
ATOM      6  O   UNL A   1      35.518  23.902  25.196  1.00  0.00    -0.460 OA
BRANCH   6   7
ATOM      7  C   UNL A   1      34.771  23.142  26.022  1.00  0.00     0.340 C 
ATOM      8  O   UNL A   1      34.679  23.287  27.229  1.00  0.00    -0.246 OA
BRANCH   7   9
ATOM      9  C   UNL A   1      33.996  22.132  25.247  1.00  0.00     0.084 A 
ATOM     10  C   UNL A   1      32.765  22.357  24.585  1.00  0.00     0.063 A 
ATOM     11  C   UNL A   1      32.139  21.243  23.980  1.00  0.00     0.027 A 
ATOM     12  C   UNL A   1      32.688  19.958  24.041  1.00  0.00     0.002 A 
ATOM     13  C   UNL A   1      34.538  20.829  25.300  1.00  0.00     0.018 A 
ATOM     14  C   UNL A   1      33.885  19.749  24.709  1.00  0.00     0.001 A 
BRANCH  10  15
ATOM     15  N   UNL A   1      32.054  23.624  24.523  1.00  0.00    -0.284 N 
ATOM     16  O   UNL A   1      30.734  27.413  22.062  1.00  0.00    -0.294 OA
ATOM     17  C   UNL A   1      31.635  26.635  22.355  1.00  0.00     0.161 C 
ATOM     18  C   UNL A   1      32.920  26.542  21.594  1.00  0.00     0.081 C 
ATOM     19  C   UNL A   1      31.531  25.729  23.527  1.00  0.00     0.023 C 
ATOM     20  C   UNL A   1      32.948  25.139  21.032  1.00  0.00     0.015 C 
ATOM     21  C   UNL A   1      32.103  24.510  23.425  1.00  0.00     0.033 C 
ATOM     22  C   UNL A   1      30.813  26.267  24.733  1.00  0.00     0.064 C 
ATOM     23  C   UNL A   1      32.786  24.073  22.128  1.00  0.00     0.055 C 
ATOM     24  C   UNL A   1      30.299  25.085  25.545  1.00  0.00     0.114 C 
ATOM     25  C   UNL A   1      31.287  23.944  25.676  1.00  0.00     0.232 C 
ATOM     26  O   UNL A   1      31.312  23.305  26.731  1.00  0.00    -0.274 OA
BRANCH  22  27
ATOM     27  C   UNL A   1      31.678  27.308  25.458  1.00  0.00    -0.039 A 
ATOM     28  C   UNL A   1      32.859  26.996  26.136  1.00  0.00     0.011 A 
ATOM     29  C   UNL A   1      31.275  28.666  25.439  1.00  0.00     0.011 A 
ATOM     30  C   UNL A   1      33.631  28.012  26.717  1.00  0.00     0.086 A 
ATOM     31  C   UNL A   1      32.057  29.687  25.982  1.00  0.00     0.086 A 
ATOM     32  C   UNL A   1      33.246  29.350  26.613  1.00  0.00     0.269 A 
BRANCH  32  33
ATOM     33  N   UNL A   1      34.081  30.389  27.202  1.00  0.00     0.062 N 
ATOM     34  O   UNL A   1      33.543  31.480  27.441  1.00  0.00    -0.258 OA
ATOM     35  O   UNL A   1      35.264  30.113  27.438  1.00  0.00    -0.258 OA
ENDBRANCH  32  33
ENDBRANCH  22  27
ENDBRANCH  10  15
ENDBRANCH   7   9
ENDBRANCH   6   7
ENDBRANCH   5   6
ENDBRANCH   4   5
ENDBRANCH   3   4
ENDBRANCH   2   3
ENDBRANCH   1   2
BRANCH   1  36
ATOM     36  O   UNL A   1      41.281  20.270  26.546  1.00  0.00    -0.377 OA
BRANCH  36  37
ATOM     37  C   UNL A   1      42.671  20.276  26.274  1.00  0.00     0.188 C 
BRANCH  37  38
ATOM     38  C   UNL A   1      43.237  21.605  25.734  1.00  0.00     0.188 C 
BRANCH  38  39
ATOM     39  O   UNL A   1      44.362  22.242  26.331  1.00  0.00    -0.376 OA
BRANCH  39  40
ATOM     40  C   UNL A   1      44.604  23.618  26.110  1.00  0.00     0.202 C 
BRANCH  40  41
ATOM     41  C   UNL A   1      43.603  24.400  25.239  1.00  0.00     0.261 C 
BRANCH  41  42
ATOM     42  O   UNL A   1      43.086  25.628  25.780  1.00  0.00    -0.460 OA
BRANCH  42  43
ATOM     43  C   UNL A   1      41.742  25.768  25.770  1.00  0.00     0.338 C 
ATOM     44  O   UNL A   1      40.948  25.207  25.030  1.00  0.00    -0.246 OA
BRANCH  43  45
ATOM     45  C   UNL A   1      41.330  26.650  26.892  1.00  0.00     0.060 A 
ATOM     46  C   UNL A   1      41.756  27.982  26.885  1.00  0.00     0.016 A 
ATOM     47  C   UNL A   1      40.559  26.176  27.961  1.00  0.00     0.016 A 
ATOM     48  C   UNL A   1      41.424  28.833  27.946  1.00  0.00     0.010 A 
ATOM     49  C   UNL A   1      40.251  27.024  29.040  1.00  0.00     0.010 A 
ATOM     50  C   UNL A   1      40.693  28.356  29.048  1.00  0.00    -0.014 A 
BRANCH  50  51
ATOM     51  C   UNL A   1      40.585  29.212  30.264  1.00  0.00     0.031 A 
ATOM     52  C   UNL A   1      39.459  30.201  30.333  1.00  0.00     0.074 A 
ATOM     53  C   UNL A   1      41.422  29.105  31.313  1.00  0.00     0.049 A 
ATOM     54  N   UNL A   1      39.121  31.003  31.307  1.00  0.00    -0.248 NA
ATOM     55  C   UNL A   1      38.624  30.317  29.128  1.00  0.00     0.031 C 
ATOM     56  C   UNL A   1      42.582  28.235  31.360  1.00  0.00     0.029 A 
ATOM     57  N   UNL A   1      41.415  29.705  32.552  1.00  0.00    -0.354 N 
ATOM     58  C   UNL A   1      38.041  31.732  30.829  1.00  0.00     0.074 A 
ATOM     59  C   UNL A   1      37.779  31.271  29.482  1.00  0.00     0.031 C 
ATOM     60  C   UNL A   1      43.115  28.263  32.593  1.00  0.00     0.029 A 
ATOM     61  C   UNL A   1      42.388  29.230  33.406  1.00  0.00     0.049 A 
ATOM     62  H   UNL A   1      40.775  30.409  32.804  1.00  0.00     0.167 HD
ATOM     63  C   UNL A   1      37.351  32.720  31.444  1.00  0.00     0.037 A 
ATOM     64  C   UNL A   1      42.676  29.552  34.684  1.00  0.00     0.037 A 
ATOM     65  C   UNL A   1      37.647  33.221  32.758  1.00  0.00     0.049 A 
ATOM     66  C   UNL A   1      41.908  30.673  35.334  1.00  0.00     0.074 A 
ATOM     67  C   UNL A   1      37.027  34.250  33.445  1.00  0.00     0.029 A 
ATOM     68  N   UNL A   1      38.662  32.748  33.575  1.00  0.00    -0.354 N 
ATOM     69  N   UNL A   1      40.882  31.349  34.875  1.00  0.00    -0.248 NA
ATOM     70  C   UNL A   1      42.369  31.115  36.660  1.00  0.00     0.031 C 
ATOM     71  C   UNL A   1      37.701  34.434  34.656  1.00  0.00     0.029 A 
ATOM     72  C   UNL A   1      38.702  33.480  34.751  1.00  0.00     0.049 A 
ATOM     73  H   UNL A   1      39.266  32.003  33.353  1.00  0.00     0.167 HD
ATOM     74  C   UNL A   1      40.575  32.289  35.851  1.00  0.00     0.074 A 
ATOM     75  C   UNL A   1      41.501  32.075  36.945  1.00  0.00     0.031 C 
ATOM     76  C   UNL A   1      39.625  33.253  35.835  1.00  0.00     0.037 A 
BRANCH  63  77
ATOM     77  C   UNL A   1      36.265  33.370  30.644  1.00  0.00     0.057 A 
ATOM     78  C   UNL A   1      34.909  33.119  30.891  1.00  0.00     0.134 A 
ATOM     79  C   UNL A   1      36.585  34.225  29.583  1.00  0.00     0.134 A 
ATOM     80  F   UNL A   1      34.540  32.284  31.875  1.00  0.00    -0.206 F 
ATOM     81  C   UNL A   1      33.910  33.671  30.089  1.00  0.00     0.040 A 
ATOM     82  C   UNL A   1      35.595  34.804  28.791  1.00  0.00     0.040 A 
ATOM     83  F   UNL A   1      37.866  34.499  29.291  1.00  0.00    -0.206 F 
ATOM     84  C   UNL A   1      34.254  34.519  29.036  1.00  0.00     0.006 A 
ENDBRANCH  63  77
BRANCH  64  85
ATOM     85  C   UNL A   1      43.764  28.861  35.437  1.00  0.00     0.057 A 
ATOM     86  C   UNL A   1      45.096  29.293  35.343  1.00  0.00     0.134 A 
ATOM     87  C   UNL A   1      43.523  27.722  36.213  1.00  0.00     0.134 A 
ATOM     88  F   UNL A   1      45.409  30.357  34.589  1.00  0.00    -0.206 F 
ATOM     89  C   UNL A   1      46.141  28.608  35.968  1.00  0.00     0.040 A 
ATOM     90  C   UNL A   1      44.552  27.049  36.877  1.00  0.00     0.040 A 
ATOM     91  F   UNL A   1      42.277  27.240  36.342  1.00  0.00    -0.206 F 
ATOM     92  C   UNL A   1      45.868  27.484  36.745  1.00  0.00     0.006 A 
ENDBRANCH  64  85
BRANCH  76  93
ATOM     93  C   UNL A   1      39.512  34.133  37.046  1.00  0.00     0.057 A 
ATOM     94  C   UNL A   1      40.108  35.400  37.102  1.00  0.00     0.134 A 
ATOM     95  C   UNL A   1      38.756  33.724  38.152  1.00  0.00     0.134 A 
ATOM     96  F   UNL A   1      40.857  35.847  36.083  1.00  0.00    -0.206 F 
ATOM     97  C   UNL A   1      39.969  36.221  38.223  1.00  0.00     0.040 A 
ATOM     98  C   UNL A   1      38.586  34.548  39.266  1.00  0.00     0.040 A 
ATOM     99  F   UNL A   1      38.154  32.525  38.160  1.00  0.00    -0.206 F 
ATOM    100  C   UNL A   1      39.198  35.799  39.305  1.00  0.00     0.006 A 
ENDBRANCH  76  93
ENDBRANCH  50  51
ENDBRANCH  43  45
ENDBRANCH  42  43
ENDBRANCH  41  42
ENDBRANCH  40  41
ENDBRANCH  39  40
ENDBRANCH  38  39
ENDBRANCH  37  38
ENDBRANCH  36  37
ENDBRANCH   1  36
TORSDOF 23
ENDMDL
MODEL 3
REMARK VINA RESULT:     -10.2      1.191      5.806
REMARK SMILES O=C1CCCC2=C1[C@H](c1ccc([N+](=O)[O-])cc1)CC(=O)N2c1ccccc1C(=O)OCCOCCOCCOCCOC(=O)c1ccc(-c2c3nc(c(-c4c(F)cccc4F)c4ccc([nH]4)c(-c4c(F)cccc4F)c4nc(c(-c5c(F)cccc5F)c5ccc2[nH]5)C=C4)C=C3)cc1
REMARK SMILES IDX 35 1 34 2 33 3 32 4 31 5 30 6 28 7 29 8 27 9 22 10 23 11
REMARK SMILES IDX 24 12 26 13 25 14 21 15 1 16 2 17 3 18 7 19 4 20 6 21 8 22
REMARK SMILES IDX 5 23 18 24 19 25 20 26 9 27 10 28 17 29 11 30 16 31 12 32
REMARK SMILES IDX 13 33 14 34 15 35 36 36 37 37 38 38 39 39 40 40 41 41 42 42
REMARK SMILES IDX 43 43 44 44 45 45 46 46 98 47 47 48 97 49 48 50 49 51 50 52
REMARK SMILES IDX 91 53 51 54 96 55 90 56 92 57 52 58 95 59 89 60 88 61 53 63
REMARK SMILES IDX 79 64 62 65 78 66 63 67 66 68 77 69 93 70 64 71 65 72 76 74
REMARK SMILES IDX 94 75 67 76 54 77 55 78 60 79 56 80 57 81 59 82 61 83 58 84
REMARK SMILES IDX 80 85 81 86 86 87 82 88 83 89 85 90 87 91 84 92 68 93 69 94
REMARK SMILES IDX 74 95 70 96 71 97 73 98 75 99 72 100
REMARK H PARENT 92 62 66 73
REMARK Flexibility Score: inf
ROOT
ATOM      1  C   UNL A   1      41.755  23.304  27.770  1.00  0.00     0.188 C 
ENDROOT
BRANCH   1   2
ATOM      2  C   UNL A   1      40.222  23.371  27.866  1.00  0.00     0.188 C 
BRANCH   2   3
ATOM      3  O   UNL A   1      39.611  23.678  26.613  1.00  0.00    -0.376 OA
BRANCH   3   4
ATOM      4  C   UNL A   1      38.552  22.848  26.168  1.00  0.00     0.202 C 
BRANCH   4   5
ATOM      5  C   UNL A   1      37.394  23.593  25.500  1.00  0.00     0.261 C 
BRANCH   5   6
ATOM      6  O   UNL A   1      36.366  22.748  24.975  1.00  0.00    -0.460 OA
BRANCH   6   7
ATOM      7  C   UNL A   1      35.146  22.826  25.544  1.00  0.00     0.340 C 
ATOM      8  O   UNL A   1      34.793  23.672  26.348  1.00  0.00    -0.246 OA
BRANCH   7   9
ATOM      9  C   UNL A   1      34.245  21.774  24.997  1.00  0.00     0.084 A 
ATOM     10  C   UNL A   1      32.900  21.957  24.595  1.00  0.00     0.063 A 
ATOM     11  C   UNL A   1      32.181  20.810  24.187  1.00  0.00     0.027 A 
ATOM     12  C   UNL A   1      32.751  19.533  24.195  1.00  0.00     0.002 A 
ATOM     13  C   UNL A   1      34.808  20.478  24.999  1.00  0.00     0.018 A 
ATOM     14  C   UNL A   1      34.064  19.365  24.610  1.00  0.00     0.001 A 
BRANCH  10  15
ATOM     15  N   UNL A   1      32.171  23.215  24.620  1.00  0.00    -0.284 N 
ATOM     16  O   UNL A   1      30.685  27.083  22.386  1.00  0.00    -0.294 OA
ATOM     17  C   UNL A   1      31.609  26.307  22.603  1.00  0.00     0.161 C 
ATOM     18  C   UNL A   1      32.857  26.264  21.779  1.00  0.00     0.081 C 
ATOM     19  C   UNL A   1      31.573  25.352  23.740  1.00  0.00     0.023 C 
ATOM     20  C   UNL A   1      32.875  24.886  21.157  1.00  0.00     0.015 C 
ATOM     21  C   UNL A   1      32.155  24.146  23.559  1.00  0.00     0.033 C 
ATOM     22  C   UNL A   1      30.908  25.828  25.000  1.00  0.00     0.064 C 
ATOM     23  C   UNL A   1      32.780  23.773  22.214  1.00  0.00     0.055 C 
ATOM     24  C   UNL A   1      30.449  24.607  25.786  1.00  0.00     0.114 C 
ATOM     25  C   UNL A   1      31.457  23.475  25.821  1.00  0.00     0.232 C 
ATOM     26  O   UNL A   1      31.540  22.794  26.846  1.00  0.00    -0.274 OA
BRANCH  22  27
ATOM     27  C   UNL A   1      31.794  26.851  25.726  1.00  0.00    -0.039 A 
ATOM     28  C   UNL A   1      33.190  26.792  25.742  1.00  0.00     0.011 A 
ATOM     29  C   UNL A   1      31.177  27.926  26.413  1.00  0.00     0.011 A 
ATOM     30  C   UNL A   1      33.933  27.802  26.370  1.00  0.00     0.086 A 
ATOM     31  C   UNL A   1      31.910  28.954  27.008  1.00  0.00     0.086 A 
ATOM     32  C   UNL A   1      33.296  28.889  26.972  1.00  0.00     0.269 A 
BRANCH  32  33
ATOM     33  N   UNL A   1      34.094  29.939  27.593  1.00  0.00     0.062 N 
ATOM     34  O   UNL A   1      35.269  29.665  27.877  1.00  0.00    -0.258 OA
ATOM     35  O   UNL A   1      33.554  31.037  27.783  1.00  0.00    -0.258 OA
ENDBRANCH  32  33
ENDBRANCH  22  27
ENDBRANCH  10  15
ENDBRANCH   7   9
ENDBRANCH   6   7
ENDBRANCH   5   6
ENDBRANCH   4   5
ENDBRANCH   3   4
ENDBRANCH   2   3
ENDBRANCH   1   2
BRANCH   1  36
ATOM     36  O   UNL A   1      42.318  22.012  27.922  1.00  0.00    -0.377 OA
BRANCH  36  37
ATOM     37  C   UNL A   1      42.617  21.333  26.716  1.00  0.00     0.188 C 
BRANCH  37  38
ATOM     38  C   UNL A   1      42.596  22.200  25.440  1.00  0.00     0.188 C 
BRANCH  38  39
ATOM     39  O   UNL A   1      43.764  22.408  24.651  1.00  0.00    -0.376 OA
BRANCH  39  40
ATOM     40  C   UNL A   1      44.309  23.705  24.513  1.00  0.00     0.202 C 
BRANCH  40  41
ATOM     41  C   UNL A   1      43.523  24.890  25.105  1.00  0.00     0.261 C 
BRANCH  41  42
ATOM     42  O   UNL A   1      44.054  25.495  26.297  1.00  0.00    -0.460 OA
BRANCH  42  43
ATOM     43  C   UNL A   1      44.317  26.819  26.230  1.00  0.00     0.338 C 
ATOM     44  O   UNL A   1      44.919  27.407  25.346  1.00  0.00    -0.246 OA
BRANCH  43  45
ATOM     45  C   UNL A   1      43.659  27.510  27.370  1.00  0.00     0.060 A 
ATOM     46  C   UNL A   1      43.755  28.903  27.451  1.00  0.00     0.016 A 
ATOM     47  C   UNL A   1      42.978  26.804  28.370  1.00  0.00     0.016 A 
ATOM     48  C   UNL A   1      43.185  29.586  28.531  1.00  0.00     0.010 A 
ATOM     49  C   UNL A   1      42.431  27.489  29.469  1.00  0.00     0.010 A 
ATOM     50  C   UNL A   1      42.542  28.885  29.566  1.00  0.00    -0.014 A 
BRANCH  50  51
ATOM     51  C   UNL A   1      42.181  29.616  30.814  1.00  0.00     0.031 A 
ATOM     52  C   UNL A   1      40.866  30.338  30.853  1.00  0.00     0.074 A 
ATOM     53  C   UNL A   1      42.957  29.619  31.914  1.00  0.00     0.049 A 
ATOM     54  N   UNL A   1      40.306  30.986  31.841  1.00  0.00    -0.248 NA
ATOM     55  C   UNL A   1      40.099  30.355  29.599  1.00  0.00     0.031 C 
ATOM     56  C   UNL A   1      44.272  29.012  31.999  1.00  0.00     0.029 A 
ATOM     57  N   UNL A   1      42.748  30.121  33.179  1.00  0.00    -0.354 N 
ATOM     58  C   UNL A   1      39.126  31.500  31.325  1.00  0.00     0.074 A 
ATOM     59  C   UNL A   1      39.049  31.085  29.941  1.00  0.00     0.031 C 
ATOM     60  C   UNL A   1      44.712  29.070  33.266  1.00  0.00     0.029 A 
ATOM     61  C   UNL A   1      43.748  29.806  34.074  1.00  0.00     0.049 A 
ATOM     62  H   UNL A   1      41.958  30.656  33.420  1.00  0.00     0.167 HD
ATOM     63  C   UNL A   1      38.204  32.277  31.939  1.00  0.00     0.037 A 
ATOM     64  C   UNL A   1      43.884  30.096  35.385  1.00  0.00     0.037 A 
ATOM     65  C   UNL A   1      38.307  32.742  33.295  1.00  0.00     0.049 A 
ATOM     66  C   UNL A   1      42.856  30.985  36.036  1.00  0.00     0.074 A 
ATOM     67  C   UNL A   1      37.441  33.568  33.989  1.00  0.00     0.029 A 
ATOM     68  N   UNL A   1      39.350  32.440  34.158  1.00  0.00    -0.354 N 
ATOM     69  N   UNL A   1      41.738  31.457  35.540  1.00  0.00    -0.248 NA
ATOM     70  C   UNL A   1      43.132  31.425  37.412  1.00  0.00     0.031 C 
ATOM     71  C   UNL A   1      37.987  33.810  35.253  1.00  0.00     0.029 A 
ATOM     72  C   UNL A   1      39.162  33.085  35.370  1.00  0.00     0.049 A 
ATOM     73  H   UNL A   1      40.112  31.855  33.941  1.00  0.00     0.167 HD
ATOM     74  C   UNL A   1      41.179  32.245  36.539  1.00  0.00     0.074 A 
ATOM     75  C   UNL A   1      42.063  32.159  37.684  1.00  0.00     0.031 C 
ATOM     76  C   UNL A   1      40.046  32.986  36.504  1.00  0.00     0.037 A 
BRANCH  63  77
ATOM     77  C   UNL A   1      37.053  32.735  31.098  1.00  0.00     0.057 A 
ATOM     78  C   UNL A   1      37.151  33.843  30.246  1.00  0.00     0.134 A 
ATOM     79  C   UNL A   1      35.817  32.084  31.179  1.00  0.00     0.134 A 
ATOM     80  F   UNL A   1      38.301  34.528  30.149  1.00  0.00    -0.206 F 
ATOM     81  C   UNL A   1      36.048  34.306  29.528  1.00  0.00     0.040 A 
ATOM     82  C   UNL A   1      34.715  32.521  30.444  1.00  0.00     0.040 A 
ATOM     83  F   UNL A   1      35.657  31.021  31.982  1.00  0.00    -0.206 F 
ATOM     84  C   UNL A   1      34.826  33.641  29.625  1.00  0.00     0.006 A 
ENDBRANCH  63  77
BRANCH  64  85
ATOM     85  C   UNL A   1      45.049  29.602  36.177  1.00  0.00     0.057 A 
ATOM     86  C   UNL A   1      44.978  28.397  36.893  1.00  0.00     0.134 A 
ATOM     87  C   UNL A   1      46.233  30.339  36.295  1.00  0.00     0.134 A 
ATOM     88  F   UNL A   1      43.863  27.654  36.855  1.00  0.00    -0.206 F 
ATOM     89  C   UNL A   1      46.025  27.961  37.710  1.00  0.00     0.040 A 
ATOM     90  C   UNL A   1      47.304  29.897  37.077  1.00  0.00     0.040 A 
ATOM     91  F   UNL A   1      46.373  31.507  35.651  1.00  0.00    -0.206 F 
ATOM     92  C   UNL A   1      47.196  28.709  37.798  1.00  0.00     0.006 A 
ENDBRANCH  64  85
BRANCH  76  93
ATOM     93  C   UNL A   1      39.676  33.740  37.748  1.00  0.00     0.057 A 
ATOM     94  C   UNL A   1      40.218  34.997  38.045  1.00  0.00     0.134 A 
ATOM     95  C   UNL A   1      38.726  33.220  38.637  1.00  0.00     0.134 A 
ATOM     96  F   UNL A   1      41.144  35.547  37.243  1.00  0.00    -0.206 F 
ATOM     97  C   UNL A   1      39.841  35.702  39.189  1.00  0.00     0.040 A 
ATOM     98  C   UNL A   1      38.320  33.928  39.769  1.00  0.00     0.040 A 
ATOM     99  F   UNL A   1      38.163  32.024  38.408  1.00  0.00    -0.206 F 
ATOM    100  C   UNL A   1      38.883  35.171  40.050  1.00  0.00     0.006 A 
ENDBRANCH  76  93
ENDBRANCH  50  51
ENDBRANCH  43  45
ENDBRANCH  42  43
ENDBRANCH  41  42
ENDBRANCH  40  41
ENDBRANCH  39  40
ENDBRANCH  38  39
ENDBRANCH  37  38
ENDBRANCH  36  37
ENDBRANCH   1  36
TORSDOF 23
ENDMDL
