MODEL 1
REMARK VINA RESULT:      -9.9      0.000      0.000
REMARK SMILES Cc1ccc(S(=O)(=O)n2cc(C(=O)C(=O)N[C@@H](Cc3cnc[nH]3)C(=O)OCCOCCOCCOCCOC(=O)c3ccc(-c4c5nc(c(-c6c(F)cccc6F)c6ccc([nH]6)c(-c6c(F)cccc6F)c6nc(c(-c7c(F)cccc7F)c7ccc4[nH]7)C=C6)C=C5)cc3)c3ccccc32)cc1
REMARK SMILES IDX 30 1 29 2 28 3 27 4 26 5 24 6 25 7 17 8 16 9 14 10 15 11
REMARK SMILES IDX 12 13 13 14 11 15 9 16 10 17 100 18 95 19 99 20 96 21 98 22
REMARK SMILES IDX 97 23 6 24 7 25 8 26 5 27 1 28 2 29 3 30 102 31 4 32 101 33
REMARK SMILES IDX 18 34 19 35 20 36 23 37 21 38 22 39 31 41 32 42 33 43 34 44
REMARK SMILES IDX 35 45 36 46 37 47 38 48 39 49 40 50 41 51 42 52 94 53 43 54
REMARK SMILES IDX 93 55 44 56 45 57 46 58 87 59 47 60 92 61 86 62 88 63 48 64
REMARK SMILES IDX 91 65 85 66 84 67 49 69 75 70 58 71 74 72 59 73 62 74 73 75
REMARK SMILES IDX 89 76 60 77 61 78 72 80 90 81 63 82 50 83 51 84 56 85 52 86
REMARK SMILES IDX 53 87 55 88 57 89 54 90 76 91 77 92 82 93 78 94 79 95 81 96
REMARK SMILES IDX 83 97 80 98 64 99 65 100 70 101 66 102 67 103 69 104 71 105
REMARK SMILES IDX 68 106
REMARK H PARENT 16 12 23 40 88 68 62 79
REMARK Flexibility Score: inf
ROOT
ATOM      1  C   UNL A   1      31.995  23.132  27.438  1.00  0.00     0.188 C 
ENDROOT
BRANCH   1   2
ATOM      2  O   UNL A   1      32.920  22.141  27.018  1.00  0.00    -0.376 OA
BRANCH   2   3
ATOM      3  C   UNL A   1      32.342  21.060  26.286  1.00  0.00     0.202 C 
BRANCH   3   4
ATOM      4  C   UNL A   1      33.280  19.909  25.926  1.00  0.00     0.261 C 
BRANCH   4   5
ATOM      5  O   UNL A   1      33.990  20.234  24.711  1.00  0.00    -0.462 OA
BRANCH   5   6
ATOM      6  C   UNL A   1      33.275  20.962  23.817  1.00  0.00     0.329 C 
ATOM      7  O   UNL A   1      32.373  20.502  23.122  1.00  0.00    -0.250 OA
BRANCH   6   8
ATOM      8  C   UNL A   1      33.773  22.413  23.687  1.00  0.00     0.198 C 
BRANCH   8   9
ATOM      9  N   UNL A   1      35.038  22.658  22.969  1.00  0.00    -0.335 N 
ATOM     10  C   UNL A   1      36.226  23.167  23.469  1.00  0.00     0.293 C 
ATOM     11  O   UNL A   1      37.123  23.510  22.708  1.00  0.00    -0.265 OA
ATOM     12  H   UNL A   1      35.039  22.430  22.010  1.00  0.00     0.164 HD
BRANCH  10  13
ATOM     13  C   UNL A   1      36.441  23.229  25.003  1.00  0.00     0.252 C 
ATOM     14  O   UNL A   1      35.487  23.596  25.686  1.00  0.00    -0.283 OA
BRANCH  13  15
ATOM     15  C   UNL A   1      37.676  22.798  25.684  1.00  0.00     0.054 A 
ATOM     16  N   UNL A   1      39.477  21.677  26.400  1.00  0.00    -0.240 N 
ATOM     17  C   UNL A   1      38.322  21.573  25.653  1.00  0.00     0.117 A 
ATOM     18  C   UNL A   1      39.645  22.960  26.875  1.00  0.00     0.065 A 
ATOM     19  C   UNL A   1      38.466  23.640  26.550  1.00  0.00     0.012 A 
ATOM     20  C   UNL A   1      40.693  23.593  27.568  1.00  0.00     0.028 A 
ATOM     21  C   UNL A   1      38.291  24.953  27.040  1.00  0.00     0.011 A 
ATOM     22  C   UNL A   1      40.497  24.903  28.015  1.00  0.00     0.002 A 
ATOM     23  C   UNL A   1      39.301  25.568  27.779  1.00  0.00     0.001 A 
BRANCH  16  24
ATOM     24  S   UNL A   1      40.621  20.419  26.533  1.00  0.00     0.268 S 
ATOM     25  O   UNL A   1      40.118  19.385  25.628  1.00  0.00    -0.201 OA
ATOM     26  O   UNL A   1      40.799  20.188  27.940  1.00  0.00    -0.201 OA
BRANCH  24  27
ATOM     27  C   UNL A   1      42.188  20.961  25.893  1.00  0.00     0.088 A 
ATOM     28  C   UNL A   1      46.035  21.954  24.223  1.00  0.00     0.044 C 
ATOM     29  C   UNL A   1      44.696  21.622  24.817  1.00  0.00    -0.051 A 
ATOM     30  C   UNL A   1      44.459  20.335  25.313  1.00  0.00     0.005 A 
ATOM     31  C   UNL A   1      43.677  22.580  24.895  1.00  0.00     0.005 A 
ATOM     32  C   UNL A   1      43.210  20.003  25.842  1.00  0.00     0.022 A 
ATOM     33  C   UNL A   1      42.429  22.261  25.446  1.00  0.00     0.022 A 
ENDBRANCH  24  27
ENDBRANCH  16  24
ENDBRANCH  13  15
ENDBRANCH  10  13
ENDBRANCH   8   9
BRANCH   8  34
ATOM     34  C   UNL A   1      32.600  23.287  23.198  1.00  0.00     0.092 C 
BRANCH  34  35
ATOM     35  C   UNL A   1      32.941  24.458  22.340  1.00  0.00     0.037 A 
ATOM     36  C   UNL A   1      33.624  25.625  22.612  1.00  0.00     0.134 A 
ATOM     37  N   UNL A   1      32.492  24.616  21.054  1.00  0.00    -0.348 N 
ATOM     38  N   UNL A   1      33.569  26.485  21.548  1.00  0.00    -0.245 NA
ATOM     39  C   UNL A   1      32.862  25.862  20.635  1.00  0.00     0.196 A 
ATOM     40  H   UNL A   1      31.992  23.951  20.528  1.00  0.00     0.167 HD
ENDBRANCH  34  35
ENDBRANCH   8  34
ENDBRANCH   6   8
ENDBRANCH   5   6
ENDBRANCH   4   5
ENDBRANCH   3   4
ENDBRANCH   2   3
ENDBRANCH   1   2
BRANCH   1  41
ATOM     41  C   UNL A   1      31.445  24.113  26.394  1.00  0.00     0.188 C 
BRANCH  41  42
ATOM     42  O   UNL A   1      30.138  24.629  26.551  1.00  0.00    -0.377 OA
BRANCH  42  43
ATOM     43  C   UNL A   1      29.947  25.935  26.007  1.00  0.00     0.188 C 
BRANCH  43  44
ATOM     44  C   UNL A   1      30.957  26.347  24.942  1.00  0.00     0.188 C 
BRANCH  44  45
ATOM     45  O   UNL A   1      31.288  27.723  25.158  1.00  0.00    -0.376 OA
BRANCH  45  46
ATOM     46  C   UNL A   1      32.667  27.980  25.412  1.00  0.00     0.202 C 
BRANCH  46  47
ATOM     47  C   UNL A   1      32.910  29.139  26.388  1.00  0.00     0.261 C 
BRANCH  47  48
ATOM     48  O   UNL A   1      34.135  28.886  27.101  1.00  0.00    -0.460 OA
BRANCH  48  49
ATOM     49  C   UNL A   1      34.686  29.963  27.719  1.00  0.00     0.338 C 
ATOM     50  O   UNL A   1      34.252  31.103  27.687  1.00  0.00    -0.246 OA
BRANCH  49  51
ATOM     51  C   UNL A   1      36.061  29.619  28.190  1.00  0.00     0.060 A 
ATOM     52  C   UNL A   1      36.262  29.333  29.550  1.00  0.00     0.016 A 
ATOM     53  C   UNL A   1      37.163  29.862  27.370  1.00  0.00     0.016 A 
ATOM     54  C   UNL A   1      37.542  29.440  30.112  1.00  0.00     0.010 A 
ATOM     55  C   UNL A   1      38.419  30.026  27.942  1.00  0.00     0.010 A 
ATOM     56  C   UNL A   1      38.609  29.892  29.328  1.00  0.00    -0.014 A 
BRANCH  56  57
ATOM     57  C   UNL A   1      39.829  30.517  29.883  1.00  0.00     0.031 A 
ATOM     58  C   UNL A   1      39.832  31.873  30.509  1.00  0.00     0.074 A 
ATOM     59  C   UNL A   1      40.886  29.707  30.156  1.00  0.00     0.049 A 
ATOM     60  N   UNL A   1      40.903  32.442  30.961  1.00  0.00    -0.248 NA
ATOM     61  C   UNL A   1      38.657  32.723  30.682  1.00  0.00     0.031 C 
ATOM     62  C   UNL A   1      41.929  29.925  31.161  1.00  0.00     0.029 A 
ATOM     63  N   UNL A   1      41.261  28.489  29.597  1.00  0.00    -0.354 N 
ATOM     64  C   UNL A   1      40.532  33.468  31.792  1.00  0.00     0.074 A 
ATOM     65  C   UNL A   1      39.150  33.705  31.450  1.00  0.00     0.031 C 
ATOM     66  C   UNL A   1      42.845  28.957  31.094  1.00  0.00     0.029 A 
ATOM     67  C   UNL A   1      42.617  28.271  29.854  1.00  0.00     0.049 A 
ATOM     68  H   UNL A   1      40.668  27.879  29.102  1.00  0.00     0.167 HD
ATOM     69  C   UNL A   1      41.403  33.896  32.757  1.00  0.00     0.037 A 
ATOM     70  C   UNL A   1      43.564  28.165  28.881  1.00  0.00     0.037 A 
ATOM     71  C   UNL A   1      42.763  33.319  32.604  1.00  0.00     0.049 A 
ATOM     72  C   UNL A   1      44.547  29.327  28.911  1.00  0.00     0.074 A 
ATOM     73  C   UNL A   1      43.711  32.790  33.468  1.00  0.00     0.029 A 
ATOM     74  N   UNL A   1      43.316  33.170  31.322  1.00  0.00    -0.354 N 
ATOM     75  N   UNL A   1      44.373  30.390  29.662  1.00  0.00    -0.248 NA
ATOM     76  C   UNL A   1      45.790  29.415  28.156  1.00  0.00     0.031 C 
ATOM     77  C   UNL A   1      44.828  32.352  32.698  1.00  0.00     0.029 A 
ATOM     78  C   UNL A   1      44.558  32.572  31.358  1.00  0.00     0.049 A 
ATOM     79  H   UNL A   1      42.870  33.460  30.495  1.00  0.00     0.167 HD
ATOM     80  C   UNL A   1      45.390  31.286  29.500  1.00  0.00     0.074 A 
ATOM     81  C   UNL A   1      46.264  30.614  28.553  1.00  0.00     0.031 C 
ATOM     82  C   UNL A   1      45.393  32.492  30.153  1.00  0.00     0.037 A 
BRANCH  69  83
ATOM     83  C   UNL A   1      41.009  34.771  33.956  1.00  0.00     0.057 A 
ATOM     84  C   UNL A   1      41.776  35.897  34.326  1.00  0.00     0.134 A 
ATOM     85  C   UNL A   1      39.939  34.512  34.840  1.00  0.00     0.134 A 
ATOM     86  F   UNL A   1      42.830  36.297  33.601  1.00  0.00    -0.206 F 
ATOM     87  C   UNL A   1      41.510  36.681  35.465  1.00  0.00     0.040 A 
ATOM     88  C   UNL A   1      39.616  35.331  35.939  1.00  0.00     0.040 A 
ATOM     89  F   UNL A   1      39.175  33.420  34.738  1.00  0.00    -0.206 F 
ATOM     90  C   UNL A   1      40.412  36.414  36.266  1.00  0.00     0.006 A 
ENDBRANCH  69  83
BRANCH  70  91
ATOM     91  C   UNL A   1      43.155  27.212  27.814  1.00  0.00     0.057 A 
ATOM     92  C   UNL A   1      42.798  27.838  26.601  1.00  0.00     0.134 A 
ATOM     93  C   UNL A   1      43.755  25.947  27.712  1.00  0.00     0.134 A 
ATOM     94  F   UNL A   1      42.178  29.028  26.623  1.00  0.00    -0.206 F 
ATOM     95  C   UNL A   1      43.248  27.364  25.366  1.00  0.00     0.040 A 
ATOM     96  C   UNL A   1      44.198  25.455  26.472  1.00  0.00     0.040 A 
ATOM     97  F   UNL A   1      44.158  25.299  28.814  1.00  0.00    -0.206 F 
ATOM     98  C   UNL A   1      44.002  26.196  25.306  1.00  0.00     0.006 A 
ENDBRANCH  70  91
BRANCH  82  99
ATOM     99  C   UNL A   1      46.203  33.732  29.793  1.00  0.00     0.057 A 
ATOM    100  C   UNL A   1      47.370  34.151  30.446  1.00  0.00     0.134 A 
ATOM    101  C   UNL A   1      45.908  34.470  28.614  1.00  0.00     0.134 A 
ATOM    102  F   UNL A   1      47.855  33.510  31.514  1.00  0.00    -0.206 F 
ATOM    103  C   UNL A   1      48.150  35.227  29.996  1.00  0.00     0.040 A 
ATOM    104  C   UNL A   1      46.703  35.512  28.129  1.00  0.00     0.040 A 
ATOM    105  F   UNL A   1      44.848  34.195  27.840  1.00  0.00    -0.206 F 
ATOM    106  C   UNL A   1      47.829  35.902  28.827  1.00  0.00     0.006 A 
ENDBRANCH  82  99
ENDBRANCH  56  57
ENDBRANCH  49  51
ENDBRANCH  48  49
ENDBRANCH  47  48
ENDBRANCH  46  47
ENDBRANCH  45  46
ENDBRANCH  44  45
ENDBRANCH  43  44
ENDBRANCH  42  43
ENDBRANCH  41  42
ENDBRANCH   1  41
TORSDOF 27
ENDMDL
MODEL 2
REMARK VINA RESULT:      -9.1      2.464      6.530
REMARK SMILES Cc1ccc(S(=O)(=O)n2cc(C(=O)C(=O)N[C@@H](Cc3cnc[nH]3)C(=O)OCCOCCOCCOCCOC(=O)c3ccc(-c4c5nc(c(-c6c(F)cccc6F)c6ccc([nH]6)c(-c6c(F)cccc6F)c6nc(c(-c7c(F)cccc7F)c7ccc4[nH]7)C=C6)C=C5)cc3)c3ccccc32)cc1
REMARK SMILES IDX 30 1 29 2 28 3 27 4 26 5 24 6 25 7 17 8 16 9 14 10 15 11
REMARK SMILES IDX 12 13 13 14 11 15 9 16 10 17 100 18 95 19 99 20 96 21 98 22
REMARK SMILES IDX 97 23 6 24 7 25 8 26 5 27 1 28 2 29 3 30 102 31 4 32 101 33
REMARK SMILES IDX 18 34 19 35 20 36 23 37 21 38 22 39 31 41 32 42 33 43 34 44
REMARK SMILES IDX 35 45 36 46 37 47 38 48 39 49 40 50 41 51 42 52 94 53 43 54
REMARK SMILES IDX 93 55 44 56 45 57 46 58 87 59 47 60 92 61 86 62 88 63 48 64
REMARK SMILES IDX 91 65 85 66 84 67 49 69 75 70 58 71 74 72 59 73 62 74 73 75
REMARK SMILES IDX 89 76 60 77 61 78 72 80 90 81 63 82 50 83 51 84 56 85 52 86
REMARK SMILES IDX 53 87 55 88 57 89 54 90 76 91 77 92 82 93 78 94 79 95 81 96
REMARK SMILES IDX 83 97 80 98 64 99 65 100 70 101 66 102 67 103 69 104 71 105
REMARK SMILES IDX 68 106
REMARK H PARENT 16 12 23 40 88 68 62 79
REMARK Flexibility Score: inf
ROOT
ATOM      1  C   UNL A   1      31.782  23.140  27.200  1.00  0.00     0.188 C 
ENDROOT
BRANCH   1   2
ATOM      2  O   UNL A   1      32.425  22.064  26.536  1.00  0.00    -0.376 OA
BRANCH   2   3
ATOM      3  C   UNL A   1      31.556  21.251  25.744  1.00  0.00     0.202 C 
BRANCH   3   4
ATOM      4  C   UNL A   1      32.210  20.087  25.001  1.00  0.00     0.261 C 
BRANCH   4   5
ATOM      5  O   UNL A   1      33.289  20.591  24.182  1.00  0.00    -0.462 OA
BRANCH   5   6
ATOM      6  C   UNL A   1      32.903  21.451  23.207  1.00  0.00     0.329 C 
ATOM      7  O   UNL A   1      32.180  21.142  22.265  1.00  0.00    -0.250 OA
BRANCH   6   8
ATOM      8  C   UNL A   1      33.546  22.843  23.345  1.00  0.00     0.198 C 
BRANCH   8   9
ATOM      9  N   UNL A   1      34.873  23.066  22.741  1.00  0.00    -0.335 N 
ATOM     10  C   UNL A   1      36.115  23.021  23.354  1.00  0.00     0.293 C 
ATOM     11  O   UNL A   1      37.110  23.434  22.770  1.00  0.00    -0.265 OA
ATOM     12  H   UNL A   1      34.877  23.274  21.778  1.00  0.00     0.164 HD
BRANCH  10  13
ATOM     13  C   UNL A   1      36.249  22.375  24.757  1.00  0.00     0.252 C 
ATOM     14  O   UNL A   1      35.216  21.967  25.284  1.00  0.00    -0.283 OA
BRANCH  13  15
ATOM     15  C   UNL A   1      37.533  22.146  25.444  1.00  0.00     0.054 A 
ATOM     16  N   UNL A   1      39.466  21.308  26.200  1.00  0.00    -0.240 N 
ATOM     17  C   UNL A   1      38.329  21.013  25.479  1.00  0.00     0.117 A 
ATOM     18  C   UNL A   1      39.475  22.629  26.592  1.00  0.00     0.065 A 
ATOM     19  C   UNL A   1      38.217  23.134  26.243  1.00  0.00     0.012 A 
ATOM     20  C   UNL A   1      40.440  23.432  27.229  1.00  0.00     0.028 A 
ATOM     21  C   UNL A   1      37.881  24.443  26.654  1.00  0.00     0.011 A 
ATOM     22  C   UNL A   1      40.083  24.732  27.596  1.00  0.00     0.002 A 
ATOM     23  C   UNL A   1      38.811  25.226  27.338  1.00  0.00     0.001 A 
BRANCH  16  24
ATOM     24  S   UNL A   1      40.762  20.215  26.393  1.00  0.00     0.268 S 
ATOM     25  O   UNL A   1      40.442  19.120  25.476  1.00  0.00    -0.201 OA
ATOM     26  O   UNL A   1      40.906  20.013  27.809  1.00  0.00    -0.201 OA
BRANCH  24  27
ATOM     27  C   UNL A   1      42.269  20.960  25.818  1.00  0.00     0.088 A 
ATOM     28  C   UNL A   1      46.012  22.459  24.295  1.00  0.00     0.044 C 
ATOM     29  C   UNL A   1      44.708  21.949  24.838  1.00  0.00    -0.051 A 
ATOM     30  C   UNL A   1      44.612  20.626  25.284  1.00  0.00     0.005 A 
ATOM     31  C   UNL A   1      43.580  22.778  24.918  1.00  0.00     0.005 A 
ATOM     32  C   UNL A   1      43.399  20.131  25.765  1.00  0.00     0.022 A 
ATOM     33  C   UNL A   1      42.365  22.294  25.421  1.00  0.00     0.022 A 
ENDBRANCH  24  27
ENDBRANCH  16  24
ENDBRANCH  13  15
ENDBRANCH  10  13
ENDBRANCH   8   9
BRANCH   8  34
ATOM     34  C   UNL A   1      32.496  23.904  22.952  1.00  0.00     0.092 C 
BRANCH  34  35
ATOM     35  C   UNL A   1      32.982  25.302  22.776  1.00  0.00     0.037 A 
ATOM     36  C   UNL A   1      33.231  26.050  21.644  1.00  0.00     0.134 A 
ATOM     37  N   UNL A   1      33.396  26.101  23.811  1.00  0.00    -0.348 N 
ATOM     38  N   UNL A   1      33.809  27.249  21.964  1.00  0.00    -0.245 NA
ATOM     39  C   UNL A   1      33.918  27.242  23.272  1.00  0.00     0.196 A 
ATOM     40  H   UNL A   1      33.329  25.889  24.770  1.00  0.00     0.167 HD
ENDBRANCH  34  35
ENDBRANCH   8  34
ENDBRANCH   6   8
ENDBRANCH   5   6
ENDBRANCH   4   5
ENDBRANCH   3   4
ENDBRANCH   2   3
ENDBRANCH   1   2
BRANCH   1  41
ATOM     41  C   UNL A   1      31.568  24.454  26.436  1.00  0.00     0.188 C 
BRANCH  41  42
ATOM     42  O   UNL A   1      30.424  25.236  26.712  1.00  0.00    -0.377 OA
BRANCH  42  43
ATOM     43  C   UNL A   1      30.555  26.618  26.378  1.00  0.00     0.188 C 
BRANCH  43  44
ATOM     44  C   UNL A   1      31.927  27.224  26.655  1.00  0.00     0.188 C 
BRANCH  44  45
ATOM     45  O   UNL A   1      31.845  28.630  26.399  1.00  0.00    -0.376 OA
BRANCH  45  46
ATOM     46  C   UNL A   1      32.288  29.464  27.466  1.00  0.00     0.202 C 
BRANCH  46  47
ATOM     47  C   UNL A   1      32.957  30.764  26.997  1.00  0.00     0.261 C 
BRANCH  47  48
ATOM     48  O   UNL A   1      34.044  31.065  27.891  1.00  0.00    -0.460 OA
BRANCH  48  49
ATOM     49  C   UNL A   1      35.149  30.287  27.753  1.00  0.00     0.338 C 
ATOM     50  O   UNL A   1      35.252  29.318  27.019  1.00  0.00    -0.246 OA
BRANCH  49  51
ATOM     51  C   UNL A   1      36.119  30.598  28.846  1.00  0.00     0.060 A 
ATOM     52  C   UNL A   1      37.153  31.513  28.598  1.00  0.00     0.016 A 
ATOM     53  C   UNL A   1      36.177  29.787  29.980  1.00  0.00     0.016 A 
ATOM     54  C   UNL A   1      38.307  31.508  29.395  1.00  0.00     0.010 A 
ATOM     55  C   UNL A   1      37.346  29.743  30.730  1.00  0.00     0.010 A 
ATOM     56  C   UNL A   1      38.451  30.547  30.402  1.00  0.00    -0.014 A 
BRANCH  56  57
ATOM     57  C   UNL A   1      39.758  30.115  30.943  1.00  0.00     0.031 A 
ATOM     58  C   UNL A   1      40.475  28.899  30.454  1.00  0.00     0.074 A 
ATOM     59  C   UNL A   1      40.488  31.027  31.637  1.00  0.00     0.049 A 
ATOM     60  N   UNL A   1      41.599  28.492  30.951  1.00  0.00    -0.248 NA
ATOM     61  C   UNL A   1      40.011  28.022  29.384  1.00  0.00     0.031 C 
ATOM     62  C   UNL A   1      41.944  31.065  31.783  1.00  0.00     0.029 A 
ATOM     63  N   UNL A   1      40.087  32.143  32.364  1.00  0.00    -0.354 N 
ATOM     64  C   UNL A   1      42.172  27.614  30.067  1.00  0.00     0.074 A 
ATOM     65  C   UNL A   1      41.079  27.230  29.206  1.00  0.00     0.031 C 
ATOM     66  C   UNL A   1      42.302  32.061  32.596  1.00  0.00     0.029 A 
ATOM     67  C   UNL A   1      41.103  32.492  33.257  1.00  0.00     0.049 A 
ATOM     68  H   UNL A   1      39.227  32.613  32.265  1.00  0.00     0.167 HD
ATOM     69  C   UNL A   1      43.527  27.428  30.092  1.00  0.00     0.037 A 
ATOM     70  C   UNL A   1      40.957  32.479  34.611  1.00  0.00     0.037 A 
ATOM     71  C   UNL A   1      44.175  28.054  31.274  1.00  0.00     0.049 A 
ATOM     72  C   UNL A   1      41.817  31.408  35.268  1.00  0.00     0.074 A 
ATOM     73  C   UNL A   1      45.329  28.792  31.489  1.00  0.00     0.029 A 
ATOM     74  N   UNL A   1      43.539  28.000  32.525  1.00  0.00    -0.354 N 
ATOM     75  N   UNL A   1      42.462  30.491  34.583  1.00  0.00    -0.248 NA
ATOM     76  C   UNL A   1      42.059  31.264  36.697  1.00  0.00     0.031 C 
ATOM     77  C   UNL A   1      45.384  29.153  32.867  1.00  0.00     0.029 A 
ATOM     78  C   UNL A   1      44.248  28.674  33.497  1.00  0.00     0.049 A 
ATOM     79  H   UNL A   1      42.688  27.535  32.688  1.00  0.00     0.167 HD
ATOM     80  C   UNL A   1      43.151  29.648  35.407  1.00  0.00     0.074 A 
ATOM     81  C   UNL A   1      42.877  30.190  36.727  1.00  0.00     0.031 C 
ATOM     82  C   UNL A   1      43.862  28.586  34.911  1.00  0.00     0.037 A 
BRANCH  69  83
ATOM     83  C   UNL A   1      44.334  26.764  28.967  1.00  0.00     0.057 A 
ATOM     84  C   UNL A   1      44.914  27.528  27.930  1.00  0.00     0.134 A 
ATOM     85  C   UNL A   1      44.505  25.373  28.794  1.00  0.00     0.134 A 
ATOM     86  F   UNL A   1      44.855  28.867  27.928  1.00  0.00    -0.206 F 
ATOM     87  C   UNL A   1      45.588  26.965  26.829  1.00  0.00     0.040 A 
ATOM     88  C   UNL A   1      45.241  24.800  27.740  1.00  0.00     0.040 A 
ATOM     89  F   UNL A   1      43.921  24.477  29.595  1.00  0.00    -0.206 F 
ATOM     90  C   UNL A   1      45.774  25.595  26.741  1.00  0.00     0.006 A 
ENDBRANCH  69  83
BRANCH  70  91
ATOM     91  C   UNL A   1      39.724  33.192  35.041  1.00  0.00     0.057 A 
ATOM     92  C   UNL A   1      38.723  32.337  35.549  1.00  0.00     0.134 A 
ATOM     93  C   UNL A   1      39.796  34.475  35.604  1.00  0.00     0.134 A 
ATOM     94  F   UNL A   1      38.565  31.112  35.026  1.00  0.00    -0.206 F 
ATOM     95  C   UNL A   1      38.019  32.639  36.718  1.00  0.00     0.040 A 
ATOM     96  C   UNL A   1      39.080  34.793  36.772  1.00  0.00     0.040 A 
ATOM     97  F   UNL A   1      40.742  35.337  35.205  1.00  0.00    -0.206 F 
ATOM     98  C   UNL A   1      38.242  33.850  37.366  1.00  0.00     0.006 A 
ENDBRANCH  70  91
BRANCH  82  99
ATOM     99  C   UNL A   1      44.334  27.356  35.678  1.00  0.00     0.057 A 
ATOM    100  C   UNL A   1      43.713  26.100  35.647  1.00  0.00     0.134 A 
ATOM    101  C   UNL A   1      45.581  27.364  36.361  1.00  0.00     0.134 A 
ATOM    102  F   UNL A   1      42.584  25.881  34.965  1.00  0.00    -0.206 F 
ATOM    103  C   UNL A   1      44.259  24.965  36.269  1.00  0.00     0.040 A 
ATOM    104  C   UNL A   1      46.156  26.231  36.943  1.00  0.00     0.040 A 
ATOM    105  F   UNL A   1      46.334  28.468  36.470  1.00  0.00    -0.206 F 
ATOM    106  C   UNL A   1      45.490  25.023  36.906  1.00  0.00     0.006 A 
ENDBRANCH  82  99
ENDBRANCH  56  57
ENDBRANCH  49  51
ENDBRANCH  48  49
ENDBRANCH  47  48
ENDBRANCH  46  47
ENDBRANCH  45  46
ENDBRANCH  44  45
ENDBRANCH  43  44
ENDBRANCH  42  43
ENDBRANCH  41  42
ENDBRANCH   1  41
TORSDOF 27
ENDMDL
MODEL 3
REMARK VINA RESULT:      -8.3      4.162      9.559
REMARK SMILES Cc1ccc(S(=O)(=O)n2cc(C(=O)C(=O)N[C@@H](Cc3cnc[nH]3)C(=O)OCCOCCOCCOCCOC(=O)c3ccc(-c4c5nc(c(-c6c(F)cccc6F)c6ccc([nH]6)c(-c6c(F)cccc6F)c6nc(c(-c7c(F)cccc7F)c7ccc4[nH]7)C=C6)C=C5)cc3)c3ccccc32)cc1
REMARK SMILES IDX 30 1 29 2 28 3 27 4 26 5 24 6 25 7 17 8 16 9 14 10 15 11
REMARK SMILES IDX 12 13 13 14 11 15 9 16 10 17 100 18 95 19 99 20 96 21 98 22
REMARK SMILES IDX 97 23 6 24 7 25 8 26 5 27 1 28 2 29 3 30 102 31 4 32 101 33
REMARK SMILES IDX 18 34 19 35 20 36 23 37 21 38 22 39 31 41 32 42 33 43 34 44
REMARK SMILES IDX 35 45 36 46 37 47 38 48 39 49 40 50 41 51 42 52 94 53 43 54
REMARK SMILES IDX 93 55 44 56 45 57 46 58 87 59 47 60 92 61 86 62 88 63 48 64
REMARK SMILES IDX 91 65 85 66 84 67 49 69 75 70 58 71 74 72 59 73 62 74 73 75
REMARK SMILES IDX 89 76 60 77 61 78 72 80 90 81 63 82 50 83 51 84 56 85 52 86
REMARK SMILES IDX 53 87 55 88 57 89 54 90 76 91 77 92 82 93 78 94 79 95 81 96
REMARK SMILES IDX 83 97 80 98 64 99 65 100 70 101 66 102 67 103 69 104 71 105
REMARK SMILES IDX 68 106
REMARK H PARENT 16 12 23 40 88 68 62 79
REMARK Flexibility Score: inf
ROOT
ATOM      1  C   UNL A   1      35.506  32.339  28.551  1.00  0.00     0.188 C 
ENDROOT
BRANCH   1   2
ATOM      2  O   UNL A   1      34.383  31.472  28.531  1.00  0.00    -0.376 OA
BRANCH   2   3
ATOM      3  C   UNL A   1      34.118  30.871  27.263  1.00  0.00     0.202 C 
BRANCH   3   4
ATOM      4  C   UNL A   1      33.909  29.357  27.262  1.00  0.00     0.261 C 
BRANCH   4   5
ATOM      5  O   UNL A   1      33.642  28.914  25.914  1.00  0.00    -0.462 OA
BRANCH   5   6
ATOM      6  C   UNL A   1      32.328  28.751  25.622  1.00  0.00     0.329 C 
ATOM      7  O   UNL A   1      31.541  28.121  26.325  1.00  0.00    -0.250 OA
BRANCH   6   8
ATOM      8  C   UNL A   1      31.934  29.356  24.262  1.00  0.00     0.198 C 
BRANCH   8   9
ATOM      9  N   UNL A   1      32.894  29.258  23.146  1.00  0.00    -0.335 N 
ATOM     10  C   UNL A   1      33.268  28.131  22.431  1.00  0.00     0.293 C 
ATOM     11  O   UNL A   1      34.230  28.169  21.674  1.00  0.00    -0.265 OA
ATOM     12  H   UNL A   1      33.324  30.101  22.875  1.00  0.00     0.164 HD
BRANCH  10  13
ATOM     13  C   UNL A   1      32.413  26.842  22.539  1.00  0.00     0.252 C 
ATOM     14  O   UNL A   1      31.437  26.756  21.797  1.00  0.00    -0.283 OA
BRANCH  13  15
ATOM     15  C   UNL A   1      32.749  25.696  23.405  1.00  0.00     0.054 A 
ATOM     16  N   UNL A   1      33.768  24.011  24.468  1.00  0.00    -0.240 N 
ATOM     17  C   UNL A   1      33.899  24.925  23.444  1.00  0.00     0.117 A 
ATOM     18  C   UNL A   1      32.587  24.198  25.151  1.00  0.00     0.065 A 
ATOM     19  C   UNL A   1      31.877  25.158  24.420  1.00  0.00     0.012 A 
ATOM     20  C   UNL A   1      32.054  23.619  26.317  1.00  0.00     0.028 A 
ATOM     21  C   UNL A   1      30.551  25.453  24.807  1.00  0.00     0.011 A 
ATOM     22  C   UNL A   1      30.748  23.955  26.688  1.00  0.00     0.002 A 
ATOM     23  C   UNL A   1      29.994  24.840  25.929  1.00  0.00     0.001 A 
BRANCH  16  24
ATOM     24  S   UNL A   1      35.011  22.937  24.928  1.00  0.00     0.268 S 
ATOM     25  O   UNL A   1      35.141  23.141  26.372  1.00  0.00    -0.201 OA
ATOM     26  O   UNL A   1      36.099  23.173  24.019  1.00  0.00    -0.201 OA
BRANCH  24  27
ATOM     27  C   UNL A   1      34.480  21.259  24.679  1.00  0.00     0.088 A 
ATOM     28  C   UNL A   1      33.007  17.304  23.808  1.00  0.00     0.044 C 
ATOM     29  C   UNL A   1      33.523  18.677  24.129  1.00  0.00    -0.051 A 
ATOM     30  C   UNL A   1      32.722  19.796  23.872  1.00  0.00     0.005 A 
ATOM     31  C   UNL A   1      34.792  18.864  24.693  1.00  0.00     0.005 A 
ATOM     32  C   UNL A   1      33.199  21.081  24.139  1.00  0.00     0.022 A 
ATOM     33  C   UNL A   1      35.268  20.149  24.984  1.00  0.00     0.022 A 
ENDBRANCH  24  27
ENDBRANCH  16  24
ENDBRANCH  13  15
ENDBRANCH  10  13
ENDBRANCH   8   9
BRANCH   8  34
ATOM     34  C   UNL A   1      30.514  28.867  23.906  1.00  0.00     0.092 C 
BRANCH  34  35
ATOM     35  C   UNL A   1      29.515  29.908  23.530  1.00  0.00     0.037 A 
ATOM     36  C   UNL A   1      29.383  31.229  23.906  1.00  0.00     0.134 A 
ATOM     37  N   UNL A   1      28.407  29.658  22.763  1.00  0.00    -0.348 N 
ATOM     38  N   UNL A   1      28.221  31.764  23.418  1.00  0.00    -0.245 NA
ATOM     39  C   UNL A   1      27.642  30.790  22.755  1.00  0.00     0.196 A 
ATOM     40  H   UNL A   1      28.199  28.814  22.300  1.00  0.00     0.167 HD
ENDBRANCH  34  35
ENDBRANCH   8  34
ENDBRANCH   6   8
ENDBRANCH   5   6
ENDBRANCH   4   5
ENDBRANCH   3   4
ENDBRANCH   2   3
ENDBRANCH   1   2
BRANCH   1  41
ATOM     41  C   UNL A   1      36.894  31.740  28.810  1.00  0.00     0.188 C 
BRANCH  41  42
ATOM     42  O   UNL A   1      37.330  31.554  30.142  1.00  0.00    -0.377 OA
BRANCH  42  43
ATOM     43  C   UNL A   1      38.186  30.428  30.335  1.00  0.00     0.188 C 
BRANCH  43  44
ATOM     44  C   UNL A   1      39.482  30.455  29.532  1.00  0.00     0.188 C 
BRANCH  44  45
ATOM     45  O   UNL A   1      40.346  29.444  30.059  1.00  0.00    -0.376 OA
BRANCH  45  46
ATOM     46  C   UNL A   1      41.662  29.429  29.511  1.00  0.00     0.202 C 
BRANCH  46  47
ATOM     47  C   UNL A   1      41.782  28.621  28.212  1.00  0.00     0.261 C 
BRANCH  47  48
ATOM     48  O   UNL A   1      43.017  27.882  28.246  1.00  0.00    -0.460 OA
BRANCH  48  49
ATOM     49  C   UNL A   1      43.688  27.807  27.066  1.00  0.00     0.338 C 
ATOM     50  O   UNL A   1      43.383  27.105  26.116  1.00  0.00    -0.246 OA
BRANCH  49  51
ATOM     51  C   UNL A   1      45.017  28.473  27.205  1.00  0.00     0.060 A 
ATOM     52  C   UNL A   1      45.349  29.083  28.425  1.00  0.00     0.016 A 
ATOM     53  C   UNL A   1      45.786  28.742  26.073  1.00  0.00     0.016 A 
ATOM     54  C   UNL A   1      46.345  30.069  28.474  1.00  0.00     0.010 A 
ATOM     55  C   UNL A   1      46.730  29.761  26.112  1.00  0.00     0.010 A 
ATOM     56  C   UNL A   1      46.968  30.486  27.292  1.00  0.00    -0.014 A 
BRANCH  56  57
ATOM     57  C   UNL A   1      47.622  31.802  27.129  1.00  0.00     0.031 A 
ATOM     58  C   UNL A   1      49.105  31.967  27.058  1.00  0.00     0.074 A 
ATOM     59  C   UNL A   1      46.863  32.834  26.677  1.00  0.00     0.049 A 
ATOM     60  N   UNL A   1      49.686  33.119  26.956  1.00  0.00    -0.248 NA
ATOM     61  C   UNL A   1      50.076  30.877  27.103  1.00  0.00     0.031 C 
ATOM     62  C   UNL A   1      47.322  34.007  25.930  1.00  0.00     0.029 A 
ATOM     63  N   UNL A   1      45.493  33.061  26.773  1.00  0.00    -0.354 N 
ATOM     64  C   UNL A   1      50.977  32.920  26.537  1.00  0.00     0.074 A 
ATOM     65  C   UNL A   1      51.214  31.522  26.808  1.00  0.00     0.031 C 
ATOM     66  C   UNL A   1      46.307  34.847  25.718  1.00  0.00     0.029 A 
ATOM     67  C   UNL A   1      45.245  34.422  26.585  1.00  0.00     0.049 A 
ATOM     68  H   UNL A   1      44.810  32.374  26.946  1.00  0.00     0.167 HD
ATOM     69  C   UNL A   1      51.633  33.930  25.889  1.00  0.00     0.037 A 
ATOM     70  C   UNL A   1      44.695  35.229  27.533  1.00  0.00     0.037 A 
ATOM     71  C   UNL A   1      50.903  35.223  25.945  1.00  0.00     0.049 A 
ATOM     72  C   UNL A   1      45.679  36.277  28.034  1.00  0.00     0.074 A 
ATOM     73  C   UNL A   1      50.629  36.239  25.041  1.00  0.00     0.029 A 
ATOM     74  N   UNL A   1      50.242  35.598  27.125  1.00  0.00    -0.354 N 
ATOM     75  N   UNL A   1      46.955  36.264  27.720  1.00  0.00    -0.248 NA
ATOM     76  C   UNL A   1      45.358  37.417  28.882  1.00  0.00     0.031 C 
ATOM     77  C   UNL A   1      49.828  37.221  25.695  1.00  0.00     0.029 A 
ATOM     78  C   UNL A   1      49.572  36.796  26.988  1.00  0.00     0.049 A 
ATOM     79  H   UNL A   1      50.256  35.068  27.954  1.00  0.00     0.167 HD
ATOM     80  C   UNL A   1      47.620  37.305  28.302  1.00  0.00     0.074 A 
ATOM     81  C   UNL A   1      46.563  38.010  29.009  1.00  0.00     0.031 C 
ATOM     82  C   UNL A   1      48.974  37.465  28.150  1.00  0.00     0.037 A 
BRANCH  69  83
ATOM     83  C   UNL A   1      52.920  33.746  25.071  1.00  0.00     0.057 A 
ATOM     84  C   UNL A   1      54.075  34.512  25.339  1.00  0.00     0.134 A 
ATOM     85  C   UNL A   1      53.063  32.895  23.953  1.00  0.00     0.134 A 
ATOM     86  F   UNL A   1      54.125  35.372  26.366  1.00  0.00    -0.206 F 
ATOM     87  C   UNL A   1      55.251  34.445  24.566  1.00  0.00     0.040 A 
ATOM     88  C   UNL A   1      54.257  32.763  23.219  1.00  0.00     0.040 A 
ATOM     89  F   UNL A   1      52.044  32.186  23.460  1.00  0.00    -0.206 F 
ATOM     90  C   UNL A   1      55.355  33.551  23.514  1.00  0.00     0.006 A 
ENDBRANCH  69  83
BRANCH  70  91
ATOM     91  C   UNL A   1      43.466  34.631  28.124  1.00  0.00     0.057 A 
ATOM     92  C   UNL A   1      43.655  34.114  29.423  1.00  0.00     0.134 A 
ATOM     93  C   UNL A   1      42.200  35.166  27.841  1.00  0.00     0.134 A 
ATOM     94  F   UNL A   1      44.826  33.545  29.749  1.00  0.00    -0.206 F 
ATOM     95  C   UNL A   1      42.741  34.355  30.452  1.00  0.00     0.040 A 
ATOM     96  C   UNL A   1      41.268  35.398  28.868  1.00  0.00     0.040 A 
ATOM     97  F   UNL A   1      41.948  35.711  26.643  1.00  0.00    -0.206 F 
ATOM     98  C   UNL A   1      41.567  35.051  30.186  1.00  0.00     0.006 A 
ENDBRANCH  70  91
BRANCH  82  99
ATOM     99  C   UNL A   1      49.907  38.296  29.022  1.00  0.00     0.057 A 
ATOM    100  C   UNL A   1      50.249  39.635  28.789  1.00  0.00     0.134 A 
ATOM    101  C   UNL A   1      50.366  37.794  30.271  1.00  0.00     0.134 A 
ATOM    102  F   UNL A   1      49.818  40.302  27.714  1.00  0.00    -0.206 F 
ATOM    103  C   UNL A   1      51.010  40.394  29.693  1.00  0.00     0.040 A 
ATOM    104  C   UNL A   1      51.083  38.555  31.199  1.00  0.00     0.040 A 
ATOM    105  F   UNL A   1      50.111  36.543  30.681  1.00  0.00    -0.206 F 
ATOM    106  C   UNL A   1      51.416  39.863  30.908  1.00  0.00     0.006 A 
ENDBRANCH  82  99
ENDBRANCH  56  57
ENDBRANCH  49  51
ENDBRANCH  48  49
ENDBRANCH  47  48
ENDBRANCH  46  47
ENDBRANCH  45  46
ENDBRANCH  44  45
ENDBRANCH  43  44
ENDBRANCH  42  43
ENDBRANCH  41  42
ENDBRANCH   1  41
TORSDOF 27
ENDMDL
