MODEL 1
REMARK VINA RESULT:     -12.2      0.000      0.000
REMARK SMILES COc1ccc(-c2ncn(CC(=O)NCCCCCCNC(=O)c3ccc(-c4c5nc(c(-c6ccccc6)c6ccc([nH]6)c(-c6ccccc6)c6nc(c(-c7ccccc7)c7ccc4[nH]7)C=C6)C=C5)cc3)c2-c2ccc(OC)cc2)cc1
REMARK SMILES IDX 17 1 16 2 15 3 14 4 12 5 13 6 11 8 10 9 7 10 8 11 72 12 9 13
REMARK SMILES IDX 6 14 3 15 4 16 82 17 5 18 81 19 2 20 1 21 73 22 74 23 80 24
REMARK SMILES IDX 75 25 79 26 76 27 77 28 78 29 18 30 19 31 20 32 21 33 22 34
REMARK SMILES IDX 23 36 24 37 25 38 71 39 26 40 70 41 27 42 28 43 29 44 64 45
REMARK SMILES IDX 30 46 69 47 63 48 65 49 31 50 68 51 62 52 61 53 32 55 54 56
REMARK SMILES IDX 39 57 53 58 40 59 43 60 52 61 66 62 41 63 42 64 51 66 67 67
REMARK SMILES IDX 44 68 33 69 34 70 38 71 35 72 37 73 36 74 55 75 56 76 60 77
REMARK SMILES IDX 57 78 59 79 58 80 45 81 46 82 50 83 47 84 49 85 48 86
REMARK H PARENT 14 7 21 35 65 54 43 65
REMARK Flexibility Score: inf
ROOT
ATOM      1  C   UNL A   1      35.030  20.801  25.602  1.00  0.00     0.002 C 
ENDROOT
BRANCH   1   2
ATOM      2  C   UNL A   1      33.924  19.964  24.946  1.00  0.00     0.021 C 
BRANCH   2   3
ATOM      3  C   UNL A   1      32.537  20.603  24.981  1.00  0.00     0.116 C 
BRANCH   3   4
ATOM      4  N   UNL A   1      32.293  21.329  26.211  1.00  0.00    -0.355 N 
ATOM      5  C   UNL A   1      32.397  22.664  26.470  1.00  0.00     0.239 C 
ATOM      6  O   UNL A   1      32.003  23.062  27.569  1.00  0.00    -0.273 OA
ATOM      7  H   UNL A   1      32.008  20.776  26.973  1.00  0.00     0.163 HD
BRANCH   5   8
ATOM      8  C   UNL A   1      32.906  23.635  25.424  1.00  0.00     0.223 C 
BRANCH   8   9
ATOM      9  N   UNL A   1      31.860  24.319  24.682  1.00  0.00    -0.321 N 
ATOM     10  C   UNL A   1      30.538  25.775  23.753  1.00  0.00     0.096 A 
ATOM     11  N   UNL A   1      30.125  24.548  23.306  1.00  0.00    -0.236 NA
ATOM     12  C   UNL A   1      31.577  25.664  24.668  1.00  0.00     0.076 A 
ATOM     13  C   UNL A   1      30.915  23.691  23.910  1.00  0.00     0.201 A 
BRANCH  10  14
ATOM     14  C   UNL A   1      29.924  27.038  23.409  1.00  0.00     0.003 A 
ATOM     15  C   UNL A   1      28.636  29.311  22.393  1.00  0.00     0.118 A 
ATOM     16  C   UNL A   1      27.921  28.363  23.126  1.00  0.00     0.047 A 
ATOM     17  C   UNL A   1      30.005  29.122  22.181  1.00  0.00     0.047 A 
ATOM     18  C   UNL A   1      28.556  27.229  23.626  1.00  0.00     0.014 A 
ATOM     19  C   UNL A   1      30.654  28.002  22.714  1.00  0.00     0.014 A 
BRANCH  15  20
ATOM     20  O   UNL A   1      27.888  30.376  21.981  1.00  0.00    -0.497 OA
ATOM     21  C   UNL A   1      28.360  31.680  22.278  1.00  0.00     0.278 C 
ENDBRANCH  15  20
ENDBRANCH  10  14
BRANCH  12  22
ATOM     22  C   UNL A   1      32.168  26.692  25.514  1.00  0.00     0.001 A 
ATOM     23  C   UNL A   1      33.409  27.258  25.225  1.00  0.00     0.014 A 
ATOM     24  C   UNL A   1      31.419  27.202  26.581  1.00  0.00     0.014 A 
ATOM     25  C   UNL A   1      33.906  28.294  26.019  1.00  0.00     0.047 A 
ATOM     26  C   UNL A   1      31.903  28.255  27.357  1.00  0.00     0.047 A 
ATOM     27  C   UNL A   1      33.155  28.804  27.081  1.00  0.00     0.118 A 
BRANCH  27  28
ATOM     28  O   UNL A   1      33.746  29.830  27.764  1.00  0.00    -0.497 OA
ATOM     29  C   UNL A   1      33.283  31.141  27.464  1.00  0.00     0.278 C 
ENDBRANCH  27  28
ENDBRANCH  12  22
ENDBRANCH   8   9
ENDBRANCH   5   8
ENDBRANCH   3   4
ENDBRANCH   2   3
ENDBRANCH   1   2
BRANCH   1  30
ATOM     30  C   UNL A   1      36.340  20.937  24.806  1.00  0.00     0.002 C 
BRANCH  30  31
ATOM     31  C   UNL A   1      37.379  19.819  24.984  1.00  0.00     0.021 C 
BRANCH  31  32
ATOM     32  C   UNL A   1      38.740  20.312  25.438  1.00  0.00     0.116 C 
BRANCH  32  33
ATOM     33  N   UNL A   1      39.702  19.225  25.653  1.00  0.00    -0.352 N 
ATOM     34  C   UNL A   1      41.050  19.331  25.936  1.00  0.00     0.251 C 
ATOM     35  H   UNL A   1      39.343  18.311  25.589  1.00  0.00     0.163 HD
ATOM     36  O   UNL A   1      41.824  18.396  25.732  1.00  0.00    -0.269 OA
BRANCH  34  37
ATOM     37  C   UNL A   1      41.544  20.590  26.512  1.00  0.00     0.039 A 
ATOM     38  C   UNL A   1      42.250  21.542  25.773  1.00  0.00     0.014 A 
ATOM     39  C   UNL A   1      41.228  20.817  27.846  1.00  0.00     0.014 A 
ATOM     40  C   UNL A   1      42.577  22.749  26.389  1.00  0.00     0.010 A 
ATOM     41  C   UNL A   1      41.318  22.076  28.353  1.00  0.00     0.010 A 
ATOM     42  C   UNL A   1      42.094  23.005  27.682  1.00  0.00    -0.014 A 
BRANCH  42  43
ATOM     43  C   UNL A   1      42.325  24.264  28.368  1.00  0.00     0.031 A 
ATOM     44  C   UNL A   1      41.304  25.304  28.096  1.00  0.00     0.074 A 
ATOM     45  C   UNL A   1      43.241  24.388  29.355  1.00  0.00     0.049 A 
ATOM     46  N   UNL A   1      41.465  26.403  27.442  1.00  0.00    -0.248 NA
ATOM     47  C   UNL A   1      39.906  25.031  28.469  1.00  0.00     0.031 C 
ATOM     48  C   UNL A   1      44.078  23.351  29.979  1.00  0.00     0.029 A 
ATOM     49  N   UNL A   1      43.520  25.476  30.115  1.00  0.00    -0.354 N 
ATOM     50  C   UNL A   1      40.244  27.065  27.493  1.00  0.00     0.074 A 
ATOM     51  C   UNL A   1      39.284  26.098  27.965  1.00  0.00     0.031 C 
ATOM     52  C   UNL A   1      44.547  23.799  31.166  1.00  0.00     0.029 A 
ATOM     53  C   UNL A   1      44.205  25.203  31.294  1.00  0.00     0.049 A 
ATOM     54  H   UNL A   1      43.260  26.388  29.853  1.00  0.00     0.167 HD
ATOM     55  C   UNL A   1      40.176  28.421  27.394  1.00  0.00     0.031 A 
ATOM     56  C   UNL A   1      44.416  26.065  32.320  1.00  0.00     0.031 A 
ATOM     57  C   UNL A   1      41.423  28.980  26.932  1.00  0.00     0.049 A 
ATOM     58  C   UNL A   1      44.183  27.434  31.809  1.00  0.00     0.074 A 
ATOM     59  C   UNL A   1      42.209  28.800  25.807  1.00  0.00     0.029 A 
ATOM     60  N   UNL A   1      42.251  29.536  27.881  1.00  0.00    -0.354 N 
ATOM     61  N   UNL A   1      44.970  28.008  30.946  1.00  0.00    -0.248 NA
ATOM     62  C   UNL A   1      42.826  27.960  31.871  1.00  0.00     0.031 C 
ATOM     63  C   UNL A   1      43.545  28.762  26.304  1.00  0.00     0.029 A 
ATOM     64  C   UNL A   1      43.504  29.019  27.675  1.00  0.00     0.049 A 
ATOM     65  H   UNL A   1      41.992  30.182  28.578  1.00  0.00     0.167 HD
ATOM     66  C   UNL A   1      44.109  28.619  30.051  1.00  0.00     0.074 A 
ATOM     67  C   UNL A   1      42.806  28.639  30.720  1.00  0.00     0.031 C 
ATOM     68  C   UNL A   1      44.449  28.764  28.736  1.00  0.00     0.031 A 
BRANCH  55  69
ATOM     69  C   UNL A   1      39.155  29.263  28.116  1.00  0.00    -0.014 A 
ATOM     70  C   UNL A   1      39.127  29.220  29.522  1.00  0.00     0.009 A 
ATOM     71  C   UNL A   1      38.050  29.857  27.478  1.00  0.00     0.009 A 
ATOM     72  C   UNL A   1      38.012  29.665  30.241  1.00  0.00     0.001 A 
ATOM     73  C   UNL A   1      36.954  30.342  28.196  1.00  0.00     0.001 A 
ATOM     74  C   UNL A   1      36.921  30.216  29.577  1.00  0.00     0.000 A 
ENDBRANCH  55  69
BRANCH  56  75
ATOM     75  C   UNL A   1      44.373  25.785  33.769  1.00  0.00    -0.014 A 
ATOM     76  C   UNL A   1      43.202  25.302  34.376  1.00  0.00     0.009 A 
ATOM     77  C   UNL A   1      45.584  25.647  34.463  1.00  0.00     0.009 A 
ATOM     78  C   UNL A   1      43.252  24.656  35.620  1.00  0.00     0.001 A 
ATOM     79  C   UNL A   1      45.635  24.962  35.676  1.00  0.00     0.001 A 
ATOM     80  C   UNL A   1      44.475  24.463  36.256  1.00  0.00     0.000 A 
ENDBRANCH  56  75
BRANCH  68  81
ATOM     81  C   UNL A   1      45.849  28.383  28.320  1.00  0.00    -0.014 A 
ATOM     82  C   UNL A   1      46.921  29.295  28.280  1.00  0.00     0.009 A 
ATOM     83  C   UNL A   1      46.131  27.026  28.116  1.00  0.00     0.009 A 
ATOM     84  C   UNL A   1      48.226  28.864  28.017  1.00  0.00     0.001 A 
ATOM     85  C   UNL A   1      47.435  26.592  27.873  1.00  0.00     0.001 A 
ATOM     86  C   UNL A   1      48.482  27.511  27.818  1.00  0.00     0.000 A 
ENDBRANCH  68  81
ENDBRANCH  42  43
ENDBRANCH  34  37
ENDBRANCH  32  33
ENDBRANCH  31  32
ENDBRANCH  30  31
ENDBRANCH   1  30
TORSDOF 18
ENDMDL
MODEL 2
REMARK VINA RESULT:     -11.8      3.791      9.425
REMARK SMILES COc1ccc(-c2ncn(CC(=O)NCCCCCCNC(=O)c3ccc(-c4c5nc(c(-c6ccccc6)c6ccc([nH]6)c(-c6ccccc6)c6nc(c(-c7ccccc7)c7ccc4[nH]7)C=C6)C=C5)cc3)c2-c2ccc(OC)cc2)cc1
REMARK SMILES IDX 17 1 16 2 15 3 14 4 12 5 13 6 11 8 10 9 7 10 8 11 72 12 9 13
REMARK SMILES IDX 6 14 3 15 4 16 82 17 5 18 81 19 2 20 1 21 73 22 74 23 80 24
REMARK SMILES IDX 75 25 79 26 76 27 77 28 78 29 18 30 19 31 20 32 21 33 22 34
REMARK SMILES IDX 23 36 24 37 25 38 71 39 26 40 70 41 27 42 28 43 29 44 64 45
REMARK SMILES IDX 30 46 69 47 63 48 65 49 31 50 68 51 62 52 61 53 32 55 54 56
REMARK SMILES IDX 39 57 53 58 40 59 43 60 52 61 66 62 41 63 42 64 51 66 67 67
REMARK SMILES IDX 44 68 33 69 34 70 38 71 35 72 37 73 36 74 55 75 56 76 60 77
REMARK SMILES IDX 57 78 59 79 58 80 45 81 46 82 50 83 47 84 49 85 48 86
REMARK H PARENT 14 7 21 35 65 54 43 65
REMARK Flexibility Score: inf
ROOT
ATOM      1  C   UNL A   1      31.117  29.658  24.563  1.00  0.00     0.002 C 
ENDROOT
BRANCH   1   2
ATOM      2  C   UNL A   1      30.954  28.142  24.396  1.00  0.00     0.021 C 
BRANCH   2   3
ATOM      3  C   UNL A   1      30.654  27.687  22.969  1.00  0.00     0.116 C 
BRANCH   3   4
ATOM      4  N   UNL A   1      31.856  27.509  22.181  1.00  0.00    -0.355 N 
ATOM      5  C   UNL A   1      32.947  26.727  22.421  1.00  0.00     0.239 C 
ATOM      6  O   UNL A   1      33.793  26.641  21.526  1.00  0.00    -0.273 OA
ATOM      7  H   UNL A   1      31.891  28.031  21.347  1.00  0.00     0.163 HD
BRANCH   5   8
ATOM      8  C   UNL A   1      33.083  25.930  23.702  1.00  0.00     0.223 C 
BRANCH   8   9
ATOM      9  N   UNL A   1      32.591  24.566  23.615  1.00  0.00    -0.321 N 
ATOM     10  C   UNL A   1      32.295  22.416  23.757  1.00  0.00     0.096 A 
ATOM     11  N   UNL A   1      31.173  22.914  23.150  1.00  0.00    -0.236 NA
ATOM     12  C   UNL A   1      33.231  23.412  24.000  1.00  0.00     0.076 A 
ATOM     13  C   UNL A   1      31.397  24.203  23.045  1.00  0.00     0.201 A 
BRANCH  10  14
ATOM     14  C   UNL A   1      32.542  21.019  24.035  1.00  0.00     0.003 A 
ATOM     15  C   UNL A   1      32.627  18.284  24.649  1.00  0.00     0.118 A 
ATOM     16  C   UNL A   1      32.397  18.707  23.339  1.00  0.00     0.047 A 
ATOM     17  C   UNL A   1      32.828  19.238  25.651  1.00  0.00     0.047 A 
ATOM     18  C   UNL A   1      32.347  20.064  23.031  1.00  0.00     0.014 A 
ATOM     19  C   UNL A   1      32.815  20.603  25.339  1.00  0.00     0.014 A 
BRANCH  15  20
ATOM     20  O   UNL A   1      32.666  16.927  24.798  1.00  0.00    -0.497 OA
ATOM     21  C   UNL A   1      33.922  16.278  24.688  1.00  0.00     0.278 C 
ENDBRANCH  15  20
ENDBRANCH  10  14
BRANCH  12  22
ATOM     22  C   UNL A   1      34.612  23.284  24.447  1.00  0.00     0.001 A 
ATOM     23  C   UNL A   1      35.017  23.700  25.714  1.00  0.00     0.014 A 
ATOM     24  C   UNL A   1      35.530  22.622  23.622  1.00  0.00     0.014 A 
ATOM     25  C   UNL A   1      36.334  23.491  26.130  1.00  0.00     0.047 A 
ATOM     26  C   UNL A   1      36.837  22.388  24.049  1.00  0.00     0.047 A 
ATOM     27  C   UNL A   1      37.247  22.827  25.307  1.00  0.00     0.118 A 
BRANCH  27  28
ATOM     28  O   UNL A   1      38.495  22.668  25.843  1.00  0.00    -0.497 OA
ATOM     29  C   UNL A   1      39.070  21.372  25.734  1.00  0.00     0.278 C 
ENDBRANCH  27  28
ENDBRANCH  12  22
ENDBRANCH   8   9
ENDBRANCH   5   8
ENDBRANCH   3   4
ENDBRANCH   2   3
ENDBRANCH   1   2
BRANCH   1  30
ATOM     30  C   UNL A   1      31.743  30.132  25.885  1.00  0.00     0.002 C 
BRANCH  30  31
ATOM     31  C   UNL A   1      31.423  31.568  26.330  1.00  0.00     0.021 C 
BRANCH  31  32
ATOM     32  C   UNL A   1      32.460  32.169  27.260  1.00  0.00     0.116 C 
BRANCH  32  33
ATOM     33  N   UNL A   1      32.261  33.604  27.490  1.00  0.00    -0.352 N 
ATOM     34  C   UNL A   1      32.926  34.418  28.387  1.00  0.00     0.251 C 
ATOM     35  H   UNL A   1      31.572  34.039  26.939  1.00  0.00     0.163 HD
ATOM     36  O   UNL A   1      32.446  35.488  28.762  1.00  0.00    -0.269 OA
BRANCH  34  37
ATOM     37  C   UNL A   1      34.244  33.986  28.875  1.00  0.00     0.039 A 
ATOM     38  C   UNL A   1      34.455  33.487  30.163  1.00  0.00     0.014 A 
ATOM     39  C   UNL A   1      35.287  34.053  27.959  1.00  0.00     0.014 A 
ATOM     40  C   UNL A   1      35.722  33.005  30.487  1.00  0.00     0.010 A 
ATOM     41  C   UNL A   1      36.431  33.353  28.191  1.00  0.00     0.010 A 
ATOM     42  C   UNL A   1      36.700  32.936  29.482  1.00  0.00    -0.014 A 
BRANCH  42  43
ATOM     43  C   UNL A   1      38.021  32.378  29.715  1.00  0.00     0.031 A 
ATOM     44  C   UNL A   1      38.135  30.931  29.415  1.00  0.00     0.074 A 
ATOM     45  C   UNL A   1      39.103  33.160  29.938  1.00  0.00     0.049 A 
ATOM     46  N   UNL A   1      38.319  29.973  30.257  1.00  0.00    -0.248 NA
ATOM     47  C   UNL A   1      37.873  30.475  28.039  1.00  0.00     0.031 C 
ATOM     48  C   UNL A   1      39.208  34.627  29.906  1.00  0.00     0.029 A 
ATOM     49  N   UNL A   1      40.394  32.783  30.110  1.00  0.00    -0.354 N 
ATOM     50  C   UNL A   1      38.404  28.808  29.503  1.00  0.00     0.074 A 
ATOM     51  C   UNL A   1      37.936  29.150  28.183  1.00  0.00     0.031 C 
ATOM     52  C   UNL A   1      40.507  34.986  29.784  1.00  0.00     0.029 A 
ATOM     53  C   UNL A   1      41.326  33.797  29.918  1.00  0.00     0.049 A 
ATOM     54  H   UNL A   1      40.651  31.865  30.353  1.00  0.00     0.167 HD
ATOM     55  C   UNL A   1      39.097  27.728  29.956  1.00  0.00     0.031 A 
ATOM     56  C   UNL A   1      42.671  33.644  29.821  1.00  0.00     0.031 A 
ATOM     57  C   UNL A   1      39.416  27.854  31.358  1.00  0.00     0.049 A 
ATOM     58  C   UNL A   1      43.012  32.314  30.371  1.00  0.00     0.074 A 
ATOM     59  C   UNL A   1      38.669  28.029  32.509  1.00  0.00     0.029 A 
ATOM     60  N   UNL A   1      40.695  28.251  31.677  1.00  0.00    -0.354 N 
ATOM     61  N   UNL A   1      42.904  32.025  31.635  1.00  0.00    -0.248 NA
ATOM     62  C   UNL A   1      42.988  31.177  29.460  1.00  0.00     0.031 C 
ATOM     63  C   UNL A   1      39.399  28.993  33.267  1.00  0.00     0.029 A 
ATOM     64  C   UNL A   1      40.584  29.271  32.587  1.00  0.00     0.049 A 
ATOM     65  H   UNL A   1      41.531  27.875  31.319  1.00  0.00     0.167 HD
ATOM     66  C   UNL A   1      42.336  30.762  31.650  1.00  0.00     0.074 A 
ATOM     67  C   UNL A   1      42.497  30.249  30.288  1.00  0.00     0.031 C 
ATOM     68  C   UNL A   1      41.510  30.375  32.667  1.00  0.00     0.031 A 
BRANCH  55  69
ATOM     69  C   UNL A   1      39.856  26.783  29.059  1.00  0.00    -0.014 A 
ATOM     70  C   UNL A   1      41.063  27.227  28.490  1.00  0.00     0.009 A 
ATOM     71  C   UNL A   1      39.298  25.608  28.523  1.00  0.00     0.009 A 
ATOM     72  C   UNL A   1      41.630  26.578  27.387  1.00  0.00     0.001 A 
ATOM     73  C   UNL A   1      39.884  24.933  27.449  1.00  0.00     0.001 A 
ATOM     74  C   UNL A   1      41.034  25.438  26.860  1.00  0.00     0.000 A 
ENDBRANCH  55  69
BRANCH  56  75
ATOM     75  C   UNL A   1      43.603  34.347  28.918  1.00  0.00    -0.014 A 
ATOM     76  C   UNL A   1      43.692  34.002  27.560  1.00  0.00     0.009 A 
ATOM     77  C   UNL A   1      44.124  35.586  29.321  1.00  0.00     0.009 A 
ATOM     78  C   UNL A   1      44.239  34.894  26.626  1.00  0.00     0.001 A 
ATOM     79  C   UNL A   1      44.623  36.487  28.383  1.00  0.00     0.001 A 
ATOM     80  C   UNL A   1      44.680  36.148  27.037  1.00  0.00     0.000 A 
ENDBRANCH  56  75
BRANCH  68  81
ATOM     81  C   UNL A   1      41.359  31.303  33.848  1.00  0.00    -0.014 A 
ATOM     82  C   UNL A   1      42.157  31.220  35.005  1.00  0.00     0.009 A 
ATOM     83  C   UNL A   1      40.490  32.395  33.724  1.00  0.00     0.009 A 
ATOM     84  C   UNL A   1      42.067  32.185  36.015  1.00  0.00     0.001 A 
ATOM     85  C   UNL A   1      40.414  33.369  34.721  1.00  0.00     0.001 A 
ATOM     86  C   UNL A   1      41.198  33.262  35.868  1.00  0.00     0.000 A 
ENDBRANCH  68  81
ENDBRANCH  42  43
ENDBRANCH  34  37
ENDBRANCH  32  33
ENDBRANCH  31  32
ENDBRANCH  30  31
ENDBRANCH   1  30
TORSDOF 18
ENDMDL
MODEL 3
REMARK VINA RESULT:     -11.5      2.539      7.861
REMARK SMILES COc1ccc(-c2ncn(CC(=O)NCCCCCCNC(=O)c3ccc(-c4c5nc(c(-c6ccccc6)c6ccc([nH]6)c(-c6ccccc6)c6nc(c(-c7ccccc7)c7ccc4[nH]7)C=C6)C=C5)cc3)c2-c2ccc(OC)cc2)cc1
REMARK SMILES IDX 17 1 16 2 15 3 14 4 12 5 13 6 11 8 10 9 7 10 8 11 72 12 9 13
REMARK SMILES IDX 6 14 3 15 4 16 82 17 5 18 81 19 2 20 1 21 73 22 74 23 80 24
REMARK SMILES IDX 75 25 79 26 76 27 77 28 78 29 18 30 19 31 20 32 21 33 22 34
REMARK SMILES IDX 23 36 24 37 25 38 71 39 26 40 70 41 27 42 28 43 29 44 64 45
REMARK SMILES IDX 30 46 69 47 63 48 65 49 31 50 68 51 62 52 61 53 32 55 54 56
REMARK SMILES IDX 39 57 53 58 40 59 43 60 52 61 66 62 41 63 42 64 51 66 67 67
REMARK SMILES IDX 44 68 33 69 34 70 38 71 35 72 37 73 36 74 55 75 56 76 60 77
REMARK SMILES IDX 57 78 59 79 58 80 45 81 46 82 50 83 47 84 49 85 48 86
REMARK H PARENT 14 7 21 35 65 54 43 65
REMARK Flexibility Score: inf
ROOT
ATOM      1  C   UNL A   1      31.750  29.693  27.112  1.00  0.00     0.002 C 
ENDROOT
BRANCH   1   2
ATOM      2  C   UNL A   1      31.671  28.249  27.625  1.00  0.00     0.021 C 
BRANCH   2   3
ATOM      3  C   UNL A   1      31.375  27.206  26.549  1.00  0.00     0.116 C 
BRANCH   3   4
ATOM      4  N   UNL A   1      31.379  27.771  25.215  1.00  0.00    -0.355 N 
ATOM      5  C   UNL A   1      32.092  27.398  24.114  1.00  0.00     0.239 C 
ATOM      6  O   UNL A   1      31.821  27.954  23.046  1.00  0.00    -0.273 OA
ATOM      7  H   UNL A   1      30.776  28.538  25.083  1.00  0.00     0.163 HD
BRANCH   5   8
ATOM      8  C   UNL A   1      33.124  26.291  24.177  1.00  0.00     0.223 C 
BRANCH   8   9
ATOM      9  N   UNL A   1      32.595  24.962  23.918  1.00  0.00    -0.321 N 
ATOM     10  C   UNL A   1      32.246  22.820  23.774  1.00  0.00     0.096 A 
ATOM     11  N   UNL A   1      31.124  23.422  23.270  1.00  0.00    -0.236 NA
ATOM     12  C   UNL A   1      33.214  23.752  24.125  1.00  0.00     0.076 A 
ATOM     13  C   UNL A   1      31.379  24.708  23.336  1.00  0.00     0.201 A 
BRANCH  10  14
ATOM     14  C   UNL A   1      32.464  21.393  23.852  1.00  0.00     0.003 A 
ATOM     15  C   UNL A   1      32.494  18.600  24.095  1.00  0.00     0.118 A 
ATOM     16  C   UNL A   1      32.212  19.198  22.866  1.00  0.00     0.047 A 
ATOM     17  C   UNL A   1      32.775  19.407  25.201  1.00  0.00     0.047 A 
ATOM     18  C   UNL A   1      32.189  20.586  22.743  1.00  0.00     0.014 A 
ATOM     19  C   UNL A   1      32.789  20.801  25.073  1.00  0.00     0.014 A 
BRANCH  15  20
ATOM     20  O   UNL A   1      32.499  17.235  24.062  1.00  0.00    -0.497 OA
ATOM     21  C   UNL A   1      33.716  16.578  23.748  1.00  0.00     0.278 C 
ENDBRANCH  15  20
ENDBRANCH  10  14
BRANCH  12  22
ATOM     22  C   UNL A   1      34.601  23.533  24.513  1.00  0.00     0.001 A 
ATOM     23  C   UNL A   1      35.599  23.291  23.571  1.00  0.00     0.014 A 
ATOM     24  C   UNL A   1      34.956  23.681  25.859  1.00  0.00     0.014 A 
ATOM     25  C   UNL A   1      36.929  23.161  23.979  1.00  0.00     0.047 A 
ATOM     26  C   UNL A   1      36.288  23.579  26.263  1.00  0.00     0.047 A 
ATOM     27  C   UNL A   1      37.282  23.313  25.322  1.00  0.00     0.118 A 
BRANCH  27  28
ATOM     28  O   UNL A   1      38.617  23.183  25.584  1.00  0.00    -0.497 OA
ATOM     29  C   UNL A   1      39.034  21.945  26.147  1.00  0.00     0.278 C 
ENDBRANCH  27  28
ENDBRANCH  12  22
ENDBRANCH   8   9
ENDBRANCH   5   8
ENDBRANCH   3   4
ENDBRANCH   2   3
ENDBRANCH   1   2
BRANCH   1  30
ATOM     30  C   UNL A   1      33.135  30.359  27.171  1.00  0.00     0.002 C 
BRANCH  30  31
ATOM     31  C   UNL A   1      34.283  29.638  26.447  1.00  0.00     0.021 C 
BRANCH  31  32
ATOM     32  C   UNL A   1      35.306  29.020  27.382  1.00  0.00     0.116 C 
BRANCH  32  33
ATOM     33  N   UNL A   1      35.425  29.736  28.656  1.00  0.00    -0.352 N 
ATOM     34  C   UNL A   1      36.443  29.645  29.587  1.00  0.00     0.251 C 
ATOM     35  H   UNL A   1      34.694  30.357  28.873  1.00  0.00     0.163 HD
ATOM     36  O   UNL A   1      36.274  29.988  30.757  1.00  0.00    -0.269 OA
BRANCH  34  37
ATOM     37  C   UNL A   1      37.751  29.144  29.142  1.00  0.00     0.039 A 
ATOM     38  C   UNL A   1      38.381  29.587  27.976  1.00  0.00     0.014 A 
ATOM     39  C   UNL A   1      38.370  28.223  29.978  1.00  0.00     0.014 A 
ATOM     40  C   UNL A   1      39.668  29.127  27.704  1.00  0.00     0.010 A 
ATOM     41  C   UNL A   1      39.703  27.984  29.846  1.00  0.00     0.010 A 
ATOM     42  C   UNL A   1      40.321  28.330  28.657  1.00  0.00    -0.014 A 
BRANCH  42  43
ATOM     43  C   UNL A   1      41.688  27.870  28.488  1.00  0.00     0.031 A 
ATOM     44  C   UNL A   1      41.817  26.591  27.749  1.00  0.00     0.074 A 
ATOM     45  C   UNL A   1      42.752  28.663  28.756  1.00  0.00     0.049 A 
ATOM     46  N   UNL A   1      42.205  25.456  28.219  1.00  0.00    -0.248 NA
ATOM     47  C   UNL A   1      41.323  26.528  26.363  1.00  0.00     0.031 C 
ATOM     48  C   UNL A   1      42.775  30.079  29.153  1.00  0.00     0.029 A 
ATOM     49  N   UNL A   1      44.070  28.390  28.590  1.00  0.00    -0.354 N 
ATOM     50  C   UNL A   1      42.205  24.574  27.144  1.00  0.00     0.074 A 
ATOM     51  C   UNL A   1      41.480  25.232  26.086  1.00  0.00     0.031 C 
ATOM     52  C   UNL A   1      44.007  30.593  28.933  1.00  0.00     0.029 A 
ATOM     53  C   UNL A   1      44.896  29.508  28.563  1.00  0.00     0.049 A 
ATOM     54  H   UNL A   1      44.415  27.473  28.497  1.00  0.00     0.167 HD
ATOM     55  C   UNL A   1      43.026  23.488  27.127  1.00  0.00     0.031 A 
ATOM     56  C   UNL A   1      46.204  29.532  28.204  1.00  0.00     0.031 A 
ATOM     57  C   UNL A   1      43.597  23.237  28.428  1.00  0.00     0.049 A 
ATOM     58  C   UNL A   1      46.710  28.143  28.260  1.00  0.00     0.074 A 
ATOM     59  C   UNL A   1      43.074  22.993  29.685  1.00  0.00     0.029 A 
ATOM     60  N   UNL A   1      44.891  23.657  28.637  1.00  0.00    -0.354 N 
ATOM     61  N   UNL A   1      46.858  27.492  29.377  1.00  0.00    -0.248 NA
ATOM     62  C   UNL A   1      46.573  27.322  27.065  1.00  0.00     0.031 C 
ATOM     63  C   UNL A   1      43.883  23.767  30.569  1.00  0.00     0.029 A 
ATOM     64  C   UNL A   1      44.903  24.353  29.818  1.00  0.00     0.049 A 
ATOM     65  H   UNL A   1      45.663  23.490  28.048  1.00  0.00     0.167 HD
ATOM     66  C   UNL A   1      46.368  26.226  29.102  1.00  0.00     0.074 A 
ATOM     67  C   UNL A   1      46.295  26.148  27.641  1.00  0.00     0.031 C 
ATOM     68  C   UNL A   1      45.770  25.478  30.075  1.00  0.00     0.031 A 
BRANCH  55  69
ATOM     69  C   UNL A   1      43.649  22.928  25.873  1.00  0.00    -0.014 A 
ATOM     70  C   UNL A   1      43.605  21.538  25.669  1.00  0.00     0.009 A 
ATOM     71  C   UNL A   1      44.519  23.663  25.046  1.00  0.00     0.009 A 
ATOM     72  C   UNL A   1      44.452  20.910  24.748  1.00  0.00     0.001 A 
ATOM     73  C   UNL A   1      45.335  23.044  24.096  1.00  0.00     0.001 A 
ATOM     74  C   UNL A   1      45.325  21.663  23.971  1.00  0.00     0.000 A 
ENDBRANCH  55  69
BRANCH  56  75
ATOM     75  C   UNL A   1      46.913  30.560  27.415  1.00  0.00    -0.014 A 
ATOM     76  C   UNL A   1      46.222  31.652  26.866  1.00  0.00     0.009 A 
ATOM     77  C   UNL A   1      48.309  30.647  27.524  1.00  0.00     0.009 A 
ATOM     78  C   UNL A   1      46.905  32.816  26.484  1.00  0.00     0.001 A 
ATOM     79  C   UNL A   1      48.976  31.823  27.188  1.00  0.00     0.001 A 
ATOM     80  C   UNL A   1      48.280  32.909  26.672  1.00  0.00     0.000 A 
ENDBRANCH  56  75
BRANCH  68  81
ATOM     81  C   UNL A   1      45.798  26.003  31.490  1.00  0.00    -0.014 A 
ATOM     82  C   UNL A   1      46.824  25.705  32.406  1.00  0.00     0.009 A 
ATOM     83  C   UNL A   1      44.841  26.957  31.859  1.00  0.00     0.009 A 
ATOM     84  C   UNL A   1      46.873  26.323  33.661  1.00  0.00     0.001 A 
ATOM     85  C   UNL A   1      44.900  27.589  33.103  1.00  0.00     0.001 A 
ATOM     86  C   UNL A   1      45.912  27.269  34.006  1.00  0.00     0.000 A 
ENDBRANCH  68  81
ENDBRANCH  42  43
ENDBRANCH  34  37
ENDBRANCH  32  33
ENDBRANCH  31  32
ENDBRANCH  30  31
ENDBRANCH   1  30
TORSDOF 18
ENDMDL
