MODEL 1
REMARK VINA RESULT:     -11.5      0.000      0.000
REMARK SMILES O=C(NCCCCCCNC(=O)c1cc(Br)ccc1OC(=O)c1ccc(F)cc1)c1ccc(-c2c3nc(c(-c4ccccc4)c4ccc([nH]4)c(-c4ccccc4)c4nc(c(-c5ccccc5)c5ccc2[nH]5)C=C4)C=C3)cc1
REMARK SMILES IDX 7 1 6 2 5 3 4 4 3 5 1 6 2 7 30 9 31 10 77 11 32 12 76 13
REMARK SMILES IDX 33 14 34 15 35 16 70 17 36 18 75 19 69 20 71 21 37 22 74 23
REMARK SMILES IDX 68 24 67 25 38 27 60 28 45 29 59 30 46 31 49 32 58 33 72 34
REMARK SMILES IDX 47 35 48 36 57 38 73 39 50 40 39 41 40 42 44 43 41 44 43 45
REMARK SMILES IDX 42 46 61 47 62 48 66 49 63 50 65 51 64 52 51 53 52 54 56 55
REMARK SMILES IDX 53 56 55 57 54 58 8 59 9 60 10 61 11 62 12 64 13 65 14 66
REMARK SMILES IDX 19 67 15 68 18 69 16 70 17 71 20 72 21 73 22 74 23 75 24 76
REMARK SMILES IDX 29 77 25 78 28 79 26 80 27 81
REMARK H PARENT 3 8 71 26 49 37 10 63
REMARK Flexibility Score: inf
ROOT
ATOM      1  C   UNL A   1      37.401  22.120  24.657  1.00  0.00     0.002 C 
ENDROOT
BRANCH   1   2
ATOM      2  C   UNL A   1      36.988  20.656  24.835  1.00  0.00     0.002 C 
BRANCH   2   3
ATOM      3  C   UNL A   1      38.135  19.651  24.938  1.00  0.00     0.021 C 
BRANCH   3   4
ATOM      4  C   UNL A   1      39.235  20.026  25.920  1.00  0.00     0.116 C 
BRANCH   4   5
ATOM      5  N   UNL A   1      40.338  19.081  25.902  1.00  0.00    -0.352 N 
ATOM      6  O   UNL A   1      42.494  18.420  25.842  1.00  0.00    -0.269 OA
ATOM      7  C   UNL A   1      41.681  19.311  26.066  1.00  0.00     0.251 C 
ATOM      8  H   UNL A   1      40.087  18.142  25.749  1.00  0.00     0.163 HD
BRANCH   7   9
ATOM      9  C   UNL A   1      42.154  20.643  26.505  1.00  0.00     0.039 A 
ATOM     10  C   UNL A   1      42.562  21.602  25.573  1.00  0.00     0.014 A 
ATOM     11  C   UNL A   1      42.142  20.949  27.868  1.00  0.00     0.014 A 
ATOM     12  C   UNL A   1      43.045  22.832  26.010  1.00  0.00     0.010 A 
ATOM     13  C   UNL A   1      42.561  22.210  28.301  1.00  0.00     0.010 A 
ATOM     14  C   UNL A   1      43.022  23.158  27.375  1.00  0.00    -0.014 A 
BRANCH  14  15
ATOM     15  C   UNL A   1      43.365  24.535  27.805  1.00  0.00     0.031 A 
ATOM     16  C   UNL A   1      42.300  25.547  28.114  1.00  0.00     0.074 A 
ATOM     17  C   UNL A   1      44.668  24.871  27.889  1.00  0.00     0.049 A 
ATOM     18  N   UNL A   1      42.439  26.799  28.469  1.00  0.00    -0.248 NA
ATOM     19  C   UNL A   1      40.902  25.104  28.007  1.00  0.00     0.031 C 
ATOM     20  C   UNL A   1      45.790  23.974  27.596  1.00  0.00     0.029 A 
ATOM     21  N   UNL A   1      45.270  26.051  28.241  1.00  0.00    -0.354 N 
ATOM     22  C   UNL A   1      41.151  27.301  28.605  1.00  0.00     0.074 A 
ATOM     23  C   UNL A   1      40.242  26.222  28.285  1.00  0.00     0.031 C 
ATOM     24  C   UNL A   1      46.942  24.629  27.800  1.00  0.00     0.029 A 
ATOM     25  C   UNL A   1      46.642  26.005  28.175  1.00  0.00     0.049 A 
ATOM     26  H   UNL A   1      44.768  26.853  28.513  1.00  0.00     0.167 HD
ATOM     27  C   UNL A   1      40.768  28.550  28.964  1.00  0.00     0.031 A 
ATOM     28  C   UNL A   1      47.559  26.971  28.360  1.00  0.00     0.031 A 
ATOM     29  C   UNL A   1      41.680  29.617  29.288  1.00  0.00     0.049 A 
ATOM     30  C   UNL A   1      47.100  28.354  28.713  1.00  0.00     0.074 A 
ATOM     31  C   UNL A   1      41.385  30.893  29.736  1.00  0.00     0.029 A 
ATOM     32  N   UNL A   1      43.060  29.538  29.183  1.00  0.00    -0.354 N 
ATOM     33  N   UNL A   1      45.881  28.790  28.914  1.00  0.00    -0.248 NA
ATOM     34  C   UNL A   1      48.142  29.380  28.857  1.00  0.00     0.031 C 
ATOM     35  C   UNL A   1      42.584  31.607  29.842  1.00  0.00     0.029 A 
ATOM     36  C   UNL A   1      43.627  30.758  29.511  1.00  0.00     0.049 A 
ATOM     37  H   UNL A   1      43.561  28.734  28.916  1.00  0.00     0.167 HD
ATOM     38  C   UNL A   1      46.008  30.137  29.216  1.00  0.00     0.074 A 
ATOM     39  C   UNL A   1      47.425  30.441  29.198  1.00  0.00     0.031 C 
ATOM     40  C   UNL A   1      45.037  31.045  29.478  1.00  0.00     0.031 A 
BRANCH  27  41
ATOM     41  C   UNL A   1      39.298  28.855  29.001  1.00  0.00    -0.014 A 
ATOM     42  C   UNL A   1      38.547  28.699  30.174  1.00  0.00     0.009 A 
ATOM     43  C   UNL A   1      38.676  29.393  27.861  1.00  0.00     0.009 A 
ATOM     44  C   UNL A   1      37.197  29.060  30.201  1.00  0.00     0.001 A 
ATOM     45  C   UNL A   1      37.333  29.773  27.897  1.00  0.00     0.001 A 
ATOM     46  C   UNL A   1      36.594  29.601  29.066  1.00  0.00     0.000 A 
ENDBRANCH  27  41
BRANCH  28  47
ATOM     47  C   UNL A   1      49.001  26.670  28.164  1.00  0.00    -0.014 A 
ATOM     48  C   UNL A   1      49.815  26.318  29.248  1.00  0.00     0.009 A 
ATOM     49  C   UNL A   1      49.567  26.736  26.881  1.00  0.00     0.009 A 
ATOM     50  C   UNL A   1      51.175  26.061  29.055  1.00  0.00     0.001 A 
ATOM     51  C   UNL A   1      50.919  26.448  26.686  1.00  0.00     0.001 A 
ATOM     52  C   UNL A   1      51.724  26.120  27.775  1.00  0.00     0.000 A 
ENDBRANCH  28  47
BRANCH  40  53
ATOM     53  C   UNL A   1      45.478  32.449  29.772  1.00  0.00    -0.014 A 
ATOM     54  C   UNL A   1      45.817  32.840  31.076  1.00  0.00     0.009 A 
ATOM     55  C   UNL A   1      45.594  33.379  28.726  1.00  0.00     0.009 A 
ATOM     56  C   UNL A   1      46.239  34.145  31.332  1.00  0.00     0.001 A 
ATOM     57  C   UNL A   1      46.042  34.674  28.982  1.00  0.00     0.001 A 
ATOM     58  C   UNL A   1      46.357  35.059  30.286  1.00  0.00     0.000 A 
ENDBRANCH  40  53
ENDBRANCH  14  15
ENDBRANCH   7   9
ENDBRANCH   4   5
ENDBRANCH   3   4
ENDBRANCH   2   3
ENDBRANCH   1   2
BRANCH   1  59
ATOM     59  C   UNL A   1      36.355  23.035  24.018  1.00  0.00     0.021 C 
BRANCH  59  60
ATOM     60  C   UNL A   1      35.764  24.104  24.936  1.00  0.00     0.116 C 
BRANCH  60  61
ATOM     61  N   UNL A   1      35.039  23.549  26.067  1.00  0.00    -0.352 N 
ATOM     62  C   UNL A   1      33.688  23.554  26.311  1.00  0.00     0.255 C 
ATOM     63  H   UNL A   1      35.593  23.108  26.751  1.00  0.00     0.163 HD
ATOM     64  O   UNL A   1      33.242  23.145  27.378  1.00  0.00    -0.269 OA
BRANCH  62  65
ATOM     65  C   UNL A   1      32.771  24.064  25.275  1.00  0.00     0.083 A 
ATOM     66  C   UNL A   1      32.326  25.390  25.353  1.00  0.00     0.033 A 
ATOM     67  C   UNL A   1      32.356  23.255  24.211  1.00  0.00     0.144 A 
ATOM     68  C   UNL A   1      31.419  25.869  24.410  1.00  0.00     0.019 A 
ATOM     69  C   UNL A   1      31.463  23.747  23.257  1.00  0.00     0.049 A 
ATOM     70  Br  UNL A   1      30.777  27.642  24.550  1.00  0.00    -0.051 Br
ATOM     71  C   UNL A   1      30.977  25.052  23.370  1.00  0.00     0.019 A 
BRANCH  67  72
ATOM     72  O   UNL A   1      32.882  21.977  23.972  1.00  0.00    -0.422 OA
BRANCH  72  73
ATOM     73  C   UNL A   1      32.252  20.921  24.601  1.00  0.00     0.343 C 
ATOM     74  O   UNL A   1      31.368  20.989  25.445  1.00  0.00    -0.246 OA
BRANCH  73  75
ATOM     75  C   UNL A   1      32.810  19.640  24.089  1.00  0.00     0.060 A 
ATOM     76  C   UNL A   1      32.230  18.952  23.010  1.00  0.00     0.019 A 
ATOM     77  C   UNL A   1      33.933  19.097  24.732  1.00  0.00     0.019 A 
ATOM     78  C   UNL A   1      32.766  17.733  22.588  1.00  0.00     0.040 A 
ATOM     79  C   UNL A   1      34.468  17.881  24.301  1.00  0.00     0.040 A 
ATOM     80  C   UNL A   1      33.878  17.208  23.236  1.00  0.00     0.123 A 
ATOM     81  F   UNL A   1      34.384  16.036  22.833  1.00  0.00    -0.207 F 
ENDBRANCH  73  75
ENDBRANCH  72  73
ENDBRANCH  67  72
ENDBRANCH  62  65
ENDBRANCH  60  61
ENDBRANCH  59  60
ENDBRANCH   1  59
TORSDOF 16
ENDMDL
MODEL 2
REMARK VINA RESULT:     -11.4      2.134      3.588
REMARK SMILES O=C(NCCCCCCNC(=O)c1cc(Br)ccc1OC(=O)c1ccc(F)cc1)c1ccc(-c2c3nc(c(-c4ccccc4)c4ccc([nH]4)c(-c4ccccc4)c4nc(c(-c5ccccc5)c5ccc2[nH]5)C=C4)C=C3)cc1
REMARK SMILES IDX 7 1 6 2 5 3 4 4 3 5 1 6 2 7 30 9 31 10 77 11 32 12 76 13
REMARK SMILES IDX 33 14 34 15 35 16 70 17 36 18 75 19 69 20 71 21 37 22 74 23
REMARK SMILES IDX 68 24 67 25 38 27 60 28 45 29 59 30 46 31 49 32 58 33 72 34
REMARK SMILES IDX 47 35 48 36 57 38 73 39 50 40 39 41 40 42 44 43 41 44 43 45
REMARK SMILES IDX 42 46 61 47 62 48 66 49 63 50 65 51 64 52 51 53 52 54 56 55
REMARK SMILES IDX 53 56 55 57 54 58 8 59 9 60 10 61 11 62 12 64 13 65 14 66
REMARK SMILES IDX 19 67 15 68 18 69 16 70 17 71 20 72 21 73 22 74 23 75 24 76
REMARK SMILES IDX 29 77 25 78 28 79 26 80 27 81
REMARK H PARENT 3 8 71 26 49 37 10 63
REMARK Flexibility Score: inf
ROOT
ATOM      1  C   UNL A   1      36.938  22.223  25.313  1.00  0.00     0.002 C 
ENDROOT
BRANCH   1   2
ATOM      2  C   UNL A   1      36.619  20.819  24.790  1.00  0.00     0.002 C 
BRANCH   2   3
ATOM      3  C   UNL A   1      37.728  19.780  24.959  1.00  0.00     0.021 C 
BRANCH   3   4
ATOM      4  C   UNL A   1      38.955  20.265  25.718  1.00  0.00     0.116 C 
BRANCH   4   5
ATOM      5  N   UNL A   1      39.976  19.238  25.830  1.00  0.00    -0.352 N 
ATOM      6  O   UNL A   1      42.070  18.409  25.956  1.00  0.00    -0.269 OA
ATOM      7  C   UNL A   1      41.320  19.373  26.071  1.00  0.00     0.251 C 
ATOM      8  H   UNL A   1      39.659  18.313  25.717  1.00  0.00     0.163 HD
BRANCH   7   9
ATOM      9  C   UNL A   1      41.872  20.690  26.462  1.00  0.00     0.039 A 
ATOM     10  C   UNL A   1      42.212  21.640  25.494  1.00  0.00     0.014 A 
ATOM     11  C   UNL A   1      42.005  20.993  27.820  1.00  0.00     0.014 A 
ATOM     12  C   UNL A   1      42.771  22.855  25.881  1.00  0.00     0.010 A 
ATOM     13  C   UNL A   1      42.500  22.239  28.208  1.00  0.00     0.010 A 
ATOM     14  C   UNL A   1      42.893  23.177  27.242  1.00  0.00    -0.014 A 
BRANCH  14  15
ATOM     15  C   UNL A   1      43.316  24.543  27.636  1.00  0.00     0.031 A 
ATOM     16  C   UNL A   1      42.315  25.587  28.037  1.00  0.00     0.074 A 
ATOM     17  C   UNL A   1      44.631  24.837  27.603  1.00  0.00     0.049 A 
ATOM     18  N   UNL A   1      42.524  26.835  28.375  1.00  0.00    -0.248 NA
ATOM     19  C   UNL A   1      40.899  25.188  28.056  1.00  0.00     0.031 C 
ATOM     20  C   UNL A   1      45.693  23.906  27.213  1.00  0.00     0.029 A 
ATOM     21  N   UNL A   1      45.298  25.998  27.896  1.00  0.00    -0.354 N 
ATOM     22  C   UNL A   1      41.269  27.376  28.624  1.00  0.00     0.074 A 
ATOM     23  C   UNL A   1      40.302  26.326  28.389  1.00  0.00     0.031 C 
ATOM     24  C   UNL A   1      46.879  24.525  27.311  1.00  0.00     0.029 A 
ATOM     25  C   UNL A   1      46.656  25.910  27.708  1.00  0.00     0.049 A 
ATOM     26  H   UNL A   1      44.848  26.816  28.210  1.00  0.00     0.167 HD
ATOM     27  C   UNL A   1      40.959  28.636  29.013  1.00  0.00     0.031 A 
ATOM     28  C   UNL A   1      47.616  26.846  27.808  1.00  0.00     0.031 A 
ATOM     29  C   UNL A   1      41.929  29.674  29.251  1.00  0.00     0.049 A 
ATOM     30  C   UNL A   1      47.234  28.243  28.197  1.00  0.00     0.074 A 
ATOM     31  C   UNL A   1      41.716  30.959  29.721  1.00  0.00     0.029 A 
ATOM     32  N   UNL A   1      43.291  29.552  29.023  1.00  0.00    -0.354 N 
ATOM     33  N   UNL A   1      46.052  28.716  28.505  1.00  0.00    -0.248 NA
ATOM     34  C   UNL A   1      48.317  29.235  28.245  1.00  0.00     0.031 C 
ATOM     35  C   UNL A   1      42.940  31.635  29.717  1.00  0.00     0.029 A 
ATOM     36  C   UNL A   1      43.923  30.754  29.296  1.00  0.00     0.049 A 
ATOM     37  H   UNL A   1      43.741  28.733  28.715  1.00  0.00     0.167 HD
ATOM     38  C   UNL A   1      46.247  30.059  28.791  1.00  0.00     0.074 A 
ATOM     39  C   UNL A   1      47.666  30.319  28.646  1.00  0.00     0.031 C 
ATOM     40  C   UNL A   1      45.333  30.997  29.136  1.00  0.00     0.031 A 
BRANCH  27  41
ATOM     41  C   UNL A   1      39.508  28.987  29.180  1.00  0.00    -0.014 A 
ATOM     42  C   UNL A   1      38.746  29.478  28.110  1.00  0.00     0.009 A 
ATOM     43  C   UNL A   1      38.874  28.737  30.409  1.00  0.00     0.009 A 
ATOM     44  C   UNL A   1      37.380  29.728  28.273  1.00  0.00     0.001 A 
ATOM     45  C   UNL A   1      37.506  28.967  30.562  1.00  0.00     0.001 A 
ATOM     46  C   UNL A   1      36.761  29.466  29.495  1.00  0.00     0.000 A 
ENDBRANCH  27  41
BRANCH  28  47
ATOM     47  C   UNL A   1      49.024  26.500  27.485  1.00  0.00    -0.014 A 
ATOM     48  C   UNL A   1      49.530  26.681  26.190  1.00  0.00     0.009 A 
ATOM     49  C   UNL A   1      49.871  25.984  28.479  1.00  0.00     0.009 A 
ATOM     50  C   UNL A   1      50.849  26.330  25.893  1.00  0.00     0.001 A 
ATOM     51  C   UNL A   1      51.197  25.663  28.186  1.00  0.00     0.001 A 
ATOM     52  C   UNL A   1      51.682  25.826  26.891  1.00  0.00     0.000 A 
ENDBRANCH  28  47
BRANCH  40  53
ATOM     53  C   UNL A   1      45.842  32.386  29.386  1.00  0.00    -0.014 A 
ATOM     54  C   UNL A   1      45.876  33.338  28.356  1.00  0.00     0.009 A 
ATOM     55  C   UNL A   1      46.254  32.758  30.675  1.00  0.00     0.009 A 
ATOM     56  C   UNL A   1      46.339  34.630  28.606  1.00  0.00     0.001 A 
ATOM     57  C   UNL A   1      46.691  34.058  30.928  1.00  0.00     0.001 A 
ATOM     58  C   UNL A   1      46.740  34.991  29.892  1.00  0.00     0.000 A 
ENDBRANCH  40  53
ENDBRANCH  14  15
ENDBRANCH   7   9
ENDBRANCH   4   5
ENDBRANCH   3   4
ENDBRANCH   2   3
ENDBRANCH   1   2
BRANCH   1  59
ATOM     59  C   UNL A   1      36.327  23.383  24.524  1.00  0.00     0.021 C 
BRANCH  59  60
ATOM     60  C   UNL A   1      35.658  23.004  23.204  1.00  0.00     0.116 C 
BRANCH  60  61
ATOM     61  N   UNL A   1      34.334  23.582  23.049  1.00  0.00    -0.352 N 
ATOM     62  C   UNL A   1      33.114  23.041  23.373  1.00  0.00     0.255 C 
ATOM     63  H   UNL A   1      34.308  24.486  22.660  1.00  0.00     0.163 HD
ATOM     64  O   UNL A   1      32.073  23.613  23.067  1.00  0.00    -0.269 OA
BRANCH  62  65
ATOM     65  C   UNL A   1      33.064  21.755  24.092  1.00  0.00     0.083 A 
ATOM     66  C   UNL A   1      32.950  20.568  23.356  1.00  0.00     0.033 A 
ATOM     67  C   UNL A   1      33.150  21.699  25.488  1.00  0.00     0.144 A 
ATOM     68  C   UNL A   1      32.851  19.350  24.025  1.00  0.00     0.019 A 
ATOM     69  C   UNL A   1      33.070  20.473  26.152  1.00  0.00     0.049 A 
ATOM     70  Br  UNL A   1      32.639  17.755  23.032  1.00  0.00    -0.051 Br
ATOM     71  C   UNL A   1      32.899  19.298  25.418  1.00  0.00     0.019 A 
BRANCH  67  72
ATOM     72  O   UNL A   1      33.430  22.821  26.281  1.00  0.00    -0.422 OA
BRANCH  72  73
ATOM     73  C   UNL A   1      32.345  23.473  26.836  1.00  0.00     0.343 C 
ATOM     74  O   UNL A   1      31.532  23.008  27.624  1.00  0.00    -0.246 OA
BRANCH  73  75
ATOM     75  C   UNL A   1      32.302  24.872  26.332  1.00  0.00     0.060 A 
ATOM     76  C   UNL A   1      31.092  25.559  26.141  1.00  0.00     0.019 A 
ATOM     77  C   UNL A   1      33.514  25.504  26.010  1.00  0.00     0.019 A 
ATOM     78  C   UNL A   1      31.098  26.859  25.628  1.00  0.00     0.040 A 
ATOM     79  C   UNL A   1      33.514  26.806  25.504  1.00  0.00     0.040 A 
ATOM     80  C   UNL A   1      32.306  27.470  25.314  1.00  0.00     0.123 A 
ATOM     81  F   UNL A   1      32.307  28.713  24.816  1.00  0.00    -0.207 F 
ENDBRANCH  73  75
ENDBRANCH  72  73
ENDBRANCH  67  72
ENDBRANCH  62  65
ENDBRANCH  60  61
ENDBRANCH  59  60
ENDBRANCH   1  59
TORSDOF 16
ENDMDL
MODEL 3
REMARK VINA RESULT:     -11.4      0.501      5.829
REMARK SMILES O=C(NCCCCCCNC(=O)c1cc(Br)ccc1OC(=O)c1ccc(F)cc1)c1ccc(-c2c3nc(c(-c4ccccc4)c4ccc([nH]4)c(-c4ccccc4)c4nc(c(-c5ccccc5)c5ccc2[nH]5)C=C4)C=C3)cc1
REMARK SMILES IDX 7 1 6 2 5 3 4 4 3 5 1 6 2 7 30 9 31 10 77 11 32 12 76 13
REMARK SMILES IDX 33 14 34 15 35 16 70 17 36 18 75 19 69 20 71 21 37 22 74 23
REMARK SMILES IDX 68 24 67 25 38 27 60 28 45 29 59 30 46 31 49 32 58 33 72 34
REMARK SMILES IDX 47 35 48 36 57 38 73 39 50 40 39 41 40 42 44 43 41 44 43 45
REMARK SMILES IDX 42 46 61 47 62 48 66 49 63 50 65 51 64 52 51 53 52 54 56 55
REMARK SMILES IDX 53 56 55 57 54 58 8 59 9 60 10 61 11 62 12 64 13 65 14 66
REMARK SMILES IDX 19 67 15 68 18 69 16 70 17 71 20 72 21 73 22 74 23 75 24 76
REMARK SMILES IDX 29 77 25 78 28 79 26 80 27 81
REMARK H PARENT 3 8 71 26 49 37 10 63
REMARK Flexibility Score: inf
ROOT
ATOM      1  C   UNL A   1      37.268  21.993  24.802  1.00  0.00     0.002 C 
ENDROOT
BRANCH   1   2
ATOM      2  C   UNL A   1      36.843  20.521  24.777  1.00  0.00     0.002 C 
BRANCH   2   3
ATOM      3  C   UNL A   1      37.963  19.504  24.999  1.00  0.00     0.021 C 
BRANCH   3   4
ATOM      4  C   UNL A   1      39.140  20.010  25.822  1.00  0.00     0.116 C 
BRANCH   4   5
ATOM      5  N   UNL A   1      40.196  19.020  25.941  1.00  0.00    -0.352 N 
ATOM      6  O   UNL A   1      42.318  18.259  26.015  1.00  0.00    -0.269 OA
ATOM      7  C   UNL A   1      41.544  19.207  26.113  1.00  0.00     0.251 C 
ATOM      8  H   UNL A   1      39.903  18.082  25.891  1.00  0.00     0.163 HD
BRANCH   7   9
ATOM      9  C   UNL A   1      42.072  20.558  26.408  1.00  0.00     0.039 A 
ATOM     10  C   UNL A   1      42.408  21.437  25.375  1.00  0.00     0.014 A 
ATOM     11  C   UNL A   1      42.185  20.964  27.741  1.00  0.00     0.014 A 
ATOM     12  C   UNL A   1      42.945  22.686  25.674  1.00  0.00     0.010 A 
ATOM     13  C   UNL A   1      42.657  22.244  28.039  1.00  0.00     0.010 A 
ATOM     14  C   UNL A   1      43.047  23.112  27.008  1.00  0.00    -0.014 A 
BRANCH  14  15
ATOM     15  C   UNL A   1      43.444  24.510  27.302  1.00  0.00     0.031 A 
ATOM     16  C   UNL A   1      44.879  24.946  27.243  1.00  0.00     0.074 A 
ATOM     17  C   UNL A   1      42.481  25.386  27.652  1.00  0.00     0.049 A 
ATOM     18  N   UNL A   1      45.389  26.123  27.505  1.00  0.00    -0.248 NA
ATOM     19  C   UNL A   1      45.872  23.935  26.846  1.00  0.00     0.031 C 
ATOM     20  C   UNL A   1      41.053  25.070  27.759  1.00  0.00     0.029 A 
ATOM     21  N   UNL A   1      42.553  26.714  27.984  1.00  0.00    -0.354 N 
ATOM     22  C   UNL A   1      46.760  25.991  27.328  1.00  0.00     0.074 A 
ATOM     23  C   UNL A   1      47.006  24.617  26.946  1.00  0.00     0.031 C 
ATOM     24  C   UNL A   1      40.383  26.177  28.112  1.00  0.00     0.029 A 
ATOM     25  C   UNL A   1      41.336  27.261  28.316  1.00  0.00     0.049 A 
ATOM     26  H   UNL A   1      43.394  27.226  27.987  1.00  0.00     0.167 HD
ATOM     27  C   UNL A   1      47.722  26.934  27.474  1.00  0.00     0.031 A 
ATOM     28  C   UNL A   1      41.023  28.487  28.769  1.00  0.00     0.031 A 
ATOM     29  C   UNL A   1      47.468  28.301  27.848  1.00  0.00     0.049 A 
ATOM     30  C   UNL A   1      42.117  29.494  28.962  1.00  0.00     0.074 A 
ATOM     31  C   UNL A   1      48.370  29.347  27.946  1.00  0.00     0.029 A 
ATOM     32  N   UNL A   1      46.227  28.808  28.200  1.00  0.00    -0.354 N 
ATOM     33  N   UNL A   1      43.398  29.375  28.714  1.00  0.00    -0.248 NA
ATOM     34  C   UNL A   1      41.723  30.803  29.503  1.00  0.00     0.031 C 
ATOM     35  C   UNL A   1      47.685  30.471  28.419  1.00  0.00     0.029 A 
ATOM     36  C   UNL A   1      46.348  30.138  28.564  1.00  0.00     0.049 A 
ATOM     37  H   UNL A   1      45.385  28.298  28.192  1.00  0.00     0.167 HD
ATOM     38  C   UNL A   1      43.963  30.593  29.061  1.00  0.00     0.074 A 
ATOM     39  C   UNL A   1      42.882  31.446  29.512  1.00  0.00     0.031 C 
ATOM     40  C   UNL A   1      45.264  30.969  29.019  1.00  0.00     0.031 A 
BRANCH  27  41
ATOM     41  C   UNL A   1      49.152  26.524  27.260  1.00  0.00    -0.014 A 
ATOM     42  C   UNL A   1      49.948  26.066  28.319  1.00  0.00     0.009 A 
ATOM     43  C   UNL A   1      49.680  26.514  25.958  1.00  0.00     0.009 A 
ATOM     44  C   UNL A   1      51.252  25.622  28.081  1.00  0.00     0.001 A 
ATOM     45  C   UNL A   1      50.974  26.050  25.720  1.00  0.00     0.001 A 
ATOM     46  C   UNL A   1      51.761  25.608  26.783  1.00  0.00     0.000 A 
ENDBRANCH  27  41
BRANCH  28  47
ATOM     47  C   UNL A   1      39.615  28.810  29.118  1.00  0.00    -0.014 A 
ATOM     48  C   UNL A   1      39.124  28.579  30.409  1.00  0.00     0.009 A 
ATOM     49  C   UNL A   1      38.755  29.354  28.150  1.00  0.00     0.009 A 
ATOM     50  C   UNL A   1      37.791  28.864  30.719  1.00  0.00     0.001 A 
ATOM     51  C   UNL A   1      37.433  29.667  28.470  1.00  0.00     0.001 A 
ATOM     52  C   UNL A   1      36.950  29.412  29.752  1.00  0.00     0.000 A 
ENDBRANCH  28  47
BRANCH  40  53
ATOM     53  C   UNL A   1      45.584  32.366  29.465  1.00  0.00    -0.014 A 
ATOM     54  C   UNL A   1      45.535  33.439  28.563  1.00  0.00     0.009 A 
ATOM     55  C   UNL A   1      45.900  32.615  30.809  1.00  0.00     0.009 A 
ATOM     56  C   UNL A   1      45.822  34.735  28.995  1.00  0.00     0.001 A 
ATOM     57  C   UNL A   1      46.159  33.915  31.243  1.00  0.00     0.001 A 
ATOM     58  C   UNL A   1      46.128  34.973  30.334  1.00  0.00     0.000 A 
ENDBRANCH  40  53
ENDBRANCH  14  15
ENDBRANCH   7   9
ENDBRANCH   4   5
ENDBRANCH   3   4
ENDBRANCH   2   3
ENDBRANCH   1   2
BRANCH   1  59
ATOM     59  C   UNL A   1      36.317  22.972  24.111  1.00  0.00     0.021 C 
BRANCH  59  60
ATOM     60  C   UNL A   1      35.751  24.080  24.997  1.00  0.00     0.116 C 
BRANCH  60  61
ATOM     61  N   UNL A   1      34.980  23.574  26.121  1.00  0.00    -0.352 N 
ATOM     62  C   UNL A   1      33.619  23.573  26.302  1.00  0.00     0.255 C 
ATOM     63  H   UNL A   1      35.506  23.176  26.852  1.00  0.00     0.163 HD
ATOM     64  O   UNL A   1      33.127  23.214  27.367  1.00  0.00    -0.269 OA
BRANCH  62  65
ATOM     65  C   UNL A   1      32.745  24.016  25.200  1.00  0.00     0.083 A 
ATOM     66  C   UNL A   1      32.261  25.331  25.202  1.00  0.00     0.033 A 
ATOM     67  C   UNL A   1      32.411  23.157  24.147  1.00  0.00     0.144 A 
ATOM     68  C   UNL A   1      31.394  25.747  24.194  1.00  0.00     0.019 A 
ATOM     69  C   UNL A   1      31.558  23.586  23.129  1.00  0.00     0.049 A 
ATOM     70  Br  UNL A   1      30.697  27.504  24.231  1.00  0.00    -0.051 Br
ATOM     71  C   UNL A   1      31.031  24.879  23.165  1.00  0.00     0.019 A 
BRANCH  67  72
ATOM     72  O   UNL A   1      32.984  21.887  23.987  1.00  0.00    -0.422 OA
BRANCH  72  73
ATOM     73  C   UNL A   1      32.311  20.827  24.564  1.00  0.00     0.343 C 
ATOM     74  O   UNL A   1      31.401  20.890  25.380  1.00  0.00    -0.246 OA
BRANCH  73  75
ATOM     75  C   UNL A   1      32.861  19.549  24.035  1.00  0.00     0.060 A 
ATOM     76  C   UNL A   1      32.306  18.906  22.916  1.00  0.00     0.019 A 
ATOM     77  C   UNL A   1      33.948  18.963  24.701  1.00  0.00     0.019 A 
ATOM     78  C   UNL A   1      32.832  17.687  22.477  1.00  0.00     0.040 A 
ATOM     79  C   UNL A   1      34.473  17.748  24.254  1.00  0.00     0.040 A 
ATOM     80  C   UNL A   1      33.908  17.120  23.149  1.00  0.00     0.123 A 
ATOM     81  F   UNL A   1      34.403  15.949  22.730  1.00  0.00    -0.207 F 
ENDBRANCH  73  75
ENDBRANCH  72  73
ENDBRANCH  67  72
ENDBRANCH  62  65
ENDBRANCH  60  61
ENDBRANCH  59  60
ENDBRANCH   1  59
TORSDOF 16
ENDMDL
