MODEL 1
REMARK VINA RESULT:     -10.1      0.000      0.000
REMARK SMILES C[C@H](CNS(=O)(=O)CCC(=O)NCCCCCCNC(=O)c1ccc(-c2c3nc(c(-c4ccccc4)c4ccc([nH]4)c(-c4ccccc4)c4nc(c(-c5ccccc5)c5ccc2[nH]5)C=C4)C=C3)cc1)c1ccccc1
REMARK SMILES IDX 13 1 12 2 10 3 11 4 9 6 8 7 5 8 6 9 7 10 4 11 3 13 2 14 1 15
REMARK SMILES IDX 70 16 71 17 75 18 72 19 74 20 73 21 14 22 15 23 16 24 17 25
REMARK SMILES IDX 18 26 19 27 20 28 21 30 22 31 23 32 69 33 24 34 68 35 25 36
REMARK SMILES IDX 26 37 27 38 62 39 28 40 67 41 61 42 63 43 29 44 66 45 60 46
REMARK SMILES IDX 59 47 30 49 52 50 37 51 51 52 38 53 41 54 50 55 64 56 39 57
REMARK SMILES IDX 40 58 49 60 65 61 42 62 31 63 32 64 36 65 33 66 35 67 34 68
REMARK SMILES IDX 53 69 54 70 58 71 55 72 57 73 56 74 43 75 44 76 48 77 45 78
REMARK SMILES IDX 47 79 46 80
REMARK H PARENT 12 5 4 12 19 29 63 48 41 59
REMARK Flexibility Score: inf
ROOT
ATOM      1  C   UNL A   1      32.349  20.630  24.898  1.00  0.00     0.116 C 
ENDROOT
BRANCH   1   2
ATOM      2  N   UNL A   1      32.133  21.525  26.037  1.00  0.00    -0.356 N 
ATOM      3  C   UNL A   1      32.259  22.868  26.189  1.00  0.00     0.221 C 
ATOM      4  O   UNL A   1      31.973  23.347  27.289  1.00  0.00    -0.275 OA
ATOM      5  H   UNL A   1      31.836  21.061  26.852  1.00  0.00     0.163 HD
BRANCH   3   6
ATOM      6  C   UNL A   1      32.852  23.733  25.113  1.00  0.00     0.117 C 
BRANCH   6   7
ATOM      7  C   UNL A   1      31.997  24.974  24.899  1.00  0.00     0.164 C 
BRANCH   7   8
ATOM      8  S   UNL A   1      32.897  26.499  25.140  1.00  0.00     0.212 S 
ATOM      9  O   UNL A   1      34.046  26.492  24.258  1.00  0.00    -0.212 OA
ATOM     10  O   UNL A   1      33.070  26.656  26.565  1.00  0.00    -0.212 OA
BRANCH   8  11
ATOM     11  N   UNL A   1      31.830  27.694  24.588  1.00  0.00    -0.215 NA
ATOM     12  H   UNL A   1      31.015  27.687  25.203  1.00  0.00     0.141 HD
BRANCH  11  13
ATOM     13  C   UNL A   1      31.343  27.565  23.200  1.00  0.00     0.106 C 
BRANCH  13  14
ATOM     14  C   UNL A   1      29.800  27.534  23.002  1.00  0.00     0.031 C 
ATOM     15  C   UNL A   1      28.955  26.612  23.878  1.00  0.00     0.014 C 
BRANCH  14  16
ATOM     16  C   UNL A   1      29.159  28.910  23.130  1.00  0.00    -0.044 A 
ATOM     17  C   UNL A   1      29.870  30.025  23.600  1.00  0.00     0.004 A 
ATOM     18  C   UNL A   1      27.776  29.033  22.918  1.00  0.00     0.004 A 
ATOM     19  C   UNL A   1      29.225  31.244  23.801  1.00  0.00     0.000 A 
ATOM     20  C   UNL A   1      27.129  30.246  23.148  1.00  0.00     0.000 A 
ATOM     21  C   UNL A   1      27.857  31.353  23.578  1.00  0.00     0.000 A 
ENDBRANCH  14  16
ENDBRANCH  13  14
ENDBRANCH  11  13
ENDBRANCH   8  11
ENDBRANCH   7   8
ENDBRANCH   6   7
ENDBRANCH   3   6
ENDBRANCH   1   2
BRANCH   1  22
ATOM     22  C   UNL A   1      33.687  19.872  24.920  1.00  0.00     0.021 C 
BRANCH  22  23
ATOM     23  C   UNL A   1      34.927  20.756  24.859  1.00  0.00     0.002 C 
BRANCH  23  24
ATOM     24  C   UNL A   1      36.268  20.069  25.042  1.00  0.00     0.002 C 
BRANCH  24  25
ATOM     25  C   UNL A   1      37.446  20.921  24.599  1.00  0.00     0.021 C 
BRANCH  25  26
ATOM     26  C   UNL A   1      38.532  21.060  25.656  1.00  0.00     0.116 C 
BRANCH  26  27
ATOM     27  N   UNL A   1      39.403  19.893  25.704  1.00  0.00    -0.352 N 
ATOM     28  C   UNL A   1      40.743  19.876  26.012  1.00  0.00     0.251 C 
ATOM     29  H   UNL A   1      38.988  19.025  25.494  1.00  0.00     0.163 HD
ATOM     30  O   UNL A   1      41.439  18.887  25.815  1.00  0.00    -0.269 OA
BRANCH  28  31
ATOM     31  C   UNL A   1      41.324  21.107  26.576  1.00  0.00     0.039 A 
ATOM     32  C   UNL A   1      41.864  22.068  25.723  1.00  0.00     0.014 A 
ATOM     33  C   UNL A   1      41.212  21.344  27.950  1.00  0.00     0.014 A 
ATOM     34  C   UNL A   1      42.263  23.296  26.251  1.00  0.00     0.010 A 
ATOM     35  C   UNL A   1      41.511  22.602  28.452  1.00  0.00     0.010 A 
ATOM     36  C   UNL A   1      42.069  23.580  27.614  1.00  0.00    -0.014 A 
BRANCH  36  37
ATOM     37  C   UNL A   1      42.509  24.869  28.203  1.00  0.00     0.031 A 
ATOM     38  C   UNL A   1      41.494  25.961  28.422  1.00  0.00     0.074 A 
ATOM     39  C   UNL A   1      43.806  25.074  28.506  1.00  0.00     0.049 A 
ATOM     40  N   UNL A   1      41.668  27.169  28.892  1.00  0.00    -0.248 NA
ATOM     41  C   UNL A   1      40.104  25.664  28.033  1.00  0.00     0.031 C 
ATOM     42  C   UNL A   1      44.889  24.109  28.308  1.00  0.00     0.029 A 
ATOM     43  N   UNL A   1      44.429  26.167  29.053  1.00  0.00    -0.354 N 
ATOM     44  C   UNL A   1      40.418  27.774  28.841  1.00  0.00     0.074 A 
ATOM     45  C   UNL A   1      39.513  26.833  28.225  1.00  0.00     0.031 C 
ATOM     46  C   UNL A   1      46.036  24.638  28.767  1.00  0.00     0.029 A 
ATOM     47  C   UNL A   1      45.778  25.990  29.251  1.00  0.00     0.049 A 
ATOM     48  H   UNL A   1      43.956  26.998  29.281  1.00  0.00     0.167 HD
ATOM     49  C   UNL A   1      40.045  28.991  29.297  1.00  0.00     0.031 A 
ATOM     50  C   UNL A   1      46.699  26.827  29.766  1.00  0.00     0.031 A 
ATOM     51  C   UNL A   1      40.943  29.922  29.920  1.00  0.00     0.049 A 
ATOM     52  C   UNL A   1      46.264  28.190  30.237  1.00  0.00     0.074 A 
ATOM     53  C   UNL A   1      40.660  31.168  30.453  1.00  0.00     0.029 A 
ATOM     54  N   UNL A   1      42.301  29.708  30.096  1.00  0.00    -0.354 N 
ATOM     55  N   UNL A   1      45.065  28.722  30.240  1.00  0.00    -0.248 NA
ATOM     56  C   UNL A   1      47.310  29.060  30.792  1.00  0.00     0.031 C 
ATOM     57  C   UNL A   1      41.859  31.729  30.901  1.00  0.00     0.029 A 
ATOM     58  C   UNL A   1      42.875  30.805  30.711  1.00  0.00     0.049 A 
ATOM     59  H   UNL A   1      42.785  28.895  29.822  1.00  0.00     0.167 HD
ATOM     60  C   UNL A   1      45.206  29.971  30.835  1.00  0.00     0.074 A 
ATOM     61  C   UNL A   1      46.604  30.108  31.190  1.00  0.00     0.031 C 
ATOM     62  C   UNL A   1      44.265  30.918  31.068  1.00  0.00     0.031 A 
BRANCH  49  63
ATOM     63  C   UNL A   1      38.600  29.376  29.135  1.00  0.00    -0.014 A 
ATOM     64  C   UNL A   1      37.685  29.232  30.191  1.00  0.00     0.009 A 
ATOM     65  C   UNL A   1      38.150  29.911  27.918  1.00  0.00     0.009 A 
ATOM     66  C   UNL A   1      36.343  29.576  30.019  1.00  0.00     0.001 A 
ATOM     67  C   UNL A   1      36.816  30.289  27.761  1.00  0.00     0.001 A 
ATOM     68  C   UNL A   1      35.911  30.110  28.807  1.00  0.00     0.000 A 
ENDBRANCH  49  63
BRANCH  50  69
ATOM     69  C   UNL A   1      48.120  26.404  29.889  1.00  0.00    -0.014 A 
ATOM     70  C   UNL A   1      49.015  26.588  28.823  1.00  0.00     0.009 A 
ATOM     71  C   UNL A   1      48.584  25.785  31.061  1.00  0.00     0.009 A 
ATOM     72  C   UNL A   1      50.330  26.126  28.911  1.00  0.00     0.001 A 
ATOM     73  C   UNL A   1      49.909  25.354  31.159  1.00  0.00     0.001 A 
ATOM     74  C   UNL A   1      50.777  25.512  30.080  1.00  0.00     0.000 A 
ENDBRANCH  50  69
BRANCH  62  75
ATOM     75  C   UNL A   1      44.701  32.160  31.795  1.00  0.00    -0.014 A 
ATOM     76  C   UNL A   1      45.135  33.303  31.106  1.00  0.00     0.009 A 
ATOM     77  C   UNL A   1      44.629  32.197  33.198  1.00  0.00     0.009 A 
ATOM     78  C   UNL A   1      45.528  34.443  31.811  1.00  0.00     0.001 A 
ATOM     79  C   UNL A   1      44.988  33.349  33.896  1.00  0.00     0.001 A 
ATOM     80  C   UNL A   1      45.448  34.467  33.203  1.00  0.00     0.000 A 
ENDBRANCH  62  75
ENDBRANCH  36  37
ENDBRANCH  28  31
ENDBRANCH  26  27
ENDBRANCH  25  26
ENDBRANCH  24  25
ENDBRANCH  23  24
ENDBRANCH  22  23
ENDBRANCH   1  22
TORSDOF 19
ENDMDL
MODEL 2
REMARK VINA RESULT:     -10.0      3.198      7.353
REMARK SMILES C[C@H](CNS(=O)(=O)CCC(=O)NCCCCCCNC(=O)c1ccc(-c2c3nc(c(-c4ccccc4)c4ccc([nH]4)c(-c4ccccc4)c4nc(c(-c5ccccc5)c5ccc2[nH]5)C=C4)C=C3)cc1)c1ccccc1
REMARK SMILES IDX 13 1 12 2 10 3 11 4 9 6 8 7 5 8 6 9 7 10 4 11 3 13 2 14 1 15
REMARK SMILES IDX 70 16 71 17 75 18 72 19 74 20 73 21 14 22 15 23 16 24 17 25
REMARK SMILES IDX 18 26 19 27 20 28 21 30 22 31 23 32 69 33 24 34 68 35 25 36
REMARK SMILES IDX 26 37 27 38 62 39 28 40 67 41 61 42 63 43 29 44 66 45 60 46
REMARK SMILES IDX 59 47 30 49 52 50 37 51 51 52 38 53 41 54 50 55 64 56 39 57
REMARK SMILES IDX 40 58 49 60 65 61 42 62 31 63 32 64 36 65 33 66 35 67 34 68
REMARK SMILES IDX 53 69 54 70 58 71 55 72 57 73 56 74 43 75 44 76 48 77 45 78
REMARK SMILES IDX 47 79 46 80
REMARK H PARENT 12 5 4 12 19 29 63 48 41 59
REMARK Flexibility Score: inf
ROOT
ATOM      1  C   UNL A   1      39.684  21.524  26.111  1.00  0.00     0.116 C 
ENDROOT
BRANCH   1   2
ATOM      2  N   UNL A   1      38.837  22.704  26.294  1.00  0.00    -0.356 N 
ATOM      3  C   UNL A   1      37.622  23.053  25.798  1.00  0.00     0.221 C 
ATOM      4  O   UNL A   1      37.143  24.127  26.164  1.00  0.00    -0.275 OA
ATOM      5  H   UNL A   1      39.225  23.379  26.897  1.00  0.00     0.163 HD
BRANCH   3   6
ATOM      6  C   UNL A   1      36.938  22.235  24.739  1.00  0.00     0.117 C 
BRANCH   6   7
ATOM      7  C   UNL A   1      36.062  21.165  25.379  1.00  0.00     0.164 C 
BRANCH   7   8
ATOM      8  S   UNL A   1      34.349  21.654  25.525  1.00  0.00     0.212 S 
ATOM      9  O   UNL A   1      33.815  21.075  26.741  1.00  0.00    -0.212 OA
ATOM     10  O   UNL A   1      33.731  21.379  24.251  1.00  0.00    -0.212 OA
BRANCH   8  11
ATOM     11  N   UNL A   1      34.423  23.334  25.742  1.00  0.00    -0.215 NA
ATOM     12  H   UNL A   1      34.202  23.528  26.718  1.00  0.00     0.141 HD
BRANCH  11  13
ATOM     13  C   UNL A   1      33.522  24.155  24.909  1.00  0.00     0.106 C 
BRANCH  13  14
ATOM     14  C   UNL A   1      32.297  24.791  25.624  1.00  0.00     0.031 C 
ATOM     15  C   UNL A   1      31.700  24.093  26.844  1.00  0.00     0.014 C 
BRANCH  14  16
ATOM     16  C   UNL A   1      32.548  26.227  26.066  1.00  0.00    -0.044 A 
ATOM     17  C   UNL A   1      33.802  26.844  25.924  1.00  0.00     0.004 A 
ATOM     18  C   UNL A   1      31.542  26.902  26.776  1.00  0.00     0.004 A 
ATOM     19  C   UNL A   1      34.025  28.122  26.432  1.00  0.00     0.000 A 
ATOM     20  C   UNL A   1      31.778  28.169  27.307  1.00  0.00     0.000 A 
ATOM     21  C   UNL A   1      33.015  28.782  27.124  1.00  0.00     0.000 A 
ENDBRANCH  14  16
ENDBRANCH  13  14
ENDBRANCH  11  13
ENDBRANCH   8  11
ENDBRANCH   7   8
ENDBRANCH   6   7
ENDBRANCH   3   6
ENDBRANCH   1   2
BRANCH   1  22
ATOM     22  C   UNL A   1      41.195  21.807  26.116  1.00  0.00     0.021 C 
BRANCH  22  23
ATOM     23  C   UNL A   1      41.965  21.162  27.261  1.00  0.00     0.002 C 
BRANCH  23  24
ATOM     24  C   UNL A   1      41.831  19.658  27.417  1.00  0.00     0.002 C 
BRANCH  24  25
ATOM     25  C   UNL A   1      42.343  18.880  26.216  1.00  0.00     0.021 C 
BRANCH  25  26
ATOM     26  C   UNL A   1      43.862  18.822  26.128  1.00  0.00     0.116 C 
BRANCH  26  27
ATOM     27  N   UNL A   1      44.322  18.517  24.780  1.00  0.00    -0.352 N 
ATOM     28  C   UNL A   1      44.739  19.417  23.827  1.00  0.00     0.251 C 
ATOM     29  H   UNL A   1      44.336  17.567  24.524  1.00  0.00     0.163 HD
ATOM     30  O   UNL A   1      44.898  19.092  22.657  1.00  0.00    -0.269 OA
BRANCH  28  31
ATOM     31  C   UNL A   1      44.972  20.805  24.263  1.00  0.00     0.039 A 
ATOM     32  C   UNL A   1      44.439  21.859  23.522  1.00  0.00     0.014 A 
ATOM     33  C   UNL A   1      45.621  21.036  25.480  1.00  0.00     0.014 A 
ATOM     34  C   UNL A   1      44.527  23.156  24.029  1.00  0.00     0.010 A 
ATOM     35  C   UNL A   1      45.612  22.310  26.028  1.00  0.00     0.010 A 
ATOM     36  C   UNL A   1      45.094  23.387  25.294  1.00  0.00    -0.014 A 
BRANCH  36  37
ATOM     37  C   UNL A   1      45.221  24.761  25.842  1.00  0.00     0.031 A 
ATOM     38  C   UNL A   1      46.557  25.455  25.778  1.00  0.00     0.074 A 
ATOM     39  C   UNL A   1      44.166  25.367  26.419  1.00  0.00     0.049 A 
ATOM     40  N   UNL A   1      46.895  26.638  26.222  1.00  0.00    -0.248 NA
ATOM     41  C   UNL A   1      47.667  24.708  25.159  1.00  0.00     0.031 C 
ATOM     42  C   UNL A   1      42.830  24.787  26.573  1.00  0.00     0.029 A 
ATOM     43  N   UNL A   1      44.053  26.614  26.979  1.00  0.00    -0.354 N 
ATOM     44  C   UNL A   1      48.252  26.766  25.949  1.00  0.00     0.074 A 
ATOM     45  C   UNL A   1      48.691  25.517  25.373  1.00  0.00     0.031 C 
ATOM     46  C   UNL A   1      42.022  25.693  27.149  1.00  0.00     0.029 A 
ATOM     47  C   UNL A   1      42.790  26.898  27.442  1.00  0.00     0.049 A 
ATOM     48  H   UNL A   1      44.805  27.245  27.044  1.00  0.00     0.167 HD
ATOM     49  C   UNL A   1      49.057  27.838  26.127  1.00  0.00     0.031 A 
ATOM     50  C   UNL A   1      42.310  28.009  28.035  1.00  0.00     0.031 A 
ATOM     51  C   UNL A   1      48.617  29.085  26.689  1.00  0.00     0.049 A 
ATOM     52  C   UNL A   1      43.234  29.178  28.252  1.00  0.00     0.074 A 
ATOM     53  C   UNL A   1      49.341  30.248  26.879  1.00  0.00     0.029 A 
ATOM     54  N   UNL A   1      47.333  29.329  27.151  1.00  0.00    -0.354 N 
ATOM     55  N   UNL A   1      44.500  29.306  27.929  1.00  0.00    -0.248 NA
ATOM     56  C   UNL A   1      42.657  30.363  28.901  1.00  0.00     0.031 C 
ATOM     57  C   UNL A   1      48.509  31.179  27.507  1.00  0.00     0.029 A 
ATOM     58  C   UNL A   1      47.248  30.619  27.643  1.00  0.00     0.049 A 
ATOM     59  H   UNL A   1      46.591  28.681  27.131  1.00  0.00     0.167 HD
ATOM     60  C   UNL A   1      44.856  30.598  28.297  1.00  0.00     0.074 A 
ATOM     61  C   UNL A   1      43.670  31.216  28.854  1.00  0.00     0.031 C 
ATOM     62  C   UNL A   1      46.055  31.220  28.182  1.00  0.00     0.031 A 
BRANCH  49  63
ATOM     63  C   UNL A   1      50.494  27.701  25.707  1.00  0.00    -0.014 A 
ATOM     64  C   UNL A   1      50.875  27.838  24.360  1.00  0.00     0.009 A 
ATOM     65  C   UNL A   1      51.485  27.455  26.668  1.00  0.00     0.009 A 
ATOM     66  C   UNL A   1      52.210  27.688  23.982  1.00  0.00     0.001 A 
ATOM     67  C   UNL A   1      52.825  27.343  26.292  1.00  0.00     0.001 A 
ATOM     68  C   UNL A   1      53.185  27.448  24.949  1.00  0.00     0.000 A 
ENDBRANCH  49  63
BRANCH  50  69
ATOM     69  C   UNL A   1      40.884  28.088  28.449  1.00  0.00    -0.014 A 
ATOM     70  C   UNL A   1      40.456  27.511  29.656  1.00  0.00     0.009 A 
ATOM     71  C   UNL A   1      39.933  28.713  27.626  1.00  0.00     0.009 A 
ATOM     72  C   UNL A   1      39.105  27.521  30.010  1.00  0.00     0.001 A 
ATOM     73  C   UNL A   1      38.587  28.752  27.999  1.00  0.00     0.001 A 
ATOM     74  C   UNL A   1      38.173  28.145  29.183  1.00  0.00     0.000 A 
ENDBRANCH  50  69
BRANCH  62  75
ATOM     75  C   UNL A   1      46.131  32.658  28.610  1.00  0.00    -0.014 A 
ATOM     76  C   UNL A   1      46.503  33.022  29.914  1.00  0.00     0.009 A 
ATOM     77  C   UNL A   1      45.867  33.670  27.671  1.00  0.00     0.009 A 
ATOM     78  C   UNL A   1      46.569  34.369  30.277  1.00  0.00     0.001 A 
ATOM     79  C   UNL A   1      45.969  35.014  28.028  1.00  0.00     0.001 A 
ATOM     80  C   UNL A   1      46.308  35.362  29.334  1.00  0.00     0.000 A 
ENDBRANCH  62  75
ENDBRANCH  36  37
ENDBRANCH  28  31
ENDBRANCH  26  27
ENDBRANCH  25  26
ENDBRANCH  24  25
ENDBRANCH  23  24
ENDBRANCH  22  23
ENDBRANCH   1  22
TORSDOF 19
ENDMDL
MODEL 3
REMARK VINA RESULT:      -9.9      9.458     14.258
REMARK SMILES C[C@H](CNS(=O)(=O)CCC(=O)NCCCCCCNC(=O)c1ccc(-c2c3nc(c(-c4ccccc4)c4ccc([nH]4)c(-c4ccccc4)c4nc(c(-c5ccccc5)c5ccc2[nH]5)C=C4)C=C3)cc1)c1ccccc1
REMARK SMILES IDX 13 1 12 2 10 3 11 4 9 6 8 7 5 8 6 9 7 10 4 11 3 13 2 14 1 15
REMARK SMILES IDX 70 16 71 17 75 18 72 19 74 20 73 21 14 22 15 23 16 24 17 25
REMARK SMILES IDX 18 26 19 27 20 28 21 30 22 31 23 32 69 33 24 34 68 35 25 36
REMARK SMILES IDX 26 37 27 38 62 39 28 40 67 41 61 42 63 43 29 44 66 45 60 46
REMARK SMILES IDX 59 47 30 49 52 50 37 51 51 52 38 53 41 54 50 55 64 56 39 57
REMARK SMILES IDX 40 58 49 60 65 61 42 62 31 63 32 64 36 65 33 66 35 67 34 68
REMARK SMILES IDX 53 69 54 70 58 71 55 72 57 73 56 74 43 75 44 76 48 77 45 78
REMARK SMILES IDX 47 79 46 80
REMARK H PARENT 12 5 4 12 19 29 63 48 41 59
REMARK Flexibility Score: inf
ROOT
ATOM      1  C   UNL A   1      42.281  41.076  25.532  1.00  0.00     0.116 C 
ENDROOT
BRANCH   1   2
ATOM      2  N   UNL A   1      41.676  41.866  24.458  1.00  0.00    -0.356 N 
ATOM      3  C   UNL A   1      42.202  42.660  23.490  1.00  0.00     0.221 C 
ATOM      4  O   UNL A   1      41.420  43.186  22.696  1.00  0.00    -0.275 OA
ATOM      5  H   UNL A   1      40.694  41.811  24.433  1.00  0.00     0.163 HD
BRANCH   3   6
ATOM      6  C   UNL A   1      43.666  43.002  23.458  1.00  0.00     0.117 C 
BRANCH   6   7
ATOM      7  C   UNL A   1      43.970  43.920  22.282  1.00  0.00     0.164 C 
BRANCH   7   8
ATOM      8  S   UNL A   1      44.576  43.046  20.846  1.00  0.00     0.212 S 
ATOM      9  O   UNL A   1      45.063  41.752  21.275  1.00  0.00    -0.212 OA
ATOM     10  O   UNL A   1      45.446  43.959  20.144  1.00  0.00    -0.212 OA
BRANCH   8  11
ATOM     11  N   UNL A   1      43.187  42.791  19.908  1.00  0.00    -0.215 NA
ATOM     12  H   UNL A   1      43.488  42.421  19.007  1.00  0.00     0.141 HD
BRANCH  11  13
ATOM     13  C   UNL A   1      42.333  43.966  19.646  1.00  0.00     0.106 C 
BRANCH  13  14
ATOM     14  C   UNL A   1      41.921  44.212  18.166  1.00  0.00     0.031 C 
ATOM     15  C   UNL A   1      40.439  44.275  17.806  1.00  0.00     0.014 C 
BRANCH  14  16
ATOM     16  C   UNL A   1      42.531  45.482  17.585  1.00  0.00    -0.044 A 
ATOM     17  C   UNL A   1      43.918  45.692  17.542  1.00  0.00     0.004 A 
ATOM     18  C   UNL A   1      41.678  46.537  17.224  1.00  0.00     0.004 A 
ATOM     19  C   UNL A   1      44.438  46.907  17.099  1.00  0.00     0.000 A 
ATOM     20  C   UNL A   1      42.201  47.760  16.808  1.00  0.00     0.000 A 
ATOM     21  C   UNL A   1      43.580  47.939  16.735  1.00  0.00     0.000 A 
ENDBRANCH  14  16
ENDBRANCH  13  14
ENDBRANCH  11  13
ENDBRANCH   8  11
ENDBRANCH   7   8
ENDBRANCH   6   7
ENDBRANCH   3   6
ENDBRANCH   1   2
BRANCH   1  22
ATOM     22  C   UNL A   1      41.278  40.322  26.421  1.00  0.00     0.021 C 
BRANCH  22  23
ATOM     23  C   UNL A   1      41.737  38.944  26.881  1.00  0.00     0.002 C 
BRANCH  23  24
ATOM     24  C   UNL A   1      43.075  38.869  27.593  1.00  0.00     0.002 C 
BRANCH  24  25
ATOM     25  C   UNL A   1      42.988  39.195  29.075  1.00  0.00     0.021 C 
BRANCH  25  26
ATOM     26  C   UNL A   1      43.905  38.345  29.944  1.00  0.00     0.116 C 
BRANCH  26  27
ATOM     27  N   UNL A   1      45.292  38.413  29.506  1.00  0.00    -0.352 N 
ATOM     28  C   UNL A   1      46.115  37.354  29.202  1.00  0.00     0.251 C 
ATOM     29  H   UNL A   1      45.682  39.313  29.417  1.00  0.00     0.163 HD
ATOM     30  O   UNL A   1      47.323  37.494  29.056  1.00  0.00    -0.269 OA
BRANCH  28  31
ATOM     31  C   UNL A   1      45.489  36.025  29.077  1.00  0.00     0.039 A 
ATOM     32  C   UNL A   1      44.791  35.699  27.915  1.00  0.00     0.014 A 
ATOM     33  C   UNL A   1      45.709  35.073  30.077  1.00  0.00     0.014 A 
ATOM     34  C   UNL A   1      44.343  34.389  27.739  1.00  0.00     0.010 A 
ATOM     35  C   UNL A   1      45.355  33.752  29.851  1.00  0.00     0.010 A 
ATOM     36  C   UNL A   1      44.641  33.403  28.695  1.00  0.00    -0.014 A 
BRANCH  36  37
ATOM     37  C   UNL A   1      44.152  32.010  28.542  1.00  0.00     0.031 A 
ATOM     38  C   UNL A   1      42.851  31.613  29.190  1.00  0.00     0.074 A 
ATOM     39  C   UNL A   1      44.877  31.102  27.860  1.00  0.00     0.049 A 
ATOM     40  N   UNL A   1      42.258  30.447  29.208  1.00  0.00    -0.248 NA
ATOM     41  C   UNL A   1      42.136  32.659  29.944  1.00  0.00     0.031 C 
ATOM     42  C   UNL A   1      46.169  31.353  27.217  1.00  0.00     0.029 A 
ATOM     43  N   UNL A   1      44.624  29.781  27.592  1.00  0.00    -0.354 N 
ATOM     44  C   UNL A   1      41.117  30.619  29.982  1.00  0.00     0.074 A 
ATOM     45  C   UNL A   1      41.138  31.975  30.478  1.00  0.00     0.031 C 
ATOM     46  C   UNL A   1      46.573  30.234  26.593  1.00  0.00     0.029 A 
ATOM     47  C   UNL A   1      45.594  29.178  26.827  1.00  0.00     0.049 A 
ATOM     48  H   UNL A   1      43.824  29.309  27.917  1.00  0.00     0.167 HD
ATOM     49  C   UNL A   1      40.119  29.741  30.231  1.00  0.00     0.031 A 
ATOM     50  C   UNL A   1      45.679  27.915  26.367  1.00  0.00     0.031 A 
ATOM     51  C   UNL A   1      40.092  28.396  29.728  1.00  0.00     0.049 A 
ATOM     52  C   UNL A   1      44.571  26.946  26.685  1.00  0.00     0.074 A 
ATOM     53  C   UNL A   1      39.110  27.435  29.888  1.00  0.00     0.029 A 
ATOM     54  N   UNL A   1      41.096  27.823  28.963  1.00  0.00    -0.354 N 
ATOM     55  N   UNL A   1      43.466  27.144  27.365  1.00  0.00    -0.248 NA
ATOM     56  C   UNL A   1      44.715  25.582  26.156  1.00  0.00     0.031 C 
ATOM     57  C   UNL A   1      39.546  26.262  29.266  1.00  0.00     0.029 A 
ATOM     58  C   UNL A   1      40.767  26.515  28.658  1.00  0.00     0.049 A 
ATOM     59  H   UNL A   1      41.921  28.280  28.677  1.00  0.00     0.167 HD
ATOM     60  C   UNL A   1      42.766  25.944  27.308  1.00  0.00     0.074 A 
ATOM     61  C   UNL A   1      43.566  25.031  26.517  1.00  0.00     0.031 C 
ATOM     62  C   UNL A   1      41.570  25.626  27.859  1.00  0.00     0.031 A 
BRANCH  49  63
ATOM     63  C   UNL A   1      38.978  30.216  31.086  1.00  0.00    -0.014 A 
ATOM     64  C   UNL A   1      37.839  30.813  30.517  1.00  0.00     0.009 A 
ATOM     65  C   UNL A   1      39.027  30.048  32.478  1.00  0.00     0.009 A 
ATOM     66  C   UNL A   1      36.796  31.267  31.325  1.00  0.00     0.001 A 
ATOM     67  C   UNL A   1      37.966  30.469  33.282  1.00  0.00     0.001 A 
ATOM     68  C   UNL A   1      36.857  31.088  32.706  1.00  0.00     0.000 A 
ENDBRANCH  49  63
BRANCH  50  69
ATOM     69  C   UNL A   1      46.839  27.489  25.538  1.00  0.00    -0.014 A 
ATOM     70  C   UNL A   1      46.911  27.833  24.179  1.00  0.00     0.009 A 
ATOM     71  C   UNL A   1      47.866  26.708  26.092  1.00  0.00     0.009 A 
ATOM     72  C   UNL A   1      47.963  27.372  23.384  1.00  0.00     0.001 A 
ATOM     73  C   UNL A   1      48.935  26.277  25.303  1.00  0.00     0.001 A 
ATOM     74  C   UNL A   1      48.975  26.597  23.947  1.00  0.00     0.000 A 
ENDBRANCH  50  69
BRANCH  62  75
ATOM     75  C   UNL A   1      41.021  24.256  27.575  1.00  0.00    -0.014 A 
ATOM     76  C   UNL A   1      39.968  24.057  26.669  1.00  0.00     0.009 A 
ATOM     77  C   UNL A   1      41.604  23.138  28.196  1.00  0.00     0.009 A 
ATOM     78  C   UNL A   1      39.484  22.769  26.423  1.00  0.00     0.001 A 
ATOM     79  C   UNL A   1      41.142  21.852  27.921  1.00  0.00     0.001 A 
ATOM     80  C   UNL A   1      40.075  21.669  27.043  1.00  0.00     0.000 A 
ENDBRANCH  62  75
ENDBRANCH  36  37
ENDBRANCH  28  31
ENDBRANCH  26  27
ENDBRANCH  25  26
ENDBRANCH  24  25
ENDBRANCH  23  24
ENDBRANCH  22  23
ENDBRANCH   1  22
TORSDOF 19
ENDMDL
