MODEL 1
REMARK VINA RESULT:     -11.2      0.000      0.000
REMARK SMILES O=C(NCCCCCCNC(=O)c1nn(-c2ccc([N+](=O)[O-])cc2)cc1CCO)c1ccc(-c2c3nc(c(-c4ccccc4)c4ccc([nH]4)c(-c4ccccc4)c4nc(c(-c5ccccc5)c5ccc2[nH]5)C=C4)C=C3)cc1
REMARK SMILES IDX 7 1 6 2 5 3 4 4 3 5 1 6 2 7 30 9 31 10 77 11 32 12 76 13
REMARK SMILES IDX 33 14 34 15 35 16 70 17 36 18 75 19 69 20 71 21 37 22 74 23
REMARK SMILES IDX 68 24 67 25 38 27 60 28 45 29 59 30 46 31 49 32 58 33 72 34
REMARK SMILES IDX 47 35 48 36 57 38 73 39 50 40 39 41 40 42 44 43 41 44 43 45
REMARK SMILES IDX 42 46 61 47 62 48 66 49 63 50 65 51 64 52 51 53 52 54 56 55
REMARK SMILES IDX 53 56 55 57 54 58 8 59 9 60 10 61 11 62 12 64 13 65 14 66
REMARK SMILES IDX 26 67 15 68 25 69 27 70 28 71 29 72 16 74 17 75 24 76 18 77
REMARK SMILES IDX 23 78 19 79 20 80 21 81 22 82
REMARK H PARENT 3 8 71 26 49 37 10 63 29 73
REMARK Flexibility Score: inf
ROOT
ATOM      1  C   UNL A   1      32.697  27.592  26.463  1.00  0.00     0.002 C 
ENDROOT
BRANCH   1   2
ATOM      2  C   UNL A   1      32.825  28.949  27.161  1.00  0.00     0.002 C 
BRANCH   2   3
ATOM      3  C   UNL A   1      34.249  29.371  27.533  1.00  0.00     0.021 C 
BRANCH   3   4
ATOM      4  C   UNL A   1      34.536  30.866  27.392  1.00  0.00     0.116 C 
BRANCH   4   5
ATOM      5  N   UNL A   1      34.553  31.598  28.643  1.00  0.00    -0.352 N 
ATOM      6  O   UNL A   1      35.140  32.474  30.591  1.00  0.00    -0.269 OA
ATOM      7  C   UNL A   1      35.411  31.658  29.706  1.00  0.00     0.251 C 
ATOM      8  H   UNL A   1      33.770  32.184  28.751  1.00  0.00     0.163 HD
BRANCH   7   9
ATOM      9  C   UNL A   1      36.605  30.787  29.886  1.00  0.00     0.039 A 
ATOM     10  C   UNL A   1      36.585  29.485  30.388  1.00  0.00     0.014 A 
ATOM     11  C   UNL A   1      37.839  31.330  29.480  1.00  0.00     0.014 A 
ATOM     12  C   UNL A   1      37.769  28.766  30.540  1.00  0.00     0.010 A 
ATOM     13  C   UNL A   1      39.021  30.604  29.602  1.00  0.00     0.010 A 
ATOM     14  C   UNL A   1      38.987  29.322  30.146  1.00  0.00    -0.014 A 
BRANCH  14  15
ATOM     15  C   UNL A   1      40.164  28.454  30.162  1.00  0.00     0.031 A 
ATOM     16  C   UNL A   1      40.858  28.322  31.477  1.00  0.00     0.074 A 
ATOM     17  C   UNL A   1      40.540  27.653  29.146  1.00  0.00     0.049 A 
ATOM     18  N   UNL A   1      42.105  28.532  31.757  1.00  0.00    -0.248 NA
ATOM     19  C   UNL A   1      40.037  27.931  32.635  1.00  0.00     0.031 C 
ATOM     20  C   UNL A   1      39.805  27.379  27.911  1.00  0.00     0.029 A 
ATOM     21  N   UNL A   1      41.615  26.810  29.072  1.00  0.00    -0.354 N 
ATOM     22  C   UNL A   1      42.270  28.140  33.084  1.00  0.00     0.074 A 
ATOM     23  C   UNL A   1      40.951  27.878  33.604  1.00  0.00     0.031 C 
ATOM     24  C   UNL A   1      40.332  26.285  27.321  1.00  0.00     0.029 A 
ATOM     25  C   UNL A   1      41.504  25.857  28.072  1.00  0.00     0.049 A 
ATOM     26  H   UNL A   1      42.393  26.874  29.671  1.00  0.00     0.167 HD
ATOM     27  C   UNL A   1      43.488  27.847  33.615  1.00  0.00     0.031 A 
ATOM     28  C   UNL A   1      42.270  24.754  27.902  1.00  0.00     0.031 A 
ATOM     29  C   UNL A   1      44.576  28.403  32.858  1.00  0.00     0.049 A 
ATOM     30  C   UNL A   1      43.520  24.918  28.674  1.00  0.00     0.074 A 
ATOM     31  C   UNL A   1      44.947  29.668  32.447  1.00  0.00     0.029 A 
ATOM     32  N   UNL A   1      45.369  27.539  32.147  1.00  0.00    -0.354 N 
ATOM     33  N   UNL A   1      44.487  25.722  28.342  1.00  0.00    -0.248 NA
ATOM     34  C   UNL A   1      43.587  24.388  30.026  1.00  0.00     0.031 C 
ATOM     35  C   UNL A   1      45.594  29.480  31.191  1.00  0.00     0.029 A 
ATOM     36  C   UNL A   1      45.589  28.110  30.924  1.00  0.00     0.049 A 
ATOM     37  H   UNL A   1      45.716  26.671  32.459  1.00  0.00     0.167 HD
ATOM     38  C   UNL A   1      45.036  26.130  29.547  1.00  0.00     0.074 A 
ATOM     39  C   UNL A   1      44.547  25.168  30.527  1.00  0.00     0.031 C 
ATOM     40  C   UNL A   1      45.594  27.370  29.682  1.00  0.00     0.031 A 
BRANCH  27  41
ATOM     41  C   UNL A   1      43.701  26.722  34.602  1.00  0.00    -0.014 A 
ATOM     42  C   UNL A   1      44.229  27.018  35.873  1.00  0.00     0.009 A 
ATOM     43  C   UNL A   1      43.690  25.365  34.224  1.00  0.00     0.009 A 
ATOM     44  C   UNL A   1      44.787  26.018  36.683  1.00  0.00     0.001 A 
ATOM     45  C   UNL A   1      44.201  24.360  35.050  1.00  0.00     0.001 A 
ATOM     46  C   UNL A   1      44.779  24.692  36.266  1.00  0.00     0.000 A 
ENDBRANCH  27  41
BRANCH  28  47
ATOM     47  C   UNL A   1      41.924  23.473  27.254  1.00  0.00    -0.014 A 
ATOM     48  C   UNL A   1      42.858  22.797  26.454  1.00  0.00     0.009 A 
ATOM     49  C   UNL A   1      40.748  22.787  27.610  1.00  0.00     0.009 A 
ATOM     50  C   UNL A   1      42.635  21.475  26.049  1.00  0.00     0.001 A 
ATOM     51  C   UNL A   1      40.519  21.472  27.196  1.00  0.00     0.001 A 
ATOM     52  C   UNL A   1      41.471  20.811  26.427  1.00  0.00     0.000 A 
ENDBRANCH  28  47
BRANCH  40  53
ATOM     53  C   UNL A   1      45.925  28.142  28.431  1.00  0.00    -0.014 A 
ATOM     54  C   UNL A   1      47.114  27.951  27.707  1.00  0.00     0.009 A 
ATOM     55  C   UNL A   1      44.951  29.000  27.895  1.00  0.00     0.009 A 
ATOM     56  C   UNL A   1      47.345  28.639  26.513  1.00  0.00     0.001 A 
ATOM     57  C   UNL A   1      45.169  29.665  26.687  1.00  0.00     0.001 A 
ATOM     58  C   UNL A   1      46.370  29.493  26.002  1.00  0.00     0.000 A 
ENDBRANCH  40  53
ENDBRANCH  14  15
ENDBRANCH   7   9
ENDBRANCH   4   5
ENDBRANCH   3   4
ENDBRANCH   2   3
ENDBRANCH   1   2
BRANCH   1  59
ATOM     59  C   UNL A   1      33.962  27.085  25.761  1.00  0.00     0.021 C 
BRANCH  59  60
ATOM     60  C   UNL A   1      34.050  25.567  25.595  1.00  0.00     0.116 C 
BRANCH  60  61
ATOM     61  N   UNL A   1      34.353  25.187  24.224  1.00  0.00    -0.351 N 
ATOM     62  C   UNL A   1      33.491  25.083  23.159  1.00  0.00     0.272 C 
ATOM     63  H   UNL A   1      35.296  24.977  24.034  1.00  0.00     0.163 HD
ATOM     64  O   UNL A   1      33.890  24.594  22.095  1.00  0.00    -0.267 OA
BRANCH  62  65
ATOM     65  C   UNL A   1      32.099  25.497  23.338  1.00  0.00     0.153 A 
ATOM     66  N   UNL A   1      31.689  26.735  23.008  1.00  0.00    -0.162 NA
ATOM     67  C   UNL A   1      31.019  24.711  23.831  1.00  0.00     0.006 A 
ATOM     68  N   UNL A   1      30.421  26.814  23.458  1.00  0.00    -0.240 N 
ATOM     69  C   UNL A   1      29.982  25.615  23.963  1.00  0.00     0.119 A 
BRANCH  67  70
ATOM     70  C   UNL A   1      31.013  23.258  24.196  1.00  0.00     0.068 C 
BRANCH  70  71
ATOM     71  C   UNL A   1      31.252  23.006  25.688  1.00  0.00     0.161 C 
BRANCH  71  72
ATOM     72  O   UNL A   1      30.914  21.675  26.058  1.00  0.00    -0.396 OA
ATOM     73  H   UNL A   1      30.284  21.694  26.795  1.00  0.00     0.210 HD
ENDBRANCH  71  72
ENDBRANCH  70  71
ENDBRANCH  67  70
BRANCH  68  74
ATOM     74  C   UNL A   1      29.731  28.051  23.424  1.00  0.00     0.065 A 
ATOM     75  C   UNL A   1      28.398  28.077  22.985  1.00  0.00     0.035 A 
ATOM     76  C   UNL A   1      30.381  29.239  23.786  1.00  0.00     0.035 A 
ATOM     77  C   UNL A   1      27.702  29.287  22.926  1.00  0.00     0.088 A 
ATOM     78  C   UNL A   1      29.703  30.458  23.681  1.00  0.00     0.088 A 
ATOM     79  C   UNL A   1      28.364  30.475  23.261  1.00  0.00     0.269 A 
BRANCH  79  80
ATOM     80  N   UNL A   1      27.652  31.755  23.158  1.00  0.00     0.062 N 
ATOM     81  O   UNL A   1      28.050  32.570  22.314  1.00  0.00    -0.258 OA
ATOM     82  O   UNL A   1      26.694  31.942  23.922  1.00  0.00    -0.258 OA
ENDBRANCH  79  80
ENDBRANCH  68  74
ENDBRANCH  62  65
ENDBRANCH  60  61
ENDBRANCH  59  60
ENDBRANCH   1  59
TORSDOF 18
ENDMDL
MODEL 2
REMARK VINA RESULT:     -11.2      2.783      5.543
REMARK SMILES O=C(NCCCCCCNC(=O)c1nn(-c2ccc([N+](=O)[O-])cc2)cc1CCO)c1ccc(-c2c3nc(c(-c4ccccc4)c4ccc([nH]4)c(-c4ccccc4)c4nc(c(-c5ccccc5)c5ccc2[nH]5)C=C4)C=C3)cc1
REMARK SMILES IDX 7 1 6 2 5 3 4 4 3 5 1 6 2 7 30 9 31 10 77 11 32 12 76 13
REMARK SMILES IDX 33 14 34 15 35 16 70 17 36 18 75 19 69 20 71 21 37 22 74 23
REMARK SMILES IDX 68 24 67 25 38 27 60 28 45 29 59 30 46 31 49 32 58 33 72 34
REMARK SMILES IDX 47 35 48 36 57 38 73 39 50 40 39 41 40 42 44 43 41 44 43 45
REMARK SMILES IDX 42 46 61 47 62 48 66 49 63 50 65 51 64 52 51 53 52 54 56 55
REMARK SMILES IDX 53 56 55 57 54 58 8 59 9 60 10 61 11 62 12 64 13 65 14 66
REMARK SMILES IDX 26 67 15 68 25 69 27 70 28 71 29 72 16 74 17 75 24 76 18 77
REMARK SMILES IDX 23 78 19 79 20 80 21 81 22 82
REMARK H PARENT 3 8 71 26 49 37 10 63 29 73
REMARK Flexibility Score: inf
ROOT
ATOM      1  C   UNL A   1      32.446  26.681  25.972  1.00  0.00     0.002 C 
ENDROOT
BRANCH   1   2
ATOM      2  C   UNL A   1      33.687  27.352  25.377  1.00  0.00     0.002 C 
BRANCH   2   3
ATOM      3  C   UNL A   1      34.007  28.750  25.914  1.00  0.00     0.021 C 
BRANCH   3   4
ATOM      4  C   UNL A   1      33.674  28.965  27.390  1.00  0.00     0.116 C 
BRANCH   4   5
ATOM      5  N   UNL A   1      33.982  30.290  27.891  1.00  0.00    -0.352 N 
ATOM      6  O   UNL A   1      35.017  32.080  28.684  1.00  0.00    -0.269 OA
ATOM      7  C   UNL A   1      35.092  30.874  28.435  1.00  0.00     0.251 C 
ATOM      8  H   UNL A   1      33.218  30.908  27.826  1.00  0.00     0.163 HD
BRANCH   7   9
ATOM      9  C   UNL A   1      36.348  30.154  28.781  1.00  0.00     0.039 A 
ATOM     10  C   UNL A   1      36.596  29.498  29.988  1.00  0.00     0.014 A 
ATOM     11  C   UNL A   1      37.341  30.118  27.784  1.00  0.00     0.014 A 
ATOM     12  C   UNL A   1      37.821  28.876  30.219  1.00  0.00     0.010 A 
ATOM     13  C   UNL A   1      38.556  29.472  27.998  1.00  0.00     0.010 A 
ATOM     14  C   UNL A   1      38.802  28.860  29.226  1.00  0.00    -0.014 A 
BRANCH  14  15
ATOM     15  C   UNL A   1      39.989  28.039  29.460  1.00  0.00     0.031 A 
ATOM     16  C   UNL A   1      40.605  28.158  30.815  1.00  0.00     0.074 A 
ATOM     17  C   UNL A   1      40.438  27.083  28.625  1.00  0.00     0.049 A 
ATOM     18  N   UNL A   1      41.829  28.447  31.123  1.00  0.00    -0.248 NA
ATOM     19  C   UNL A   1      39.723  27.954  31.976  1.00  0.00     0.031 C 
ATOM     20  C   UNL A   1      39.783  26.578  27.418  1.00  0.00     0.029 A 
ATOM     21  N   UNL A   1      41.529  26.269  28.761  1.00  0.00    -0.354 N 
ATOM     22  C   UNL A   1      41.920  28.297  32.505  1.00  0.00     0.074 A 
ATOM     23  C   UNL A   1      40.577  28.096  32.989  1.00  0.00     0.031 C 
ATOM     24  C   UNL A   1      40.362  25.411  27.061  1.00  0.00     0.029 A 
ATOM     25  C   UNL A   1      41.493  25.152  27.940  1.00  0.00     0.049 A 
ATOM     26  H   UNL A   1      42.268  26.457  29.382  1.00  0.00     0.167 HD
ATOM     27  C   UNL A   1      43.109  28.134  33.148  1.00  0.00     0.031 A 
ATOM     28  C   UNL A   1      42.286  24.057  28.011  1.00  0.00     0.031 A 
ATOM     29  C   UNL A   1      44.231  28.578  32.368  1.00  0.00     0.049 A 
ATOM     30  C   UNL A   1      43.485  24.387  28.811  1.00  0.00     0.074 A 
ATOM     31  C   UNL A   1      44.606  29.760  31.761  1.00  0.00     0.029 A 
ATOM     32  N   UNL A   1      45.080  27.623  31.865  1.00  0.00    -0.354 N 
ATOM     33  N   UNL A   1      44.457  25.146  28.397  1.00  0.00    -0.248 NA
ATOM     34  C   UNL A   1      43.479  24.103  30.237  1.00  0.00     0.031 C 
ATOM     35  C   UNL A   1      45.331  29.372  30.596  1.00  0.00     0.029 A 
ATOM     36  C   UNL A   1      45.364  27.977  30.575  1.00  0.00     0.049 A 
ATOM     37  H   UNL A   1      45.421  26.833  32.344  1.00  0.00     0.167 HD
ATOM     38  C   UNL A   1      44.926  25.773  29.540  1.00  0.00     0.074 A 
ATOM     39  C   UNL A   1      44.394  24.984  30.646  1.00  0.00     0.031 C 
ATOM     40  C   UNL A   1      45.455  27.031  29.486  1.00  0.00     0.031 A 
BRANCH  27  41
ATOM     41  C   UNL A   1      43.281  27.205  34.328  1.00  0.00    -0.014 A 
ATOM     42  C   UNL A   1      43.287  25.814  34.109  1.00  0.00     0.009 A 
ATOM     43  C   UNL A   1      43.131  27.632  35.662  1.00  0.00     0.009 A 
ATOM     44  C   UNL A   1      43.073  24.909  35.158  1.00  0.00     0.001 A 
ATOM     45  C   UNL A   1      42.967  26.730  36.717  1.00  0.00     0.001 A 
ATOM     46  C   UNL A   1      42.906  25.369  36.459  1.00  0.00     0.000 A 
ENDBRANCH  27  41
BRANCH  28  47
ATOM     47  C   UNL A   1      42.000  22.674  27.580  1.00  0.00    -0.014 A 
ATOM     48  C   UNL A   1      40.687  22.177  27.587  1.00  0.00     0.009 A 
ATOM     49  C   UNL A   1      42.988  21.907  26.936  1.00  0.00     0.009 A 
ATOM     50  C   UNL A   1      40.372  20.971  26.948  1.00  0.00     0.001 A 
ATOM     51  C   UNL A   1      42.677  20.697  26.310  1.00  0.00     0.001 A 
ATOM     52  C   UNL A   1      41.365  20.237  26.304  1.00  0.00     0.000 A 
ENDBRANCH  28  47
BRANCH  40  53
ATOM     53  C   UNL A   1      45.848  27.581  28.139  1.00  0.00    -0.014 A 
ATOM     54  C   UNL A   1      47.181  27.643  27.698  1.00  0.00     0.009 A 
ATOM     55  C   UNL A   1      44.832  27.931  27.235  1.00  0.00     0.009 A 
ATOM     56  C   UNL A   1      47.491  28.094  26.413  1.00  0.00     0.001 A 
ATOM     57  C   UNL A   1      45.140  28.355  25.940  1.00  0.00     0.001 A 
ATOM     58  C   UNL A   1      46.469  28.446  25.533  1.00  0.00     0.000 A 
ENDBRANCH  40  53
ENDBRANCH  14  15
ENDBRANCH   7   9
ENDBRANCH   4   5
ENDBRANCH   3   4
ENDBRANCH   2   3
ENDBRANCH   1   2
BRANCH   1  59
ATOM     59  C   UNL A   1      32.570  25.178  26.244  1.00  0.00     0.021 C 
BRANCH  59  60
ATOM     60  C   UNL A   1      31.856  24.272  25.238  1.00  0.00     0.116 C 
BRANCH  60  61
ATOM     61  N   UNL A   1      32.351  24.466  23.884  1.00  0.00    -0.351 N 
ATOM     62  C   UNL A   1      33.384  23.816  23.254  1.00  0.00     0.272 C 
ATOM     63  H   UNL A   1      31.887  25.151  23.352  1.00  0.00     0.163 HD
ATOM     64  O   UNL A   1      33.775  24.214  22.151  1.00  0.00    -0.267 OA
BRANCH  62  65
ATOM     65  C   UNL A   1      34.037  22.702  23.943  1.00  0.00     0.153 A 
ATOM     66  N   UNL A   1      33.613  21.436  23.786  1.00  0.00    -0.162 NA
ATOM     67  C   UNL A   1      35.165  22.763  24.810  1.00  0.00     0.006 A 
ATOM     68  N   UNL A   1      34.320  20.716  24.681  1.00  0.00    -0.240 N 
ATOM     69  C   UNL A   1      35.264  21.482  25.319  1.00  0.00     0.119 A 
BRANCH  67  70
ATOM     70  C   UNL A   1      36.011  23.949  25.158  1.00  0.00     0.068 C 
BRANCH  70  71
ATOM     71  C   UNL A   1      37.349  23.572  25.804  1.00  0.00     0.161 C 
BRANCH  71  72
ATOM     72  O   UNL A   1      38.154  22.791  24.930  1.00  0.00    -0.396 OA
ATOM     73  H   UNL A   1      38.392  23.320  24.152  1.00  0.00     0.210 HD
ENDBRANCH  71  72
ENDBRANCH  70  71
ENDBRANCH  67  70
BRANCH  68  74
ATOM     74  C   UNL A   1      34.007  19.353  24.902  1.00  0.00     0.065 A 
ATOM     75  C   UNL A   1      34.835  18.363  24.349  1.00  0.00     0.035 A 
ATOM     76  C   UNL A   1      32.865  18.994  25.632  1.00  0.00     0.035 A 
ATOM     77  C   UNL A   1      34.537  17.012  24.540  1.00  0.00     0.088 A 
ATOM     78  C   UNL A   1      32.537  17.643  25.782  1.00  0.00     0.088 A 
ATOM     79  C   UNL A   1      33.379  16.658  25.244  1.00  0.00     0.269 A 
BRANCH  79  80
ATOM     80  N   UNL A   1      33.037  15.240  25.409  1.00  0.00     0.062 N 
ATOM     81  O   UNL A   1      31.836  14.942  25.484  1.00  0.00    -0.258 OA
ATOM     82  O   UNL A   1      33.970  14.427  25.464  1.00  0.00    -0.258 OA
ENDBRANCH  79  80
ENDBRANCH  68  74
ENDBRANCH  62  65
ENDBRANCH  60  61
ENDBRANCH  59  60
ENDBRANCH   1  59
TORSDOF 18
ENDMDL
MODEL 3
REMARK VINA RESULT:     -11.2      1.950      2.949
REMARK SMILES O=C(NCCCCCCNC(=O)c1nn(-c2ccc([N+](=O)[O-])cc2)cc1CCO)c1ccc(-c2c3nc(c(-c4ccccc4)c4ccc([nH]4)c(-c4ccccc4)c4nc(c(-c5ccccc5)c5ccc2[nH]5)C=C4)C=C3)cc1
REMARK SMILES IDX 7 1 6 2 5 3 4 4 3 5 1 6 2 7 30 9 31 10 77 11 32 12 76 13
REMARK SMILES IDX 33 14 34 15 35 16 70 17 36 18 75 19 69 20 71 21 37 22 74 23
REMARK SMILES IDX 68 24 67 25 38 27 60 28 45 29 59 30 46 31 49 32 58 33 72 34
REMARK SMILES IDX 47 35 48 36 57 38 73 39 50 40 39 41 40 42 44 43 41 44 43 45
REMARK SMILES IDX 42 46 61 47 62 48 66 49 63 50 65 51 64 52 51 53 52 54 56 55
REMARK SMILES IDX 53 56 55 57 54 58 8 59 9 60 10 61 11 62 12 64 13 65 14 66
REMARK SMILES IDX 26 67 15 68 25 69 27 70 28 71 29 72 16 74 17 75 24 76 18 77
REMARK SMILES IDX 23 78 19 79 20 80 21 81 22 82
REMARK H PARENT 3 8 71 26 49 37 10 63 29 73
REMARK Flexibility Score: inf
ROOT
ATOM      1  C   UNL A   1      36.056  31.027  27.973  1.00  0.00     0.002 C 
ENDROOT
BRANCH   1   2
ATOM      2  C   UNL A   1      34.840  31.956  28.028  1.00  0.00     0.002 C 
BRANCH   2   3
ATOM      3  C   UNL A   1      34.955  33.143  28.988  1.00  0.00     0.021 C 
BRANCH   3   4
ATOM      4  C   UNL A   1      35.540  32.809  30.361  1.00  0.00     0.116 C 
BRANCH   4   5
ATOM      5  N   UNL A   1      36.607  33.689  30.793  1.00  0.00    -0.352 N 
ATOM      6  O   UNL A   1      38.584  34.559  31.284  1.00  0.00    -0.269 OA
ATOM      7  C   UNL A   1      37.955  33.545  30.969  1.00  0.00     0.251 C 
ATOM      8  H   UNL A   1      36.288  34.595  31.011  1.00  0.00     0.163 HD
BRANCH   7   9
ATOM      9  C   UNL A   1      38.696  32.260  30.850  1.00  0.00     0.039 A 
ATOM     10  C   UNL A   1      38.216  31.012  31.250  1.00  0.00     0.014 A 
ATOM     11  C   UNL A   1      39.970  32.327  30.255  1.00  0.00     0.014 A 
ATOM     12  C   UNL A   1      39.005  29.872  31.118  1.00  0.00     0.010 A 
ATOM     13  C   UNL A   1      40.752  31.186  30.093  1.00  0.00     0.010 A 
ATOM     14  C   UNL A   1      40.272  29.955  30.538  1.00  0.00    -0.014 A 
BRANCH  14  15
ATOM     15  C   UNL A   1      40.975  28.703  30.262  1.00  0.00     0.031 A 
ATOM     16  C   UNL A   1      41.861  28.201  31.354  1.00  0.00     0.074 A 
ATOM     17  C   UNL A   1      40.740  27.910  29.199  1.00  0.00     0.049 A 
ATOM     18  N   UNL A   1      43.117  27.888  31.295  1.00  0.00    -0.248 NA
ATOM     19  C   UNL A   1      41.266  28.058  32.692  1.00  0.00     0.031 C 
ATOM     20  C   UNL A   1      39.678  28.048  28.204  1.00  0.00     0.029 A 
ATOM     21  N   UNL A   1      41.341  26.727  28.864  1.00  0.00    -0.354 N 
ATOM     22  C   UNL A   1      43.435  27.350  32.540  1.00  0.00     0.074 A 
ATOM     23  C   UNL A   1      42.292  27.573  33.391  1.00  0.00     0.031 C 
ATOM     24  C   UNL A   1      39.567  26.890  27.518  1.00  0.00     0.029 A 
ATOM     25  C   UNL A   1      40.619  25.981  27.945  1.00  0.00     0.049 A 
ATOM     26  H   UNL A   1      42.202  26.434  29.238  1.00  0.00     0.167 HD
ATOM     27  C   UNL A   1      44.529  26.565  32.741  1.00  0.00     0.031 A 
ATOM     28  C   UNL A   1      40.820  24.687  27.602  1.00  0.00     0.031 A 
ATOM     29  C   UNL A   1      45.524  26.721  31.717  1.00  0.00     0.049 A 
ATOM     30  C   UNL A   1      42.182  24.289  28.018  1.00  0.00     0.074 A 
ATOM     31  C   UNL A   1      46.251  27.776  31.200  1.00  0.00     0.029 A 
ATOM     32  N   UNL A   1      45.709  25.682  30.839  1.00  0.00    -0.354 N 
ATOM     33  N   UNL A   1      43.274  24.683  27.431  1.00  0.00    -0.248 NA
ATOM     34  C   UNL A   1      42.365  23.659  29.316  1.00  0.00     0.031 C 
ATOM     35  C   UNL A   1      46.440  27.461  29.821  1.00  0.00     0.029 A 
ATOM     36  C   UNL A   1      45.828  26.228  29.591  1.00  0.00     0.049 A 
ATOM     37  H   UNL A   1      45.750  24.725  31.066  1.00  0.00     0.167 HD
ATOM     38  C   UNL A   1      44.217  24.742  28.443  1.00  0.00     0.074 A 
ATOM     39  C   UNL A   1      43.646  23.962  29.535  1.00  0.00     0.031 C 
ATOM     40  C   UNL A   1      45.234  25.654  28.405  1.00  0.00     0.031 A 
BRANCH  27  41
ATOM     41  C   UNL A   1      44.516  25.363  33.659  1.00  0.00    -0.014 A 
ATOM     42  C   UNL A   1      44.237  24.093  33.120  1.00  0.00     0.009 A 
ATOM     43  C   UNL A   1      44.467  25.478  35.062  1.00  0.00     0.009 A 
ATOM     44  C   UNL A   1      43.851  23.022  33.938  1.00  0.00     0.001 A 
ATOM     45  C   UNL A   1      44.131  24.398  35.884  1.00  0.00     0.001 A 
ATOM     46  C   UNL A   1      43.791  23.178  35.318  1.00  0.00     0.000 A 
ENDBRANCH  27  41
BRANCH  28  47
ATOM     47  C   UNL A   1      39.848  23.699  27.090  1.00  0.00    -0.014 A 
ATOM     48  C   UNL A   1      38.612  24.112  26.570  1.00  0.00     0.009 A 
ATOM     49  C   UNL A   1      40.227  22.359  26.895  1.00  0.00     0.009 A 
ATOM     50  C   UNL A   1      37.800  23.222  25.856  1.00  0.00     0.001 A 
ATOM     51  C   UNL A   1      39.411  21.467  26.194  1.00  0.00     0.001 A 
ATOM     52  C   UNL A   1      38.203  21.903  25.662  1.00  0.00     0.000 A 
ENDBRANCH  28  47
BRANCH  40  53
ATOM     53  C   UNL A   1      45.523  26.344  27.097  1.00  0.00    -0.014 A 
ATOM     54  C   UNL A   1      44.918  27.555  26.722  1.00  0.00     0.009 A 
ATOM     55  C   UNL A   1      46.532  25.821  26.271  1.00  0.00     0.009 A 
ATOM     56  C   UNL A   1      45.272  28.195  25.531  1.00  0.00     0.001 A 
ATOM     57  C   UNL A   1      46.905  26.475  25.095  1.00  0.00     0.001 A 
ATOM     58  C   UNL A   1      46.268  27.656  24.721  1.00  0.00     0.000 A 
ENDBRANCH  40  53
ENDBRANCH  14  15
ENDBRANCH   7   9
ENDBRANCH   4   5
ENDBRANCH   3   4
ENDBRANCH   2   3
ENDBRANCH   1   2
BRANCH   1  59
ATOM     59  C   UNL A   1      35.761  29.569  27.603  1.00  0.00     0.021 C 
BRANCH  59  60
ATOM     60  C   UNL A   1      34.427  29.334  26.891  1.00  0.00     0.116 C 
BRANCH  60  61
ATOM     61  N   UNL A   1      33.447  28.710  27.765  1.00  0.00    -0.351 N 
ATOM     62  C   UNL A   1      32.197  28.240  27.444  1.00  0.00     0.272 C 
ATOM     63  H   UNL A   1      33.712  28.613  28.707  1.00  0.00     0.163 HD
ATOM     64  O   UNL A   1      31.429  27.879  28.343  1.00  0.00    -0.267 OA
BRANCH  62  65
ATOM     65  C   UNL A   1      31.785  28.241  26.039  1.00  0.00     0.153 A 
ATOM     66  N   UNL A   1      31.303  29.350  25.451  1.00  0.00    -0.162 NA
ATOM     67  C   UNL A   1      31.845  27.155  25.120  1.00  0.00     0.006 A 
ATOM     68  N   UNL A   1      30.877  28.945  24.238  1.00  0.00    -0.240 N 
ATOM     69  C   UNL A   1      31.184  27.628  24.002  1.00  0.00     0.119 A 
BRANCH  67  70
ATOM     70  C   UNL A   1      32.422  25.788  25.327  1.00  0.00     0.068 C 
BRANCH  70  71
ATOM     71  C   UNL A   1      33.874  25.664  24.854  1.00  0.00     0.161 C 
BRANCH  71  72
ATOM     72  O   UNL A   1      33.957  25.512  23.443  1.00  0.00    -0.396 OA
ATOM     73  H   UNL A   1      33.158  25.878  23.031  1.00  0.00     0.210 HD
ENDBRANCH  71  72
ENDBRANCH  70  71
ENDBRANCH  67  70
BRANCH  68  74
ATOM     74  C   UNL A   1      30.155  29.835  23.405  1.00  0.00     0.065 A 
ATOM     75  C   UNL A   1      29.564  30.975  23.973  1.00  0.00     0.035 A 
ATOM     76  C   UNL A   1      29.998  29.563  22.039  1.00  0.00     0.035 A 
ATOM     77  C   UNL A   1      28.833  31.857  23.176  1.00  0.00     0.088 A 
ATOM     78  C   UNL A   1      29.225  30.418  21.248  1.00  0.00     0.088 A 
ATOM     79  C   UNL A   1      28.654  31.567  21.817  1.00  0.00     0.269 A 
BRANCH  79  80
ATOM     80  N   UNL A   1      27.849  32.468  20.983  1.00  0.00     0.062 N 
ATOM     81  O   UNL A   1      27.682  33.628  21.384  1.00  0.00    -0.258 OA
ATOM     82  O   UNL A   1      27.385  32.012  19.929  1.00  0.00    -0.258 OA
ENDBRANCH  79  80
ENDBRANCH  68  74
ENDBRANCH  62  65
ENDBRANCH  60  61
ENDBRANCH  59  60
ENDBRANCH   1  59
TORSDOF 18
ENDMDL
