MODEL 1
REMARK VINA RESULT:     -11.2      0.000      0.000
REMARK SMILES CC[NH+]1CCC2(CC1)OC[C@H](C(=O)NCCCCCCNC(=O)c1ccc(-c3c4nc(c(-c5ccccc5)c5ccc([nH]5)c(-c5ccccc5)c5nc(c(-c6ccccc6)c6ccc3[nH]6)C=C5)C=C4)cc1)N2C(=O)c1ccccc1
REMARK SMILES IDX 17 1 16 2 15 3 14 4 12 5 13 6 11 8 3 9 4 10 8 11 5 13 7 14
REMARK SMILES IDX 6 15 9 16 72 17 10 18 2 19 1 20 73 21 74 22 75 23 76 24
REMARK SMILES IDX 80 25 77 26 79 27 78 28 18 29 19 30 20 31 21 32 22 33 23 35
REMARK SMILES IDX 24 36 25 37 71 38 26 39 70 40 27 41 28 42 29 43 64 44 30 45
REMARK SMILES IDX 69 46 63 47 65 48 31 49 68 50 62 51 61 52 32 54 54 55 39 56
REMARK SMILES IDX 53 57 40 58 43 59 52 60 66 61 41 62 42 63 51 65 67 66 44 67
REMARK SMILES IDX 33 68 34 69 38 70 35 71 37 72 36 73 55 74 56 75 60 76 57 77
REMARK SMILES IDX 59 78 58 79 45 80 46 81 50 82 47 83 49 84 48 85
REMARK H PARENT 14 7 3 12 21 34 65 53 43 64
REMARK Flexibility Score: inf
ROOT
ATOM      1  C   UNL A   1      29.838  30.821  24.079  1.00  0.00     0.002 C 
ENDROOT
BRANCH   1   2
ATOM      2  C   UNL A   1      29.803  29.538  23.242  1.00  0.00     0.021 C 
BRANCH   2   3
ATOM      3  C   UNL A   1      30.417  28.330  23.947  1.00  0.00     0.116 C 
BRANCH   3   4
ATOM      4  N   UNL A   1      31.188  27.521  23.022  1.00  0.00    -0.354 N 
ATOM      5  C   UNL A   1      31.412  26.194  22.851  1.00  0.00     0.245 C 
ATOM      6  O   UNL A   1      32.095  25.931  21.849  1.00  0.00    -0.273 OA
ATOM      7  H   UNL A   1      31.665  28.069  22.356  1.00  0.00     0.163 HD
BRANCH   5   8
ATOM      8  C   UNL A   1      30.826  25.041  23.709  1.00  0.00     0.203 C 
ATOM      9  N   UNL A   1      35.277  23.161  25.555  1.00  0.00    -0.335 N 
ATOM     10  C   UNL A   1      35.098  24.423  24.876  1.00  0.00     0.267 C 
ATOM     11  C   UNL A   1      34.127  22.496  26.128  1.00  0.00     0.267 C 
ATOM     12  H   UNL A   1      35.328  22.632  24.684  1.00  0.00     0.348 HD
ATOM     13  C   UNL A   1      34.029  24.274  23.810  1.00  0.00     0.120 C 
ATOM     14  C   UNL A   1      32.924  22.460  25.187  1.00  0.00     0.120 C 
ATOM     15  C   UNL A   1      32.700  23.713  24.337  1.00  0.00     0.155 C 
ATOM     16  O   UNL A   1      32.025  23.174  23.131  1.00  0.00    -0.352 OA
ATOM     17  N   UNL A   1      31.746  24.739  24.806  1.00  0.00    -0.295 N 
ATOM     18  C   UNL A   1      30.678  23.671  23.138  1.00  0.00     0.198 C 
BRANCH   9  19
ATOM     19  C   UNL A   1      36.586  22.809  26.071  1.00  0.00     0.258 C 
ATOM     20  C   UNL A   1      37.769  23.688  25.686  1.00  0.00     0.071 C 
ENDBRANCH   9  19
BRANCH  17  21
ATOM     21  C   UNL A   1      31.501  25.374  26.011  1.00  0.00     0.256 C 
ATOM     22  O   UNL A   1      30.759  24.906  26.874  1.00  0.00    -0.269 OA
BRANCH  21  23
ATOM     23  C   UNL A   1      32.216  26.589  26.403  1.00  0.00     0.040 A 
ATOM     24  C   UNL A   1      31.579  27.497  27.257  1.00  0.00     0.014 A 
ATOM     25  C   UNL A   1      33.429  26.917  25.800  1.00  0.00     0.014 A 
ATOM     26  C   UNL A   1      32.221  28.689  27.597  1.00  0.00     0.001 A 
ATOM     27  C   UNL A   1      34.080  28.097  26.163  1.00  0.00     0.001 A 
ATOM     28  C   UNL A   1      33.483  28.974  27.071  1.00  0.00     0.000 A 
ENDBRANCH  21  23
ENDBRANCH  17  21
ENDBRANCH   5   8
ENDBRANCH   3   4
ENDBRANCH   2   3
ENDBRANCH   1   2
BRANCH   1  29
ATOM     29  C   UNL A   1      30.935  30.866  25.152  1.00  0.00     0.002 C 
BRANCH  29  30
ATOM     30  C   UNL A   1      30.844  32.043  26.127  1.00  0.00     0.021 C 
BRANCH  30  31
ATOM     31  C   UNL A   1      32.147  32.363  26.854  1.00  0.00     0.116 C 
BRANCH  31  32
ATOM     32  N   UNL A   1      32.212  33.757  27.260  1.00  0.00    -0.352 N 
ATOM     33  C   UNL A   1      33.034  34.362  28.178  1.00  0.00     0.251 C 
ATOM     34  H   UNL A   1      31.572  34.357  26.811  1.00  0.00     0.163 HD
ATOM     35  O   UNL A   1      32.810  35.508  28.545  1.00  0.00    -0.269 OA
BRANCH  33  36
ATOM     36  C   UNL A   1      34.189  33.623  28.732  1.00  0.00     0.039 A 
ATOM     37  C   UNL A   1      35.438  34.247  28.764  1.00  0.00     0.014 A 
ATOM     38  C   UNL A   1      34.047  32.311  29.193  1.00  0.00     0.014 A 
ATOM     39  C   UNL A   1      36.536  33.571  29.299  1.00  0.00     0.010 A 
ATOM     40  C   UNL A   1      35.125  31.667  29.796  1.00  0.00     0.010 A 
ATOM     41  C   UNL A   1      36.383  32.285  29.842  1.00  0.00    -0.014 A 
BRANCH  41  42
ATOM     42  C   UNL A   1      37.533  31.561  30.440  1.00  0.00     0.031 A 
ATOM     43  C   UNL A   1      37.932  31.827  31.866  1.00  0.00     0.074 A 
ATOM     44  C   UNL A   1      38.249  30.703  29.687  1.00  0.00     0.049 A 
ATOM     45  N   UNL A   1      38.936  31.335  32.548  1.00  0.00    -0.248 NA
ATOM     46  C   UNL A   1      37.112  32.792  32.616  1.00  0.00     0.031 C 
ATOM     47  C   UNL A   1      37.985  30.380  28.283  1.00  0.00     0.029 A 
ATOM     48  N   UNL A   1      39.350  29.946  30.001  1.00  0.00    -0.354 N 
ATOM     49  C   UNL A   1      38.875  31.941  33.798  1.00  0.00     0.074 A 
ATOM     50  C   UNL A   1      37.773  32.877  33.760  1.00  0.00     0.031 C 
ATOM     51  C   UNL A   1      38.880  29.471  27.866  1.00  0.00     0.029 A 
ATOM     52  C   UNL A   1      39.805  29.178  28.957  1.00  0.00     0.049 A 
ATOM     53  H   UNL A   1      39.773  29.953  30.889  1.00  0.00     0.167 HD
ATOM     54  C   UNL A   1      39.652  31.724  34.886  1.00  0.00     0.031 A 
ATOM     55  C   UNL A   1      40.853  28.335  28.884  1.00  0.00     0.031 A 
ATOM     56  C   UNL A   1      40.742  30.787  34.925  1.00  0.00     0.049 A 
ATOM     57  C   UNL A   1      41.714  28.128  30.100  1.00  0.00     0.074 A 
ATOM     58  C   UNL A   1      41.559  30.459  35.994  1.00  0.00     0.029 A 
ATOM     59  N   UNL A   1      41.169  30.027  33.847  1.00  0.00    -0.354 N 
ATOM     60  N   UNL A   1      41.605  28.663  31.292  1.00  0.00    -0.248 NA
ATOM     61  C   UNL A   1      42.835  27.188  29.962  1.00  0.00     0.031 C 
ATOM     62  C   UNL A   1      42.515  29.543  35.547  1.00  0.00     0.029 A 
ATOM     63  C   UNL A   1      42.254  29.249  34.219  1.00  0.00     0.049 A 
ATOM     64  H   UNL A   1      40.763  30.040  32.951  1.00  0.00     0.167 HD
ATOM     65  C   UNL A   1      42.620  28.100  32.054  1.00  0.00     0.074 A 
ATOM     66  C   UNL A   1      43.324  27.171  31.194  1.00  0.00     0.031 C 
ATOM     67  C   UNL A   1      42.941  28.329  33.351  1.00  0.00     0.031 A 
BRANCH  54  68
ATOM     68  C   UNL A   1      39.350  32.526  36.123  1.00  0.00    -0.014 A 
ATOM     69  C   UNL A   1      40.032  33.723  36.399  1.00  0.00     0.009 A 
ATOM     70  C   UNL A   1      38.348  32.098  37.007  1.00  0.00     0.009 A 
ATOM     71  C   UNL A   1      39.745  34.450  37.556  1.00  0.00     0.001 A 
ATOM     72  C   UNL A   1      38.041  32.844  38.146  1.00  0.00     0.001 A 
ATOM     73  C   UNL A   1      38.746  34.014  38.425  1.00  0.00     0.000 A 
ENDBRANCH  54  68
BRANCH  55  74
ATOM     74  C   UNL A   1      41.142  27.608  27.620  1.00  0.00    -0.014 A 
ATOM     75  C   UNL A   1      40.582  26.343  27.382  1.00  0.00     0.009 A 
ATOM     76  C   UNL A   1      41.991  28.165  26.652  1.00  0.00     0.009 A 
ATOM     77  C   UNL A   1      40.893  25.638  26.216  1.00  0.00     0.001 A 
ATOM     78  C   UNL A   1      42.275  27.472  25.473  1.00  0.00     0.001 A 
ATOM     79  C   UNL A   1      41.735  26.204  25.263  1.00  0.00     0.000 A 
ENDBRANCH  55  74
BRANCH  67  80
ATOM     80  C   UNL A   1      44.074  27.528  33.931  1.00  0.00    -0.014 A 
ATOM     81  C   UNL A   1      43.864  26.263  34.501  1.00  0.00     0.009 A 
ATOM     82  C   UNL A   1      45.381  28.039  33.872  1.00  0.00     0.009 A 
ATOM     83  C   UNL A   1      44.935  25.543  35.036  1.00  0.00     0.001 A 
ATOM     84  C   UNL A   1      46.453  27.303  34.378  1.00  0.00     0.001 A 
ATOM     85  C   UNL A   1      46.228  26.061  34.969  1.00  0.00     0.000 A 
ENDBRANCH  67  80
ENDBRANCH  41  42
ENDBRANCH  33  36
ENDBRANCH  31  32
ENDBRANCH  30  31
ENDBRANCH  29  30
ENDBRANCH   1  29
TORSDOF 16
ENDMDL
MODEL 2
REMARK VINA RESULT:     -11.2      1.032      5.716
REMARK SMILES CC[NH+]1CCC2(CC1)OC[C@H](C(=O)NCCCCCCNC(=O)c1ccc(-c3c4nc(c(-c5ccccc5)c5ccc([nH]5)c(-c5ccccc5)c5nc(c(-c6ccccc6)c6ccc3[nH]6)C=C5)C=C4)cc1)N2C(=O)c1ccccc1
REMARK SMILES IDX 17 1 16 2 15 3 14 4 12 5 13 6 11 8 3 9 4 10 8 11 5 13 7 14
REMARK SMILES IDX 6 15 9 16 72 17 10 18 2 19 1 20 73 21 74 22 75 23 76 24
REMARK SMILES IDX 80 25 77 26 79 27 78 28 18 29 19 30 20 31 21 32 22 33 23 35
REMARK SMILES IDX 24 36 25 37 71 38 26 39 70 40 27 41 28 42 29 43 64 44 30 45
REMARK SMILES IDX 69 46 63 47 65 48 31 49 68 50 62 51 61 52 32 54 54 55 39 56
REMARK SMILES IDX 53 57 40 58 43 59 52 60 66 61 41 62 42 63 51 65 67 66 44 67
REMARK SMILES IDX 33 68 34 69 38 70 35 71 37 72 36 73 55 74 56 75 60 76 57 77
REMARK SMILES IDX 59 78 58 79 45 80 46 81 50 82 47 83 49 84 48 85
REMARK H PARENT 14 7 3 12 21 34 65 53 43 64
REMARK Flexibility Score: inf
ROOT
ATOM      1  C   UNL A   1      30.029  30.783  24.256  1.00  0.00     0.002 C 
ENDROOT
BRANCH   1   2
ATOM      2  C   UNL A   1      30.002  29.542  23.357  1.00  0.00     0.021 C 
BRANCH   2   3
ATOM      3  C   UNL A   1      30.442  28.263  24.067  1.00  0.00     0.116 C 
BRANCH   3   4
ATOM      4  N   UNL A   1      31.296  27.460  23.212  1.00  0.00    -0.354 N 
ATOM      5  C   UNL A   1      31.533  26.134  23.052  1.00  0.00     0.245 C 
ATOM      6  O   UNL A   1      32.309  25.877  22.118  1.00  0.00    -0.273 OA
ATOM      7  H   UNL A   1      31.836  28.011  22.600  1.00  0.00     0.163 HD
BRANCH   5   8
ATOM      8  C   UNL A   1      30.865  24.975  23.840  1.00  0.00     0.203 C 
ATOM      9  N   UNL A   1      35.168  22.529  25.342  1.00  0.00    -0.335 N 
ATOM     10  C   UNL A   1      35.092  23.854  24.774  1.00  0.00     0.267 C 
ATOM     11  C   UNL A   1      33.978  21.932  25.909  1.00  0.00     0.267 C 
ATOM     12  H   UNL A   1      35.137  22.072  24.431  1.00  0.00     0.348 HD
ATOM     13  C   UNL A   1      33.978  23.898  23.745  1.00  0.00     0.120 C 
ATOM     14  C   UNL A   1      32.747  22.091  25.020  1.00  0.00     0.120 C 
ATOM     15  C   UNL A   1      32.618  23.425  24.281  1.00  0.00     0.155 C 
ATOM     16  O   UNL A   1      31.853  23.055  23.066  1.00  0.00    -0.352 OA
ATOM     17  N   UNL A   1      31.788  24.496  24.870  1.00  0.00    -0.295 N 
ATOM     18  C   UNL A   1      30.563  23.677  23.169  1.00  0.00     0.198 C 
BRANCH   9  19
ATOM     19  C   UNL A   1      36.453  22.011  25.773  1.00  0.00     0.258 C 
ATOM     20  C   UNL A   1      37.679  22.897  25.599  1.00  0.00     0.071 C 
ENDBRANCH   9  19
BRANCH  17  21
ATOM     21  C   UNL A   1      31.649  25.049  26.130  1.00  0.00     0.256 C 
ATOM     22  O   UNL A   1      31.085  24.468  27.057  1.00  0.00    -0.269 OA
BRANCH  21  23
ATOM     23  C   UNL A   1      32.282  26.317  26.492  1.00  0.00     0.040 A 
ATOM     24  C   UNL A   1      31.559  27.235  27.263  1.00  0.00     0.014 A 
ATOM     25  C   UNL A   1      33.509  26.675  25.933  1.00  0.00     0.014 A 
ATOM     26  C   UNL A   1      32.124  28.473  27.570  1.00  0.00     0.001 A 
ATOM     27  C   UNL A   1      34.082  27.904  26.265  1.00  0.00     0.001 A 
ATOM     28  C   UNL A   1      33.397  28.795  27.093  1.00  0.00     0.000 A 
ENDBRANCH  21  23
ENDBRANCH  17  21
ENDBRANCH   5   8
ENDBRANCH   3   4
ENDBRANCH   2   3
ENDBRANCH   1   2
BRANCH   1  29
ATOM     29  C   UNL A   1      31.155  30.804  25.300  1.00  0.00     0.002 C 
BRANCH  29  30
ATOM     30  C   UNL A   1      31.004  31.858  26.399  1.00  0.00     0.021 C 
BRANCH  30  31
ATOM     31  C   UNL A   1      32.323  32.417  26.924  1.00  0.00     0.116 C 
BRANCH  31  32
ATOM     32  N   UNL A   1      32.198  33.804  27.340  1.00  0.00    -0.352 N 
ATOM     33  C   UNL A   1      32.909  34.501  28.284  1.00  0.00     0.251 C 
ATOM     34  H   UNL A   1      31.499  34.321  26.875  1.00  0.00     0.163 HD
ATOM     35  O   UNL A   1      32.530  35.605  28.651  1.00  0.00    -0.269 OA
BRANCH  33  36
ATOM     36  C   UNL A   1      34.133  33.910  28.869  1.00  0.00     0.039 A 
ATOM     37  C   UNL A   1      35.378  34.376  28.440  1.00  0.00     0.014 A 
ATOM     38  C   UNL A   1      34.053  32.884  29.814  1.00  0.00     0.014 A 
ATOM     39  C   UNL A   1      36.544  33.842  28.993  1.00  0.00     0.010 A 
ATOM     40  C   UNL A   1      35.213  32.407  30.419  1.00  0.00     0.010 A 
ATOM     41  C   UNL A   1      36.470  32.871  30.004  1.00  0.00    -0.014 A 
BRANCH  41  42
ATOM     42  C   UNL A   1      37.698  32.311  30.623  1.00  0.00     0.031 A 
ATOM     43  C   UNL A   1      38.351  31.091  30.031  1.00  0.00     0.074 A 
ATOM     44  C   UNL A   1      38.196  32.866  31.745  1.00  0.00     0.049 A 
ATOM     45  N   UNL A   1      39.396  30.425  30.455  1.00  0.00    -0.248 NA
ATOM     46  C   UNL A   1      37.736  30.532  28.816  1.00  0.00     0.031 C 
ATOM     47  C   UNL A   1      37.640  34.030  32.437  1.00  0.00     0.029 A 
ATOM     48  N   UNL A   1      39.287  32.519  32.503  1.00  0.00    -0.354 N 
ATOM     49  C   UNL A   1      39.551  29.364  29.572  1.00  0.00     0.074 A 
ATOM     50  C   UNL A   1      38.462  29.442  28.623  1.00  0.00     0.031 C 
ATOM     51  C   UNL A   1      38.407  34.318  33.499  1.00  0.00     0.029 A 
ATOM     52  C   UNL A   1      39.485  33.337  33.589  1.00  0.00     0.049 A 
ATOM     53  H   UNL A   1      39.872  31.757  32.290  1.00  0.00     0.167 HD
ATOM     54  C   UNL A   1      40.522  28.420  29.538  1.00  0.00     0.031 A 
ATOM     55  C   UNL A   1      40.425  33.299  34.552  1.00  0.00     0.031 A 
ATOM     56  C   UNL A   1      41.609  28.348  30.477  1.00  0.00     0.049 A 
ATOM     57  C   UNL A   1      41.480  32.228  34.505  1.00  0.00     0.074 A 
ATOM     58  C   UNL A   1      42.671  27.460  30.500  1.00  0.00     0.029 A 
ATOM     59  N   UNL A   1      41.774  29.197  31.561  1.00  0.00    -0.354 N 
ATOM     60  N   UNL A   1      41.648  31.269  33.627  1.00  0.00    -0.248 NA
ATOM     61  C   UNL A   1      42.485  32.246  35.577  1.00  0.00     0.031 C 
ATOM     62  C   UNL A   1      43.447  27.736  31.629  1.00  0.00     0.029 A 
ATOM     63  C   UNL A   1      42.907  28.838  32.273  1.00  0.00     0.049 A 
ATOM     64  H   UNL A   1      41.174  29.943  31.790  1.00  0.00     0.167 HD
ATOM     65  C   UNL A   1      42.794  30.591  34.020  1.00  0.00     0.074 A 
ATOM     66  C   UNL A   1      43.288  31.258  35.207  1.00  0.00     0.031 C 
ATOM     67  C   UNL A   1      43.387  29.513  33.450  1.00  0.00     0.031 A 
BRANCH  54  68
ATOM     68  C   UNL A   1      40.443  27.384  28.450  1.00  0.00    -0.014 A 
ATOM     69  C   UNL A   1      39.755  26.175  28.644  1.00  0.00     0.009 A 
ATOM     70  C   UNL A   1      41.037  27.632  27.203  1.00  0.00     0.009 A 
ATOM     71  C   UNL A   1      39.700  25.220  27.627  1.00  0.00     0.001 A 
ATOM     72  C   UNL A   1      40.952  26.690  26.177  1.00  0.00     0.001 A 
ATOM     73  C   UNL A   1      40.292  25.481  26.392  1.00  0.00     0.000 A 
ENDBRANCH  54  68
BRANCH  55  74
ATOM     74  C   UNL A   1      40.426  34.315  35.637  1.00  0.00    -0.014 A 
ATOM     75  C   UNL A   1      39.703  34.095  36.820  1.00  0.00     0.009 A 
ATOM     76  C   UNL A   1      41.138  35.516  35.492  1.00  0.00     0.009 A 
ATOM     77  C   UNL A   1      39.665  35.071  37.819  1.00  0.00     0.001 A 
ATOM     78  C   UNL A   1      41.123  36.476  36.506  1.00  0.00     0.001 A 
ATOM     79  C   UNL A   1      40.377  36.258  37.663  1.00  0.00     0.000 A 
ENDBRANCH  55  74
BRANCH  67  80
ATOM     80  C   UNL A   1      44.661  29.018  34.075  1.00  0.00    -0.014 A 
ATOM     81  C   UNL A   1      44.656  28.026  35.067  1.00  0.00     0.009 A 
ATOM     82  C   UNL A   1      45.892  29.534  33.636  1.00  0.00     0.009 A 
ATOM     83  C   UNL A   1      45.855  27.588  35.634  1.00  0.00     0.001 A 
ATOM     84  C   UNL A   1      47.089  29.071  34.181  1.00  0.00     0.001 A 
ATOM     85  C   UNL A   1      47.070  28.106  35.187  1.00  0.00     0.000 A 
ENDBRANCH  67  80
ENDBRANCH  41  42
ENDBRANCH  33  36
ENDBRANCH  31  32
ENDBRANCH  30  31
ENDBRANCH  29  30
ENDBRANCH   1  29
TORSDOF 16
ENDMDL
MODEL 3
REMARK VINA RESULT:     -11.1      1.970      6.139
REMARK SMILES CC[NH+]1CCC2(CC1)OC[C@H](C(=O)NCCCCCCNC(=O)c1ccc(-c3c4nc(c(-c5ccccc5)c5ccc([nH]5)c(-c5ccccc5)c5nc(c(-c6ccccc6)c6ccc3[nH]6)C=C5)C=C4)cc1)N2C(=O)c1ccccc1
REMARK SMILES IDX 17 1 16 2 15 3 14 4 12 5 13 6 11 8 3 9 4 10 8 11 5 13 7 14
REMARK SMILES IDX 6 15 9 16 72 17 10 18 2 19 1 20 73 21 74 22 75 23 76 24
REMARK SMILES IDX 80 25 77 26 79 27 78 28 18 29 19 30 20 31 21 32 22 33 23 35
REMARK SMILES IDX 24 36 25 37 71 38 26 39 70 40 27 41 28 42 29 43 64 44 30 45
REMARK SMILES IDX 69 46 63 47 65 48 31 49 68 50 62 51 61 52 32 54 54 55 39 56
REMARK SMILES IDX 53 57 40 58 43 59 52 60 66 61 41 62 42 63 51 65 67 66 44 67
REMARK SMILES IDX 33 68 34 69 38 70 35 71 37 72 36 73 55 74 56 75 60 76 57 77
REMARK SMILES IDX 59 78 58 79 45 80 46 81 50 82 47 83 49 84 48 85
REMARK H PARENT 14 7 3 12 21 34 65 53 43 64
REMARK Flexibility Score: inf
ROOT
ATOM      1  C   UNL A   1      30.779  29.375  24.147  1.00  0.00     0.002 C 
ENDROOT
BRANCH   1   2
ATOM      2  C   UNL A   1      31.458  29.139  22.794  1.00  0.00     0.021 C 
BRANCH   2   3
ATOM      3  C   UNL A   1      32.083  27.752  22.656  1.00  0.00     0.116 C 
BRANCH   3   4
ATOM      4  N   UNL A   1      31.114  26.712  22.948  1.00  0.00    -0.354 N 
ATOM      5  C   UNL A   1      30.803  25.955  24.031  1.00  0.00     0.245 C 
ATOM      6  O   UNL A   1      29.818  25.222  23.857  1.00  0.00    -0.273 OA
ATOM      7  H   UNL A   1      30.544  26.504  22.172  1.00  0.00     0.163 HD
BRANCH   5   8
ATOM      8  C   UNL A   1      31.488  26.010  25.422  1.00  0.00     0.203 C 
ATOM      9  N   UNL A   1      32.790  21.018  25.800  1.00  0.00    -0.335 N 
ATOM     10  C   UNL A   1      32.336  21.696  24.608  1.00  0.00     0.267 C 
ATOM     11  C   UNL A   1      33.300  21.798  26.907  1.00  0.00     0.267 C 
ATOM     12  H   UNL A   1      31.843  20.875  26.151  1.00  0.00     0.348 HD
ATOM     13  C   UNL A   1      31.311  22.748  24.987  1.00  0.00     0.120 C 
ATOM     14  C   UNL A   1      32.424  23.002  27.246  1.00  0.00     0.120 C 
ATOM     15  C   UNL A   1      31.801  23.736  26.056  1.00  0.00     0.155 C 
ATOM     16  O   UNL A   1      30.557  24.299  26.634  1.00  0.00    -0.352 OA
ATOM     17  N   UNL A   1      32.476  24.935  25.518  1.00  0.00    -0.295 N 
ATOM     18  C   UNL A   1      30.708  25.727  26.663  1.00  0.00     0.198 C 
BRANCH   9  19
ATOM     19  C   UNL A   1      33.179  19.623  25.722  1.00  0.00     0.258 C 
ATOM     20  C   UNL A   1      33.888  19.145  24.461  1.00  0.00     0.071 C 
ENDBRANCH   9  19
BRANCH  17  21
ATOM     21  C   UNL A   1      33.778  25.261  25.185  1.00  0.00     0.256 C 
ATOM     22  O   UNL A   1      34.201  26.417  25.191  1.00  0.00    -0.269 OA
BRANCH  21  23
ATOM     23  C   UNL A   1      34.790  24.236  24.928  1.00  0.00     0.040 A 
ATOM     24  C   UNL A   1      35.739  23.964  25.920  1.00  0.00     0.014 A 
ATOM     25  C   UNL A   1      34.913  23.671  23.659  1.00  0.00     0.014 A 
ATOM     26  C   UNL A   1      36.747  23.030  25.672  1.00  0.00     0.001 A 
ATOM     27  C   UNL A   1      35.906  22.719  23.424  1.00  0.00     0.001 A 
ATOM     28  C   UNL A   1      36.813  22.389  24.433  1.00  0.00     0.000 A 
ENDBRANCH  21  23
ENDBRANCH  17  21
ENDBRANCH   5   8
ENDBRANCH   3   4
ENDBRANCH   2   3
ENDBRANCH   1   2
BRANCH   1  29
ATOM     29  C   UNL A   1      31.729  29.749  25.294  1.00  0.00     0.002 C 
BRANCH  29  30
ATOM     30  C   UNL A   1      31.358  31.022  26.058  1.00  0.00     0.021 C 
BRANCH  30  31
ATOM     31  C   UNL A   1      32.454  31.549  26.979  1.00  0.00     0.116 C 
BRANCH  31  32
ATOM     32  N   UNL A   1      32.247  32.946  27.324  1.00  0.00    -0.352 N 
ATOM     33  C   UNL A   1      32.990  33.764  28.138  1.00  0.00     0.251 C 
ATOM     34  H   UNL A   1      31.457  33.368  26.913  1.00  0.00     0.163 HD
ATOM     35  O   UNL A   1      32.552  34.854  28.481  1.00  0.00    -0.269 OA
BRANCH  33  36
ATOM     36  C   UNL A   1      34.319  33.321  28.612  1.00  0.00     0.039 A 
ATOM     37  C   UNL A   1      34.412  32.657  29.837  1.00  0.00     0.014 A 
ATOM     38  C   UNL A   1      35.471  33.584  27.866  1.00  0.00     0.014 A 
ATOM     39  C   UNL A   1      35.656  32.216  30.292  1.00  0.00     0.010 A 
ATOM     40  C   UNL A   1      36.699  33.078  28.284  1.00  0.00     0.010 A 
ATOM     41  C   UNL A   1      36.806  32.402  29.508  1.00  0.00    -0.014 A 
BRANCH  41  42
ATOM     42  C   UNL A   1      38.133  31.917  29.963  1.00  0.00     0.031 A 
ATOM     43  C   UNL A   1      38.670  30.605  29.460  1.00  0.00     0.074 A 
ATOM     44  C   UNL A   1      38.833  32.631  30.867  1.00  0.00     0.049 A 
ATOM     45  N   UNL A   1      39.781  29.989  29.779  1.00  0.00    -0.248 NA
ATOM     46  C   UNL A   1      37.837  29.875  28.490  1.00  0.00     0.031 C 
ATOM     47  C   UNL A   1      38.411  33.903  31.457  1.00  0.00     0.029 A 
ATOM     48  N   UNL A   1      40.051  32.383  31.449  1.00  0.00    -0.354 N 
ATOM     49  C   UNL A   1      39.771  28.798  29.063  1.00  0.00     0.074 A 
ATOM     50  C   UNL A   1      38.521  28.751  28.338  1.00  0.00     0.031 C 
ATOM     51  C   UNL A   1      39.366  34.337  32.294  1.00  0.00     0.029 A 
ATOM     52  C   UNL A   1      40.447  33.357  32.333  1.00  0.00     0.049 A 
ATOM     53  H   UNL A   1      40.590  31.583  31.253  1.00  0.00     0.167 HD
ATOM     54  C   UNL A   1      40.725  27.839  28.996  1.00  0.00     0.031 A 
ATOM     55  C   UNL A   1      41.554  33.449  33.093  1.00  0.00     0.031 A 
ATOM     56  C   UNL A   1      41.972  27.890  29.711  1.00  0.00     0.049 A 
ATOM     57  C   UNL A   1      42.589  32.359  33.019  1.00  0.00     0.074 A 
ATOM     58  C   UNL A   1      43.025  26.991  29.674  1.00  0.00     0.029 A 
ATOM     59  N   UNL A   1      42.335  28.895  30.594  1.00  0.00    -0.354 N 
ATOM     60  N   UNL A   1      42.592  31.270  32.289  1.00  0.00    -0.248 NA
ATOM     61  C   UNL A   1      43.780  32.522  33.863  1.00  0.00     0.031 C 
ATOM     62  C   UNL A   1      44.001  27.424  30.576  1.00  0.00     0.029 A 
ATOM     63  C   UNL A   1      43.586  28.626  31.126  1.00  0.00     0.049 A 
ATOM     64  H   UNL A   1      41.785  29.682  30.811  1.00  0.00     0.167 HD
ATOM     65  C   UNL A   1      43.797  30.636  32.561  1.00  0.00     0.074 A 
ATOM     66  C   UNL A   1      44.505  31.470  33.509  1.00  0.00     0.031 C 
ATOM     67  C   UNL A   1      44.277  29.468  32.067  1.00  0.00     0.031 A 
BRANCH  54  68
ATOM     68  C   UNL A   1      40.447  26.645  28.123  1.00  0.00    -0.014 A 
ATOM     69  C   UNL A   1      39.756  25.526  28.617  1.00  0.00     0.009 A 
ATOM     70  C   UNL A   1      40.851  26.653  26.779  1.00  0.00     0.009 A 
ATOM     71  C   UNL A   1      39.514  24.424  27.795  1.00  0.00     0.001 A 
ATOM     72  C   UNL A   1      40.579  25.563  25.951  1.00  0.00     0.001 A 
ATOM     73  C   UNL A   1      39.921  24.445  26.461  1.00  0.00     0.000 A 
ENDBRANCH  54  68
BRANCH  55  74
ATOM     74  C   UNL A   1      41.757  34.623  33.983  1.00  0.00    -0.014 A 
ATOM     75  C   UNL A   1      41.291  34.603  35.306  1.00  0.00     0.009 A 
ATOM     76  C   UNL A   1      42.403  35.776  33.510  1.00  0.00     0.009 A 
ATOM     77  C   UNL A   1      41.437  35.725  36.126  1.00  0.00     0.001 A 
ATOM     78  C   UNL A   1      42.576  36.884  34.341  1.00  0.00     0.001 A 
ATOM     79  C   UNL A   1      42.082  36.862  35.645  1.00  0.00     0.000 A 
ENDBRANCH  55  74
BRANCH  67  80
ATOM     80  C   UNL A   1      45.651  29.048  32.510  1.00  0.00    -0.014 A 
ATOM     81  C   UNL A   1      45.848  28.287  33.673  1.00  0.00     0.009 A 
ATOM     82  C   UNL A   1      46.765  29.392  31.726  1.00  0.00     0.009 A 
ATOM     83  C   UNL A   1      47.137  27.915  34.063  1.00  0.00     0.001 A 
ATOM     84  C   UNL A   1      48.047  28.991  32.101  1.00  0.00     0.001 A 
ATOM     85  C   UNL A   1      48.234  28.262  33.274  1.00  0.00     0.000 A 
ENDBRANCH  67  80
ENDBRANCH  41  42
ENDBRANCH  33  36
ENDBRANCH  31  32
ENDBRANCH  30  31
ENDBRANCH  29  30
ENDBRANCH   1  29
TORSDOF 16
ENDMDL
