MODEL 1
REMARK VINA RESULT:     -10.9      0.000      0.000
REMARK SMILES O=C(/C=C/c1ccc(O)cc1)NC[C@@H]1CC[C@H](C(=O)NCCCCCCNC(=O)c2ccc(-c3c4nc(c(-c5ccccc5)c5ccc([nH]5)c(-c5ccccc5)c5nc(c(-c6ccccc6)c6ccc3[nH]6)C=C5)C=C4)cc2)O1
REMARK SMILES IDX 22 1 21 2 20 3 18 4 19 5 17 7 14 8 15 9 78 10 16 11 13 12
REMARK SMILES IDX 12 13 1 14 2 15 3 17 4 18 5 19 6 20 11 21 7 22 10 23 8 24
REMARK SMILES IDX 9 25 23 27 24 28 25 29 26 30 27 31 28 32 29 34 30 35 31 36
REMARK SMILES IDX 77 37 32 38 76 39 33 40 34 41 35 42 70 43 36 44 75 45 69 46
REMARK SMILES IDX 71 47 37 48 74 49 68 50 67 51 38 53 60 54 45 55 59 56 46 57
REMARK SMILES IDX 49 58 58 59 72 60 47 61 48 62 57 64 73 65 50 66 39 67 40 68
REMARK SMILES IDX 44 69 41 70 43 71 42 72 61 73 62 74 66 75 63 76 65 77 64 78
REMARK SMILES IDX 51 79 52 80 56 81 53 82 55 83 54 84
REMARK H PARENT 20 6 12 16 9 26 27 33 71 52 49 63
REMARK Flexibility Score: inf
ROOT
ATOM      1  C   UNL A   1      35.759  23.001  25.691  1.00  0.00     0.021 C 
ENDROOT
BRANCH   1   2
ATOM      2  C   UNL A   1      34.952  24.260  25.398  1.00  0.00     0.116 C 
BRANCH   2   3
ATOM      3  N   UNL A   1      34.682  24.430  23.990  1.00  0.00    -0.354 N 
ATOM      4  C   UNL A   1      33.854  25.321  23.368  1.00  0.00     0.249 C 
ATOM      5  O   UNL A   1      33.805  25.285  22.134  1.00  0.00    -0.272 OA
ATOM      6  H   UNL A   1      35.164  23.815  23.393  1.00  0.00     0.163 HD
BRANCH   4   7
ATOM      7  C   UNL A   1      32.975  26.315  24.164  1.00  0.00     0.207 C 
ATOM      8  C   UNL A   1      30.971  26.131  25.374  1.00  0.00     0.138 C 
ATOM      9  C   UNL A   1      30.587  26.623  23.985  1.00  0.00     0.037 C 
ATOM     10  O   UNL A   1      32.359  25.757  25.323  1.00  0.00    -0.363 OA
ATOM     11  C   UNL A   1      31.899  26.987  23.327  1.00  0.00     0.045 C 
BRANCH   8  12
ATOM     12  C   UNL A   1      30.170  24.904  25.845  1.00  0.00     0.148 C 
BRANCH  12  13
ATOM     13  N   UNL A   1      30.719  23.645  25.398  1.00  0.00    -0.350 N 
ATOM     14  O   UNL A   1      31.715  23.120  27.394  1.00  0.00    -0.270 OA
ATOM     15  C   UNL A   1      31.414  22.822  26.243  1.00  0.00     0.244 C 
ATOM     16  H   UNL A   1      30.590  23.371  24.461  1.00  0.00     0.163 HD
BRANCH  15  17
ATOM     17  C   UNL A   1      31.807  21.495  25.708  1.00  0.00     0.072 C 
ATOM     18  C   UNL A   1      32.360  21.254  24.511  1.00  0.00     0.014 C 
BRANCH  18  19
ATOM     19  C   UNL A   1      32.764  19.917  24.070  1.00  0.00    -0.025 A 
ATOM     20  C   UNL A   1      32.156  19.268  22.987  1.00  0.00     0.012 A 
ATOM     21  C   UNL A   1      33.833  19.296  24.729  1.00  0.00     0.012 A 
ATOM     22  C   UNL A   1      32.594  18.002  22.587  1.00  0.00     0.047 A 
ATOM     23  C   UNL A   1      34.269  18.032  24.331  1.00  0.00     0.047 A 
ATOM     24  C   UNL A   1      33.645  17.395  23.266  1.00  0.00     0.115 A 
BRANCH  24  25
ATOM     25  O   UNL A   1      34.105  16.162  22.912  1.00  0.00    -0.508 OA
ATOM     26  H   UNL A   1      33.534  15.419  22.956  1.00  0.00     0.293 HD
ENDBRANCH  24  25
ENDBRANCH  18  19
ENDBRANCH  15  17
ENDBRANCH  12  13
ENDBRANCH   8  12
ENDBRANCH   4   7
ENDBRANCH   2   3
ENDBRANCH   1   2
BRANCH   1  27
ATOM     27  C   UNL A   1      35.964  22.111  24.463  1.00  0.00     0.002 C 
BRANCH  27  28
ATOM     28  C   UNL A   1      37.419  21.697  24.199  1.00  0.00     0.002 C 
BRANCH  28  29
ATOM     29  C   UNL A   1      37.774  20.253  24.566  1.00  0.00     0.021 C 
BRANCH  29  30
ATOM     30  C   UNL A   1      38.436  20.082  25.931  1.00  0.00     0.116 C 
BRANCH  30  31
ATOM     31  N   UNL A   1      39.646  19.276  25.854  1.00  0.00    -0.352 N 
ATOM     32  C   UNL A   1      40.956  19.642  26.016  1.00  0.00     0.251 C 
ATOM     33  H   UNL A   1      39.500  18.324  25.653  1.00  0.00     0.163 HD
ATOM     34  O   UNL A   1      41.855  18.863  25.699  1.00  0.00    -0.269 OA
BRANCH  32  35
ATOM     35  C   UNL A   1      41.298  20.970  26.564  1.00  0.00     0.039 A 
ATOM     36  C   UNL A   1      41.303  21.147  27.950  1.00  0.00     0.014 A 
ATOM     37  C   UNL A   1      41.577  22.045  25.717  1.00  0.00     0.014 A 
ATOM     38  C   UNL A   1      41.646  22.389  28.489  1.00  0.00     0.010 A 
ATOM     39  C   UNL A   1      41.977  23.266  26.255  1.00  0.00     0.010 A 
ATOM     40  C   UNL A   1      42.014  23.449  27.645  1.00  0.00    -0.014 A 
BRANCH  40  41
ATOM     41  C   UNL A   1      42.451  24.755  28.197  1.00  0.00     0.031 A 
ATOM     42  C   UNL A   1      41.452  25.854  28.427  1.00  0.00     0.074 A 
ATOM     43  C   UNL A   1      43.760  24.974  28.427  1.00  0.00     0.049 A 
ATOM     44  N   UNL A   1      41.655  27.083  28.832  1.00  0.00    -0.248 NA
ATOM     45  C   UNL A   1      40.042  25.538  28.145  1.00  0.00     0.031 C 
ATOM     46  C   UNL A   1      44.833  24.001  28.211  1.00  0.00     0.029 A 
ATOM     47  N   UNL A   1      44.412  26.093  28.882  1.00  0.00    -0.354 N 
ATOM     48  C   UNL A   1      40.406  27.690  28.835  1.00  0.00     0.074 A 
ATOM     49  C   UNL A   1      39.456  26.709  28.354  1.00  0.00     0.031 C 
ATOM     50  C   UNL A   1      46.006  24.559  28.551  1.00  0.00     0.029 A 
ATOM     51  C   UNL A   1      45.774  25.937  28.967  1.00  0.00     0.049 A 
ATOM     52  H   UNL A   1      43.948  26.926  29.123  1.00  0.00     0.167 HD
ATOM     53  C   UNL A   1      40.075  28.947  29.217  1.00  0.00     0.031 A 
ATOM     54  C   UNL A   1      46.731  26.812  29.330  1.00  0.00     0.031 A 
ATOM     55  C   UNL A   1      41.016  29.921  29.702  1.00  0.00     0.049 A 
ATOM     56  C   UNL A   1      46.340  28.205  29.733  1.00  0.00     0.074 A 
ATOM     57  C   UNL A   1      40.771  31.201  30.167  1.00  0.00     0.029 A 
ATOM     58  N   UNL A   1      42.386  29.721  29.781  1.00  0.00    -0.354 N 
ATOM     59  N   UNL A   1      45.146  28.744  29.792  1.00  0.00    -0.248 NA
ATOM     60  C   UNL A   1      47.429  29.109  30.129  1.00  0.00     0.031 C 
ATOM     61  C   UNL A   1      41.997  31.794  30.482  1.00  0.00     0.029 A 
ATOM     62  C   UNL A   1      43.002  30.864  30.264  1.00  0.00     0.049 A 
ATOM     63  H   UNL A   1      42.852  28.891  29.533  1.00  0.00     0.167 HD
ATOM     64  C   UNL A   1      45.338  30.039  30.254  1.00  0.00     0.074 A 
ATOM     65  C   UNL A   1      46.761  30.200  30.476  1.00  0.00     0.031 C 
ATOM     66  C   UNL A   1      44.418  31.010  30.476  1.00  0.00     0.031 A 
BRANCH  53  67
ATOM     67  C   UNL A   1      38.629  29.344  29.115  1.00  0.00    -0.014 A 
ATOM     68  C   UNL A   1      37.761  29.220  30.212  1.00  0.00     0.009 A 
ATOM     69  C   UNL A   1      38.136  29.888  27.918  1.00  0.00     0.009 A 
ATOM     70  C   UNL A   1      36.422  29.599  30.101  1.00  0.00     0.001 A 
ATOM     71  C   UNL A   1      36.803  30.291  27.819  1.00  0.00     0.001 A 
ATOM     72  C   UNL A   1      35.946  30.139  28.907  1.00  0.00     0.000 A 
ENDBRANCH  53  67
BRANCH  54  73
ATOM     73  C   UNL A   1      48.157  26.394  29.336  1.00  0.00    -0.014 A 
ATOM     74  C   UNL A   1      48.953  26.565  28.194  1.00  0.00     0.009 A 
ATOM     75  C   UNL A   1      48.727  25.819  30.483  1.00  0.00     0.009 A 
ATOM     76  C   UNL A   1      50.285  26.142  28.191  1.00  0.00     0.001 A 
ATOM     77  C   UNL A   1      50.067  25.424  30.486  1.00  0.00     0.001 A 
ATOM     78  C   UNL A   1      50.842  25.577  29.337  1.00  0.00     0.000 A 
ENDBRANCH  54  73
BRANCH  66  79
ATOM     79  C   UNL A   1      44.920  32.320  31.012  1.00  0.00    -0.014 A 
ATOM     80  C   UNL A   1      45.043  32.543  32.392  1.00  0.00     0.009 A 
ATOM     81  C   UNL A   1      45.309  33.332  30.120  1.00  0.00     0.009 A 
ATOM     82  C   UNL A   1      45.515  33.767  32.868  1.00  0.00     0.001 A 
ATOM     83  C   UNL A   1      45.806  34.544  30.598  1.00  0.00     0.001 A 
ATOM     84  C   UNL A   1      45.902  34.764  31.972  1.00  0.00     0.000 A 
ENDBRANCH  66  79
ENDBRANCH  40  41
ENDBRANCH  32  35
ENDBRANCH  30  31
ENDBRANCH  29  30
ENDBRANCH  28  29
ENDBRANCH  27  28
ENDBRANCH   1  27
TORSDOF 18
ENDMDL
MODEL 2
REMARK VINA RESULT:     -10.9      0.455      5.848
REMARK SMILES O=C(/C=C/c1ccc(O)cc1)NC[C@@H]1CC[C@H](C(=O)NCCCCCCNC(=O)c2ccc(-c3c4nc(c(-c5ccccc5)c5ccc([nH]5)c(-c5ccccc5)c5nc(c(-c6ccccc6)c6ccc3[nH]6)C=C5)C=C4)cc2)O1
REMARK SMILES IDX 22 1 21 2 20 3 18 4 19 5 17 7 14 8 15 9 78 10 16 11 13 12
REMARK SMILES IDX 12 13 1 14 2 15 3 17 4 18 5 19 6 20 11 21 7 22 10 23 8 24
REMARK SMILES IDX 9 25 23 27 24 28 25 29 26 30 27 31 28 32 29 34 30 35 31 36
REMARK SMILES IDX 77 37 32 38 76 39 33 40 34 41 35 42 70 43 36 44 75 45 69 46
REMARK SMILES IDX 71 47 37 48 74 49 68 50 67 51 38 53 60 54 45 55 59 56 46 57
REMARK SMILES IDX 49 58 58 59 72 60 47 61 48 62 57 64 73 65 50 66 39 67 40 68
REMARK SMILES IDX 44 69 41 70 43 71 42 72 61 73 62 74 66 75 63 76 65 77 64 78
REMARK SMILES IDX 51 79 52 80 56 81 53 82 55 83 54 84
REMARK H PARENT 20 6 12 16 9 26 27 33 71 52 49 63
REMARK Flexibility Score: inf
ROOT
ATOM      1  C   UNL A   1      35.576  23.104  25.596  1.00  0.00     0.021 C 
ENDROOT
BRANCH   1   2
ATOM      2  C   UNL A   1      34.719  24.314  25.242  1.00  0.00     0.116 C 
BRANCH   2   3
ATOM      3  N   UNL A   1      34.593  24.505  23.817  1.00  0.00    -0.354 N 
ATOM      4  C   UNL A   1      33.832  25.406  23.127  1.00  0.00     0.249 C 
ATOM      5  O   UNL A   1      33.908  25.388  21.894  1.00  0.00    -0.272 OA
ATOM      6  H   UNL A   1      35.135  23.899  23.262  1.00  0.00     0.163 HD
BRANCH   4   7
ATOM      7  C   UNL A   1      32.875  26.387  23.844  1.00  0.00     0.207 C 
ATOM      8  C   UNL A   1      30.872  26.145  25.048  1.00  0.00     0.138 C 
ATOM      9  C   UNL A   1      30.474  26.512  23.625  1.00  0.00     0.037 C 
ATOM     10  O   UNL A   1      32.284  25.868  25.034  1.00  0.00    -0.363 OA
ATOM     11  C   UNL A   1      31.765  26.922  22.954  1.00  0.00     0.045 C 
BRANCH   8  12
ATOM     12  C   UNL A   1      30.154  24.900  25.596  1.00  0.00     0.148 C 
BRANCH  12  13
ATOM     13  N   UNL A   1      30.786  23.655  25.229  1.00  0.00    -0.350 N 
ATOM     14  O   UNL A   1      31.543  23.164  27.336  1.00  0.00    -0.270 OA
ATOM     15  C   UNL A   1      31.394  22.855  26.160  1.00  0.00     0.244 C 
ATOM     16  H   UNL A   1      30.781  23.373  24.285  1.00  0.00     0.163 HD
BRANCH  15  17
ATOM     17  C   UNL A   1      31.885  21.536  25.687  1.00  0.00     0.072 C 
ATOM     18  C   UNL A   1      32.274  21.236  24.440  1.00  0.00     0.014 C 
BRANCH  18  19
ATOM     19  C   UNL A   1      32.792  19.919  24.057  1.00  0.00    -0.025 A 
ATOM     20  C   UNL A   1      33.832  19.290  24.754  1.00  0.00     0.012 A 
ATOM     21  C   UNL A   1      32.183  19.253  22.986  1.00  0.00     0.012 A 
ATOM     22  C   UNL A   1      34.274  18.022  24.368  1.00  0.00     0.047 A 
ATOM     23  C   UNL A   1      32.625  17.988  22.599  1.00  0.00     0.047 A 
ATOM     24  C   UNL A   1      33.668  17.384  23.290  1.00  0.00     0.115 A 
BRANCH  24  25
ATOM     25  O   UNL A   1      34.066  16.148  22.876  1.00  0.00    -0.508 OA
ATOM     26  H   UNL A   1      33.475  15.423  22.931  1.00  0.00     0.293 HD
ENDBRANCH  24  25
ENDBRANCH  18  19
ENDBRANCH  15  17
ENDBRANCH  12  13
ENDBRANCH   8  12
ENDBRANCH   4   7
ENDBRANCH   2   3
ENDBRANCH   1   2
BRANCH   1  27
ATOM     27  C   UNL A   1      35.819  22.164  24.413  1.00  0.00     0.002 C 
BRANCH  27  28
ATOM     28  C   UNL A   1      37.287  21.780  24.183  1.00  0.00     0.002 C 
BRANCH  28  29
ATOM     29  C   UNL A   1      37.689  20.381  24.663  1.00  0.00     0.021 C 
BRANCH  29  30
ATOM     30  C   UNL A   1      38.502  20.356  25.956  1.00  0.00     0.116 C 
BRANCH  30  31
ATOM     31  N   UNL A   1      39.663  19.484  25.852  1.00  0.00    -0.352 N 
ATOM     32  C   UNL A   1      40.994  19.772  26.002  1.00  0.00     0.251 C 
ATOM     33  H   UNL A   1      39.460  18.544  25.642  1.00  0.00     0.163 HD
ATOM     34  O   UNL A   1      41.843  18.948  25.663  1.00  0.00    -0.269 OA
BRANCH  32  35
ATOM     35  C   UNL A   1      41.418  21.070  26.561  1.00  0.00     0.039 A 
ATOM     36  C   UNL A   1      41.938  22.040  25.699  1.00  0.00     0.014 A 
ATOM     37  C   UNL A   1      41.340  21.320  27.934  1.00  0.00     0.014 A 
ATOM     38  C   UNL A   1      42.325  23.283  26.205  1.00  0.00     0.010 A 
ATOM     39  C   UNL A   1      41.669  22.579  28.429  1.00  0.00     0.010 A 
ATOM     40  C   UNL A   1      42.165  23.572  27.570  1.00  0.00    -0.014 A 
BRANCH  40  41
ATOM     41  C   UNL A   1      42.501  24.909  28.118  1.00  0.00     0.031 A 
ATOM     42  C   UNL A   1      43.903  25.213  28.568  1.00  0.00     0.074 A 
ATOM     43  C   UNL A   1      41.528  25.827  28.273  1.00  0.00     0.049 A 
ATOM     44  N   UNL A   1      44.369  26.296  29.139  1.00  0.00    -0.248 NA
ATOM     45  C   UNL A   1      44.907  24.155  28.372  1.00  0.00     0.031 C 
ATOM     46  C   UNL A   1      40.122  25.641  27.908  1.00  0.00     0.029 A 
ATOM     47  N   UNL A   1      41.572  27.097  28.791  1.00  0.00    -0.354 N 
ATOM     48  C   UNL A   1      45.713  26.043  29.385  1.00  0.00     0.074 A 
ATOM     49  C   UNL A   1      45.978  24.692  28.941  1.00  0.00     0.031 C 
ATOM     50  C   UNL A   1      39.442  26.762  28.195  1.00  0.00     0.029 A 
ATOM     51  C   UNL A   1      40.352  27.728  28.802  1.00  0.00     0.049 A 
ATOM     52  H   UNL A   1      42.399  27.514  29.123  1.00  0.00     0.167 HD
ATOM     53  C   UNL A   1      46.645  26.866  29.922  1.00  0.00     0.031 A 
ATOM     54  C   UNL A   1      40.003  28.944  29.261  1.00  0.00     0.031 A 
ATOM     55  C   UNL A   1      46.384  28.212  30.358  1.00  0.00     0.049 A 
ATOM     56  C   UNL A   1      41.053  29.831  29.866  1.00  0.00     0.074 A 
ATOM     57  C   UNL A   1      47.275  29.144  30.861  1.00  0.00     0.029 A 
ATOM     58  N   UNL A   1      45.138  28.816  30.344  1.00  0.00    -0.354 N 
ATOM     59  N   UNL A   1      42.333  29.601  30.034  1.00  0.00    -0.248 NA
ATOM     60  C   UNL A   1      40.612  31.151  30.339  1.00  0.00     0.031 C 
ATOM     61  C   UNL A   1      46.559  30.296  31.198  1.00  0.00     0.029 A 
ATOM     62  C   UNL A   1      45.230  30.101  30.855  1.00  0.00     0.049 A 
ATOM     63  H   UNL A   1      44.308  28.396  30.020  1.00  0.00     0.167 HD
ATOM     64  C   UNL A   1      42.853  30.754  30.607  1.00  0.00     0.074 A 
ATOM     65  C   UNL A   1      41.754  31.688  30.743  1.00  0.00     0.031 C 
ATOM     66  C   UNL A   1      44.128  31.016  30.986  1.00  0.00     0.031 A 
BRANCH  53  67
ATOM     67  C   UNL A   1      48.040  26.325  30.076  1.00  0.00    -0.014 A 
ATOM     68  C   UNL A   1      48.473  25.765  31.287  1.00  0.00     0.009 A 
ATOM     69  C   UNL A   1      48.920  26.342  28.982  1.00  0.00     0.009 A 
ATOM     70  C   UNL A   1      49.770  25.262  31.411  1.00  0.00     0.001 A 
ATOM     71  C   UNL A   1      50.207  25.814  29.101  1.00  0.00     0.001 A 
ATOM     72  C   UNL A   1      50.634  25.283  30.317  1.00  0.00     0.000 A 
ENDBRANCH  53  67
BRANCH  54  73
ATOM     73  C   UNL A   1      38.593  29.401  29.159  1.00  0.00    -0.014 A 
ATOM     74  C   UNL A   1      38.127  30.014  27.986  1.00  0.00     0.009 A 
ATOM     75  C   UNL A   1      37.707  29.230  30.236  1.00  0.00     0.009 A 
ATOM     76  C   UNL A   1      36.810  30.473  27.904  1.00  0.00     0.001 A 
ATOM     77  C   UNL A   1      36.384  29.664  30.139  1.00  0.00     0.001 A 
ATOM     78  C   UNL A   1      35.939  30.294  28.977  1.00  0.00     0.000 A 
ENDBRANCH  54  73
BRANCH  66  79
ATOM     79  C   UNL A   1      44.406  32.378  31.556  1.00  0.00    -0.014 A 
ATOM     80  C   UNL A   1      44.797  33.446  30.735  1.00  0.00     0.009 A 
ATOM     81  C   UNL A   1      44.239  32.601  32.933  1.00  0.00     0.009 A 
ATOM     82  C   UNL A   1      45.047  34.704  31.285  1.00  0.00     0.001 A 
ATOM     83  C   UNL A   1      44.463  33.867  33.476  1.00  0.00     0.001 A 
ATOM     84  C   UNL A   1      44.875  34.915  32.654  1.00  0.00     0.000 A 
ENDBRANCH  66  79
ENDBRANCH  40  41
ENDBRANCH  32  35
ENDBRANCH  30  31
ENDBRANCH  29  30
ENDBRANCH  28  29
ENDBRANCH  27  28
ENDBRANCH   1  27
TORSDOF 18
ENDMDL
MODEL 3
REMARK VINA RESULT:     -10.7      3.516      8.885
REMARK SMILES O=C(/C=C/c1ccc(O)cc1)NC[C@@H]1CC[C@H](C(=O)NCCCCCCNC(=O)c2ccc(-c3c4nc(c(-c5ccccc5)c5ccc([nH]5)c(-c5ccccc5)c5nc(c(-c6ccccc6)c6ccc3[nH]6)C=C5)C=C4)cc2)O1
REMARK SMILES IDX 22 1 21 2 20 3 18 4 19 5 17 7 14 8 15 9 78 10 16 11 13 12
REMARK SMILES IDX 12 13 1 14 2 15 3 17 4 18 5 19 6 20 11 21 7 22 10 23 8 24
REMARK SMILES IDX 9 25 23 27 24 28 25 29 26 30 27 31 28 32 29 34 30 35 31 36
REMARK SMILES IDX 77 37 32 38 76 39 33 40 34 41 35 42 70 43 36 44 75 45 69 46
REMARK SMILES IDX 71 47 37 48 74 49 68 50 67 51 38 53 60 54 45 55 59 56 46 57
REMARK SMILES IDX 49 58 58 59 72 60 47 61 48 62 57 64 73 65 50 66 39 67 40 68
REMARK SMILES IDX 44 69 41 70 43 71 42 72 61 73 62 74 66 75 63 76 65 77 64 78
REMARK SMILES IDX 51 79 52 80 56 81 53 82 55 83 54 84
REMARK H PARENT 20 6 12 16 9 26 27 33 71 52 49 63
REMARK Flexibility Score: inf
ROOT
ATOM      1  C   UNL A   1      33.526  28.582  24.326  1.00  0.00     0.021 C 
ENDROOT
BRANCH   1   2
ATOM      2  C   UNL A   1      33.593  27.074  24.109  1.00  0.00     0.116 C 
BRANCH   2   3
ATOM      3  N   UNL A   1      33.495  26.711  22.716  1.00  0.00    -0.354 N 
ATOM      4  C   UNL A   1      33.552  25.475  22.136  1.00  0.00     0.249 C 
ATOM      5  O   UNL A   1      33.423  25.416  20.909  1.00  0.00    -0.272 OA
ATOM      6  H   UNL A   1      33.369  27.463  22.093  1.00  0.00     0.163 HD
BRANCH   4   7
ATOM      7  C   UNL A   1      33.811  24.194  22.965  1.00  0.00     0.207 C 
ATOM      8  C   UNL A   1      32.620  23.046  24.632  1.00  0.00     0.138 C 
ATOM      9  C   UNL A   1      33.620  23.937  25.358  1.00  0.00     0.037 C 
ATOM     10  O   UNL A   1      32.642  23.428  23.245  1.00  0.00    -0.363 OA
ATOM     11  C   UNL A   1      34.541  24.449  24.274  1.00  0.00     0.045 C 
BRANCH   8  12
ATOM     12  C   UNL A   1      31.174  23.190  25.137  1.00  0.00     0.148 C 
BRANCH  12  13
ATOM     13  N   UNL A   1      30.520  24.398  24.694  1.00  0.00    -0.350 N 
ATOM     14  O   UNL A   1      30.938  25.589  26.607  1.00  0.00    -0.270 OA
ATOM     15  C   UNL A   1      30.503  25.532  25.462  1.00  0.00     0.244 C 
ATOM     16  H   UNL A   1      30.075  24.409  23.815  1.00  0.00     0.163 HD
BRANCH  15  17
ATOM     17  C   UNL A   1      29.924  26.749  24.842  1.00  0.00     0.072 C 
ATOM     18  C   UNL A   1      29.925  27.051  23.536  1.00  0.00     0.014 C 
BRANCH  18  19
ATOM     19  C   UNL A   1      29.291  28.255  22.992  1.00  0.00    -0.025 A 
ATOM     20  C   UNL A   1      27.921  28.514  23.138  1.00  0.00     0.012 A 
ATOM     21  C   UNL A   1      30.102  29.199  22.349  1.00  0.00     0.012 A 
ATOM     22  C   UNL A   1      27.367  29.689  22.624  1.00  0.00     0.047 A 
ATOM     23  C   UNL A   1      29.549  30.371  21.834  1.00  0.00     0.047 A 
ATOM     24  C   UNL A   1      28.187  30.605  21.972  1.00  0.00     0.115 A 
BRANCH  24  25
ATOM     25  O   UNL A   1      27.690  31.763  21.454  1.00  0.00    -0.508 OA
ATOM     26  H   UNL A   1      27.935  32.033  20.590  1.00  0.00     0.293 HD
ENDBRANCH  24  25
ENDBRANCH  18  19
ENDBRANCH  15  17
ENDBRANCH  12  13
ENDBRANCH   8  12
ENDBRANCH   4   7
ENDBRANCH   2   3
ENDBRANCH   1   2
BRANCH   1  27
ATOM     27  C   UNL A   1      33.003  28.975  25.709  1.00  0.00     0.002 C 
BRANCH  27  28
ATOM     28  C   UNL A   1      31.573  29.531  25.726  1.00  0.00     0.002 C 
BRANCH  28  29
ATOM     29  C   UNL A   1      31.444  31.017  26.076  1.00  0.00     0.021 C 
BRANCH  29  30
ATOM     30  C   UNL A   1      32.539  31.558  26.993  1.00  0.00     0.116 C 
BRANCH  30  31
ATOM     31  N   UNL A   1      32.322  32.956  27.334  1.00  0.00    -0.352 N 
ATOM     32  C   UNL A   1      33.050  33.784  28.147  1.00  0.00     0.251 C 
ATOM     33  H   UNL A   1      31.531  33.369  26.918  1.00  0.00     0.163 HD
ATOM     34  O   UNL A   1      32.589  34.875  28.485  1.00  0.00    -0.269 OA
BRANCH  32  35
ATOM     35  C   UNL A   1      34.385  33.375  28.627  1.00  0.00     0.039 A 
ATOM     36  C   UNL A   1      34.486  32.697  29.845  1.00  0.00     0.014 A 
ATOM     37  C   UNL A   1      35.536  33.689  27.900  1.00  0.00     0.014 A 
ATOM     38  C   UNL A   1      35.737  32.282  30.306  1.00  0.00     0.010 A 
ATOM     39  C   UNL A   1      36.776  33.222  28.330  1.00  0.00     0.010 A 
ATOM     40  C   UNL A   1      36.888  32.516  29.537  1.00  0.00    -0.014 A 
BRANCH  40  41
ATOM     41  C   UNL A   1      38.217  32.021  29.972  1.00  0.00     0.031 A 
ATOM     42  C   UNL A   1      38.742  30.708  29.463  1.00  0.00     0.074 A 
ATOM     43  C   UNL A   1      38.922  32.722  30.881  1.00  0.00     0.049 A 
ATOM     44  N   UNL A   1      39.844  30.078  29.785  1.00  0.00    -0.248 NA
ATOM     45  C   UNL A   1      37.909  29.998  28.477  1.00  0.00     0.031 C 
ATOM     46  C   UNL A   1      38.506  33.993  31.479  1.00  0.00     0.029 A 
ATOM     47  N   UNL A   1      40.133  32.458  31.470  1.00  0.00    -0.354 N 
ATOM     48  C   UNL A   1      39.829  28.894  29.059  1.00  0.00     0.074 A 
ATOM     49  C   UNL A   1      38.590  28.872  28.311  1.00  0.00     0.031 C 
ATOM     50  C   UNL A   1      39.454  34.406  32.334  1.00  0.00     0.029 A 
ATOM     51  C   UNL A   1      40.521  33.413  32.378  1.00  0.00     0.049 A 
ATOM     52  H   UNL A   1      40.670  31.661  31.262  1.00  0.00     0.167 HD
ATOM     53  C   UNL A   1      40.766  27.919  29.009  1.00  0.00     0.031 A 
ATOM     54  C   UNL A   1      41.611  33.476  33.166  1.00  0.00     0.031 A 
ATOM     55  C   UNL A   1      42.001  27.942  29.747  1.00  0.00     0.049 A 
ATOM     56  C   UNL A   1      42.628  32.372  33.103  1.00  0.00     0.074 A 
ATOM     57  C   UNL A   1      43.041  27.029  29.719  1.00  0.00     0.029 A 
ATOM     58  N   UNL A   1      42.361  28.931  30.649  1.00  0.00    -0.354 N 
ATOM     59  N   UNL A   1      42.630  31.290  32.363  1.00  0.00    -0.248 NA
ATOM     60  C   UNL A   1      43.801  32.504  33.980  1.00  0.00     0.031 C 
ATOM     61  C   UNL A   1      44.009  27.439  30.641  1.00  0.00     0.029 A 
ATOM     62  C   UNL A   1      43.596  28.637  31.203  1.00  0.00     0.049 A 
ATOM     63  H   UNL A   1      41.820  29.725  30.864  1.00  0.00     0.167 HD
ATOM     64  C   UNL A   1      43.810  30.626  32.666  1.00  0.00     0.074 A 
ATOM     65  C   UNL A   1      44.509  31.435  33.644  1.00  0.00     0.031 C 
ATOM     66  C   UNL A   1      44.276  29.450  32.177  1.00  0.00     0.031 A 
BRANCH  53  67
ATOM     67  C   UNL A   1      40.486  26.732  28.129  1.00  0.00    -0.014 A 
ATOM     68  C   UNL A   1      40.976  26.669  26.815  1.00  0.00     0.009 A 
ATOM     69  C   UNL A   1      39.755  25.646  28.633  1.00  0.00     0.009 A 
ATOM     70  C   UNL A   1      40.711  25.558  26.013  1.00  0.00     0.001 A 
ATOM     71  C   UNL A   1      39.514  24.524  27.838  1.00  0.00     0.001 A 
ATOM     72  C   UNL A   1      39.984  24.484  26.527  1.00  0.00     0.000 A 
ENDBRANCH  53  67
BRANCH  54  73
ATOM     73  C   UNL A   1      41.803  34.631  34.079  1.00  0.00    -0.014 A 
ATOM     74  C   UNL A   1      41.321  34.584  35.397  1.00  0.00     0.009 A 
ATOM     75  C   UNL A   1      42.464  35.789  33.638  1.00  0.00     0.009 A 
ATOM     76  C   UNL A   1      41.474  35.684  36.245  1.00  0.00     0.001 A 
ATOM     77  C   UNL A   1      42.641  36.875  34.498  1.00  0.00     0.001 A 
ATOM     78  C   UNL A   1      42.136  36.825  35.797  1.00  0.00     0.000 A 
ENDBRANCH  54  73
BRANCH  66  79
ATOM     79  C   UNL A   1      45.616  28.986  32.671  1.00  0.00    -0.014 A 
ATOM     80  C   UNL A   1      45.730  28.147  33.791  1.00  0.00     0.009 A 
ATOM     81  C   UNL A   1      46.779  29.366  31.983  1.00  0.00     0.009 A 
ATOM     82  C   UNL A   1      46.985  27.725  34.230  1.00  0.00     0.001 A 
ATOM     83  C   UNL A   1      48.031  28.919  32.408  1.00  0.00     0.001 A 
ATOM     84  C   UNL A   1      48.133  28.106  33.536  1.00  0.00     0.000 A 
ENDBRANCH  66  79
ENDBRANCH  40  41
ENDBRANCH  32  35
ENDBRANCH  30  31
ENDBRANCH  29  30
ENDBRANCH  28  29
ENDBRANCH  27  28
ENDBRANCH   1  27
TORSDOF 18
ENDMDL
