MODEL 1
REMARK VINA RESULT:     -11.3      0.000      0.000
REMARK SMILES CC(C)C(=O)N1c2ccc(S(=O)(=O)N3CCOCC3)cc2C[C@H]1C(=O)NCCCCCCNC(=O)c1ccc(-c2c3nc(c(-c4ccccc4)c4ccc([nH]4)c(-c4ccccc4)c4nc(c(-c5ccccc5)c5ccc2[nH]5)C=C4)C=C3)cc1
REMARK SMILES IDX 29 1 28 2 27 3 26 4 24 5 25 6 23 8 6 9 7 10 8 11 21 12 22 13
REMARK SMILES IDX 9 14 20 15 10 16 4 17 5 18 2 19 1 20 3 21 11 22 12 23 13 24
REMARK SMILES IDX 14 25 15 26 19 27 16 28 18 29 17 30 30 31 31 32 32 33 33 34
REMARK SMILES IDX 34 35 35 37 36 38 37 39 83 40 38 41 82 42 39 43 40 44 41 45
REMARK SMILES IDX 76 46 42 47 81 48 75 49 77 50 43 51 80 52 74 53 73 54 44 56
REMARK SMILES IDX 66 57 51 58 65 59 52 60 55 61 64 62 78 63 53 64 54 65 63 67
REMARK SMILES IDX 79 68 56 69 45 70 46 71 50 72 47 73 49 74 48 75 67 76 68 77
REMARK SMILES IDX 72 78 69 79 71 80 70 81 57 82 58 83 62 84 59 85 61 86 60 87
REMARK H PARENT 26 7 33 36 77 55 55 66
REMARK Flexibility Score: inf
ROOT
ATOM      1  C   UNL A   1      36.880  22.341  24.347  1.00  0.00     0.002 C 
ENDROOT
BRANCH   1   2
ATOM      2  C   UNL A   1      36.060  22.979  23.218  1.00  0.00     0.021 C 
BRANCH   2   3
ATOM      3  C   UNL A   1      34.579  23.175  23.534  1.00  0.00     0.116 C 
BRANCH   3   4
ATOM      4  N   UNL A   1      33.835  21.936  23.522  1.00  0.00    -0.354 N 
ATOM      5  C   UNL A   1      32.549  21.658  23.865  1.00  0.00     0.243 C 
ATOM      6  O   UNL A   1      32.125  20.540  23.540  1.00  0.00    -0.273 OA
ATOM      7  H   UNL A   1      34.349  21.156  23.211  1.00  0.00     0.163 HD
BRANCH   5   8
ATOM      8  C   UNL A   1      31.565  22.707  24.415  1.00  0.00     0.184 C 
ATOM      9  N   UNL A   1      31.945  23.440  25.642  1.00  0.00    -0.299 N 
ATOM     10  C   UNL A   1      31.970  24.806  25.360  1.00  0.00     0.048 A 
ATOM     11  C   UNL A   1      32.498  25.822  26.122  1.00  0.00     0.028 A 
ATOM     12  C   UNL A   1      31.533  25.056  24.057  1.00  0.00    -0.020 A 
ATOM     13  C   UNL A   1      31.239  23.771  23.339  1.00  0.00     0.073 C 
ATOM     14  C   UNL A   1      32.466  27.120  25.622  1.00  0.00     0.024 A 
ATOM     15  C   UNL A   1      31.484  26.349  23.543  1.00  0.00     0.027 A 
ATOM     16  C   UNL A   1      31.944  27.393  24.354  1.00  0.00     0.083 A 
BRANCH   9  17
ATOM     17  C   UNL A   1      32.004  22.758  26.837  1.00  0.00     0.230 C 
ATOM     18  O   UNL A   1      31.055  22.824  27.627  1.00  0.00    -0.274 OA
BRANCH  17  19
ATOM     19  C   UNL A   1      33.314  22.113  27.329  1.00  0.00     0.073 C 
ATOM     20  C   UNL A   1      33.647  20.700  26.881  1.00  0.00     0.018 C 
ATOM     21  C   UNL A   1      34.498  23.058  27.143  1.00  0.00     0.018 C 
ENDBRANCH  17  19
ENDBRANCH   9  17
BRANCH  16  22
ATOM     22  S   UNL A   1      31.911  29.065  23.734  1.00  0.00     0.243 S 
ATOM     23  O   UNL A   1      32.597  29.870  24.724  1.00  0.00    -0.207 OA
ATOM     24  O   UNL A   1      32.355  28.994  22.359  1.00  0.00    -0.207 OA
BRANCH  22  25
ATOM     25  N   UNL A   1      30.290  29.490  23.734  1.00  0.00    -0.193 NA
ATOM     26  C   UNL A   1      29.230  28.583  23.247  1.00  0.00     0.131 C 
ATOM     27  C   UNL A   1      29.826  30.790  24.251  1.00  0.00     0.131 C 
ATOM     28  C   UNL A   1      28.203  29.331  22.378  1.00  0.00     0.177 C 
ATOM     29  C   UNL A   1      28.856  31.430  23.256  1.00  0.00     0.177 C 
ATOM     30  O   UNL A   1      27.756  30.555  22.971  1.00  0.00    -0.379 OA
ENDBRANCH  22  25
ENDBRANCH  16  22
ENDBRANCH   5   8
ENDBRANCH   3   4
ENDBRANCH   2   3
ENDBRANCH   1   2
BRANCH   1  31
ATOM     31  C   UNL A   1      36.596  20.861  24.627  1.00  0.00     0.002 C 
BRANCH  31  32
ATOM     32  C   UNL A   1      37.822  19.947  24.683  1.00  0.00     0.021 C 
BRANCH  32  33
ATOM     33  C   UNL A   1      38.841  20.291  25.763  1.00  0.00     0.116 C 
BRANCH  33  34
ATOM     34  N   UNL A   1      39.949  19.353  25.803  1.00  0.00    -0.352 N 
ATOM     35  C   UNL A   1      41.272  19.580  26.088  1.00  0.00     0.251 C 
ATOM     36  H   UNL A   1      39.717  18.419  25.595  1.00  0.00     0.163 HD
ATOM     37  O   UNL A   1      42.099  18.687  25.923  1.00  0.00    -0.269 OA
BRANCH  35  38
ATOM     38  C   UNL A   1      41.715  20.903  26.578  1.00  0.00     0.039 A 
ATOM     39  C   UNL A   1      42.125  21.862  25.647  1.00  0.00     0.014 A 
ATOM     40  C   UNL A   1      41.762  21.191  27.946  1.00  0.00     0.014 A 
ATOM     41  C   UNL A   1      42.538  23.123  26.082  1.00  0.00     0.010 A 
ATOM     42  C   UNL A   1      42.119  22.468  28.375  1.00  0.00     0.010 A 
ATOM     43  C   UNL A   1      42.519  23.443  27.448  1.00  0.00    -0.014 A 
BRANCH  43  44
ATOM     44  C   UNL A   1      42.939  24.782  27.930  1.00  0.00     0.031 A 
ATOM     45  C   UNL A   1      41.907  25.837  28.220  1.00  0.00     0.074 A 
ATOM     46  C   UNL A   1      44.250  25.070  28.054  1.00  0.00     0.049 A 
ATOM     47  N   UNL A   1      42.079  27.084  28.580  1.00  0.00    -0.248 NA
ATOM     48  C   UNL A   1      40.498  25.445  28.059  1.00  0.00     0.031 C 
ATOM     49  C   UNL A   1      45.352  24.148  27.777  1.00  0.00     0.029 A 
ATOM     50  N   UNL A   1      44.873  26.230  28.440  1.00  0.00    -0.354 N 
ATOM     51  C   UNL A   1      40.804  27.630  28.665  1.00  0.00     0.074 A 
ATOM     52  C   UNL A   1      39.872  26.591  28.284  1.00  0.00     0.031 C 
ATOM     53  C   UNL A   1      46.516  24.771  28.022  1.00  0.00     0.029 A 
ATOM     54  C   UNL A   1      46.244  26.142  28.441  1.00  0.00     0.049 A 
ATOM     55  H   UNL A   1      44.385  27.046  28.694  1.00  0.00     0.167 HD
ATOM     56  C   UNL A   1      40.440  28.878  29.043  1.00  0.00     0.031 A 
ATOM     57  C   UNL A   1      47.177  27.064  28.743  1.00  0.00     0.031 A 
ATOM     58  C   UNL A   1      41.361  29.905  29.447  1.00  0.00     0.049 A 
ATOM     59  C   UNL A   1      46.747  28.440  29.168  1.00  0.00     0.074 A 
ATOM     60  C   UNL A   1      41.082  31.184  29.899  1.00  0.00     0.029 A 
ATOM     61  N   UNL A   1      42.740  29.769  29.454  1.00  0.00    -0.354 N 
ATOM     62  N   UNL A   1      45.535  28.924  29.292  1.00  0.00    -0.248 NA
ATOM     63  C   UNL A   1      47.815  29.391  29.507  1.00  0.00     0.031 C 
ATOM     64  C   UNL A   1      42.296  31.834  30.147  1.00  0.00     0.029 A 
ATOM     65  C   UNL A   1      43.327  30.945  29.888  1.00  0.00     0.049 A 
ATOM     66  H   UNL A   1      43.228  28.956  29.189  1.00  0.00     0.167 HD
ATOM     67  C   UNL A   1      45.694  30.226  29.747  1.00  0.00     0.074 A 
ATOM     68  C   UNL A   1      47.118  30.453  29.888  1.00  0.00     0.031 C 
ATOM     69  C   UNL A   1      44.744  31.152  30.025  1.00  0.00     0.031 A 
BRANCH  56  70
ATOM     70  C   UNL A   1      38.972  29.199  29.029  1.00  0.00    -0.014 A 
ATOM     71  C   UNL A   1      38.183  29.036  30.179  1.00  0.00     0.009 A 
ATOM     72  C   UNL A   1      38.377  29.696  27.860  1.00  0.00     0.009 A 
ATOM     73  C   UNL A   1      36.818  29.329  30.145  1.00  0.00     0.001 A 
ATOM     74  C   UNL A   1      37.017  30.011  27.837  1.00  0.00     0.001 A 
ATOM     75  C   UNL A   1      36.237  29.818  28.976  1.00  0.00     0.000 A 
ENDBRANCH  56  70
BRANCH  57  76
ATOM     76  C   UNL A   1      48.618  26.712  28.675  1.00  0.00    -0.014 A 
ATOM     77  C   UNL A   1      49.346  26.935  27.496  1.00  0.00     0.009 A 
ATOM     78  C   UNL A   1      49.269  26.148  29.781  1.00  0.00     0.009 A 
ATOM     79  C   UNL A   1      50.694  26.578  27.421  1.00  0.00     0.001 A 
ATOM     80  C   UNL A   1      50.623  25.815  29.710  1.00  0.00     0.001 A 
ATOM     81  C   UNL A   1      51.333  26.022  28.528  1.00  0.00     0.000 A 
ENDBRANCH  57  76
BRANCH  69  82
ATOM     82  C   UNL A   1      45.213  32.481  30.541  1.00  0.00    -0.014 A 
ATOM     83  C   UNL A   1      45.398  32.703  31.913  1.00  0.00     0.009 A 
ATOM     84  C   UNL A   1      45.512  33.511  29.635  1.00  0.00     0.009 A 
ATOM     85  C   UNL A   1      45.848  33.944  32.371  1.00  0.00     0.001 A 
ATOM     86  C   UNL A   1      45.983  34.741  30.094  1.00  0.00     0.001 A 
ATOM     87  C   UNL A   1      46.143  34.959  31.461  1.00  0.00     0.000 A 
ENDBRANCH  69  82
ENDBRANCH  43  44
ENDBRANCH  35  38
ENDBRANCH  33  34
ENDBRANCH  32  33
ENDBRANCH  31  32
ENDBRANCH   1  31
TORSDOF 17
ENDMDL
MODEL 2
REMARK VINA RESULT:     -11.1      0.684      5.629
REMARK SMILES CC(C)C(=O)N1c2ccc(S(=O)(=O)N3CCOCC3)cc2C[C@H]1C(=O)NCCCCCCNC(=O)c1ccc(-c2c3nc(c(-c4ccccc4)c4ccc([nH]4)c(-c4ccccc4)c4nc(c(-c5ccccc5)c5ccc2[nH]5)C=C4)C=C3)cc1
REMARK SMILES IDX 29 1 28 2 27 3 26 4 24 5 25 6 23 8 6 9 7 10 8 11 21 12 22 13
REMARK SMILES IDX 9 14 20 15 10 16 4 17 5 18 2 19 1 20 3 21 11 22 12 23 13 24
REMARK SMILES IDX 14 25 15 26 19 27 16 28 18 29 17 30 30 31 31 32 32 33 33 34
REMARK SMILES IDX 34 35 35 37 36 38 37 39 83 40 38 41 82 42 39 43 40 44 41 45
REMARK SMILES IDX 76 46 42 47 81 48 75 49 77 50 43 51 80 52 74 53 73 54 44 56
REMARK SMILES IDX 66 57 51 58 65 59 52 60 55 61 64 62 78 63 53 64 54 65 63 67
REMARK SMILES IDX 79 68 56 69 45 70 46 71 50 72 47 73 49 74 48 75 67 76 68 77
REMARK SMILES IDX 72 78 69 79 71 80 70 81 57 82 58 83 62 84 59 85 61 86 60 87
REMARK H PARENT 26 7 33 36 77 55 55 66
REMARK Flexibility Score: inf
ROOT
ATOM      1  C   UNL A   1      37.078  22.585  24.304  1.00  0.00     0.002 C 
ENDROOT
BRANCH   1   2
ATOM      2  C   UNL A   1      36.087  22.982  23.202  1.00  0.00     0.021 C 
BRANCH   2   3
ATOM      3  C   UNL A   1      34.645  23.156  23.670  1.00  0.00     0.116 C 
BRANCH   3   4
ATOM      4  N   UNL A   1      33.869  21.942  23.558  1.00  0.00    -0.354 N 
ATOM      5  C   UNL A   1      32.562  21.683  23.829  1.00  0.00     0.243 C 
ATOM      6  O   UNL A   1      32.124  20.597  23.426  1.00  0.00    -0.273 OA
ATOM      7  H   UNL A   1      34.375  21.165  23.228  1.00  0.00     0.163 HD
BRANCH   5   8
ATOM      8  C   UNL A   1      31.582  22.730  24.393  1.00  0.00     0.184 C 
ATOM      9  N   UNL A   1      31.966  23.446  25.628  1.00  0.00    -0.299 N 
ATOM     10  C   UNL A   1      31.996  24.816  25.362  1.00  0.00     0.048 A 
ATOM     11  C   UNL A   1      32.530  25.821  26.135  1.00  0.00     0.028 A 
ATOM     12  C   UNL A   1      31.559  25.082  24.063  1.00  0.00    -0.020 A 
ATOM     13  C   UNL A   1      31.260  23.808  23.330  1.00  0.00     0.073 C 
ATOM     14  C   UNL A   1      32.502  27.125  25.651  1.00  0.00     0.024 A 
ATOM     15  C   UNL A   1      31.515  26.382  23.564  1.00  0.00     0.027 A 
ATOM     16  C   UNL A   1      31.979  27.414  24.386  1.00  0.00     0.083 A 
BRANCH   9  17
ATOM     17  C   UNL A   1      32.024  22.750  26.815  1.00  0.00     0.230 C 
ATOM     18  O   UNL A   1      31.080  22.820  27.611  1.00  0.00    -0.274 OA
BRANCH  17  19
ATOM     19  C   UNL A   1      33.328  22.082  27.291  1.00  0.00     0.073 C 
ATOM     20  C   UNL A   1      33.659  20.686  26.793  1.00  0.00     0.018 C 
ATOM     21  C   UNL A   1      34.517  23.029  27.148  1.00  0.00     0.018 C 
ENDBRANCH  17  19
ENDBRANCH   9  17
BRANCH  16  22
ATOM     22  S   UNL A   1      31.953  29.093  23.785  1.00  0.00     0.243 S 
ATOM     23  O   UNL A   1      32.616  29.889  24.799  1.00  0.00    -0.207 OA
ATOM     24  O   UNL A   1      32.423  29.041  22.419  1.00  0.00    -0.207 OA
BRANCH  22  25
ATOM     25  N   UNL A   1      30.331  29.513  23.759  1.00  0.00    -0.193 NA
ATOM     26  C   UNL A   1      29.273  28.573  23.334  1.00  0.00     0.131 C 
ATOM     27  C   UNL A   1      29.863  30.843  24.190  1.00  0.00     0.131 C 
ATOM     28  C   UNL A   1      28.243  29.259  22.419  1.00  0.00     0.177 C 
ATOM     29  C   UNL A   1      28.891  31.414  23.156  1.00  0.00     0.177 C 
ATOM     30  O   UNL A   1      27.793  30.519  22.931  1.00  0.00    -0.379 OA
ENDBRANCH  22  25
ENDBRANCH  16  22
ENDBRANCH   5   8
ENDBRANCH   3   4
ENDBRANCH   2   3
ENDBRANCH   1   2
BRANCH   1  31
ATOM     31  C   UNL A   1      36.945  21.154  24.839  1.00  0.00     0.002 C 
BRANCH  31  32
ATOM     32  C   UNL A   1      38.196  20.280  24.719  1.00  0.00     0.021 C 
BRANCH  32  33
ATOM     33  C   UNL A   1      38.851  19.896  26.041  1.00  0.00     0.116 C 
BRANCH  33  34
ATOM     34  N   UNL A   1      40.098  19.175  25.856  1.00  0.00    -0.352 N 
ATOM     35  C   UNL A   1      41.389  19.623  25.974  1.00  0.00     0.251 C 
ATOM     36  H   UNL A   1      40.002  18.226  25.610  1.00  0.00     0.163 HD
ATOM     37  O   UNL A   1      42.324  18.906  25.629  1.00  0.00    -0.269 OA
BRANCH  35  38
ATOM     38  C   UNL A   1      41.665  20.978  26.500  1.00  0.00     0.039 A 
ATOM     39  C   UNL A   1      41.592  21.191  27.880  1.00  0.00     0.014 A 
ATOM     40  C   UNL A   1      41.960  22.043  25.642  1.00  0.00     0.014 A 
ATOM     41  C   UNL A   1      41.859  22.458  28.404  1.00  0.00     0.010 A 
ATOM     42  C   UNL A   1      42.282  23.292  26.170  1.00  0.00     0.010 A 
ATOM     43  C   UNL A   1      42.225  23.513  27.555  1.00  0.00    -0.014 A 
BRANCH  43  44
ATOM     44  C   UNL A   1      42.526  24.863  28.092  1.00  0.00     0.031 A 
ATOM     45  C   UNL A   1      43.926  25.209  28.519  1.00  0.00     0.074 A 
ATOM     46  C   UNL A   1      41.533  25.760  28.250  1.00  0.00     0.049 A 
ATOM     47  N   UNL A   1      44.373  26.307  29.076  1.00  0.00    -0.248 NA
ATOM     48  C   UNL A   1      44.954  24.176  28.315  1.00  0.00     0.031 C 
ATOM     49  C   UNL A   1      40.128  25.541  27.905  1.00  0.00     0.029 A 
ATOM     50  N   UNL A   1      41.559  27.037  28.752  1.00  0.00    -0.354 N 
ATOM     51  C   UNL A   1      45.725  26.087  29.310  1.00  0.00     0.074 A 
ATOM     52  C   UNL A   1      46.017  24.739  28.870  1.00  0.00     0.031 C 
ATOM     53  C   UNL A   1      39.430  26.654  28.185  1.00  0.00     0.029 A 
ATOM     54  C   UNL A   1      40.330  27.650  28.758  1.00  0.00     0.049 A 
ATOM     55  H   UNL A   1      42.380  27.473  29.074  1.00  0.00     0.167 HD
ATOM     56  C   UNL A   1      46.644  26.934  29.829  1.00  0.00     0.031 A 
ATOM     57  C   UNL A   1      39.968  28.875  29.181  1.00  0.00     0.031 A 
ATOM     58  C   UNL A   1      46.364  28.282  30.244  1.00  0.00     0.049 A 
ATOM     59  C   UNL A   1      41.009  29.800  29.745  1.00  0.00     0.074 A 
ATOM     60  C   UNL A   1      47.242  29.235  30.731  1.00  0.00     0.029 A 
ATOM     61  N   UNL A   1      45.110  28.870  30.215  1.00  0.00    -0.354 N 
ATOM     62  N   UNL A   1      42.292  29.594  29.913  1.00  0.00    -0.248 NA
ATOM     63  C   UNL A   1      40.551  31.133  30.166  1.00  0.00     0.031 C 
ATOM     64  C   UNL A   1      46.512  30.391  31.029  1.00  0.00     0.029 A 
ATOM     65  C   UNL A   1      45.187  30.168  30.688  1.00  0.00     0.049 A 
ATOM     66  H   UNL A   1      44.286  28.430  29.903  1.00  0.00     0.167 HD
ATOM     67  C   UNL A   1      42.799  30.777  30.435  1.00  0.00     0.074 A 
ATOM     68  C   UNL A   1      41.688  31.700  30.545  1.00  0.00     0.031 C 
ATOM     69  C   UNL A   1      44.074  31.073  30.788  1.00  0.00     0.031 A 
BRANCH  56  70
ATOM     70  C   UNL A   1      48.047  26.417  29.981  1.00  0.00    -0.014 A 
ATOM     71  C   UNL A   1      48.450  25.741  31.143  1.00  0.00     0.009 A 
ATOM     72  C   UNL A   1      48.970  26.587  28.938  1.00  0.00     0.009 A 
ATOM     73  C   UNL A   1      49.761  25.278  31.273  1.00  0.00     0.001 A 
ATOM     74  C   UNL A   1      50.273  26.101  29.060  1.00  0.00     0.001 A 
ATOM     75  C   UNL A   1      50.669  25.456  30.231  1.00  0.00     0.000 A 
ENDBRANCH  56  70
BRANCH  57  76
ATOM     76  C   UNL A   1      38.552  29.310  29.069  1.00  0.00    -0.014 A 
ATOM     77  C   UNL A   1      38.065  29.831  27.860  1.00  0.00     0.009 A 
ATOM     78  C   UNL A   1      37.685  29.213  30.167  1.00  0.00     0.009 A 
ATOM     79  C   UNL A   1      36.743  30.267  27.761  1.00  0.00     0.001 A 
ATOM     80  C   UNL A   1      36.356  29.627  30.057  1.00  0.00     0.001 A 
ATOM     81  C   UNL A   1      35.888  30.161  28.857  1.00  0.00     0.000 A 
ENDBRANCH  57  76
BRANCH  69  82
ATOM     82  C   UNL A   1      44.338  32.460  31.296  1.00  0.00    -0.014 A 
ATOM     83  C   UNL A   1      44.273  32.758  32.665  1.00  0.00     0.009 A 
ATOM     84  C   UNL A   1      44.697  33.473  30.392  1.00  0.00     0.009 A 
ATOM     85  C   UNL A   1      44.535  34.054  33.117  1.00  0.00     0.001 A 
ATOM     86  C   UNL A   1      44.980  34.760  30.850  1.00  0.00     0.001 A 
ATOM     87  C   UNL A   1      44.891  35.051  32.209  1.00  0.00     0.000 A 
ENDBRANCH  69  82
ENDBRANCH  43  44
ENDBRANCH  35  38
ENDBRANCH  33  34
ENDBRANCH  32  33
ENDBRANCH  31  32
ENDBRANCH   1  31
TORSDOF 17
ENDMDL
MODEL 3
REMARK VINA RESULT:     -11.1      3.651      9.160
REMARK SMILES CC(C)C(=O)N1c2ccc(S(=O)(=O)N3CCOCC3)cc2C[C@H]1C(=O)NCCCCCCNC(=O)c1ccc(-c2c3nc(c(-c4ccccc4)c4ccc([nH]4)c(-c4ccccc4)c4nc(c(-c5ccccc5)c5ccc2[nH]5)C=C4)C=C3)cc1
REMARK SMILES IDX 29 1 28 2 27 3 26 4 24 5 25 6 23 8 6 9 7 10 8 11 21 12 22 13
REMARK SMILES IDX 9 14 20 15 10 16 4 17 5 18 2 19 1 20 3 21 11 22 12 23 13 24
REMARK SMILES IDX 14 25 15 26 19 27 16 28 18 29 17 30 30 31 31 32 32 33 33 34
REMARK SMILES IDX 34 35 35 37 36 38 37 39 83 40 38 41 82 42 39 43 40 44 41 45
REMARK SMILES IDX 76 46 42 47 81 48 75 49 77 50 43 51 80 52 74 53 73 54 44 56
REMARK SMILES IDX 66 57 51 58 65 59 52 60 55 61 64 62 78 63 53 64 54 65 63 67
REMARK SMILES IDX 79 68 56 69 45 70 46 71 50 72 47 73 49 74 48 75 67 76 68 77
REMARK SMILES IDX 72 78 69 79 71 80 70 81 57 82 58 83 62 84 59 85 61 86 60 87
REMARK H PARENT 26 7 33 36 77 55 55 66
REMARK Flexibility Score: inf
ROOT
ATOM      1  C   UNL A   1      35.011  30.590  27.258  1.00  0.00     0.002 C 
ENDROOT
BRANCH   1   2
ATOM      2  C   UNL A   1      34.305  29.244  27.048  1.00  0.00     0.021 C 
BRANCH   2   3
ATOM      3  C   UNL A   1      33.625  29.083  25.691  1.00  0.00     0.116 C 
BRANCH   3   4
ATOM      4  N   UNL A   1      32.632  30.102  25.437  1.00  0.00    -0.354 N 
ATOM      5  C   UNL A   1      31.344  30.014  25.008  1.00  0.00     0.243 C 
ATOM      6  O   UNL A   1      30.667  31.048  25.094  1.00  0.00    -0.273 OA
ATOM      7  H   UNL A   1      32.941  31.022  25.603  1.00  0.00     0.163 HD
BRANCH   5   8
ATOM      8  C   UNL A   1      30.653  28.687  24.646  1.00  0.00     0.184 C 
ATOM      9  N   UNL A   1      30.533  28.334  23.215  1.00  0.00    -0.299 N 
ATOM     10  C   UNL A   1      31.175  27.114  22.998  1.00  0.00     0.048 A 
ATOM     11  C   UNL A   1      31.519  26.535  21.799  1.00  0.00     0.028 A 
ATOM     12  C   UNL A   1      31.630  26.568  24.200  1.00  0.00    -0.020 A 
ATOM     13  C   UNL A   1      31.351  27.496  25.346  1.00  0.00     0.073 C 
ATOM     14  C   UNL A   1      32.210  25.328  21.811  1.00  0.00     0.024 A 
ATOM     15  C   UNL A   1      32.316  25.356  24.234  1.00  0.00     0.027 A 
ATOM     16  C   UNL A   1      32.589  24.726  23.014  1.00  0.00     0.083 A 
BRANCH   9  17
ATOM     17  C   UNL A   1      29.698  29.076  22.411  1.00  0.00     0.230 C 
ATOM     18  O   UNL A   1      30.181  29.875  21.599  1.00  0.00    -0.274 OA
BRANCH  17  19
ATOM     19  C   UNL A   1      28.178  29.123  22.657  1.00  0.00     0.073 C 
ATOM     20  C   UNL A   1      27.531  28.000  23.451  1.00  0.00     0.018 C 
ATOM     21  C   UNL A   1      27.743  30.496  23.163  1.00  0.00     0.018 C 
ENDBRANCH  17  19
ENDBRANCH   9  17
BRANCH  16  22
ATOM     22  S   UNL A   1      33.476  23.178  23.007  1.00  0.00     0.243 S 
ATOM     23  O   UNL A   1      32.707  22.284  22.166  1.00  0.00    -0.207 OA
ATOM     24  O   UNL A   1      34.855  23.504  22.723  1.00  0.00    -0.207 OA
BRANCH  22  25
ATOM     25  N   UNL A   1      33.388  22.627  24.587  1.00  0.00    -0.193 NA
ATOM     26  C   UNL A   1      32.149  22.070  25.168  1.00  0.00     0.131 C 
ATOM     27  C   UNL A   1      34.559  22.640  25.483  1.00  0.00     0.131 C 
ATOM     28  C   UNL A   1      31.906  22.599  26.594  1.00  0.00     0.177 C 
ATOM     29  C   UNL A   1      34.173  23.239  26.837  1.00  0.00     0.177 C 
ATOM     30  O   UNL A   1      33.073  22.527  27.421  1.00  0.00    -0.379 OA
ENDBRANCH  22  25
ENDBRANCH  16  22
ENDBRANCH   5   8
ENDBRANCH   3   4
ENDBRANCH   2   3
ENDBRANCH   1   2
BRANCH   1  31
ATOM     31  C   UNL A   1      34.478  31.453  28.408  1.00  0.00     0.002 C 
BRANCH  31  32
ATOM     32  C   UNL A   1      33.373  32.444  28.039  1.00  0.00     0.021 C 
BRANCH  32  33
ATOM     33  C   UNL A   1      33.762  33.916  28.129  1.00  0.00     0.116 C 
BRANCH  33  34
ATOM     34  N   UNL A   1      33.285  34.545  29.348  1.00  0.00    -0.352 N 
ATOM     35  C   UNL A   1      33.741  34.408  30.635  1.00  0.00     0.251 C 
ATOM     36  H   UNL A   1      32.523  35.159  29.234  1.00  0.00     0.163 HD
ATOM     37  O   UNL A   1      33.113  34.903  31.566  1.00  0.00    -0.269 OA
BRANCH  35  38
ATOM     38  C   UNL A   1      34.980  33.648  30.912  1.00  0.00     0.039 A 
ATOM     39  C   UNL A   1      34.904  32.511  31.721  1.00  0.00     0.014 A 
ATOM     40  C   UNL A   1      36.216  34.069  30.409  1.00  0.00     0.014 A 
ATOM     41  C   UNL A   1      36.057  31.769  31.989  1.00  0.00     0.010 A 
ATOM     42  C   UNL A   1      37.355  33.297  30.630  1.00  0.00     0.010 A 
ATOM     43  C   UNL A   1      37.288  32.145  31.430  1.00  0.00    -0.014 A 
BRANCH  43  44
ATOM     44  C   UNL A   1      38.522  31.363  31.690  1.00  0.00     0.031 A 
ATOM     45  C   UNL A   1      39.400  31.710  32.861  1.00  0.00     0.074 A 
ATOM     46  C   UNL A   1      38.884  30.379  30.844  1.00  0.00     0.049 A 
ATOM     47  N   UNL A   1      40.551  31.192  33.212  1.00  0.00    -0.248 NA
ATOM     48  C   UNL A   1      38.936  32.797  33.737  1.00  0.00     0.031 C 
ATOM     49  C   UNL A   1      38.138  29.964  29.655  1.00  0.00     0.029 A 
ATOM     50  N   UNL A   1      39.982  29.556  30.855  1.00  0.00    -0.354 N 
ATOM     51  C   UNL A   1      40.957  31.906  34.333  1.00  0.00     0.074 A 
ATOM     52  C   UNL A   1      39.951  32.915  34.580  1.00  0.00     0.031 C 
ATOM     53  C   UNL A   1      38.790  28.949  29.063  1.00  0.00     0.029 A 
ATOM     54  C   UNL A   1      40.011  28.665  29.810  1.00  0.00     0.049 A 
ATOM     55  H   UNL A   1      40.681  29.598  31.547  1.00  0.00     0.167 HD
ATOM     56  C   UNL A   1      42.060  31.727  35.097  1.00  0.00     0.031 A 
ATOM     57  C   UNL A   1      40.921  27.727  29.488  1.00  0.00     0.031 A 
ATOM     58  C   UNL A   1      43.049  30.709  34.871  1.00  0.00     0.049 A 
ATOM     59  C   UNL A   1      42.132  27.542  30.358  1.00  0.00     0.074 A 
ATOM     60  C   UNL A   1      44.173  30.414  35.624  1.00  0.00     0.029 A 
ATOM     61  N   UNL A   1      43.030  29.814  33.813  1.00  0.00    -0.354 N 
ATOM     62  N   UNL A   1      42.475  28.192  31.443  1.00  0.00    -0.248 NA
ATOM     63  C   UNL A   1      43.074  26.484  29.964  1.00  0.00     0.031 C 
ATOM     64  C   UNL A   1      44.853  29.362  35.002  1.00  0.00     0.029 A 
ATOM     65  C   UNL A   1      44.129  28.976  33.885  1.00  0.00     0.049 A 
ATOM     66  H   UNL A   1      42.337  29.779  33.115  1.00  0.00     0.167 HD
ATOM     67  C   UNL A   1      43.658  27.606  31.875  1.00  0.00     0.074 A 
ATOM     68  C   UNL A   1      43.967  26.542  30.942  1.00  0.00     0.031 C 
ATOM     69  C   UNL A   1      44.419  27.921  32.951  1.00  0.00     0.031 A 
BRANCH  56  70
ATOM     70  C   UNL A   1      42.253  32.665  36.255  1.00  0.00    -0.014 A 
ATOM     71  C   UNL A   1      41.750  32.359  37.529  1.00  0.00     0.009 A 
ATOM     72  C   UNL A   1      42.970  33.857  36.075  1.00  0.00     0.009 A 
ATOM     73  C   UNL A   1      41.929  33.248  38.591  1.00  0.00     0.001 A 
ATOM     74  C   UNL A   1      43.169  34.732  37.145  1.00  0.00     0.001 A 
ATOM     75  C   UNL A   1      42.640  34.431  38.399  1.00  0.00     0.000 A 
ENDBRANCH  56  70
BRANCH  57  76
ATOM     76  C   UNL A   1      40.712  26.871  28.293  1.00  0.00    -0.014 A 
ATOM     77  C   UNL A   1      39.923  25.714  28.380  1.00  0.00     0.009 A 
ATOM     78  C   UNL A   1      41.302  27.202  27.064  1.00  0.00     0.009 A 
ATOM     79  C   UNL A   1      39.748  24.892  27.264  1.00  0.00     0.001 A 
ATOM     80  C   UNL A   1      41.105  26.391  25.945  1.00  0.00     0.001 A 
ATOM     81  C   UNL A   1      40.336  25.233  26.047  1.00  0.00     0.000 A 
ENDBRANCH  57  76
BRANCH  69  82
ATOM     82  C   UNL A   1      45.640  27.083  33.194  1.00  0.00    -0.014 A 
ATOM     83  C   UNL A   1      45.576  25.910  33.960  1.00  0.00     0.009 A 
ATOM     84  C   UNL A   1      46.864  27.454  32.613  1.00  0.00     0.009 A 
ATOM     85  C   UNL A   1      46.722  25.138  34.163  1.00  0.00     0.001 A 
ATOM     86  C   UNL A   1      48.001  26.668  32.799  1.00  0.00     0.001 A 
ATOM     87  C   UNL A   1      47.932  25.516  33.580  1.00  0.00     0.000 A 
ENDBRANCH  69  82
ENDBRANCH  43  44
ENDBRANCH  35  38
ENDBRANCH  33  34
ENDBRANCH  32  33
ENDBRANCH  31  32
ENDBRANCH   1  31
TORSDOF 17
ENDMDL
