MODEL 1
REMARK VINA RESULT:     -11.8      0.000      0.000
REMARK SMILES O=C(NCCCCCCNC(=O)c1ccc2c(=O)n3cc(C(=O)c4cc(F)ccc4O)cc(Cl)c3nc2c1)c1ccc(-c2c3nc(c(-c4ccccc4)c4ccc([nH]4)c(-c4ccccc4)c4nc(c(-c5ccccc5)c5ccc2[nH]5)C=C4)C=C3)cc1
REMARK SMILES IDX 7 1 6 2 5 3 4 4 3 5 1 6 2 7 39 9 40 10 86 11 41 12 85 13
REMARK SMILES IDX 42 14 43 15 44 16 79 17 45 18 84 19 78 20 80 21 46 22 83 23
REMARK SMILES IDX 77 24 76 25 47 27 69 28 54 29 68 30 55 31 58 32 67 33 81 34
REMARK SMILES IDX 56 35 57 36 66 38 82 39 59 40 48 41 49 42 53 43 50 44 52 45
REMARK SMILES IDX 51 46 70 47 71 48 75 49 72 50 74 51 73 52 60 53 61 54 65 55
REMARK SMILES IDX 62 56 64 57 63 58 8 59 9 60 10 61 11 62 12 64 13 65 14 66
REMARK SMILES IDX 38 67 15 68 37 69 16 70 36 71 17 72 35 73 18 74 19 75 33 76
REMARK SMILES IDX 20 77 32 78 34 79 21 80 22 81 23 82 24 83 25 84 30 85 26 86
REMARK SMILES IDX 29 87 27 88 28 89 31 90
REMARK H PARENT 3 8 80 26 58 37 10 63 31 91
REMARK Flexibility Score: inf
ROOT
ATOM      1  C   UNL A   1      33.983  23.770  26.355  1.00  0.00     0.002 C 
ENDROOT
BRANCH   1   2
ATOM      2  C   UNL A   1      35.204  23.743  25.432  1.00  0.00     0.002 C 
BRANCH   2   3
ATOM      3  C   UNL A   1      35.498  22.390  24.781  1.00  0.00     0.021 C 
BRANCH   3   4
ATOM      4  C   UNL A   1      36.933  22.211  24.305  1.00  0.00     0.116 C 
BRANCH   4   5
ATOM      5  N   UNL A   1      37.581  21.062  24.913  1.00  0.00    -0.352 N 
ATOM      6  O   UNL A   1      39.226  19.918  25.941  1.00  0.00    -0.269 OA
ATOM      7  C   UNL A   1      38.735  21.004  25.653  1.00  0.00     0.251 C 
ATOM      8  H   UNL A   1      37.126  20.200  24.774  1.00  0.00     0.163 HD
BRANCH   7   9
ATOM      9  C   UNL A   1      39.397  22.253  26.089  1.00  0.00     0.039 A 
ATOM     10  C   UNL A   1      40.715  22.188  26.548  1.00  0.00     0.014 A 
ATOM     11  C   UNL A   1      38.722  23.477  26.073  1.00  0.00     0.014 A 
ATOM     12  C   UNL A   1      41.358  23.353  26.965  1.00  0.00     0.010 A 
ATOM     13  C   UNL A   1      39.398  24.650  26.390  1.00  0.00     0.010 A 
ATOM     14  C   UNL A   1      40.712  24.598  26.872  1.00  0.00    -0.014 A 
BRANCH  14  15
ATOM     15  C   UNL A   1      41.390  25.839  27.325  1.00  0.00     0.031 A 
ATOM     16  C   UNL A   1      42.733  26.220  26.762  1.00  0.00     0.074 A 
ATOM     17  C   UNL A   1      40.799  26.626  28.245  1.00  0.00     0.049 A 
ATOM     18  N   UNL A   1      43.452  27.288  26.999  1.00  0.00    -0.248 NA
ATOM     19  C   UNL A   1      43.365  25.270  25.830  1.00  0.00     0.031 C 
ATOM     20  C   UNL A   1      39.521  26.341  28.900  1.00  0.00     0.029 A 
ATOM     21  N   UNL A   1      41.184  27.833  28.772  1.00  0.00    -0.354 N 
ATOM     22  C   UNL A   1      44.610  27.137  26.246  1.00  0.00     0.074 A 
ATOM     23  C   UNL A   1      44.540  25.840  25.615  1.00  0.00     0.031 C 
ATOM     24  C   UNL A   1      39.200  27.372  29.696  1.00  0.00     0.029 A 
ATOM     25  C   UNL A   1      40.266  28.369  29.641  1.00  0.00     0.049 A 
ATOM     26  H   UNL A   1      42.037  28.271  28.550  1.00  0.00     0.167 HD
ATOM     27  C   UNL A   1      45.623  28.016  26.061  1.00  0.00     0.031 A 
ATOM     28  C   UNL A   1      40.269  29.539  30.310  1.00  0.00     0.031 A 
ATOM     29  C   UNL A   1      45.686  29.310  26.687  1.00  0.00     0.049 A 
ATOM     30  C   UNL A   1      41.410  30.495  30.106  1.00  0.00     0.074 A 
ATOM     31  C   UNL A   1      46.650  30.290  26.534  1.00  0.00     0.029 A 
ATOM     32  N   UNL A   1      44.749  29.804  27.582  1.00  0.00    -0.354 N 
ATOM     33  N   UNL A   1      42.466  30.367  29.339  1.00  0.00    -0.248 NA
ATOM     34  C   UNL A   1      41.352  31.765  30.843  1.00  0.00     0.031 C 
ATOM     35  C   UNL A   1      46.335  31.346  27.392  1.00  0.00     0.029 A 
ATOM     36  C   UNL A   1      45.131  31.062  28.017  1.00  0.00     0.049 A 
ATOM     37  H   UNL A   1      43.934  29.331  27.867  1.00  0.00     0.167 HD
ATOM     38  C   UNL A   1      43.196  31.538  29.496  1.00  0.00     0.074 A 
ATOM     39  C   UNL A   1      42.441  32.380  30.401  1.00  0.00     0.031 C 
ATOM     40  C   UNL A   1      44.386  31.881  28.943  1.00  0.00     0.031 A 
BRANCH  27  41
ATOM     41  C   UNL A   1      46.736  27.616  25.127  1.00  0.00    -0.014 A 
ATOM     42  C   UNL A   1      47.810  26.848  25.600  1.00  0.00     0.009 A 
ATOM     43  C   UNL A   1      46.754  28.053  23.792  1.00  0.00     0.009 A 
ATOM     44  C   UNL A   1      48.883  26.534  24.761  1.00  0.00     0.001 A 
ATOM     45  C   UNL A   1      47.808  27.705  22.945  1.00  0.00     0.001 A 
ATOM     46  C   UNL A   1      48.877  26.956  23.432  1.00  0.00     0.000 A 
ENDBRANCH  27  41
BRANCH  28  47
ATOM     47  C   UNL A   1      39.113  29.872  31.185  1.00  0.00    -0.014 A 
ATOM     48  C   UNL A   1      39.170  29.624  32.568  1.00  0.00     0.009 A 
ATOM     49  C   UNL A   1      37.916  30.352  30.636  1.00  0.00     0.009 A 
ATOM     50  C   UNL A   1      38.044  29.811  33.372  1.00  0.00     0.001 A 
ATOM     51  C   UNL A   1      36.800  30.571  31.448  1.00  0.00     0.001 A 
ATOM     52  C   UNL A   1      36.860  30.286  32.811  1.00  0.00     0.000 A 
ENDBRANCH  28  47
BRANCH  40  53
ATOM     53  C   UNL A   1      44.973  33.217  29.317  1.00  0.00    -0.014 A 
ATOM     54  C   UNL A   1      45.794  33.334  30.449  1.00  0.00     0.009 A 
ATOM     55  C   UNL A   1      44.641  34.378  28.600  1.00  0.00     0.009 A 
ATOM     56  C   UNL A   1      46.259  34.583  30.865  1.00  0.00     0.001 A 
ATOM     57  C   UNL A   1      45.141  35.622  28.994  1.00  0.00     0.001 A 
ATOM     58  C   UNL A   1      45.939  35.724  30.132  1.00  0.00     0.000 A 
ENDBRANCH  40  53
ENDBRANCH  14  15
ENDBRANCH   7   9
ENDBRANCH   4   5
ENDBRANCH   3   4
ENDBRANCH   2   3
ENDBRANCH   1   2
BRANCH   1  59
ATOM     59  C   UNL A   1      32.775  22.969  25.864  1.00  0.00     0.021 C 
BRANCH  59  60
ATOM     60  C   UNL A   1      31.727  23.789  25.119  1.00  0.00     0.116 C 
BRANCH  60  61
ATOM     61  N   UNL A   1      32.120  24.061  23.747  1.00  0.00    -0.352 N 
ATOM     62  C   UNL A   1      32.263  25.273  23.120  1.00  0.00     0.251 C 
ATOM     63  H   UNL A   1      32.310  23.270  23.192  1.00  0.00     0.163 HD
ATOM     64  O   UNL A   1      32.436  25.342  21.908  1.00  0.00    -0.269 OA
BRANCH  62  65
ATOM     65  C   UNL A   1      32.196  26.503  23.927  1.00  0.00     0.041 A 
ATOM     66  C   UNL A   1      31.016  27.258  23.947  1.00  0.00     0.015 A 
ATOM     67  C   UNL A   1      33.322  26.908  24.651  1.00  0.00     0.043 A 
ATOM     68  C   UNL A   1      31.001  28.478  24.607  1.00  0.00     0.017 A 
ATOM     69  C   UNL A   1      33.301  28.118  25.344  1.00  0.00     0.079 A 
ATOM     70  C   UNL A   1      32.152  28.902  25.280  1.00  0.00     0.066 A 
ATOM     71  N   UNL A   1      34.425  28.498  26.088  1.00  0.00    -0.228 NA
ATOM     72  C   UNL A   1      32.177  30.210  25.941  1.00  0.00     0.265 A 
ATOM     73  C   UNL A   1      34.407  29.629  26.725  1.00  0.00     0.159 A 
ATOM     74  O   UNL A   1      31.201  30.951  25.828  1.00  0.00    -0.268 OA
ATOM     75  N   UNL A   1      33.329  30.518  26.664  1.00  0.00    -0.266 N 
ATOM     76  C   UNL A   1      35.560  30.066  27.588  1.00  0.00     0.085 A 
ATOM     77  C   UNL A   1      33.358  31.739  27.324  1.00  0.00     0.109 A 
ATOM     78  C   UNL A   1      35.505  31.228  28.252  1.00  0.00     0.038 A 
ATOM     79  Cl  UNL A   1      36.933  29.036  27.712  1.00  0.00    -0.080 Cl
ATOM     80  C   UNL A   1      34.364  32.112  28.129  1.00  0.00     0.041 A 
BRANCH  80  81
ATOM     81  C   UNL A   1      34.368  33.446  28.819  1.00  0.00     0.198 C 
ATOM     82  O   UNL A   1      33.418  34.221  28.722  1.00  0.00    -0.288 OA
BRANCH  81  83
ATOM     83  C   UNL A   1      35.455  33.797  29.759  1.00  0.00     0.067 A 
ATOM     84  C   UNL A   1      36.785  33.899  29.336  1.00  0.00     0.055 A 
ATOM     85  C   UNL A   1      35.139  33.963  31.113  1.00  0.00     0.126 A 
ATOM     86  C   UNL A   1      37.783  34.075  30.289  1.00  0.00     0.124 A 
ATOM     87  C   UNL A   1      36.147  34.132  32.058  1.00  0.00     0.050 A 
ATOM     88  F   UNL A   1      39.062  34.123  29.897  1.00  0.00    -0.207 F 
ATOM     89  C   UNL A   1      37.479  34.174  31.645  1.00  0.00     0.043 A 
BRANCH  85  90
ATOM     90  O   UNL A   1      33.851  33.948  31.574  1.00  0.00    -0.507 OA
ATOM     91  H   UNL A   1      33.330  34.725  31.533  1.00  0.00     0.293 HD
ENDBRANCH  85  90
ENDBRANCH  81  83
ENDBRANCH  80  81
ENDBRANCH  62  65
ENDBRANCH  60  61
ENDBRANCH  59  60
ENDBRANCH   1  59
TORSDOF 16
ENDMDL
MODEL 2
REMARK VINA RESULT:     -11.5      4.070      7.547
REMARK SMILES O=C(NCCCCCCNC(=O)c1ccc2c(=O)n3cc(C(=O)c4cc(F)ccc4O)cc(Cl)c3nc2c1)c1ccc(-c2c3nc(c(-c4ccccc4)c4ccc([nH]4)c(-c4ccccc4)c4nc(c(-c5ccccc5)c5ccc2[nH]5)C=C4)C=C3)cc1
REMARK SMILES IDX 7 1 6 2 5 3 4 4 3 5 1 6 2 7 39 9 40 10 86 11 41 12 85 13
REMARK SMILES IDX 42 14 43 15 44 16 79 17 45 18 84 19 78 20 80 21 46 22 83 23
REMARK SMILES IDX 77 24 76 25 47 27 69 28 54 29 68 30 55 31 58 32 67 33 81 34
REMARK SMILES IDX 56 35 57 36 66 38 82 39 59 40 48 41 49 42 53 43 50 44 52 45
REMARK SMILES IDX 51 46 70 47 71 48 75 49 72 50 74 51 73 52 60 53 61 54 65 55
REMARK SMILES IDX 62 56 64 57 63 58 8 59 9 60 10 61 11 62 12 64 13 65 14 66
REMARK SMILES IDX 38 67 15 68 37 69 16 70 36 71 17 72 35 73 18 74 19 75 33 76
REMARK SMILES IDX 20 77 32 78 34 79 21 80 22 81 23 82 24 83 25 84 30 85 26 86
REMARK SMILES IDX 29 87 27 88 28 89 31 90
REMARK H PARENT 3 8 80 26 58 37 10 63 31 91
REMARK Flexibility Score: inf
ROOT
ATOM      1  C   UNL A   1      40.213  23.264  27.226  1.00  0.00     0.002 C 
ENDROOT
BRANCH   1   2
ATOM      2  C   UNL A   1      41.418  23.854  26.487  1.00  0.00     0.002 C 
BRANCH   2   3
ATOM      3  C   UNL A   1      42.327  22.832  25.804  1.00  0.00     0.021 C 
BRANCH   3   4
ATOM      4  C   UNL A   1      43.355  23.431  24.852  1.00  0.00     0.116 C 
BRANCH   4   5
ATOM      5  N   UNL A   1      44.719  23.129  25.247  1.00  0.00    -0.352 N 
ATOM      6  O   UNL A   1      46.653  23.392  26.371  1.00  0.00    -0.269 OA
ATOM      7  C   UNL A   1      45.453  23.632  26.291  1.00  0.00     0.251 C 
ATOM      8  H   UNL A   1      45.185  22.469  24.684  1.00  0.00     0.163 HD
BRANCH   7   9
ATOM      9  C   UNL A   1      44.802  24.480  27.314  1.00  0.00     0.039 A 
ATOM     10  C   UNL A   1      44.740  25.859  27.103  1.00  0.00     0.014 A 
ATOM     11  C   UNL A   1      44.276  23.927  28.486  1.00  0.00     0.014 A 
ATOM     12  C   UNL A   1      44.131  26.676  28.054  1.00  0.00     0.010 A 
ATOM     13  C   UNL A   1      43.578  24.731  29.382  1.00  0.00     0.010 A 
ATOM     14  C   UNL A   1      43.528  26.118  29.194  1.00  0.00    -0.014 A 
BRANCH  14  15
ATOM     15  C   UNL A   1      42.887  26.986  30.215  1.00  0.00     0.031 A 
ATOM     16  C   UNL A   1      43.557  27.217  31.543  1.00  0.00     0.074 A 
ATOM     17  C   UNL A   1      41.701  27.566  29.949  1.00  0.00     0.049 A 
ATOM     18  N   UNL A   1      43.173  27.980  32.536  1.00  0.00    -0.248 NA
ATOM     19  C   UNL A   1      44.805  26.480  31.804  1.00  0.00     0.031 C 
ATOM     20  C   UNL A   1      40.931  27.381  28.718  1.00  0.00     0.029 A 
ATOM     21  N   UNL A   1      40.947  28.442  30.688  1.00  0.00    -0.354 N 
ATOM     22  C   UNL A   1      44.132  27.816  33.528  1.00  0.00     0.074 A 
ATOM     23  C   UNL A   1      45.065  26.819  33.058  1.00  0.00     0.031 C 
ATOM     24  C   UNL A   1      39.844  28.167  28.762  1.00  0.00     0.029 A 
ATOM     25  C   UNL A   1      39.819  28.877  30.037  1.00  0.00     0.049 A 
ATOM     26  H   UNL A   1      41.192  28.731  31.597  1.00  0.00     0.167 HD
ATOM     27  C   UNL A   1      44.252  28.468  34.709  1.00  0.00     0.031 A 
ATOM     28  C   UNL A   1      38.873  29.760  30.415  1.00  0.00     0.031 A 
ATOM     29  C   UNL A   1      43.324  29.466  35.172  1.00  0.00     0.049 A 
ATOM     30  C   UNL A   1      39.012  30.461  31.737  1.00  0.00     0.074 A 
ATOM     31  C   UNL A   1      43.378  30.212  36.335  1.00  0.00     0.029 A 
ATOM     32  N   UNL A   1      42.178  29.857  34.496  1.00  0.00    -0.354 N 
ATOM     33  N   UNL A   1      39.960  30.344  32.636  1.00  0.00    -0.248 NA
ATOM     34  C   UNL A   1      37.964  31.429  32.089  1.00  0.00     0.031 C 
ATOM     35  C   UNL A   1      42.227  31.001  36.398  1.00  0.00     0.029 A 
ATOM     36  C   UNL A   1      41.497  30.810  35.234  1.00  0.00     0.049 A 
ATOM     37  H   UNL A   1      41.891  29.509  33.621  1.00  0.00     0.167 HD
ATOM     38  C   UNL A   1      39.627  31.225  33.657  1.00  0.00     0.074 A 
ATOM     39  C   UNL A   1      38.411  31.897  33.247  1.00  0.00     0.031 C 
ATOM     40  C   UNL A   1      40.270  31.452  34.830  1.00  0.00     0.031 A 
BRANCH  27  41
ATOM     41  C   UNL A   1      45.440  28.137  35.574  1.00  0.00    -0.014 A 
ATOM     42  C   UNL A   1      46.648  28.831  35.408  1.00  0.00     0.009 A 
ATOM     43  C   UNL A   1      45.385  27.092  36.512  1.00  0.00     0.009 A 
ATOM     44  C   UNL A   1      47.776  28.481  36.155  1.00  0.00     0.001 A 
ATOM     45  C   UNL A   1      46.503  26.771  37.284  1.00  0.00     0.001 A 
ATOM     46  C   UNL A   1      47.700  27.457  37.097  1.00  0.00     0.000 A 
ENDBRANCH  27  41
BRANCH  28  47
ATOM     47  C   UNL A   1      37.750  30.055  29.485  1.00  0.00    -0.014 A 
ATOM     48  C   UNL A   1      37.828  31.138  28.591  1.00  0.00     0.009 A 
ATOM     49  C   UNL A   1      36.560  29.316  29.545  1.00  0.00     0.009 A 
ATOM     50  C   UNL A   1      36.728  31.498  27.811  1.00  0.00     0.001 A 
ATOM     51  C   UNL A   1      35.471  29.657  28.738  1.00  0.00     0.001 A 
ATOM     52  C   UNL A   1      35.551  30.756  27.884  1.00  0.00     0.000 A 
ENDBRANCH  28  47
BRANCH  40  53
ATOM     53  C   UNL A   1      39.663  32.451  35.779  1.00  0.00    -0.014 A 
ATOM     54  C   UNL A   1      39.914  33.823  35.613  1.00  0.00     0.009 A 
ATOM     55  C   UNL A   1      38.914  32.032  36.891  1.00  0.00     0.009 A 
ATOM     56  C   UNL A   1      39.442  34.750  36.545  1.00  0.00     0.001 A 
ATOM     57  C   UNL A   1      38.409  32.964  37.799  1.00  0.00     0.001 A 
ATOM     58  C   UNL A   1      38.683  34.321  37.632  1.00  0.00     0.000 A 
ENDBRANCH  40  53
ENDBRANCH  14  15
ENDBRANCH   7   9
ENDBRANCH   4   5
ENDBRANCH   3   4
ENDBRANCH   2   3
ENDBRANCH   1   2
BRANCH   1  59
ATOM     59  C   UNL A   1      39.098  24.260  27.554  1.00  0.00     0.021 C 
BRANCH  59  60
ATOM     60  C   UNL A   1      37.873  24.164  26.651  1.00  0.00     0.116 C 
BRANCH  60  61
ATOM     61  N   UNL A   1      37.691  22.825  26.118  1.00  0.00    -0.352 N 
ATOM     62  C   UNL A   1      36.528  22.203  25.741  1.00  0.00     0.251 C 
ATOM     63  H   UNL A   1      38.512  22.292  26.012  1.00  0.00     0.163 HD
ATOM     64  O   UNL A   1      36.509  21.007  25.469  1.00  0.00    -0.269 OA
BRANCH  62  65
ATOM     65  C   UNL A   1      35.287  22.994  25.676  1.00  0.00     0.041 A 
ATOM     66  C   UNL A   1      34.207  22.661  26.503  1.00  0.00     0.015 A 
ATOM     67  C   UNL A   1      35.202  24.060  24.774  1.00  0.00     0.043 A 
ATOM     68  C   UNL A   1      33.001  23.329  26.347  1.00  0.00     0.017 A 
ATOM     69  C   UNL A   1      34.003  24.756  24.637  1.00  0.00     0.079 A 
ATOM     70  C   UNL A   1      32.909  24.356  25.401  1.00  0.00     0.066 A 
ATOM     71  N   UNL A   1      33.939  25.839  23.752  1.00  0.00    -0.228 NA
ATOM     72  C   UNL A   1      31.632  25.041  25.182  1.00  0.00     0.265 A 
ATOM     73  C   UNL A   1      32.819  26.482  23.620  1.00  0.00     0.159 A 
ATOM     74  O   UNL A   1      30.635  24.648  25.788  1.00  0.00    -0.268 OA
ATOM     75  N   UNL A   1      31.648  26.111  24.287  1.00  0.00    -0.266 N 
ATOM     76  C   UNL A   1      32.703  27.688  22.728  1.00  0.00     0.085 A 
ATOM     77  C   UNL A   1      30.454  26.793  24.092  1.00  0.00     0.109 A 
ATOM     78  C   UNL A   1      31.540  28.346  22.627  1.00  0.00     0.038 A 
ATOM     79  Cl  UNL A   1      34.095  28.209  21.860  1.00  0.00    -0.080 Cl
ATOM     80  C   UNL A   1      30.357  27.896  23.334  1.00  0.00     0.041 A 
BRANCH  80  81
ATOM     81  C   UNL A   1      29.047  28.603  23.135  1.00  0.00     0.198 C 
ATOM     82  O   UNL A   1      27.976  28.010  23.241  1.00  0.00    -0.288 OA
BRANCH  81  83
ATOM     83  C   UNL A   1      29.012  30.071  22.956  1.00  0.00     0.067 A 
ATOM     84  C   UNL A   1      29.614  30.937  23.877  1.00  0.00     0.055 A 
ATOM     85  C   UNL A   1      28.300  30.594  21.869  1.00  0.00     0.126 A 
ATOM     86  C   UNL A   1      29.414  32.307  23.743  1.00  0.00     0.124 A 
ATOM     87  C   UNL A   1      28.101  31.966  21.750  1.00  0.00     0.050 A 
ATOM     88  F   UNL A   1      29.944  33.137  24.649  1.00  0.00    -0.207 F 
ATOM     89  C   UNL A   1      28.650  32.828  22.701  1.00  0.00     0.043 A 
BRANCH  85  90
ATOM     90  O   UNL A   1      27.754  29.800  20.898  1.00  0.00    -0.507 OA
ATOM     91  H   UNL A   1      26.823  29.703  20.842  1.00  0.00     0.293 HD
ENDBRANCH  85  90
ENDBRANCH  81  83
ENDBRANCH  80  81
ENDBRANCH  62  65
ENDBRANCH  60  61
ENDBRANCH  59  60
ENDBRANCH   1  59
TORSDOF 16
ENDMDL
MODEL 3
REMARK VINA RESULT:     -11.2      4.183      8.068
REMARK SMILES O=C(NCCCCCCNC(=O)c1ccc2c(=O)n3cc(C(=O)c4cc(F)ccc4O)cc(Cl)c3nc2c1)c1ccc(-c2c3nc(c(-c4ccccc4)c4ccc([nH]4)c(-c4ccccc4)c4nc(c(-c5ccccc5)c5ccc2[nH]5)C=C4)C=C3)cc1
REMARK SMILES IDX 7 1 6 2 5 3 4 4 3 5 1 6 2 7 39 9 40 10 86 11 41 12 85 13
REMARK SMILES IDX 42 14 43 15 44 16 79 17 45 18 84 19 78 20 80 21 46 22 83 23
REMARK SMILES IDX 77 24 76 25 47 27 69 28 54 29 68 30 55 31 58 32 67 33 81 34
REMARK SMILES IDX 56 35 57 36 66 38 82 39 59 40 48 41 49 42 53 43 50 44 52 45
REMARK SMILES IDX 51 46 70 47 71 48 75 49 72 50 74 51 73 52 60 53 61 54 65 55
REMARK SMILES IDX 62 56 64 57 63 58 8 59 9 60 10 61 11 62 12 64 13 65 14 66
REMARK SMILES IDX 38 67 15 68 37 69 16 70 36 71 17 72 35 73 18 74 19 75 33 76
REMARK SMILES IDX 20 77 32 78 34 79 21 80 22 81 23 82 24 83 25 84 30 85 26 86
REMARK SMILES IDX 29 87 27 88 28 89 31 90
REMARK H PARENT 3 8 80 26 58 37 10 63 31 91
REMARK Flexibility Score: inf
ROOT
ATOM      1  C   UNL A   1      45.345  24.661  28.153  1.00  0.00     0.002 C 
ENDROOT
BRANCH   1   2
ATOM      2  C   UNL A   1      46.864  24.845  28.229  1.00  0.00     0.002 C 
BRANCH   2   3
ATOM      3  C   UNL A   1      47.593  24.800  26.885  1.00  0.00     0.021 C 
BRANCH   3   4
ATOM      4  C   UNL A   1      46.681  24.699  25.669  1.00  0.00     0.116 C 
BRANCH   4   5
ATOM      5  N   UNL A   1      46.956  25.728  24.682  1.00  0.00    -0.352 N 
ATOM      6  O   UNL A   1      46.760  27.733  23.675  1.00  0.00    -0.269 OA
ATOM      7  C   UNL A   1      46.588  27.050  24.679  1.00  0.00     0.251 C 
ATOM      8  H   UNL A   1      47.482  25.435  23.903  1.00  0.00     0.163 HD
BRANCH   7   9
ATOM      9  C   UNL A   1      45.966  27.648  25.881  1.00  0.00     0.039 A 
ATOM     10  C   UNL A   1      46.788  28.272  26.822  1.00  0.00     0.014 A 
ATOM     11  C   UNL A   1      44.587  27.576  26.096  1.00  0.00     0.014 A 
ATOM     12  C   UNL A   1      46.223  28.842  27.962  1.00  0.00     0.010 A 
ATOM     13  C   UNL A   1      44.015  28.235  27.179  1.00  0.00     0.010 A 
ATOM     14  C   UNL A   1      44.829  28.845  28.142  1.00  0.00    -0.014 A 
BRANCH  14  15
ATOM     15  C   UNL A   1      44.224  29.442  29.360  1.00  0.00     0.031 A 
ATOM     16  C   UNL A   1      43.832  30.895  29.379  1.00  0.00     0.074 A 
ATOM     17  C   UNL A   1      44.027  28.678  30.451  1.00  0.00     0.049 A 
ATOM     18  N   UNL A   1      43.247  31.577  30.332  1.00  0.00    -0.248 NA
ATOM     19  C   UNL A   1      44.158  31.695  28.186  1.00  0.00     0.031 C 
ATOM     20  C   UNL A   1      44.408  27.270  30.573  1.00  0.00     0.029 A 
ATOM     21  N   UNL A   1      43.441  28.972  31.657  1.00  0.00    -0.354 N 
ATOM     22  C   UNL A   1      43.135  32.876  29.850  1.00  0.00     0.074 A 
ATOM     23  C   UNL A   1      43.788  32.909  28.562  1.00  0.00     0.031 C 
ATOM     24  C   UNL A   1      43.993  26.807  31.762  1.00  0.00     0.029 A 
ATOM     25  C   UNL A   1      43.356  27.892  32.502  1.00  0.00     0.049 A 
ATOM     26  H   UNL A   1      43.114  29.869  31.893  1.00  0.00     0.167 HD
ATOM     27  C   UNL A   1      42.507  33.937  30.409  1.00  0.00     0.031 A 
ATOM     28  C   UNL A   1      42.814  27.780  33.731  1.00  0.00     0.031 A 
ATOM     29  C   UNL A   1      41.851  33.898  31.690  1.00  0.00     0.049 A 
ATOM     30  C   UNL A   1      42.137  28.973  34.344  1.00  0.00     0.074 A 
ATOM     31  C   UNL A   1      41.154  34.908  32.326  1.00  0.00     0.029 A 
ATOM     32  N   UNL A   1      41.812  32.793  32.527  1.00  0.00    -0.354 N 
ATOM     33  N   UNL A   1      41.981  30.178  33.848  1.00  0.00    -0.248 NA
ATOM     34  C   UNL A   1      41.544  28.789  35.675  1.00  0.00     0.031 C 
ATOM     35  C   UNL A   1      40.756  34.437  33.580  1.00  0.00     0.029 A 
ATOM     36  C   UNL A   1      41.131  33.108  33.691  1.00  0.00     0.049 A 
ATOM     37  H   UNL A   1      42.210  31.916  32.324  1.00  0.00     0.167 HD
ATOM     38  C   UNL A   1      41.269  30.893  34.802  1.00  0.00     0.074 A 
ATOM     39  C   UNL A   1      40.990  29.976  35.888  1.00  0.00     0.031 C 
ATOM     40  C   UNL A   1      40.886  32.194  34.780  1.00  0.00     0.031 A 
BRANCH  27  41
ATOM     41  C   UNL A   1      42.480  35.226  29.629  1.00  0.00    -0.014 A 
ATOM     42  C   UNL A   1      41.512  35.428  28.635  1.00  0.00     0.009 A 
ATOM     43  C   UNL A   1      43.456  36.217  29.833  1.00  0.00     0.009 A 
ATOM     44  C   UNL A   1      41.524  36.588  27.856  1.00  0.00     0.001 A 
ATOM     45  C   UNL A   1      43.443  37.392  29.079  1.00  0.00     0.001 A 
ATOM     46  C   UNL A   1      42.485  37.572  28.084  1.00  0.00     0.000 A 
ENDBRANCH  27  41
BRANCH  28  47
ATOM     47  C   UNL A   1      42.853  26.461  34.418  1.00  0.00    -0.014 A 
ATOM     48  C   UNL A   1      41.662  25.815  34.792  1.00  0.00     0.009 A 
ATOM     49  C   UNL A   1      44.077  25.883  34.784  1.00  0.00     0.009 A 
ATOM     50  C   UNL A   1      41.695  24.644  35.551  1.00  0.00     0.001 A 
ATOM     51  C   UNL A   1      44.108  24.692  35.515  1.00  0.00     0.001 A 
ATOM     52  C   UNL A   1      42.919  24.083  35.911  1.00  0.00     0.000 A 
ENDBRANCH  28  47
BRANCH  40  53
ATOM     53  C   UNL A   1      40.143  32.725  35.979  1.00  0.00    -0.014 A 
ATOM     54  C   UNL A   1      40.853  33.222  37.084  1.00  0.00     0.009 A 
ATOM     55  C   UNL A   1      38.743  32.653  36.052  1.00  0.00     0.009 A 
ATOM     56  C   UNL A   1      40.180  33.621  38.241  1.00  0.00     0.001 A 
ATOM     57  C   UNL A   1      38.069  33.090  37.195  1.00  0.00     0.001 A 
ATOM     58  C   UNL A   1      38.788  33.562  38.291  1.00  0.00     0.000 A 
ENDBRANCH  40  53
ENDBRANCH  14  15
ENDBRANCH   7   9
ENDBRANCH   4   5
ENDBRANCH   3   4
ENDBRANCH   2   3
ENDBRANCH   1   2
BRANCH   1  59
ATOM     59  C   UNL A   1      44.817  23.353  28.748  1.00  0.00     0.021 C 
BRANCH  59  60
ATOM     60  C   UNL A   1      43.310  23.320  28.976  1.00  0.00     0.116 C 
BRANCH  60  61
ATOM     61  N   UNL A   1      42.621  22.544  27.958  1.00  0.00    -0.352 N 
ATOM     62  C   UNL A   1      41.551  22.909  27.180  1.00  0.00     0.251 C 
ATOM     63  H   UNL A   1      42.968  21.636  27.806  1.00  0.00     0.163 HD
ATOM     64  O   UNL A   1      40.967  22.086  26.482  1.00  0.00    -0.269 OA
BRANCH  62  65
ATOM     65  C   UNL A   1      41.102  24.311  27.200  1.00  0.00     0.041 A 
ATOM     66  C   UNL A   1      41.274  25.112  26.064  1.00  0.00     0.015 A 
ATOM     67  C   UNL A   1      40.524  24.827  28.365  1.00  0.00     0.043 A 
ATOM     68  C   UNL A   1      40.964  26.463  26.133  1.00  0.00     0.017 A 
ATOM     69  C   UNL A   1      40.180  26.177  28.428  1.00  0.00     0.079 A 
ATOM     70  C   UNL A   1      40.440  26.983  27.321  1.00  0.00     0.066 A 
ATOM     71  N   UNL A   1      39.576  26.674  29.588  1.00  0.00    -0.228 NA
ATOM     72  C   UNL A   1      40.154  28.415  27.434  1.00  0.00     0.265 A 
ATOM     73  C   UNL A   1      39.264  27.933  29.648  1.00  0.00     0.159 A 
ATOM     74  O   UNL A   1      40.452  29.156  26.497  1.00  0.00    -0.268 OA
ATOM     75  N   UNL A   1      39.550  28.836  28.619  1.00  0.00    -0.266 N 
ATOM     76  C   UNL A   1      38.561  28.515  30.844  1.00  0.00     0.085 A 
ATOM     77  C   UNL A   1      39.242  30.185  28.731  1.00  0.00     0.109 A 
ATOM     78  C   UNL A   1      38.231  29.814  30.870  1.00  0.00     0.038 A 
ATOM     79  Cl  UNL A   1      38.179  27.477  32.162  1.00  0.00    -0.080 Cl
ATOM     80  C   UNL A   1      38.575  30.699  29.775  1.00  0.00     0.041 A 
BRANCH  80  81
ATOM     81  C   UNL A   1      38.267  32.166  29.869  1.00  0.00     0.198 C 
ATOM     82  O   UNL A   1      39.156  33.013  29.806  1.00  0.00    -0.288 OA
BRANCH  81  83
ATOM     83  C   UNL A   1      36.864  32.635  29.888  1.00  0.00     0.067 A 
ATOM     84  C   UNL A   1      36.094  32.693  28.720  1.00  0.00     0.055 A 
ATOM     85  C   UNL A   1      36.328  33.088  31.100  1.00  0.00     0.126 A 
ATOM     86  C   UNL A   1      34.838  33.289  28.771  1.00  0.00     0.124 A 
ATOM     87  C   UNL A   1      35.073  33.688  31.136  1.00  0.00     0.050 A 
ATOM     88  F   UNL A   1      34.119  33.393  27.648  1.00  0.00    -0.207 F 
ATOM     89  C   UNL A   1      34.329  33.801  29.961  1.00  0.00     0.043 A 
BRANCH  85  90
ATOM     90  O   UNL A   1      37.004  32.988  32.285  1.00  0.00    -0.507 OA
ATOM     91  H   UNL A   1      36.856  32.254  32.848  1.00  0.00     0.293 HD
ENDBRANCH  85  90
ENDBRANCH  81  83
ENDBRANCH  80  81
ENDBRANCH  62  65
ENDBRANCH  60  61
ENDBRANCH  59  60
ENDBRANCH   1  59
TORSDOF 16
ENDMDL
