MODEL 1
REMARK VINA RESULT:      -9.6      0.000      0.000
REMARK SMILES CCC(CC)(NC(=O)[C@H]1CCO[C@@H]1C)C(=O)NCCCCCCNC(=O)c1ccc(-c2c3nc(c(-c4ccccc4)c4ccc([nH]4)c(-c4ccccc4)c4nc(c(-c5ccccc5)c5ccc2[nH]5)C=C4)C=C3)cc1
REMARK SMILES IDX 20 1 19 2 18 3 17 4 15 5 16 6 3 8 2 9 1 10 4 11 5 12 6 13
REMARK SMILES IDX 7 14 8 16 9 17 10 18 13 19 11 20 12 21 14 22 21 23 22 24
REMARK SMILES IDX 23 25 24 26 25 27 26 29 27 30 28 31 74 32 29 33 73 34 30 35
REMARK SMILES IDX 31 36 32 37 67 38 33 39 72 40 66 41 68 42 34 43 71 44 65 45
REMARK SMILES IDX 64 46 35 48 57 49 42 50 56 51 43 52 46 53 55 54 69 55 44 56
REMARK SMILES IDX 45 57 54 59 70 60 47 61 36 62 37 63 41 64 38 65 40 66 39 67
REMARK SMILES IDX 58 68 59 69 63 70 60 71 62 72 61 73 48 74 49 75 53 76 50 77
REMARK SMILES IDX 52 78 51 79
REMARK H PARENT 17 7 6 15 24 28 68 47 46 58
REMARK Flexibility Score: inf
ROOT
ATOM      1  C   UNL A   1      38.089  22.113  25.703  1.00  0.00     0.002 C 
ENDROOT
BRANCH   1   2
ATOM      2  C   UNL A   1      37.578  23.542  25.537  1.00  0.00     0.021 C 
BRANCH   2   3
ATOM      3  C   UNL A   1      36.217  23.920  26.131  1.00  0.00     0.116 C 
BRANCH   3   4
ATOM      4  N   UNL A   1      35.365  22.864  26.668  1.00  0.00    -0.354 N 
ATOM      5  C   UNL A   1      34.137  22.373  26.301  1.00  0.00     0.245 C 
ATOM      6  O   UNL A   1      33.885  21.218  26.657  1.00  0.00    -0.272 OA
ATOM      7  H   UNL A   1      35.750  22.412  27.454  1.00  0.00     0.163 HD
BRANCH   5   8
ATOM      8  C   UNL A   1      33.182  23.161  25.361  1.00  0.00     0.118 C 
BRANCH   8   9
ATOM      9  C   UNL A   1      31.664  22.841  25.459  1.00  0.00     0.035 C 
ATOM     10  C   UNL A   1      30.932  23.169  26.750  1.00  0.00     0.007 C 
ENDBRANCH   8   9
BRANCH   8  11
ATOM     11  C   UNL A   1      33.711  22.808  23.926  1.00  0.00     0.035 C 
ATOM     12  C   UNL A   1      32.705  22.296  22.906  1.00  0.00     0.007 C 
ENDBRANCH   8  11
BRANCH   8  13
ATOM     13  N   UNL A   1      33.326  24.596  25.683  1.00  0.00    -0.341 N 
ATOM     14  C   UNL A   1      32.942  25.739  25.065  1.00  0.00     0.226 C 
ATOM     15  H   UNL A   1      33.803  24.756  26.530  1.00  0.00     0.164 HD
ATOM     16  O   UNL A   1      33.516  26.750  25.506  1.00  0.00    -0.275 OA
BRANCH  14  17
ATOM     17  C   UNL A   1      31.909  25.963  23.944  1.00  0.00     0.109 C 
ATOM     18  C   UNL A   1      30.727  26.730  24.530  1.00  0.00     0.044 C 
ATOM     19  C   UNL A   1      32.097  26.660  22.595  1.00  0.00     0.127 C 
ATOM     20  C   UNL A   1      29.918  27.084  23.310  1.00  0.00     0.161 C 
ATOM     21  O   UNL A   1      30.879  27.388  22.304  1.00  0.00    -0.378 OA
ATOM     22  C   UNL A   1      32.300  25.728  21.404  1.00  0.00     0.039 C 
ENDBRANCH  14  17
ENDBRANCH   8  13
ENDBRANCH   5   8
ENDBRANCH   3   4
ENDBRANCH   2   3
ENDBRANCH   1   2
BRANCH   1  23
ATOM     23  C   UNL A   1      37.662  21.112  24.631  1.00  0.00     0.002 C 
BRANCH  23  24
ATOM     24  C   UNL A   1      38.237  19.711  24.812  1.00  0.00     0.021 C 
BRANCH  24  25
ATOM     25  C   UNL A   1      39.062  19.539  26.077  1.00  0.00     0.116 C 
BRANCH  25  26
ATOM     26  N   UNL A   1      40.351  18.907  25.833  1.00  0.00    -0.352 N 
ATOM     27  C   UNL A   1      41.598  19.484  25.946  1.00  0.00     0.251 C 
ATOM     28  H   UNL A   1      40.329  17.962  25.557  1.00  0.00     0.163 HD
ATOM     29  O   UNL A   1      42.610  18.904  25.602  1.00  0.00    -0.269 OA
BRANCH  27  30
ATOM     30  C   UNL A   1      41.660  20.863  26.473  1.00  0.00     0.039 A 
ATOM     31  C   UNL A   1      41.590  21.071  27.851  1.00  0.00     0.014 A 
ATOM     32  C   UNL A   1      41.913  21.921  25.595  1.00  0.00     0.014 A 
ATOM     33  C   UNL A   1      41.837  22.347  28.360  1.00  0.00     0.010 A 
ATOM     34  C   UNL A   1      42.239  23.167  26.110  1.00  0.00     0.010 A 
ATOM     35  C   UNL A   1      42.195  23.395  27.496  1.00  0.00    -0.014 A 
BRANCH  35  36
ATOM     36  C   UNL A   1      42.489  24.758  28.003  1.00  0.00     0.031 A 
ATOM     37  C   UNL A   1      43.893  25.095  28.425  1.00  0.00     0.074 A 
ATOM     38  C   UNL A   1      41.496  25.655  28.161  1.00  0.00     0.049 A 
ATOM     39  N   UNL A   1      44.346  26.175  29.006  1.00  0.00    -0.248 NA
ATOM     40  C   UNL A   1      44.919  24.061  28.199  1.00  0.00     0.031 C 
ATOM     41  C   UNL A   1      40.086  25.436  27.829  1.00  0.00     0.029 A 
ATOM     42  N   UNL A   1      41.523  26.935  28.658  1.00  0.00    -0.354 N 
ATOM     43  C   UNL A   1      45.693  25.935  29.245  1.00  0.00     0.074 A 
ATOM     44  C   UNL A   1      45.975  24.592  28.793  1.00  0.00     0.031 C 
ATOM     45  C   UNL A   1      39.389  26.551  28.109  1.00  0.00     0.029 A 
ATOM     46  C   UNL A   1      40.292  27.548  28.675  1.00  0.00     0.049 A 
ATOM     47  H   UNL A   1      42.347  27.373  28.972  1.00  0.00     0.167 HD
ATOM     48  C   UNL A   1      46.619  26.767  29.773  1.00  0.00     0.031 A 
ATOM     49  C   UNL A   1      39.937  28.773  29.104  1.00  0.00     0.031 A 
ATOM     50  C   UNL A   1      46.349  28.117  30.178  1.00  0.00     0.049 A 
ATOM     51  C   UNL A   1      40.993  29.688  29.665  1.00  0.00     0.074 A 
ATOM     52  C   UNL A   1      47.233  29.067  30.657  1.00  0.00     0.029 A 
ATOM     53  N   UNL A   1      45.098  28.713  30.137  1.00  0.00    -0.354 N 
ATOM     54  N   UNL A   1      42.276  29.468  29.824  1.00  0.00    -0.248 NA
ATOM     55  C   UNL A   1      40.554  31.024  30.093  1.00  0.00     0.031 C 
ATOM     56  C   UNL A   1      46.509  30.229  30.942  1.00  0.00     0.029 A 
ATOM     57  C   UNL A   1      45.185  30.016  30.593  1.00  0.00     0.049 A 
ATOM     58  H   UNL A   1      44.272  28.275  29.828  1.00  0.00     0.167 HD
ATOM     59  C   UNL A   1      42.802  30.648  30.334  1.00  0.00     0.074 A 
ATOM     60  C   UNL A   1      41.702  31.583  30.448  1.00  0.00     0.031 C 
ATOM     61  C   UNL A   1      44.080  30.935  30.676  1.00  0.00     0.031 A 
BRANCH  48  62
ATOM     62  C   UNL A   1      48.016  26.239  29.936  1.00  0.00    -0.014 A 
ATOM     63  C   UNL A   1      48.933  26.267  28.872  1.00  0.00     0.009 A 
ATOM     64  C   UNL A   1      48.434  25.741  31.179  1.00  0.00     0.009 A 
ATOM     65  C   UNL A   1      50.229  25.778  29.044  1.00  0.00     0.001 A 
ATOM     66  C   UNL A   1      49.738  25.280  31.356  1.00  0.00     0.001 A 
ATOM     67  C   UNL A   1      50.633  25.291  30.286  1.00  0.00     0.000 A 
ENDBRANCH  48  62
BRANCH  49  68
ATOM     68  C   UNL A   1      38.523  29.227  29.010  1.00  0.00    -0.014 A 
ATOM     69  C   UNL A   1      38.032  29.785  27.819  1.00  0.00     0.009 A 
ATOM     70  C   UNL A   1      37.666  29.137  30.118  1.00  0.00     0.009 A 
ATOM     71  C   UNL A   1      36.728  30.278  27.751  1.00  0.00     0.001 A 
ATOM     72  C   UNL A   1      36.352  29.604  30.037  1.00  0.00     0.001 A 
ATOM     73  C   UNL A   1      35.888  30.185  28.859  1.00  0.00     0.000 A 
ENDBRANCH  49  68
BRANCH  61  74
ATOM     74  C   UNL A   1      44.374  32.327  31.152  1.00  0.00    -0.014 A 
ATOM     75  C   UNL A   1      44.338  32.656  32.515  1.00  0.00     0.009 A 
ATOM     76  C   UNL A   1      44.755  33.307  30.221  1.00  0.00     0.009 A 
ATOM     77  C   UNL A   1      44.653  33.951  32.934  1.00  0.00     0.001 A 
ATOM     78  C   UNL A   1      45.096  34.591  30.646  1.00  0.00     0.001 A 
ATOM     79  C   UNL A   1      45.037  34.913  32.000  1.00  0.00     0.000 A 
ENDBRANCH  61  74
ENDBRANCH  35  36
ENDBRANCH  27  30
ENDBRANCH  25  26
ENDBRANCH  24  25
ENDBRANCH  23  24
ENDBRANCH   1  23
TORSDOF 17
ENDMDL
MODEL 2
REMARK VINA RESULT:      -9.5      1.283      6.292
REMARK SMILES CCC(CC)(NC(=O)[C@H]1CCO[C@@H]1C)C(=O)NCCCCCCNC(=O)c1ccc(-c2c3nc(c(-c4ccccc4)c4ccc([nH]4)c(-c4ccccc4)c4nc(c(-c5ccccc5)c5ccc2[nH]5)C=C4)C=C3)cc1
REMARK SMILES IDX 20 1 19 2 18 3 17 4 15 5 16 6 3 8 2 9 1 10 4 11 5 12 6 13
REMARK SMILES IDX 7 14 8 16 9 17 10 18 13 19 11 20 12 21 14 22 21 23 22 24
REMARK SMILES IDX 23 25 24 26 25 27 26 29 27 30 28 31 74 32 29 33 73 34 30 35
REMARK SMILES IDX 31 36 32 37 67 38 33 39 72 40 66 41 68 42 34 43 71 44 65 45
REMARK SMILES IDX 64 46 35 48 57 49 42 50 56 51 43 52 46 53 55 54 69 55 44 56
REMARK SMILES IDX 45 57 54 59 70 60 47 61 36 62 37 63 41 64 38 65 40 66 39 67
REMARK SMILES IDX 58 68 59 69 63 70 60 71 62 72 61 73 48 74 49 75 53 76 50 77
REMARK SMILES IDX 52 78 51 79
REMARK H PARENT 17 7 6 15 24 28 68 47 46 58
REMARK Flexibility Score: inf
ROOT
ATOM      1  C   UNL A   1      34.911  21.388  24.906  1.00  0.00     0.002 C 
ENDROOT
BRANCH   1   2
ATOM      2  C   UNL A   1      33.541  20.742  25.100  1.00  0.00     0.021 C 
BRANCH   2   3
ATOM      3  C   UNL A   1      32.284  21.610  24.983  1.00  0.00     0.116 C 
BRANCH   3   4
ATOM      4  N   UNL A   1      31.638  22.083  26.203  1.00  0.00    -0.354 N 
ATOM      5  C   UNL A   1      31.041  23.270  26.547  1.00  0.00     0.245 C 
ATOM      6  O   UNL A   1      30.215  23.216  27.462  1.00  0.00    -0.272 OA
ATOM      7  H   UNL A   1      31.630  21.415  26.926  1.00  0.00     0.163 HD
BRANCH   5   8
ATOM      8  C   UNL A   1      31.269  24.575  25.733  1.00  0.00     0.118 C 
BRANCH   8   9
ATOM      9  C   UNL A   1      30.322  24.839  24.530  1.00  0.00     0.035 C 
ATOM     10  C   UNL A   1      30.613  24.148  23.208  1.00  0.00     0.007 C 
ENDBRANCH   8   9
BRANCH   8  11
ATOM     11  C   UNL A   1      32.748  24.434  25.228  1.00  0.00     0.035 C 
ATOM     12  C   UNL A   1      33.866  24.744  26.213  1.00  0.00     0.007 C 
ENDBRANCH   8  11
BRANCH   8  13
ATOM     13  N   UNL A   1      31.092  25.712  26.660  1.00  0.00    -0.341 N 
ATOM     14  C   UNL A   1      31.342  27.041  26.573  1.00  0.00     0.226 C 
ATOM     15  H   UNL A   1      30.707  25.448  27.527  1.00  0.00     0.164 HD
ATOM     16  O   UNL A   1      31.333  27.614  27.677  1.00  0.00    -0.275 OA
BRANCH  14  17
ATOM     17  C   UNL A   1      31.605  27.923  25.337  1.00  0.00     0.109 C 
ATOM     18  C   UNL A   1      33.112  28.127  25.208  1.00  0.00     0.044 C 
ATOM     19  C   UNL A   1      31.196  27.678  23.883  1.00  0.00     0.127 C 
ATOM     20  C   UNL A   1      33.246  28.789  23.862  1.00  0.00     0.161 C 
ATOM     21  O   UNL A   1      32.272  28.156  23.039  1.00  0.00    -0.378 OA
ATOM     22  C   UNL A   1      29.956  28.437  23.420  1.00  0.00     0.039 C 
ENDBRANCH  14  17
ENDBRANCH   8  13
ENDBRANCH   5   8
ENDBRANCH   3   4
ENDBRANCH   2   3
ENDBRANCH   1   2
BRANCH   1  23
ATOM     23  C   UNL A   1      36.118  20.457  24.997  1.00  0.00     0.002 C 
BRANCH  23  24
ATOM     24  C   UNL A   1      37.447  21.112  24.634  1.00  0.00     0.021 C 
BRANCH  24  25
ATOM     25  C   UNL A   1      38.489  21.052  25.739  1.00  0.00     0.116 C 
BRANCH  25  26
ATOM     26  N   UNL A   1      39.335  19.870  25.658  1.00  0.00    -0.352 N 
ATOM     27  C   UNL A   1      40.676  19.781  25.970  1.00  0.00     0.251 C 
ATOM     28  H   UNL A   1      38.902  19.043  25.346  1.00  0.00     0.163 HD
ATOM     29  O   UNL A   1      41.321  18.774  25.753  1.00  0.00    -0.269 OA
BRANCH  27  30
ATOM     30  C   UNL A   1      41.315  20.978  26.553  1.00  0.00     0.039 A 
ATOM     31  C   UNL A   1      41.939  21.898  25.709  1.00  0.00     0.014 A 
ATOM     32  C   UNL A   1      41.176  21.232  27.920  1.00  0.00     0.014 A 
ATOM     33  C   UNL A   1      42.375  23.115  26.233  1.00  0.00     0.010 A 
ATOM     34  C   UNL A   1      41.535  22.475  28.419  1.00  0.00     0.010 A 
ATOM     35  C   UNL A   1      42.147  23.426  27.584  1.00  0.00    -0.014 A 
BRANCH  35  36
ATOM     36  C   UNL A   1      42.574  24.720  28.170  1.00  0.00     0.031 A 
ATOM     37  C   UNL A   1      41.545  25.792  28.404  1.00  0.00     0.074 A 
ATOM     38  C   UNL A   1      43.878  24.961  28.413  1.00  0.00     0.049 A 
ATOM     39  N   UNL A   1      41.714  27.030  28.790  1.00  0.00    -0.248 NA
ATOM     40  C   UNL A   1      40.142  25.435  28.129  1.00  0.00     0.031 C 
ATOM     41  C   UNL A   1      44.977  24.018  28.189  1.00  0.00     0.029 A 
ATOM     42  N   UNL A   1      44.501  26.086  28.892  1.00  0.00    -0.354 N 
ATOM     43  C   UNL A   1      40.449  27.604  28.767  1.00  0.00     0.074 A 
ATOM     44  C   UNL A   1      39.531  26.599  28.285  1.00  0.00     0.031 C 
ATOM     45  C   UNL A   1      46.134  24.597  28.553  1.00  0.00     0.029 A 
ATOM     46  C   UNL A   1      45.866  25.961  28.998  1.00  0.00     0.049 A 
ATOM     47  H   UNL A   1      44.015  26.907  29.137  1.00  0.00     0.167 HD
ATOM     48  C   UNL A   1      40.080  28.852  29.138  1.00  0.00     0.031 A 
ATOM     49  C   UNL A   1      46.792  26.850  29.403  1.00  0.00     0.031 A 
ATOM     50  C   UNL A   1      40.986  29.835  29.661  1.00  0.00     0.049 A 
ATOM     51  C   UNL A   1      46.351  28.223  29.832  1.00  0.00     0.074 A 
ATOM     52  C   UNL A   1      40.701  31.104  30.134  1.00  0.00     0.029 A 
ATOM     53  N   UNL A   1      42.353  29.651  29.793  1.00  0.00    -0.354 N 
ATOM     54  N   UNL A   1      45.142  28.729  29.867  1.00  0.00    -0.248 NA
ATOM     55  C   UNL A   1      47.401  29.144  30.291  1.00  0.00     0.031 C 
ATOM     56  C   UNL A   1      41.905  31.703  30.518  1.00  0.00     0.029 A 
ATOM     57  C   UNL A   1      42.928  30.789  30.330  1.00  0.00     0.049 A 
ATOM     58  H   UNL A   1      42.841  28.833  29.544  1.00  0.00     0.167 HD
ATOM     59  C   UNL A   1      45.281  30.010  30.385  1.00  0.00     0.074 A 
ATOM     60  C   UNL A   1      46.691  30.200  30.660  1.00  0.00     0.031 C 
ATOM     61  C   UNL A   1      44.330  30.946  30.616  1.00  0.00     0.031 A 
BRANCH  48  62
ATOM     62  C   UNL A   1      38.631  29.220  28.995  1.00  0.00    -0.014 A 
ATOM     63  C   UNL A   1      37.744  29.118  30.079  1.00  0.00     0.009 A 
ATOM     64  C   UNL A   1      38.153  29.711  27.770  1.00  0.00     0.009 A 
ATOM     65  C   UNL A   1      36.402  29.470  29.930  1.00  0.00     0.001 A 
ATOM     66  C   UNL A   1      36.817  30.090  27.632  1.00  0.00     0.001 A 
ATOM     67  C   UNL A   1      35.941  29.962  28.709  1.00  0.00     0.000 A 
ENDBRANCH  48  62
BRANCH  49  68
ATOM     68  C   UNL A   1      48.232  26.475  29.443  1.00  0.00    -0.014 A 
ATOM     69  C   UNL A   1      48.777  25.867  30.585  1.00  0.00     0.009 A 
ATOM     70  C   UNL A   1      49.076  26.756  28.358  1.00  0.00     0.009 A 
ATOM     71  C   UNL A   1      50.142  25.581  30.654  1.00  0.00     0.001 A 
ATOM     72  C   UNL A   1      50.436  26.441  28.418  1.00  0.00     0.001 A 
ATOM     73  C   UNL A   1      50.970  25.867  29.569  1.00  0.00     0.000 A 
ENDBRANCH  49  68
BRANCH  61  74
ATOM     74  C   UNL A   1      44.767  32.236  31.244  1.00  0.00    -0.014 A 
ATOM     75  C   UNL A   1      45.133  33.342  30.463  1.00  0.00     0.009 A 
ATOM     76  C   UNL A   1      44.749  32.362  32.643  1.00  0.00     0.009 A 
ATOM     77  C   UNL A   1      45.500  34.543  31.073  1.00  0.00     0.001 A 
ATOM     78  C   UNL A   1      45.087  33.573  33.247  1.00  0.00     0.001 A 
ATOM     79  C   UNL A   1      45.470  34.659  32.463  1.00  0.00     0.000 A 
ENDBRANCH  61  74
ENDBRANCH  35  36
ENDBRANCH  27  30
ENDBRANCH  25  26
ENDBRANCH  24  25
ENDBRANCH  23  24
ENDBRANCH   1  23
TORSDOF 17
ENDMDL
MODEL 3
REMARK VINA RESULT:      -9.5      1.214      2.052
REMARK SMILES CCC(CC)(NC(=O)[C@H]1CCO[C@@H]1C)C(=O)NCCCCCCNC(=O)c1ccc(-c2c3nc(c(-c4ccccc4)c4ccc([nH]4)c(-c4ccccc4)c4nc(c(-c5ccccc5)c5ccc2[nH]5)C=C4)C=C3)cc1
REMARK SMILES IDX 20 1 19 2 18 3 17 4 15 5 16 6 3 8 2 9 1 10 4 11 5 12 6 13
REMARK SMILES IDX 7 14 8 16 9 17 10 18 13 19 11 20 12 21 14 22 21 23 22 24
REMARK SMILES IDX 23 25 24 26 25 27 26 29 27 30 28 31 74 32 29 33 73 34 30 35
REMARK SMILES IDX 31 36 32 37 67 38 33 39 72 40 66 41 68 42 34 43 71 44 65 45
REMARK SMILES IDX 64 46 35 48 57 49 42 50 56 51 43 52 46 53 55 54 69 55 44 56
REMARK SMILES IDX 45 57 54 59 70 60 47 61 36 62 37 63 41 64 38 65 40 66 39 67
REMARK SMILES IDX 58 68 59 69 63 70 60 71 62 72 61 73 48 74 49 75 53 76 50 77
REMARK SMILES IDX 52 78 51 79
REMARK H PARENT 17 7 6 15 24 28 68 47 46 58
REMARK Flexibility Score: inf
ROOT
ATOM      1  C   UNL A   1      35.229  20.356  25.013  1.00  0.00     0.002 C 
ENDROOT
BRANCH   1   2
ATOM      2  C   UNL A   1      34.002  19.507  24.693  1.00  0.00     0.021 C 
BRANCH   2   3
ATOM      3  C   UNL A   1      32.698  20.205  24.291  1.00  0.00     0.116 C 
BRANCH   3   4
ATOM      4  N   UNL A   1      31.926  20.901  25.316  1.00  0.00    -0.354 N 
ATOM      5  C   UNL A   1      31.464  22.188  25.428  1.00  0.00     0.245 C 
ATOM      6  O   UNL A   1      30.491  22.353  26.169  1.00  0.00    -0.272 OA
ATOM      7  H   UNL A   1      31.690  20.331  26.083  1.00  0.00     0.163 HD
BRANCH   5   8
ATOM      8  C   UNL A   1      32.027  23.345  24.555  1.00  0.00     0.118 C 
BRANCH   8   9
ATOM      9  C   UNL A   1      32.151  23.089  23.027  1.00  0.00     0.035 C 
ATOM     10  C   UNL A   1      33.494  23.327  22.355  1.00  0.00     0.007 C 
ENDBRANCH   8   9
BRANCH   8  11
ATOM     11  C   UNL A   1      33.447  23.606  25.171  1.00  0.00     0.035 C 
ATOM     12  C   UNL A   1      33.559  23.681  26.687  1.00  0.00     0.007 C 
ENDBRANCH   8  11
BRANCH   8  13
ATOM     13  N   UNL A   1      31.119  24.501  24.711  1.00  0.00    -0.341 N 
ATOM     14  C   UNL A   1      31.314  25.836  24.836  1.00  0.00     0.226 C 
ATOM     15  H   UNL A   1      30.168  24.245  24.726  1.00  0.00     0.164 HD
ATOM     16  O   UNL A   1      30.307  26.440  25.247  1.00  0.00    -0.275 OA
BRANCH  14  17
ATOM     17  C   UNL A   1      32.557  26.691  24.528  1.00  0.00     0.109 C 
ATOM     18  C   UNL A   1      32.581  26.976  23.028  1.00  0.00     0.044 C 
ATOM     19  C   UNL A   1      32.952  28.050  25.111  1.00  0.00     0.127 C 
ATOM     20  C   UNL A   1      33.685  27.992  22.898  1.00  0.00     0.161 C 
ATOM     21  O   UNL A   1      33.562  28.822  24.048  1.00  0.00    -0.378 OA
ATOM     22  C   UNL A   1      33.997  28.001  26.221  1.00  0.00     0.039 C 
ENDBRANCH  14  17
ENDBRANCH   8  13
ENDBRANCH   5   8
ENDBRANCH   3   4
ENDBRANCH   2   3
ENDBRANCH   1   2
BRANCH   1  23
ATOM     23  C   UNL A   1      36.575  19.634  24.997  1.00  0.00     0.002 C 
BRANCH  23  24
ATOM     24  C   UNL A   1      37.771  20.539  24.719  1.00  0.00     0.021 C 
BRANCH  24  25
ATOM     25  C   UNL A   1      38.787  20.588  25.850  1.00  0.00     0.116 C 
BRANCH  25  26
ATOM     26  N   UNL A   1      39.766  19.513  25.780  1.00  0.00    -0.352 N 
ATOM     27  C   UNL A   1      41.116  19.596  26.050  1.00  0.00     0.251 C 
ATOM     28  H   UNL A   1      39.427  18.629  25.511  1.00  0.00     0.163 HD
ATOM     29  O   UNL A   1      41.872  18.665  25.845  1.00  0.00    -0.269 OA
BRANCH  27  30
ATOM     30  C   UNL A   1      41.624  20.882  26.569  1.00  0.00     0.039 A 
ATOM     31  C   UNL A   1      42.111  21.835  25.674  1.00  0.00     0.014 A 
ATOM     32  C   UNL A   1      41.492  21.171  27.930  1.00  0.00     0.014 A 
ATOM     33  C   UNL A   1      42.413  23.115  26.141  1.00  0.00     0.010 A 
ATOM     34  C   UNL A   1      41.714  22.466  28.374  1.00  0.00     0.010 A 
ATOM     35  C   UNL A   1      42.185  23.448  27.487  1.00  0.00    -0.014 A 
BRANCH  35  36
ATOM     36  C   UNL A   1      42.471  24.806  28.013  1.00  0.00     0.031 A 
ATOM     37  C   UNL A   1      43.867  25.136  28.465  1.00  0.00     0.074 A 
ATOM     38  C   UNL A   1      41.476  25.702  28.162  1.00  0.00     0.049 A 
ATOM     39  N   UNL A   1      44.310  26.210  29.065  1.00  0.00    -0.248 NA
ATOM     40  C   UNL A   1      44.895  24.103  28.248  1.00  0.00     0.031 C 
ATOM     41  C   UNL A   1      40.072  25.488  27.801  1.00  0.00     0.029 A 
ATOM     42  N   UNL A   1      41.495  26.977  28.672  1.00  0.00    -0.354 N 
ATOM     43  C   UNL A   1      45.652  25.965  29.328  1.00  0.00     0.074 A 
ATOM     44  C   UNL A   1      45.941  24.627  28.868  1.00  0.00     0.031 C 
ATOM     45  C   UNL A   1      39.371  26.601  28.079  1.00  0.00     0.029 A 
ATOM     46  C   UNL A   1      40.265  27.591  28.672  1.00  0.00     0.049 A 
ATOM     47  H   UNL A   1      42.313  27.410  29.006  1.00  0.00     0.167 HD
ATOM     48  C   UNL A   1      46.569  26.791  29.882  1.00  0.00     0.031 A 
ATOM     49  C   UNL A   1      39.903  28.813  29.107  1.00  0.00     0.031 A 
ATOM     50  C   UNL A   1      46.292  28.138  30.295  1.00  0.00     0.049 A 
ATOM     51  C   UNL A   1      40.949  29.720  29.697  1.00  0.00     0.074 A 
ATOM     52  C   UNL A   1      47.168  29.081  30.801  1.00  0.00     0.029 A 
ATOM     53  N   UNL A   1      45.043  28.736  30.236  1.00  0.00    -0.354 N 
ATOM     54  N   UNL A   1      42.228  29.497  29.878  1.00  0.00    -0.248 NA
ATOM     55  C   UNL A   1      40.504  31.052  30.130  1.00  0.00     0.031 C 
ATOM     56  C   UNL A   1      46.440  30.241  31.084  1.00  0.00     0.029 A 
ATOM     57  C   UNL A   1      45.123  30.033  30.708  1.00  0.00     0.049 A 
ATOM     58  H   UNL A   1      44.223  28.302  29.908  1.00  0.00     0.167 HD
ATOM     59  C   UNL A   1      42.746  30.671  30.410  1.00  0.00     0.074 A 
ATOM     60  C   UNL A   1      41.645  31.606  30.512  1.00  0.00     0.031 C 
ATOM     61  C   UNL A   1      44.018  30.953  30.779  1.00  0.00     0.031 A 
BRANCH  48  62
ATOM     62  C   UNL A   1      47.962  26.259  30.066  1.00  0.00    -0.014 A 
ATOM     63  C   UNL A   1      48.895  26.285  29.016  1.00  0.00     0.009 A 
ATOM     64  C   UNL A   1      48.359  25.761  31.316  1.00  0.00     0.009 A 
ATOM     65  C   UNL A   1      50.187  25.792  29.207  1.00  0.00     0.001 A 
ATOM     66  C   UNL A   1      49.660  25.297  31.512  1.00  0.00     0.001 A 
ATOM     67  C   UNL A   1      50.570  25.305  30.456  1.00  0.00     0.000 A 
ENDBRANCH  48  62
BRANCH  49  68
ATOM     68  C   UNL A   1      38.491  29.269  28.991  1.00  0.00    -0.014 A 
ATOM     69  C   UNL A   1      38.021  29.830  27.793  1.00  0.00     0.009 A 
ATOM     70  C   UNL A   1      37.617  29.180  30.085  1.00  0.00     0.009 A 
ATOM     71  C   UNL A   1      36.719  30.326  27.704  1.00  0.00     0.001 A 
ATOM     72  C   UNL A   1      36.305  29.649  29.983  1.00  0.00     0.001 A 
ATOM     73  C   UNL A   1      35.861  30.233  28.799  1.00  0.00     0.000 A 
ENDBRANCH  49  68
BRANCH  61  74
ATOM     74  C   UNL A   1      44.304  32.340  31.275  1.00  0.00    -0.014 A 
ATOM     75  C   UNL A   1      44.645  33.375  30.393  1.00  0.00     0.009 A 
ATOM     76  C   UNL A   1      44.164  32.624  32.643  1.00  0.00     0.009 A 
ATOM     77  C   UNL A   1      44.869  34.666  30.876  1.00  0.00     0.001 A 
ATOM     78  C   UNL A   1      44.360  33.921  33.118  1.00  0.00     0.001 A 
ATOM     79  C   UNL A   1      44.720  34.938  32.237  1.00  0.00     0.000 A 
ENDBRANCH  61  74
ENDBRANCH  35  36
ENDBRANCH  27  30
ENDBRANCH  25  26
ENDBRANCH  24  25
ENDBRANCH  23  24
ENDBRANCH   1  23
TORSDOF 17
ENDMDL
