MODEL 1
REMARK VINA RESULT:     -11.5      0.000      0.000
REMARK SMILES COc1ccccc1-n1nnc(C(=O)NCCCCCCNC(=O)c2ccc(-c3c4nc(c(-c5ccccc5)c5ccc([nH]5)c(-c5ccccc5)c5nc(c(-c6ccccc6)c6ccc3[nH]6)C=C5)C=C4)cc2)c1-c1ccc(Cl)cc1
REMARK SMILES IDX 18 1 17 2 16 3 15 4 13 5 14 6 12 8 9 9 10 10 73 11 11 12
REMARK SMILES IDX 8 13 3 14 4 15 5 16 7 17 6 18 2 19 1 20 74 21 75 22 80 23
REMARK SMILES IDX 76 24 79 25 77 26 78 27 19 28 20 29 21 30 22 31 23 32 24 34
REMARK SMILES IDX 25 35 26 36 72 37 27 38 71 39 28 40 29 41 30 42 65 43 31 44
REMARK SMILES IDX 70 45 64 46 66 47 32 48 69 49 63 50 62 51 33 53 55 54 40 55
REMARK SMILES IDX 54 56 41 57 44 58 53 59 67 60 42 61 43 62 52 64 68 65 45 66
REMARK SMILES IDX 34 67 35 68 39 69 36 70 38 71 37 72 56 73 57 74 61 75 58 76
REMARK SMILES IDX 60 77 59 78 46 79 47 80 51 81 48 82 50 83 49 84
REMARK H PARENT 15 7 22 33 66 52 44 63
REMARK Flexibility Score: inf
ROOT
ATOM      1  C   UNL A   1      34.865  19.615  24.662  1.00  0.00     0.002 C 
ENDROOT
BRANCH   1   2
ATOM      2  C   UNL A   1      33.718  19.900  25.625  1.00  0.00     0.021 C 
BRANCH   2   3
ATOM      3  C   UNL A   1      32.362  20.277  25.055  1.00  0.00     0.116 C 
BRANCH   3   4
ATOM      4  N   UNL A   1      32.180  20.341  23.636  1.00  0.00    -0.351 N 
ATOM      5  C   UNL A   1      32.030  21.469  22.843  1.00  0.00     0.274 C 
ATOM      6  O   UNL A   1      31.948  21.250  21.630  1.00  0.00    -0.267 OA
ATOM      7  H   UNL A   1      32.160  19.477  23.164  1.00  0.00     0.163 HD
BRANCH   5   8
ATOM      8  C   UNL A   1      31.935  22.854  23.356  1.00  0.00     0.178 A 
ATOM      9  N   UNL A   1      32.047  24.912  24.133  1.00  0.00    -0.208 N 
ATOM     10  N   UNL A   1      30.756  24.662  23.862  1.00  0.00    -0.061 NA
ATOM     11  C   UNL A   1      32.815  23.758  23.957  1.00  0.00     0.108 A 
ATOM     12  N   UNL A   1      30.693  23.473  23.286  1.00  0.00    -0.124 NA
BRANCH   9  13
ATOM     13  C   UNL A   1      32.473  26.137  24.697  1.00  0.00     0.109 A 
ATOM     14  C   UNL A   1      33.309  27.012  23.986  1.00  0.00     0.144 A 
ATOM     15  C   UNL A   1      34.037  27.975  24.688  1.00  0.00     0.049 A 
ATOM     16  C   UNL A   1      33.892  28.106  26.070  1.00  0.00     0.004 A 
ATOM     17  C   UNL A   1      32.264  26.316  26.075  1.00  0.00     0.032 A 
ATOM     18  C   UNL A   1      32.991  27.294  26.758  1.00  0.00     0.003 A 
BRANCH  14  19
ATOM     19  O   UNL A   1      33.567  26.969  22.642  1.00  0.00    -0.494 OA
ATOM     20  C   UNL A   1      33.969  28.209  22.061  1.00  0.00     0.278 C 
ENDBRANCH  14  19
ENDBRANCH   9  13
BRANCH  11  21
ATOM     21  C   UNL A   1      34.171  23.696  24.502  1.00  0.00     0.003 A 
ATOM     22  C   UNL A   1      34.414  23.597  25.874  1.00  0.00     0.012 A 
ATOM     23  C   UNL A   1      35.258  23.710  23.606  1.00  0.00     0.012 A 
ATOM     24  C   UNL A   1      35.727  23.515  26.343  1.00  0.00     0.021 A 
ATOM     25  C   UNL A   1      36.567  23.654  24.077  1.00  0.00     0.021 A 
ATOM     26  C   UNL A   1      36.795  23.554  25.446  1.00  0.00     0.041 A 
ATOM     27  Cl  UNL A   1      38.411  23.499  26.028  1.00  0.00    -0.084 Cl
ENDBRANCH  11  21
ENDBRANCH   5   8
ENDBRANCH   3   4
ENDBRANCH   2   3
ENDBRANCH   1   2
BRANCH   1  28
ATOM     28  C   UNL A   1      36.246  20.235  24.923  1.00  0.00     0.002 C 
BRANCH  28  29
ATOM     29  C   UNL A   1      37.491  19.339  24.969  1.00  0.00     0.021 C 
BRANCH  29  30
ATOM     30  C   UNL A   1      38.772  19.966  25.493  1.00  0.00     0.116 C 
BRANCH  30  31
ATOM     31  N   UNL A   1      39.864  19.021  25.702  1.00  0.00    -0.352 N 
ATOM     32  C   UNL A   1      41.195  19.309  25.962  1.00  0.00     0.251 C 
ATOM     33  H   UNL A   1      39.627  18.066  25.652  1.00  0.00     0.163 HD
ATOM     34  O   UNL A   1      42.071  18.489  25.736  1.00  0.00    -0.269 OA
BRANCH  32  35
ATOM     35  C   UNL A   1      41.546  20.628  26.533  1.00  0.00     0.039 A 
ATOM     36  C   UNL A   1      42.191  21.611  25.773  1.00  0.00     0.014 A 
ATOM     37  C   UNL A   1      41.244  20.862  27.870  1.00  0.00     0.014 A 
ATOM     38  C   UNL A   1      42.469  22.848  26.359  1.00  0.00     0.010 A 
ATOM     39  C   UNL A   1      41.359  22.123  28.391  1.00  0.00     0.010 A 
ATOM     40  C   UNL A   1      42.041  23.095  27.670  1.00  0.00    -0.014 A 
BRANCH  40  41
ATOM     41  C   UNL A   1      42.238  24.387  28.315  1.00  0.00     0.031 A 
ATOM     42  C   UNL A   1      41.157  25.382  28.105  1.00  0.00     0.074 A 
ATOM     43  C   UNL A   1      43.199  24.581  29.245  1.00  0.00     0.049 A 
ATOM     44  N   UNL A   1      41.264  26.535  27.538  1.00  0.00    -0.248 NA
ATOM     45  C   UNL A   1      39.781  25.028  28.487  1.00  0.00     0.031 C 
ATOM     46  C   UNL A   1      44.160  23.602  29.771  1.00  0.00     0.029 A 
ATOM     47  N   UNL A   1      43.421  25.667  30.035  1.00  0.00    -0.354 N 
ATOM     48  C   UNL A   1      40.017  27.139  27.644  1.00  0.00     0.074 A 
ATOM     49  C   UNL A   1      39.109  26.113  28.096  1.00  0.00     0.031 C 
ATOM     50  C   UNL A   1      44.664  24.049  30.942  1.00  0.00     0.029 A 
ATOM     51  C   UNL A   1      44.195  25.404  31.159  1.00  0.00     0.049 A 
ATOM     52  H   UNL A   1      43.063  26.560  29.827  1.00  0.00     0.167 HD
ATOM     53  C   UNL A   1      39.877  28.492  27.573  1.00  0.00     0.031 A 
ATOM     54  C   UNL A   1      44.409  26.229  32.213  1.00  0.00     0.031 A 
ATOM     55  C   UNL A   1      41.075  29.127  27.082  1.00  0.00     0.049 A 
ATOM     56  C   UNL A   1      44.110  27.607  31.761  1.00  0.00     0.074 A 
ATOM     57  C   UNL A   1      41.822  29.030  25.924  1.00  0.00     0.029 A 
ATOM     58  N   UNL A   1      41.898  29.717  28.013  1.00  0.00    -0.354 N 
ATOM     59  N   UNL A   1      44.842  28.241  30.891  1.00  0.00    -0.248 NA
ATOM     60  C   UNL A   1      42.758  28.117  31.925  1.00  0.00     0.031 C 
ATOM     61  C   UNL A   1      43.178  29.104  26.358  1.00  0.00     0.029 A 
ATOM     62  C   UNL A   1      43.180  29.319  27.737  1.00  0.00     0.049 A 
ATOM     63  H   UNL A   1      41.618  30.317  28.742  1.00  0.00     0.167 HD
ATOM     64  C   UNL A   1      43.926  28.887  30.073  1.00  0.00     0.074 A 
ATOM     65  C   UNL A   1      42.675  28.882  30.832  1.00  0.00     0.031 C 
ATOM     66  C   UNL A   1      44.189  29.091  28.748  1.00  0.00     0.031 A 
BRANCH  53  67
ATOM     67  C   UNL A   1      38.824  29.272  28.317  1.00  0.00    -0.014 A 
ATOM     68  C   UNL A   1      38.894  29.330  29.722  1.00  0.00     0.009 A 
ATOM     69  C   UNL A   1      37.624  29.703  27.724  1.00  0.00     0.009 A 
ATOM     70  C   UNL A   1      37.792  29.721  30.490  1.00  0.00     0.001 A 
ATOM     71  C   UNL A   1      36.536  30.136  28.487  1.00  0.00     0.001 A 
ATOM     72  C   UNL A   1      36.610  30.115  29.873  1.00  0.00     0.000 A 
ENDBRANCH  53  67
BRANCH  54  73
ATOM     73  C   UNL A   1      44.664  25.893  33.629  1.00  0.00    -0.014 A 
ATOM     74  C   UNL A   1      45.634  26.587  34.369  1.00  0.00     0.009 A 
ATOM     75  C   UNL A   1      43.772  25.066  34.336  1.00  0.00     0.009 A 
ATOM     76  C   UNL A   1      45.677  26.495  35.766  1.00  0.00     0.001 A 
ATOM     77  C   UNL A   1      43.818  24.970  35.731  1.00  0.00     0.001 A 
ATOM     78  C   UNL A   1      44.759  25.699  36.448  1.00  0.00     0.000 A 
ENDBRANCH  54  73
BRANCH  66  79
ATOM     79  C   UNL A   1      45.587  28.791  28.254  1.00  0.00    -0.014 A 
ATOM     80  C   UNL A   1      46.026  27.493  27.929  1.00  0.00     0.009 A 
ATOM     81  C   UNL A   1      46.446  29.863  27.980  1.00  0.00     0.009 A 
ATOM     82  C   UNL A   1      47.298  27.274  27.392  1.00  0.00     0.001 A 
ATOM     83  C   UNL A   1      47.708  29.647  27.419  1.00  0.00     0.001 A 
ATOM     84  C   UNL A   1      48.137  28.353  27.135  1.00  0.00     0.000 A 
ENDBRANCH  66  79
ENDBRANCH  40  41
ENDBRANCH  32  35
ENDBRANCH  30  31
ENDBRANCH  29  30
ENDBRANCH  28  29
ENDBRANCH   1  28
TORSDOF 16
ENDMDL
MODEL 2
REMARK VINA RESULT:     -11.1      3.697      8.701
REMARK SMILES COc1ccccc1-n1nnc(C(=O)NCCCCCCNC(=O)c2ccc(-c3c4nc(c(-c5ccccc5)c5ccc([nH]5)c(-c5ccccc5)c5nc(c(-c6ccccc6)c6ccc3[nH]6)C=C5)C=C4)cc2)c1-c1ccc(Cl)cc1
REMARK SMILES IDX 18 1 17 2 16 3 15 4 13 5 14 6 12 8 9 9 10 10 73 11 11 12
REMARK SMILES IDX 8 13 3 14 4 15 5 16 7 17 6 18 2 19 1 20 74 21 75 22 80 23
REMARK SMILES IDX 76 24 79 25 77 26 78 27 19 28 20 29 21 30 22 31 23 32 24 34
REMARK SMILES IDX 25 35 26 36 72 37 27 38 71 39 28 40 29 41 30 42 65 43 31 44
REMARK SMILES IDX 70 45 64 46 66 47 32 48 69 49 63 50 62 51 33 53 55 54 40 55
REMARK SMILES IDX 54 56 41 57 44 58 53 59 67 60 42 61 43 62 52 64 68 65 45 66
REMARK SMILES IDX 34 67 35 68 39 69 36 70 38 71 37 72 56 73 57 74 61 75 58 76
REMARK SMILES IDX 60 77 59 78 46 79 47 80 51 81 48 82 50 83 49 84
REMARK H PARENT 15 7 22 33 66 52 44 63
REMARK Flexibility Score: inf
ROOT
ATOM      1  C   UNL A   1      31.536  29.344  25.759  1.00  0.00     0.002 C 
ENDROOT
BRANCH   1   2
ATOM      2  C   UNL A   1      32.904  28.933  26.296  1.00  0.00     0.021 C 
BRANCH   2   3
ATOM      3  C   UNL A   1      33.714  27.908  25.523  1.00  0.00     0.116 C 
BRANCH   3   4
ATOM      4  N   UNL A   1      34.008  28.131  24.139  1.00  0.00    -0.351 N 
ATOM      5  C   UNL A   1      33.663  27.340  23.053  1.00  0.00     0.274 C 
ATOM      6  O   UNL A   1      33.990  27.792  21.950  1.00  0.00    -0.267 OA
ATOM      7  H   UNL A   1      34.518  28.948  23.933  1.00  0.00     0.163 HD
BRANCH   5   8
ATOM      8  C   UNL A   1      32.984  26.028  23.147  1.00  0.00     0.178 A 
ATOM      9  N   UNL A   1      32.167  24.003  23.433  1.00  0.00    -0.208 N 
ATOM     10  N   UNL A   1      31.256  24.702  22.736  1.00  0.00    -0.061 NA
ATOM     11  C   UNL A   1      33.333  24.754  23.603  1.00  0.00     0.108 A 
ATOM     12  N   UNL A   1      31.684  25.951  22.661  1.00  0.00    -0.124 NA
BRANCH   9  13
ATOM     13  C   UNL A   1      31.982  22.638  23.752  1.00  0.00     0.109 A 
ATOM     14  C   UNL A   1      31.935  22.204  25.087  1.00  0.00     0.144 A 
ATOM     15  C   UNL A   1      32.172  20.858  25.371  1.00  0.00     0.049 A 
ATOM     16  C   UNL A   1      32.394  19.944  24.341  1.00  0.00     0.004 A 
ATOM     17  C   UNL A   1      32.126  21.709  22.709  1.00  0.00     0.032 A 
ATOM     18  C   UNL A   1      32.349  20.364  23.012  1.00  0.00     0.003 A 
BRANCH  14  19
ATOM     19  O   UNL A   1      31.764  22.999  26.189  1.00  0.00    -0.494 OA
ATOM     20  C   UNL A   1      30.429  23.061  26.692  1.00  0.00     0.278 C 
ENDBRANCH  14  19
ENDBRANCH   9  13
BRANCH  11  21
ATOM     21  C   UNL A   1      34.565  24.096  24.033  1.00  0.00     0.003 A 
ATOM     22  C   UNL A   1      35.322  23.301  23.168  1.00  0.00     0.012 A 
ATOM     23  C   UNL A   1      35.012  24.299  25.354  1.00  0.00     0.012 A 
ATOM     24  C   UNL A   1      36.506  22.714  23.620  1.00  0.00     0.021 A 
ATOM     25  C   UNL A   1      36.179  23.693  25.811  1.00  0.00     0.021 A 
ATOM     26  C   UNL A   1      36.923  22.904  24.939  1.00  0.00     0.041 A 
ATOM     27  Cl  UNL A   1      38.356  22.145  25.506  1.00  0.00    -0.084 Cl
ENDBRANCH  11  21
ENDBRANCH   5   8
ENDBRANCH   3   4
ENDBRANCH   2   3
ENDBRANCH   1   2
BRANCH   1  28
ATOM     28  C   UNL A   1      31.289  30.805  25.352  1.00  0.00     0.002 C 
BRANCH  28  29
ATOM     29  C   UNL A   1      31.068  31.873  26.432  1.00  0.00     0.021 C 
BRANCH  29  30
ATOM     30  C   UNL A   1      32.304  32.410  27.132  1.00  0.00     0.116 C 
BRANCH  30  31
ATOM     31  N   UNL A   1      32.230  33.823  27.486  1.00  0.00    -0.352 N 
ATOM     32  C   UNL A   1      32.982  34.499  28.435  1.00  0.00     0.251 C 
ATOM     33  H   UNL A   1      31.569  34.361  26.992  1.00  0.00     0.163 HD
ATOM     34  O   UNL A   1      32.587  35.550  28.917  1.00  0.00    -0.269 OA
BRANCH  32  35
ATOM     35  C   UNL A   1      34.284  33.937  28.854  1.00  0.00     0.039 A 
ATOM     36  C   UNL A   1      34.462  33.348  30.111  1.00  0.00     0.014 A 
ATOM     37  C   UNL A   1      35.352  34.033  27.968  1.00  0.00     0.014 A 
ATOM     38  C   UNL A   1      35.708  32.807  30.437  1.00  0.00     0.010 A 
ATOM     39  C   UNL A   1      36.516  33.356  28.216  1.00  0.00     0.010 A 
ATOM     40  C   UNL A   1      36.728  32.811  29.477  1.00  0.00    -0.014 A 
BRANCH  40  41
ATOM     41  C   UNL A   1      38.027  32.201  29.728  1.00  0.00     0.031 A 
ATOM     42  C   UNL A   1      38.140  30.762  29.382  1.00  0.00     0.074 A 
ATOM     43  C   UNL A   1      39.121  32.942  30.009  1.00  0.00     0.049 A 
ATOM     44  N   UNL A   1      38.409  29.790  30.185  1.00  0.00    -0.248 NA
ATOM     45  C   UNL A   1      37.835  30.336  28.007  1.00  0.00     0.031 C 
ATOM     46  C   UNL A   1      39.224  34.406  30.097  1.00  0.00     0.029 A 
ATOM     47  N   UNL A   1      40.418  32.546  30.127  1.00  0.00    -0.354 N 
ATOM     48  C   UNL A   1      38.488  28.646  29.400  1.00  0.00     0.074 A 
ATOM     49  C   UNL A   1      37.978  29.012  28.101  1.00  0.00     0.031 C 
ATOM     50  C   UNL A   1      40.520  34.773  29.990  1.00  0.00     0.029 A 
ATOM     51  C   UNL A   1      41.341  33.577  29.997  1.00  0.00     0.049 A 
ATOM     52  H   UNL A   1      40.678  31.611  30.289  1.00  0.00     0.167 HD
ATOM     53  C   UNL A   1      39.182  27.549  29.814  1.00  0.00     0.031 A 
ATOM     54  C   UNL A   1      42.685  33.457  29.871  1.00  0.00     0.031 A 
ATOM     55  C   UNL A   1      39.516  27.628  31.214  1.00  0.00     0.049 A 
ATOM     56  C   UNL A   1      43.058  32.119  30.384  1.00  0.00     0.074 A 
ATOM     57  C   UNL A   1      38.789  27.748  32.383  1.00  0.00     0.029 A 
ATOM     58  N   UNL A   1      40.802  27.998  31.532  1.00  0.00    -0.354 N 
ATOM     59  N   UNL A   1      42.971  31.794  31.641  1.00  0.00    -0.248 NA
ATOM     60  C   UNL A   1      43.097  31.002  29.455  1.00  0.00     0.031 C 
ATOM     61  C   UNL A   1      39.547  28.644  33.193  1.00  0.00     0.029 A 
ATOM     62  C   UNL A   1      40.723  28.955  32.510  1.00  0.00     0.049 A 
ATOM     63  H   UNL A   1      41.628  27.640  31.131  1.00  0.00     0.167 HD
ATOM     64  C   UNL A   1      42.464  30.504  31.631  1.00  0.00     0.074 A 
ATOM     65  C   UNL A   1      42.686  30.023  30.267  1.00  0.00     0.031 C 
ATOM     66  C   UNL A   1      41.647  30.061  32.633  1.00  0.00     0.031 A 
BRANCH  53  67
ATOM     67  C   UNL A   1      39.905  26.607  28.887  1.00  0.00    -0.014 A 
ATOM     68  C   UNL A   1      41.144  27.006  28.351  1.00  0.00     0.009 A 
ATOM     69  C   UNL A   1      39.292  25.486  28.299  1.00  0.00     0.009 A 
ATOM     70  C   UNL A   1      41.696  26.365  27.237  1.00  0.00     0.001 A 
ATOM     71  C   UNL A   1      39.863  24.817  27.213  1.00  0.00     0.001 A 
ATOM     72  C   UNL A   1      41.051  25.276  26.662  1.00  0.00     0.000 A 
ENDBRANCH  53  67
BRANCH  54  73
ATOM     73  C   UNL A   1      43.641  34.334  29.163  1.00  0.00    -0.014 A 
ATOM     74  C   UNL A   1      43.555  34.517  27.774  1.00  0.00     0.009 A 
ATOM     75  C   UNL A   1      44.478  35.204  29.885  1.00  0.00     0.009 A 
ATOM     76  C   UNL A   1      44.243  35.561  27.140  1.00  0.00     0.001 A 
ATOM     77  C   UNL A   1      45.169  36.243  29.252  1.00  0.00     0.001 A 
ATOM     78  C   UNL A   1      45.037  36.433  27.882  1.00  0.00     0.000 A 
ENDBRANCH  54  73
BRANCH  66  79
ATOM     79  C   UNL A   1      41.492  30.941  33.854  1.00  0.00    -0.014 A 
ATOM     80  C   UNL A   1      40.655  32.072  33.885  1.00  0.00     0.009 A 
ATOM     81  C   UNL A   1      42.102  30.542  35.050  1.00  0.00     0.009 A 
ATOM     82  C   UNL A   1      40.473  32.805  35.062  1.00  0.00     0.001 A 
ATOM     83  C   UNL A   1      41.901  31.259  36.233  1.00  0.00     0.001 A 
ATOM     84  C   UNL A   1      41.096  32.395  36.236  1.00  0.00     0.000 A 
ENDBRANCH  66  79
ENDBRANCH  40  41
ENDBRANCH  32  35
ENDBRANCH  30  31
ENDBRANCH  29  30
ENDBRANCH  28  29
ENDBRANCH   1  28
TORSDOF 16
ENDMDL
MODEL 3
REMARK VINA RESULT:     -11.0      3.945      8.797
REMARK SMILES COc1ccccc1-n1nnc(C(=O)NCCCCCCNC(=O)c2ccc(-c3c4nc(c(-c5ccccc5)c5ccc([nH]5)c(-c5ccccc5)c5nc(c(-c6ccccc6)c6ccc3[nH]6)C=C5)C=C4)cc2)c1-c1ccc(Cl)cc1
REMARK SMILES IDX 18 1 17 2 16 3 15 4 13 5 14 6 12 8 9 9 10 10 73 11 11 12
REMARK SMILES IDX 8 13 3 14 4 15 5 16 7 17 6 18 2 19 1 20 74 21 75 22 80 23
REMARK SMILES IDX 76 24 79 25 77 26 78 27 19 28 20 29 21 30 22 31 23 32 24 34
REMARK SMILES IDX 25 35 26 36 72 37 27 38 71 39 28 40 29 41 30 42 65 43 31 44
REMARK SMILES IDX 70 45 64 46 66 47 32 48 69 49 63 50 62 51 33 53 55 54 40 55
REMARK SMILES IDX 54 56 41 57 44 58 53 59 67 60 42 61 43 62 52 64 68 65 45 66
REMARK SMILES IDX 34 67 35 68 39 69 36 70 38 71 37 72 56 73 57 74 61 75 58 76
REMARK SMILES IDX 60 77 59 78 46 79 47 80 51 81 48 82 50 83 49 84
REMARK H PARENT 15 7 22 33 66 52 44 63
REMARK Flexibility Score: inf
ROOT
ATOM      1  C   UNL A   1      30.200  30.218  24.061  1.00  0.00     0.002 C 
ENDROOT
BRANCH   1   2
ATOM      2  C   UNL A   1      30.845  29.526  22.865  1.00  0.00     0.021 C 
BRANCH   2   3
ATOM      3  C   UNL A   1      30.230  28.238  22.349  1.00  0.00     0.116 C 
BRANCH   3   4
ATOM      4  N   UNL A   1      29.139  27.636  23.058  1.00  0.00    -0.351 N 
ATOM      5  C   UNL A   1      29.146  26.469  23.807  1.00  0.00     0.274 C 
ATOM      6  O   UNL A   1      28.078  26.201  24.369  1.00  0.00    -0.267 OA
ATOM      7  H   UNL A   1      28.278  28.110  23.006  1.00  0.00     0.163 HD
BRANCH   5   8
ATOM      8  C   UNL A   1      30.304  25.556  23.936  1.00  0.00     0.178 A 
ATOM      9  N   UNL A   1      32.112  24.355  24.308  1.00  0.00    -0.208 N 
ATOM     10  N   UNL A   1      31.370  23.685  23.411  1.00  0.00    -0.061 NA
ATOM     11  C   UNL A   1      31.548  25.606  24.571  1.00  0.00     0.108 A 
ATOM     12  N   UNL A   1      30.230  24.339  23.270  1.00  0.00    -0.124 NA
BRANCH   9  13
ATOM     13  C   UNL A   1      33.375  23.886  24.738  1.00  0.00     0.109 A 
ATOM     14  C   UNL A   1      33.587  23.490  26.068  1.00  0.00     0.144 A 
ATOM     15  C   UNL A   1      34.893  23.437  26.560  1.00  0.00     0.049 A 
ATOM     16  C   UNL A   1      35.977  23.717  25.726  1.00  0.00     0.004 A 
ATOM     17  C   UNL A   1      34.464  24.090  23.875  1.00  0.00     0.032 A 
ATOM     18  C   UNL A   1      35.764  24.020  24.381  1.00  0.00     0.003 A 
BRANCH  14  19
ATOM     19  O   UNL A   1      32.617  23.225  26.997  1.00  0.00    -0.494 OA
ATOM     20  C   UNL A   1      32.989  22.299  28.018  1.00  0.00     0.278 C 
ENDBRANCH  14  19
ENDBRANCH   9  13
BRANCH  11  21
ATOM     21  C   UNL A   1      32.338  26.632  25.250  1.00  0.00     0.003 A 
ATOM     22  C   UNL A   1      33.355  27.335  24.599  1.00  0.00     0.012 A 
ATOM     23  C   UNL A   1      32.038  26.935  26.592  1.00  0.00     0.012 A 
ATOM     24  C   UNL A   1      34.065  28.324  25.284  1.00  0.00     0.021 A 
ATOM     25  C   UNL A   1      32.763  27.903  27.282  1.00  0.00     0.021 A 
ATOM     26  C   UNL A   1      33.773  28.596  26.622  1.00  0.00     0.041 A 
ATOM     27  Cl  UNL A   1      34.677  29.782  27.476  1.00  0.00    -0.084 Cl
ENDBRANCH  11  21
ENDBRANCH   5   8
ENDBRANCH   3   4
ENDBRANCH   2   3
ENDBRANCH   1   2
BRANCH   1  28
ATOM     28  C   UNL A   1      31.045  30.519  25.309  1.00  0.00     0.002 C 
BRANCH  28  29
ATOM     29  C   UNL A   1      30.951  31.894  25.984  1.00  0.00     0.021 C 
BRANCH  29  30
ATOM     30  C   UNL A   1      32.056  32.259  26.960  1.00  0.00     0.116 C 
BRANCH  30  31
ATOM     31  N   UNL A   1      32.025  33.645  27.415  1.00  0.00    -0.352 N 
ATOM     32  C   UNL A   1      32.879  34.259  28.319  1.00  0.00     0.251 C 
ATOM     33  H   UNL A   1      31.314  34.211  27.036  1.00  0.00     0.163 HD
ATOM     34  O   UNL A   1      32.543  35.272  28.912  1.00  0.00    -0.269 OA
BRANCH  32  35
ATOM     35  C   UNL A   1      34.219  33.677  28.550  1.00  0.00     0.039 A 
ATOM     36  C   UNL A   1      35.279  33.891  27.661  1.00  0.00     0.014 A 
ATOM     37  C   UNL A   1      34.398  32.875  29.673  1.00  0.00     0.014 A 
ATOM     38  C   UNL A   1      36.529  33.340  27.950  1.00  0.00     0.010 A 
ATOM     39  C   UNL A   1      35.655  32.481  30.044  1.00  0.00     0.010 A 
ATOM     40  C   UNL A   1      36.708  32.641  29.150  1.00  0.00    -0.014 A 
BRANCH  40  41
ATOM     41  C   UNL A   1      38.003  32.102  29.544  1.00  0.00     0.031 A 
ATOM     42  C   UNL A   1      38.224  30.668  29.231  1.00  0.00     0.074 A 
ATOM     43  C   UNL A   1      39.022  32.901  29.929  1.00  0.00     0.049 A 
ATOM     44  N   UNL A   1      38.457  29.717  30.071  1.00  0.00    -0.248 NA
ATOM     45  C   UNL A   1      38.088  30.215  27.838  1.00  0.00     0.031 C 
ATOM     46  C   UNL A   1      39.041  34.369  30.007  1.00  0.00     0.029 A 
ATOM     47  N   UNL A   1      40.318  32.574  30.187  1.00  0.00    -0.354 N 
ATOM     48  C   UNL A   1      38.676  28.573  29.315  1.00  0.00     0.074 A 
ATOM     49  C   UNL A   1      38.287  28.902  27.965  1.00  0.00     0.031 C 
ATOM     50  C   UNL A   1      40.320  34.802  30.031  1.00  0.00     0.029 A 
ATOM     51  C   UNL A   1      41.196  33.650  30.141  1.00  0.00     0.049 A 
ATOM     52  H   UNL A   1      40.607  31.655  30.388  1.00  0.00     0.167 HD
ATOM     53  C   UNL A   1      39.377  27.517  29.815  1.00  0.00     0.031 A 
ATOM     54  C   UNL A   1      42.550  33.599  30.158  1.00  0.00     0.031 A 
ATOM     55  C   UNL A   1      39.557  27.624  31.241  1.00  0.00     0.049 A 
ATOM     56  C   UNL A   1      42.935  32.287  30.725  1.00  0.00     0.074 A 
ATOM     57  C   UNL A   1      38.706  27.717  32.325  1.00  0.00     0.029 A 
ATOM     58  N   UNL A   1      40.783  28.063  31.686  1.00  0.00    -0.354 N 
ATOM     59  N   UNL A   1      42.732  31.968  31.971  1.00  0.00    -0.248 NA
ATOM     60  C   UNL A   1      43.127  31.165  29.820  1.00  0.00     0.031 C 
ATOM     61  C   UNL A   1      39.328  28.657  33.198  1.00  0.00     0.029 A 
ATOM     62  C   UNL A   1      40.552  29.023  32.638  1.00  0.00     0.049 A 
ATOM     63  H   UNL A   1      41.662  27.746  31.379  1.00  0.00     0.167 HD
ATOM     64  C   UNL A   1      42.295  30.653  31.925  1.00  0.00     0.074 A 
ATOM     65  C   UNL A   1      42.683  30.173  30.598  1.00  0.00     0.031 C 
ATOM     66  C   UNL A   1      41.400  30.176  32.842  1.00  0.00     0.031 A 
BRANCH  53  67
ATOM     67  C   UNL A   1      40.240  26.607  28.981  1.00  0.00    -0.014 A 
ATOM     68  C   UNL A   1      39.659  25.455  28.417  1.00  0.00     0.009 A 
ATOM     69  C   UNL A   1      41.645  26.679  28.967  1.00  0.00     0.009 A 
ATOM     70  C   UNL A   1      40.446  24.401  27.940  1.00  0.00     0.001 A 
ATOM     71  C   UNL A   1      42.433  25.646  28.453  1.00  0.00     0.001 A 
ATOM     72  C   UNL A   1      41.833  24.493  27.967  1.00  0.00     0.000 A 
ENDBRANCH  53  67
BRANCH  54  73
ATOM     73  C   UNL A   1      43.529  34.519  29.542  1.00  0.00    -0.014 A 
ATOM     74  C   UNL A   1      43.887  34.387  28.191  1.00  0.00     0.009 A 
ATOM     75  C   UNL A   1      43.919  35.695  30.208  1.00  0.00     0.009 A 
ATOM     76  C   UNL A   1      44.565  35.415  27.522  1.00  0.00     0.001 A 
ATOM     77  C   UNL A   1      44.600  36.719  29.542  1.00  0.00     0.001 A 
ATOM     78  C   UNL A   1      44.907  36.587  28.193  1.00  0.00     0.000 A 
ENDBRANCH  54  73
BRANCH  66  79
ATOM     79  C   UNL A   1      41.073  31.057  34.027  1.00  0.00    -0.014 A 
ATOM     80  C   UNL A   1      40.092  32.066  33.988  1.00  0.00     0.009 A 
ATOM     81  C   UNL A   1      41.675  30.773  35.260  1.00  0.00     0.009 A 
ATOM     82  C   UNL A   1      39.760  32.796  35.134  1.00  0.00     0.001 A 
ATOM     83  C   UNL A   1      41.327  31.485  36.411  1.00  0.00     0.001 A 
ATOM     84  C   UNL A   1      40.378  32.502  36.345  1.00  0.00     0.000 A 
ENDBRANCH  66  79
ENDBRANCH  40  41
ENDBRANCH  32  35
ENDBRANCH  30  31
ENDBRANCH  29  30
ENDBRANCH  28  29
ENDBRANCH   1  28
TORSDOF 16
ENDMDL
