MODEL 1
REMARK VINA RESULT:      -9.4      0.000      0.000
REMARK SMILES CC(C)SSC(=O)N1CCC[C@@H]1C(=O)NCCCCCCNC(=O)c1ccc(-c2c3nc(c(-c4ccccc4)c4ccc([nH]4)c(-c4ccccc4)c4nc(c(-c5ccccc5)c5ccc2[nH]5)C=C4)C=C3)cc1
REMARK SMILES IDX 17 1 16 2 15 3 13 4 14 5 12 7 8 8 9 9 10 10 11 11 6 12 7 13
REMARK SMILES IDX 5 14 4 15 2 16 1 17 3 18 18 19 19 20 20 21 21 22 22 23 23 24
REMARK SMILES IDX 24 26 25 27 26 28 72 29 27 30 71 31 28 32 29 33 30 34 65 35
REMARK SMILES IDX 31 36 70 37 64 38 66 39 32 40 69 41 63 42 62 43 33 45 55 46
REMARK SMILES IDX 40 47 54 48 41 49 44 50 53 51 67 52 42 53 43 54 52 56 68 57
REMARK SMILES IDX 45 58 34 59 35 60 39 61 36 62 38 63 37 64 56 65 57 66 61 67
REMARK SMILES IDX 58 68 60 69 59 70 46 71 47 72 51 73 48 74 50 75 49 76
REMARK H PARENT 15 6 22 25 66 44 44 55
REMARK Flexibility Score: inf
ROOT
ATOM      1  C   UNL A   1      33.786  29.717  27.175  1.00  0.00     0.021 C 
ENDROOT
BRANCH   1   2
ATOM      2  C   UNL A   1      34.307  28.615  26.258  1.00  0.00     0.116 C 
BRANCH   2   3
ATOM      3  N   UNL A   1      34.076  28.965  24.876  1.00  0.00    -0.354 N 
ATOM      4  C   UNL A   1      33.300  28.355  23.938  1.00  0.00     0.242 C 
ATOM      5  O   UNL A   1      33.537  28.620  22.754  1.00  0.00    -0.273 OA
ATOM      6  H   UNL A   1      34.552  29.768  24.566  1.00  0.00     0.163 HD
BRANCH   4   7
ATOM      7  C   UNL A   1      32.294  27.245  24.307  1.00  0.00     0.175 C 
ATOM      8  N   UNL A   1      32.288  26.074  23.432  1.00  0.00    -0.321 N 
ATOM      9  C   UNL A   1      30.932  25.666  23.109  1.00  0.00     0.121 C 
ATOM     10  C   UNL A   1      30.098  26.928  23.272  1.00  0.00     0.024 C 
ATOM     11  C   UNL A   1      30.852  27.773  24.296  1.00  0.00     0.037 C 
BRANCH   8  12
ATOM     12  C   UNL A   1      33.463  25.364  23.254  1.00  0.00     0.292 C 
ATOM     13  O   UNL A   1      33.968  25.206  22.144  1.00  0.00    -0.261 OA
BRANCH  12  14
ATOM     14  S   UNL A   1      34.178  24.651  24.707  1.00  0.00     0.005 SA
BRANCH  14  15
ATOM     15  S   UNL A   1      34.415  22.659  24.197  1.00  0.00    -0.081 SA
BRANCH  15  16
ATOM     16  C   UNL A   1      32.728  21.920  24.116  1.00  0.00     0.052 C 
ATOM     17  C   UNL A   1      31.786  22.577  25.121  1.00  0.00     0.020 C 
ATOM     18  C   UNL A   1      32.130  21.897  22.715  1.00  0.00     0.020 C 
ENDBRANCH  15  16
ENDBRANCH  14  15
ENDBRANCH  12  14
ENDBRANCH   8  12
ENDBRANCH   4   7
ENDBRANCH   2   3
ENDBRANCH   1   2
BRANCH   1  19
ATOM     19  C   UNL A   1      32.259  29.739  27.277  1.00  0.00     0.002 C 
BRANCH  19  20
ATOM     20  C   UNL A   1      31.580  30.747  26.343  1.00  0.00     0.002 C 
BRANCH  20  21
ATOM     21  C   UNL A   1      31.382  32.140  26.944  1.00  0.00     0.021 C 
BRANCH  21  22
ATOM     22  C   UNL A   1      32.640  32.999  26.937  1.00  0.00     0.116 C 
BRANCH  22  23
ATOM     23  N   UNL A   1      32.469  34.199  27.740  1.00  0.00    -0.352 N 
ATOM     24  C   UNL A   1      33.160  34.604  28.850  1.00  0.00     0.251 C 
ATOM     25  H   UNL A   1      31.753  34.806  27.443  1.00  0.00     0.163 HD
ATOM     26  O   UNL A   1      32.730  35.518  29.546  1.00  0.00    -0.269 OA
BRANCH  24  27
ATOM     27  C   UNL A   1      34.429  33.938  29.207  1.00  0.00     0.039 A 
ATOM     28  C   UNL A   1      34.450  33.072  30.303  1.00  0.00     0.014 A 
ATOM     29  C   UNL A   1      35.600  34.195  28.489  1.00  0.00     0.014 A 
ATOM     30  C   UNL A   1      35.645  32.453  30.668  1.00  0.00     0.010 A 
ATOM     31  C   UNL A   1      36.767  33.508  28.797  1.00  0.00     0.010 A 
ATOM     32  C   UNL A   1      36.810  32.658  29.911  1.00  0.00    -0.014 A 
BRANCH  32  33
ATOM     33  C   UNL A   1      38.095  32.034  30.308  1.00  0.00     0.031 A 
ATOM     34  C   UNL A   1      38.974  32.707  31.328  1.00  0.00     0.074 A 
ATOM     35  C   UNL A   1      38.489  30.886  29.729  1.00  0.00     0.049 A 
ATOM     36  N   UNL A   1      40.134  32.325  31.800  1.00  0.00    -0.248 NA
ATOM     37  C   UNL A   1      38.504  33.996  31.864  1.00  0.00     0.031 C 
ATOM     38  C   UNL A   1      37.749  30.161  28.695  1.00  0.00     0.029 A 
ATOM     39  N   UNL A   1      39.613  30.127  29.930  1.00  0.00    -0.354 N 
ATOM     40  C   UNL A   1      40.537  33.334  32.669  1.00  0.00     0.074 A 
ATOM     41  C   UNL A   1      39.532  34.371  32.608  1.00  0.00     0.031 C 
ATOM     42  C   UNL A   1      38.421  29.043  28.378  1.00  0.00     0.029 A 
ATOM     43  C   UNL A   1      39.654  28.991  29.158  1.00  0.00     0.049 A 
ATOM     44  H   UNL A   1      40.323  30.371  30.567  1.00  0.00     0.167 HD
ATOM     45  C   UNL A   1      41.632  33.382  33.464  1.00  0.00     0.031 A 
ATOM     46  C   UNL A   1      40.580  28.018  29.088  1.00  0.00     0.031 A 
ATOM     47  C   UNL A   1      42.624  32.344  33.528  1.00  0.00     0.049 A 
ATOM     48  C   UNL A   1      41.785  28.087  29.984  1.00  0.00     0.074 A 
ATOM     49  C   UNL A   1      43.740  32.266  34.344  1.00  0.00     0.029 A 
ATOM     50  N   UNL A   1      42.623  31.204  32.740  1.00  0.00    -0.354 N 
ATOM     51  N   UNL A   1      42.114  29.008  30.857  1.00  0.00    -0.248 NA
ATOM     52  C   UNL A   1      42.733  26.969  29.901  1.00  0.00     0.031 C 
ATOM     53  C   UNL A   1      44.446  31.106  34.005  1.00  0.00     0.029 A 
ATOM     54  C   UNL A   1      43.733  30.427  33.029  1.00  0.00     0.049 A 
ATOM     55  H   UNL A   1      41.936  30.979  32.071  1.00  0.00     0.167 HD
ATOM     56  C   UNL A   1      43.290  28.566  31.451  1.00  0.00     0.074 A 
ATOM     57  C   UNL A   1      43.605  27.286  30.848  1.00  0.00     0.031 C 
ATOM     58  C   UNL A   1      44.037  29.160  32.414  1.00  0.00     0.031 A 
BRANCH  45  59
ATOM     59  C   UNL A   1      41.813  34.616  34.310  1.00  0.00    -0.014 A 
ATOM     60  C   UNL A   1      42.494  35.746  33.827  1.00  0.00     0.009 A 
ATOM     61  C   UNL A   1      41.291  34.648  35.612  1.00  0.00     0.009 A 
ATOM     62  C   UNL A   1      42.698  36.857  34.647  1.00  0.00     0.001 A 
ATOM     63  C   UNL A   1      41.464  35.775  36.419  1.00  0.00     0.001 A 
ATOM     64  C   UNL A   1      42.179  36.872  35.942  1.00  0.00     0.000 A 
ENDBRANCH  45  59
BRANCH  46  65
ATOM     65  C   UNL A   1      40.382  26.876  28.157  1.00  0.00    -0.014 A 
ATOM     66  C   UNL A   1      39.652  25.747  28.556  1.00  0.00     0.009 A 
ATOM     67  C   UNL A   1      40.908  26.920  26.856  1.00  0.00     0.009 A 
ATOM     68  C   UNL A   1      39.475  24.673  27.679  1.00  0.00     0.001 A 
ATOM     69  C   UNL A   1      40.703  25.859  25.972  1.00  0.00     0.001 A 
ATOM     70  C   UNL A   1      39.994  24.733  26.387  1.00  0.00     0.000 A 
ENDBRANCH  46  65
BRANCH  58  71
ATOM     71  C   UNL A   1      45.245  28.410  32.907  1.00  0.00    -0.014 A 
ATOM     72  C   UNL A   1      45.161  27.493  33.967  1.00  0.00     0.009 A 
ATOM     73  C   UNL A   1      46.483  28.609  32.277  1.00  0.00     0.009 A 
ATOM     74  C   UNL A   1      46.304  26.826  34.414  1.00  0.00     0.001 A 
ATOM     75  C   UNL A   1      47.617  27.913  32.702  1.00  0.00     0.001 A 
ATOM     76  C   UNL A   1      47.529  27.033  33.779  1.00  0.00     0.000 A 
ENDBRANCH  58  71
ENDBRANCH  32  33
ENDBRANCH  24  27
ENDBRANCH  22  23
ENDBRANCH  21  22
ENDBRANCH  20  21
ENDBRANCH  19  20
ENDBRANCH   1  19
TORSDOF 17
ENDMDL
MODEL 2
REMARK VINA RESULT:      -9.3      0.492      6.072
REMARK SMILES CC(C)SSC(=O)N1CCC[C@@H]1C(=O)NCCCCCCNC(=O)c1ccc(-c2c3nc(c(-c4ccccc4)c4ccc([nH]4)c(-c4ccccc4)c4nc(c(-c5ccccc5)c5ccc2[nH]5)C=C4)C=C3)cc1
REMARK SMILES IDX 17 1 16 2 15 3 13 4 14 5 12 7 8 8 9 9 10 10 11 11 6 12 7 13
REMARK SMILES IDX 5 14 4 15 2 16 1 17 3 18 18 19 19 20 20 21 21 22 22 23 23 24
REMARK SMILES IDX 24 26 25 27 26 28 72 29 27 30 71 31 28 32 29 33 30 34 65 35
REMARK SMILES IDX 31 36 70 37 64 38 66 39 32 40 69 41 63 42 62 43 33 45 55 46
REMARK SMILES IDX 40 47 54 48 41 49 44 50 53 51 67 52 42 53 43 54 52 56 68 57
REMARK SMILES IDX 45 58 34 59 35 60 39 61 36 62 38 63 37 64 56 65 57 66 61 67
REMARK SMILES IDX 58 68 60 69 59 70 46 71 47 72 51 73 48 74 50 75 49 76
REMARK H PARENT 15 6 22 25 66 44 44 55
REMARK Flexibility Score: inf
ROOT
ATOM      1  C   UNL A   1      33.646  29.433  27.287  1.00  0.00     0.021 C 
ENDROOT
BRANCH   1   2
ATOM      2  C   UNL A   1      34.260  28.336  26.422  1.00  0.00     0.116 C 
BRANCH   2   3
ATOM      3  N   UNL A   1      34.352  28.776  25.050  1.00  0.00    -0.354 N 
ATOM      4  C   UNL A   1      33.684  28.343  23.945  1.00  0.00     0.242 C 
ATOM      5  O   UNL A   1      34.179  28.613  22.846  1.00  0.00    -0.273 OA
ATOM      6  H   UNL A   1      34.999  29.501  24.888  1.00  0.00     0.163 HD
BRANCH   4   7
ATOM      7  C   UNL A   1      32.465  27.402  24.047  1.00  0.00     0.175 C 
ATOM      8  N   UNL A   1      32.539  26.175  23.256  1.00  0.00    -0.321 N 
ATOM      9  C   UNL A   1      31.288  25.918  22.565  1.00  0.00     0.121 C 
ATOM     10  C   UNL A   1      30.632  27.283  22.427  1.00  0.00     0.024 C 
ATOM     11  C   UNL A   1      31.177  28.105  23.593  1.00  0.00     0.037 C 
BRANCH   8  12
ATOM     12  C   UNL A   1      33.602  25.310  23.458  1.00  0.00     0.292 C 
ATOM     13  O   UNL A   1      34.314  24.924  22.533  1.00  0.00    -0.261 OA
BRANCH  12  14
ATOM     14  S   UNL A   1      33.853  24.748  25.117  1.00  0.00     0.005 SA
BRANCH  14  15
ATOM     15  S   UNL A   1      33.943  22.690  24.918  1.00  0.00    -0.081 SA
BRANCH  15  16
ATOM     16  C   UNL A   1      32.273  22.127  24.379  1.00  0.00     0.052 C 
ATOM     17  C   UNL A   1      31.175  23.019  24.953  1.00  0.00     0.020 C 
ATOM     18  C   UNL A   1      32.132  21.963  22.870  1.00  0.00     0.020 C 
ENDBRANCH  15  16
ENDBRANCH  14  15
ENDBRANCH  12  14
ENDBRANCH   8  12
ENDBRANCH   4   7
ENDBRANCH   2   3
ENDBRANCH   1   2
BRANCH   1  19
ATOM     19  C   UNL A   1      32.130  29.554  27.113  1.00  0.00     0.002 C 
BRANCH  19  20
ATOM     20  C   UNL A   1      31.693  30.669  26.156  1.00  0.00     0.002 C 
BRANCH  20  21
ATOM     21  C   UNL A   1      31.491  32.034  26.818  1.00  0.00     0.021 C 
BRANCH  21  22
ATOM     22  C   UNL A   1      32.777  32.830  26.998  1.00  0.00     0.116 C 
BRANCH  22  23
ATOM     23  N   UNL A   1      32.547  34.051  27.750  1.00  0.00    -0.352 N 
ATOM     24  C   UNL A   1      33.197  34.520  28.861  1.00  0.00     0.251 C 
ATOM     25  H   UNL A   1      31.819  34.623  27.414  1.00  0.00     0.163 HD
ATOM     26  O   UNL A   1      32.719  35.444  29.511  1.00  0.00    -0.269 OA
BRANCH  24  27
ATOM     27  C   UNL A   1      34.477  33.910  29.272  1.00  0.00     0.039 A 
ATOM     28  C   UNL A   1      34.477  32.983  30.316  1.00  0.00     0.014 A 
ATOM     29  C   UNL A   1      35.677  34.281  28.658  1.00  0.00     0.014 A 
ATOM     30  C   UNL A   1      35.681  32.415  30.733  1.00  0.00     0.010 A 
ATOM     31  C   UNL A   1      36.862  33.648  29.013  1.00  0.00     0.010 A 
ATOM     32  C   UNL A   1      36.881  32.735  30.077  1.00  0.00    -0.014 A 
BRANCH  32  33
ATOM     33  C   UNL A   1      38.172  32.167  30.532  1.00  0.00     0.031 A 
ATOM     34  C   UNL A   1      38.682  30.884  29.933  1.00  0.00     0.074 A 
ATOM     35  C   UNL A   1      38.869  32.782  31.505  1.00  0.00     0.049 A 
ATOM     36  N   UNL A   1      39.782  30.226  30.201  1.00  0.00    -0.248 NA
ATOM     37  C   UNL A   1      37.828  30.237  28.923  1.00  0.00     0.031 C 
ATOM     38  C   UNL A   1      38.459  34.006  32.197  1.00  0.00     0.029 A 
ATOM     39  N   UNL A   1      40.071  32.460  32.080  1.00  0.00    -0.354 N 
ATOM     40  C   UNL A   1      39.738  29.084  29.410  1.00  0.00     0.074 A 
ATOM     41  C   UNL A   1      38.478  29.105  28.703  1.00  0.00     0.031 C 
ATOM     42  C   UNL A   1      39.411  34.351  33.077  1.00  0.00     0.029 A 
ATOM     43  C   UNL A   1      40.478  33.355  33.039  1.00  0.00     0.049 A 
ATOM     44  H   UNL A   1      40.593  31.663  31.829  1.00  0.00     0.167 HD
ATOM     45  C   UNL A   1      40.674  28.115  29.265  1.00  0.00     0.031 A 
ATOM     46  C   UNL A   1      41.589  33.372  33.799  1.00  0.00     0.031 A 
ATOM     47  C   UNL A   1      41.931  28.101  29.963  1.00  0.00     0.049 A 
ATOM     48  C   UNL A   1      42.617  32.291  33.618  1.00  0.00     0.074 A 
ATOM     49  C   UNL A   1      42.974  27.200  29.844  1.00  0.00     0.029 A 
ATOM     50  N   UNL A   1      42.312  29.033  30.917  1.00  0.00    -0.354 N 
ATOM     51  N   UNL A   1      42.599  31.259  32.810  1.00  0.00    -0.248 NA
ATOM     52  C   UNL A   1      43.831  32.394  34.439  1.00  0.00     0.031 C 
ATOM     53  C   UNL A   1      43.961  27.553  30.772  1.00  0.00     0.029 A 
ATOM     54  C   UNL A   1      43.564  28.714  31.416  1.00  0.00     0.049 A 
ATOM     55  H   UNL A   1      41.771  29.807  31.199  1.00  0.00     0.167 HD
ATOM     56  C   UNL A   1      43.811  30.606  33.001  1.00  0.00     0.074 A 
ATOM     57  C   UNL A   1      44.544  31.371  33.989  1.00  0.00     0.031 C 
ATOM     58  C   UNL A   1      44.277  29.481  32.406  1.00  0.00     0.031 A 
BRANCH  45  59
ATOM     59  C   UNL A   1      40.350  26.981  28.327  1.00  0.00    -0.014 A 
ATOM     60  C   UNL A   1      40.850  26.948  27.014  1.00  0.00     0.009 A 
ATOM     61  C   UNL A   1      39.534  25.927  28.766  1.00  0.00     0.009 A 
ATOM     62  C   UNL A   1      40.492  25.916  26.145  1.00  0.00     0.001 A 
ATOM     63  C   UNL A   1      39.208  24.876  27.906  1.00  0.00     0.001 A 
ATOM     64  C   UNL A   1      39.675  24.879  26.592  1.00  0.00     0.000 A 
ENDBRANCH  45  59
BRANCH  46  65
ATOM     65  C   UNL A   1      41.795  34.473  34.777  1.00  0.00    -0.014 A 
ATOM     66  C   UNL A   1      42.404  35.674  34.382  1.00  0.00     0.009 A 
ATOM     67  C   UNL A   1      41.370  34.333  36.107  1.00  0.00     0.009 A 
ATOM     68  C   UNL A   1      42.603  36.702  35.306  1.00  0.00     0.001 A 
ATOM     69  C   UNL A   1      41.542  35.374  37.020  1.00  0.00     0.001 A 
ATOM     70  C   UNL A   1      42.167  36.554  36.621  1.00  0.00     0.000 A 
ENDBRANCH  46  65
BRANCH  58  71
ATOM     71  C   UNL A   1      45.666  29.034  32.775  1.00  0.00    -0.014 A 
ATOM     72  C   UNL A   1      46.797  29.496  32.085  1.00  0.00     0.009 A 
ATOM     73  C   UNL A   1      45.842  28.153  33.854  1.00  0.00     0.009 A 
ATOM     74  C   UNL A   1      48.072  29.048  32.441  1.00  0.00     0.001 A 
ATOM     75  C   UNL A   1      47.119  27.735  34.230  1.00  0.00     0.001 A 
ATOM     76  C   UNL A   1      48.232  28.173  33.514  1.00  0.00     0.000 A 
ENDBRANCH  58  71
ENDBRANCH  32  33
ENDBRANCH  24  27
ENDBRANCH  22  23
ENDBRANCH  21  22
ENDBRANCH  20  21
ENDBRANCH  19  20
ENDBRANCH   1  19
TORSDOF 17
ENDMDL
MODEL 3
REMARK VINA RESULT:      -9.2      2.442      6.860
REMARK SMILES CC(C)SSC(=O)N1CCC[C@@H]1C(=O)NCCCCCCNC(=O)c1ccc(-c2c3nc(c(-c4ccccc4)c4ccc([nH]4)c(-c4ccccc4)c4nc(c(-c5ccccc5)c5ccc2[nH]5)C=C4)C=C3)cc1
REMARK SMILES IDX 17 1 16 2 15 3 13 4 14 5 12 7 8 8 9 9 10 10 11 11 6 12 7 13
REMARK SMILES IDX 5 14 4 15 2 16 1 17 3 18 18 19 19 20 20 21 21 22 22 23 23 24
REMARK SMILES IDX 24 26 25 27 26 28 72 29 27 30 71 31 28 32 29 33 30 34 65 35
REMARK SMILES IDX 31 36 70 37 64 38 66 39 32 40 69 41 63 42 62 43 33 45 55 46
REMARK SMILES IDX 40 47 54 48 41 49 44 50 53 51 67 52 42 53 43 54 52 56 68 57
REMARK SMILES IDX 45 58 34 59 35 60 39 61 36 62 38 63 37 64 56 65 57 66 61 67
REMARK SMILES IDX 58 68 60 69 59 70 46 71 47 72 51 73 48 74 50 75 49 76
REMARK H PARENT 15 6 22 25 66 44 44 55
REMARK Flexibility Score: inf
ROOT
ATOM      1  C   UNL A   1      32.263  28.549  27.550  1.00  0.00     0.021 C 
ENDROOT
BRANCH   1   2
ATOM      2  C   UNL A   1      31.034  27.944  26.877  1.00  0.00     0.116 C 
BRANCH   2   3
ATOM      3  N   UNL A   1      31.232  26.530  26.656  1.00  0.00    -0.354 N 
ATOM      4  C   UNL A   1      31.603  25.865  25.527  1.00  0.00     0.242 C 
ATOM      5  O   UNL A   1      31.361  24.654  25.483  1.00  0.00    -0.273 OA
ATOM      6  H   UNL A   1      31.074  25.960  27.443  1.00  0.00     0.163 HD
BRANCH   4   7
ATOM      7  C   UNL A   1      32.133  26.605  24.282  1.00  0.00     0.175 C 
ATOM      8  N   UNL A   1      31.190  26.744  23.174  1.00  0.00    -0.321 N 
ATOM      9  C   UNL A   1      31.824  26.443  21.902  1.00  0.00     0.121 C 
ATOM     10  C   UNL A   1      32.986  25.528  22.255  1.00  0.00     0.024 C 
ATOM     11  C   UNL A   1      33.359  25.894  23.690  1.00  0.00     0.037 C 
BRANCH   8  12
ATOM     12  C   UNL A   1      29.977  27.373  23.400  1.00  0.00     0.292 C 
ATOM     13  O   UNL A   1      28.926  26.744  23.510  1.00  0.00    -0.261 OA
BRANCH  12  14
ATOM     14  S   UNL A   1      30.010  29.140  23.476  1.00  0.00     0.005 SA
BRANCH  14  15
ATOM     15  S   UNL A   1      28.545  29.705  22.127  1.00  0.00    -0.081 SA
BRANCH  15  16
ATOM     16  C   UNL A   1      28.764  31.510  21.820  1.00  0.00     0.052 C 
ATOM     17  C   UNL A   1      28.028  31.952  20.558  1.00  0.00     0.020 C 
ATOM     18  C   UNL A   1      28.409  32.387  23.015  1.00  0.00     0.020 C 
ENDBRANCH  15  16
ENDBRANCH  14  15
ENDBRANCH  12  14
ENDBRANCH   8  12
ENDBRANCH   4   7
ENDBRANCH   2   3
ENDBRANCH   1   2
BRANCH   1  19
ATOM     19  C   UNL A   1      32.691  29.880  26.929  1.00  0.00     0.002 C 
BRANCH  19  20
ATOM     20  C   UNL A   1      31.543  30.684  26.308  1.00  0.00     0.002 C 
BRANCH  20  21
ATOM     21  C   UNL A   1      31.403  32.112  26.842  1.00  0.00     0.021 C 
BRANCH  21  22
ATOM     22  C   UNL A   1      32.731  32.771  27.195  1.00  0.00     0.116 C 
BRANCH  22  23
ATOM     23  N   UNL A   1      32.544  34.148  27.620  1.00  0.00    -0.352 N 
ATOM     24  C   UNL A   1      33.095  34.807  28.687  1.00  0.00     0.251 C 
ATOM     25  H   UNL A   1      31.935  34.683  27.062  1.00  0.00     0.163 HD
ATOM     26  O   UNL A   1      32.645  35.892  29.041  1.00  0.00    -0.269 OA
BRANCH  24  27
ATOM     27  C   UNL A   1      34.235  34.208  29.409  1.00  0.00     0.039 A 
ATOM     28  C   UNL A   1      35.529  34.449  28.942  1.00  0.00     0.014 A 
ATOM     29  C   UNL A   1      34.027  33.381  30.516  1.00  0.00     0.014 A 
ATOM     30  C   UNL A   1      36.616  33.871  29.599  1.00  0.00     0.010 A 
ATOM     31  C   UNL A   1      35.114  32.882  31.222  1.00  0.00     0.010 A 
ATOM     32  C   UNL A   1      36.417  33.093  30.750  1.00  0.00    -0.014 A 
BRANCH  32  33
ATOM     33  C   UNL A   1      37.560  32.444  31.437  1.00  0.00     0.031 A 
ATOM     34  C   UNL A   1      38.263  31.281  30.791  1.00  0.00     0.074 A 
ATOM     35  C   UNL A   1      37.942  32.874  32.653  1.00  0.00     0.049 A 
ATOM     36  N   UNL A   1      39.275  30.578  31.234  1.00  0.00    -0.248 NA
ATOM     37  C   UNL A   1      37.741  30.826  29.492  1.00  0.00     0.031 C 
ATOM     38  C   UNL A   1      37.312  33.961  33.404  1.00  0.00     0.029 A 
ATOM     39  N   UNL A   1      38.956  32.447  33.471  1.00  0.00    -0.354 N 
ATOM     40  C   UNL A   1      39.493  29.591  30.279  1.00  0.00     0.074 A 
ATOM     41  C   UNL A   1      38.471  29.745  29.269  1.00  0.00     0.031 C 
ATOM     42  C   UNL A   1      37.976  34.140  34.556  1.00  0.00     0.029 A 
ATOM     43  C   UNL A   1      39.053  33.158  34.642  1.00  0.00     0.049 A 
ATOM     44  H   UNL A   1      39.557  31.702  33.241  1.00  0.00     0.167 HD
ATOM     45  C   UNL A   1      40.471  28.654  30.232  1.00  0.00     0.031 A 
ATOM     46  C   UNL A   1      39.914  33.033  35.668  1.00  0.00     0.031 A 
ATOM     47  C   UNL A   1      41.492  28.510  31.234  1.00  0.00     0.049 A 
ATOM     48  C   UNL A   1      40.996  31.993  35.594  1.00  0.00     0.074 A 
ATOM     49  C   UNL A   1      42.564  27.635  31.254  1.00  0.00     0.029 A 
ATOM     50  N   UNL A   1      41.563  29.258  32.400  1.00  0.00    -0.354 N 
ATOM     51  N   UNL A   1      41.238  31.117  34.649  1.00  0.00    -0.248 NA
ATOM     52  C   UNL A   1      41.937  31.941  36.721  1.00  0.00     0.031 C 
ATOM     53  C   UNL A   1      43.248  27.813  32.462  1.00  0.00     0.029 A 
ATOM     54  C   UNL A   1      42.646  28.847  33.160  1.00  0.00     0.049 A 
ATOM     55  H   UNL A   1      40.936  29.975  32.651  1.00  0.00     0.167 HD
ATOM     56  C   UNL A   1      42.379  30.432  35.050  1.00  0.00     0.074 A 
ATOM     57  C   UNL A   1      42.786  31.007  36.316  1.00  0.00     0.031 C 
ATOM     58  C   UNL A   1      43.033  29.424  34.423  1.00  0.00     0.031 A 
BRANCH  45  59
ATOM     59  C   UNL A   1      40.459  27.704  29.063  1.00  0.00    -0.014 A 
ATOM     60  C   UNL A   1      41.216  27.953  27.905  1.00  0.00     0.009 A 
ATOM     61  C   UNL A   1      39.679  26.539  29.123  1.00  0.00     0.009 A 
ATOM     62  C   UNL A   1      41.147  27.087  26.813  1.00  0.00     0.001 A 
ATOM     63  C   UNL A   1      39.641  25.655  28.043  1.00  0.00     0.001 A 
ATOM     64  C   UNL A   1      40.362  25.937  26.883  1.00  0.00     0.000 A 
ENDBRANCH  45  59
BRANCH  46  65
ATOM     65  C   UNL A   1      39.805  33.946  36.837  1.00  0.00    -0.014 A 
ATOM     66  C   UNL A   1      40.467  35.182  36.843  1.00  0.00     0.009 A 
ATOM     67  C   UNL A   1      39.023  33.589  37.947  1.00  0.00     0.009 A 
ATOM     68  C   UNL A   1      40.368  36.032  37.947  1.00  0.00     0.001 A 
ATOM     69  C   UNL A   1      38.900  34.454  39.035  1.00  0.00     0.001 A 
ATOM     70  C   UNL A   1      39.580  35.671  39.039  1.00  0.00     0.000 A 
ENDBRANCH  46  65
BRANCH  58  71
ATOM     71  C   UNL A   1      44.288  28.908  35.076  1.00  0.00    -0.014 A 
ATOM     72  C   UNL A   1      44.252  27.883  36.034  1.00  0.00     0.009 A 
ATOM     73  C   UNL A   1      45.529  29.445  34.702  1.00  0.00     0.009 A 
ATOM     74  C   UNL A   1      45.432  27.439  36.636  1.00  0.00     0.001 A 
ATOM     75  C   UNL A   1      46.710  28.974  35.279  1.00  0.00     0.001 A 
ATOM     76  C   UNL A   1      46.658  27.981  36.255  1.00  0.00     0.000 A 
ENDBRANCH  58  71
ENDBRANCH  32  33
ENDBRANCH  24  27
ENDBRANCH  22  23
ENDBRANCH  21  22
ENDBRANCH  20  21
ENDBRANCH  19  20
ENDBRANCH   1  19
TORSDOF 17
ENDMDL
