MODEL 1
REMARK VINA RESULT:     -10.5      0.000      0.000
REMARK SMILES O=C(Cn1cccc1C(=O)NCCC(=O)NC1CC1)NCCCCCCNC(=O)c1ccc(-c2c3nc(c(-c4ccccc4)c4ccc([nH]4)c(-c4ccccc4)c4nc(c(-c5ccccc5)c5ccc2[nH]5)C=C4)C=C3)cc1
REMARK SMILES IDX 21 1 20 2 1 3 2 4 3 6 4 7 5 8 8 9 6 10 7 11 9 12 10 13 11 14
REMARK SMILES IDX 12 16 13 17 14 18 15 19 16 20 17 22 18 23 19 24 22 25 23 26
REMARK SMILES IDX 24 27 25 28 26 29 27 30 28 31 29 33 30 34 31 35 77 36 32 37
REMARK SMILES IDX 76 38 33 39 34 40 35 41 70 42 36 43 75 44 69 45 71 46 37 47
REMARK SMILES IDX 74 48 68 49 67 50 38 52 60 53 45 54 59 55 46 56 49 57 58 58
REMARK SMILES IDX 72 59 47 60 48 61 57 63 73 64 50 65 39 66 40 67 44 68 41 69
REMARK SMILES IDX 43 70 42 71 61 72 62 73 66 74 63 75 65 76 64 77 51 78 52 79
REMARK SMILES IDX 56 80 53 81 55 82 54 83
REMARK H PARENT 20 5 11 15 16 21 27 32 71 51 49 62
REMARK Flexibility Score: inf
ROOT
ATOM      1  C   UNL A   1      34.440  22.287  26.436  1.00  0.00     0.116 C 
ENDROOT
BRANCH   1   2
ATOM      2  N   UNL A   1      33.542  23.180  25.738  1.00  0.00    -0.355 N 
ATOM      3  O   UNL A   1      31.870  23.644  27.256  1.00  0.00    -0.273 OA
ATOM      4  C   UNL A   1      32.706  24.024  26.443  1.00  0.00     0.239 C 
ATOM      5  H   UNL A   1      33.526  23.185  24.753  1.00  0.00     0.163 HD
BRANCH   4   6
ATOM      6  C   UNL A   1      32.847  25.481  26.112  1.00  0.00     0.222 C 
BRANCH   6   7
ATOM      7  N   UNL A   1      32.054  25.926  24.971  1.00  0.00    -0.334 N 
ATOM      8  C   UNL A   1      31.183  26.994  25.175  1.00  0.00     0.087 A 
ATOM      9  C   UNL A   1      31.926  25.460  23.665  1.00  0.00     0.107 A 
ATOM     10  C   UNL A   1      30.331  27.088  24.113  1.00  0.00     0.020 A 
ATOM     11  C   UNL A   1      30.771  26.124  23.199  1.00  0.00     0.033 A 
BRANCH   9  12
ATOM     12  C   UNL A   1      32.589  24.550  22.726  1.00  0.00     0.267 C 
ATOM     13  O   UNL A   1      33.540  25.005  22.064  1.00  0.00    -0.268 OA
ATOM     14  N   UNL A   1      32.428  23.252  22.360  1.00  0.00    -0.350 N 
ATOM     15  H   UNL A   1      32.991  23.120  21.563  1.00  0.00     0.163 HD
BRANCH  14  16
ATOM     16  C   UNL A   1      31.795  21.971  22.625  1.00  0.00     0.126 C 
BRANCH  16  17
ATOM     17  C   UNL A   1      32.652  20.789  23.093  1.00  0.00     0.121 C 
BRANCH  17  18
ATOM     18  C   UNL A   1      32.505  19.960  24.363  1.00  0.00     0.221 C 
ATOM     19  O   UNL A   1      31.777  20.396  25.269  1.00  0.00    -0.275 OA
ATOM     20  N   UNL A   1      32.955  18.695  24.554  1.00  0.00    -0.353 N 
ATOM     21  H   UNL A   1      32.537  18.243  25.323  1.00  0.00     0.163 HD
BRANCH  20  22
ATOM     22  C   UNL A   1      33.904  17.889  23.875  1.00  0.00     0.082 C 
ATOM     23  C   UNL A   1      34.686  16.876  24.687  1.00  0.00     0.027 C 
ATOM     24  C   UNL A   1      33.742  16.418  23.629  1.00  0.00     0.027 C 
ENDBRANCH  20  22
ENDBRANCH  17  18
ENDBRANCH  16  17
ENDBRANCH  14  16
ENDBRANCH   9  12
ENDBRANCH   6   7
ENDBRANCH   4   6
ENDBRANCH   1   2
BRANCH   1  25
ATOM     25  C   UNL A   1      35.931  22.516  26.216  1.00  0.00     0.021 C 
BRANCH  25  26
ATOM     26  C   UNL A   1      36.462  21.793  24.975  1.00  0.00     0.002 C 
BRANCH  26  27
ATOM     27  C   UNL A   1      36.344  20.258  25.001  1.00  0.00     0.002 C 
BRANCH  27  28
ATOM     28  C   UNL A   1      37.645  19.471  24.773  1.00  0.00     0.021 C 
BRANCH  28  29
ATOM     29  C   UNL A   1      38.865  20.099  25.409  1.00  0.00     0.116 C 
BRANCH  29  30
ATOM     30  N   UNL A   1      39.860  19.096  25.763  1.00  0.00    -0.352 N 
ATOM     31  C   UNL A   1      41.190  19.276  26.018  1.00  0.00     0.251 C 
ATOM     32  H   UNL A   1      39.532  18.170  25.828  1.00  0.00     0.163 HD
ATOM     33  O   UNL A   1      41.973  18.324  25.942  1.00  0.00    -0.269 OA
BRANCH  31  34
ATOM     34  C   UNL A   1      41.683  20.603  26.407  1.00  0.00     0.039 A 
ATOM     35  C   UNL A   1      41.853  20.910  27.761  1.00  0.00     0.014 A 
ATOM     36  C   UNL A   1      41.900  21.568  25.417  1.00  0.00     0.014 A 
ATOM     37  C   UNL A   1      42.267  22.185  28.112  1.00  0.00     0.010 A 
ATOM     38  C   UNL A   1      42.412  22.794  25.747  1.00  0.00     0.010 A 
ATOM     39  C   UNL A   1      42.550  23.107  27.094  1.00  0.00    -0.014 A 
BRANCH  39  40
ATOM     40  C   UNL A   1      43.087  24.427  27.417  1.00  0.00     0.031 A 
ATOM     41  C   UNL A   1      41.921  25.388  27.737  1.00  0.00     0.074 A 
ATOM     42  C   UNL A   1      44.458  24.498  27.359  1.00  0.00     0.049 A 
ATOM     43  N   UNL A   1      41.817  26.659  27.529  1.00  0.00    -0.248 NA
ATOM     44  C   UNL A   1      40.638  24.849  28.288  1.00  0.00     0.031 C 
ATOM     45  C   UNL A   1      45.370  23.344  27.106  1.00  0.00     0.029 A 
ATOM     46  N   UNL A   1      45.382  25.503  27.509  1.00  0.00    -0.354 N 
ATOM     47  C   UNL A   1      40.584  27.101  28.062  1.00  0.00     0.074 A 
ATOM     48  C   UNL A   1      39.851  25.923  28.408  1.00  0.00     0.031 C 
ATOM     49  C   UNL A   1      46.659  23.738  27.009  1.00  0.00     0.029 A 
ATOM     50  C   UNL A   1      46.724  25.172  27.168  1.00  0.00     0.049 A 
ATOM     51  H   UNL A   1      45.132  26.398  27.834  1.00  0.00     0.167 HD
ATOM     52  C   UNL A   1      40.332  28.422  28.316  1.00  0.00     0.031 A 
ATOM     53  C   UNL A   1      47.780  26.018  26.946  1.00  0.00     0.031 A 
ATOM     54  C   UNL A   1      41.448  29.199  27.890  1.00  0.00     0.049 A 
ATOM     55  C   UNL A   1      47.238  27.352  27.233  1.00  0.00     0.074 A 
ATOM     56  C   UNL A   1      41.909  29.513  26.638  1.00  0.00     0.029 A 
ATOM     57  N   UNL A   1      42.472  29.325  28.802  1.00  0.00    -0.354 N 
ATOM     58  N   UNL A   1      46.950  27.798  28.416  1.00  0.00    -0.248 NA
ATOM     59  C   UNL A   1      46.826  28.191  26.102  1.00  0.00     0.031 C 
ATOM     60  C   UNL A   1      43.288  29.238  26.757  1.00  0.00     0.029 A 
ATOM     61  C   UNL A   1      43.641  29.138  28.109  1.00  0.00     0.049 A 
ATOM     62  H   UNL A   1      42.381  29.511  29.764  1.00  0.00     0.167 HD
ATOM     63  C   UNL A   1      45.985  28.735  28.144  1.00  0.00     0.074 A 
ATOM     64  C   UNL A   1      46.185  29.147  26.768  1.00  0.00     0.031 C 
ATOM     65  C   UNL A   1      44.815  28.730  28.837  1.00  0.00     0.031 A 
BRANCH  52  66
ATOM     66  C   UNL A   1      39.305  29.129  29.154  1.00  0.00    -0.014 A 
ATOM     67  C   UNL A   1      38.787  30.346  28.638  1.00  0.00     0.009 A 
ATOM     68  C   UNL A   1      39.094  28.868  30.509  1.00  0.00     0.009 A 
ATOM     69  C   UNL A   1      38.225  31.321  29.462  1.00  0.00     0.001 A 
ATOM     70  C   UNL A   1      38.489  29.833  31.333  1.00  0.00     0.001 A 
ATOM     71  C   UNL A   1      38.096  31.070  30.819  1.00  0.00     0.000 A 
ENDBRANCH  52  66
BRANCH  53  72
ATOM     72  C   UNL A   1      49.162  25.977  26.341  1.00  0.00    -0.014 A 
ATOM     73  C   UNL A   1      49.551  26.501  25.107  1.00  0.00     0.009 A 
ATOM     74  C   UNL A   1      50.219  25.427  27.125  1.00  0.00     0.009 A 
ATOM     75  C   UNL A   1      50.918  26.579  24.748  1.00  0.00     0.001 A 
ATOM     76  C   UNL A   1      51.573  25.550  26.803  1.00  0.00     0.001 A 
ATOM     77  C   UNL A   1      51.926  26.149  25.612  1.00  0.00     0.000 A 
ENDBRANCH  53  72
BRANCH  65  78
ATOM     78  C   UNL A   1      44.832  27.962  30.158  1.00  0.00    -0.014 A 
ATOM     79  C   UNL A   1      44.212  26.703  30.230  1.00  0.00     0.009 A 
ATOM     80  C   UNL A   1      45.325  28.490  31.368  1.00  0.00     0.009 A 
ATOM     81  C   UNL A   1      44.061  26.017  31.443  1.00  0.00     0.001 A 
ATOM     82  C   UNL A   1      45.177  27.806  32.590  1.00  0.00     0.001 A 
ATOM     83  C   UNL A   1      44.540  26.569  32.626  1.00  0.00     0.000 A 
ENDBRANCH  65  78
ENDBRANCH  39  40
ENDBRANCH  31  34
ENDBRANCH  29  30
ENDBRANCH  28  29
ENDBRANCH  27  28
ENDBRANCH  26  27
ENDBRANCH  25  26
ENDBRANCH   1  25
TORSDOF 19
ENDMDL
MODEL 2
REMARK VINA RESULT:     -10.0      4.341      9.849
REMARK SMILES O=C(Cn1cccc1C(=O)NCCC(=O)NC1CC1)NCCCCCCNC(=O)c1ccc(-c2c3nc(c(-c4ccccc4)c4ccc([nH]4)c(-c4ccccc4)c4nc(c(-c5ccccc5)c5ccc2[nH]5)C=C4)C=C3)cc1
REMARK SMILES IDX 21 1 20 2 1 3 2 4 3 6 4 7 5 8 8 9 6 10 7 11 9 12 10 13 11 14
REMARK SMILES IDX 12 16 13 17 14 18 15 19 16 20 17 22 18 23 19 24 22 25 23 26
REMARK SMILES IDX 24 27 25 28 26 29 27 30 28 31 29 33 30 34 31 35 77 36 32 37
REMARK SMILES IDX 76 38 33 39 34 40 35 41 70 42 36 43 75 44 69 45 71 46 37 47
REMARK SMILES IDX 74 48 68 49 67 50 38 52 60 53 45 54 59 55 46 56 49 57 58 58
REMARK SMILES IDX 72 59 47 60 48 61 57 63 73 64 50 65 39 66 40 67 44 68 41 69
REMARK SMILES IDX 43 70 42 71 61 72 62 73 66 74 63 75 65 76 64 77 51 78 52 79
REMARK SMILES IDX 56 80 53 81 55 82 54 83
REMARK H PARENT 20 5 11 15 16 21 27 32 71 51 49 62
REMARK Flexibility Score: inf
ROOT
ATOM      1  C   UNL A   1      33.036  29.280  25.120  1.00  0.00     0.116 C 
ENDROOT
BRANCH   1   2
ATOM      2  N   UNL A   1      32.871  27.845  25.065  1.00  0.00    -0.355 N 
ATOM      3  O   UNL A   1      31.083  27.401  26.452  1.00  0.00    -0.273 OA
ATOM      4  C   UNL A   1      31.654  27.267  25.374  1.00  0.00     0.239 C 
ATOM      5  H   UNL A   1      33.631  27.274  24.807  1.00  0.00     0.163 HD
BRANCH   4   6
ATOM      6  C   UNL A   1      31.072  26.397  24.300  1.00  0.00     0.222 C 
BRANCH   6   7
ATOM      7  N   UNL A   1      32.057  25.680  23.497  1.00  0.00    -0.334 N 
ATOM      8  C   UNL A   1      32.045  25.903  22.122  1.00  0.00     0.087 A 
ATOM      9  C   UNL A   1      33.023  24.727  23.809  1.00  0.00     0.107 A 
ATOM     10  C   UNL A   1      32.816  24.959  21.507  1.00  0.00     0.020 A 
ATOM     11  C   UNL A   1      33.392  24.218  22.545  1.00  0.00     0.033 A 
BRANCH   9  12
ATOM     12  C   UNL A   1      33.698  24.150  24.976  1.00  0.00     0.267 C 
ATOM     13  O   UNL A   1      33.654  24.797  26.039  1.00  0.00    -0.268 OA
ATOM     14  N   UNL A   1      34.408  23.020  25.222  1.00  0.00    -0.350 N 
ATOM     15  H   UNL A   1      34.819  23.141  26.108  1.00  0.00     0.163 HD
BRANCH  14  16
ATOM     16  C   UNL A   1      34.830  21.709  24.757  1.00  0.00     0.126 C 
BRANCH  16  17
ATOM     17  C   UNL A   1      33.773  20.694  24.307  1.00  0.00     0.121 C 
BRANCH  17  18
ATOM     18  C   UNL A   1      32.621  20.109  25.114  1.00  0.00     0.221 C 
ATOM     19  O   UNL A   1      31.683  20.859  25.429  1.00  0.00    -0.275 OA
ATOM     20  N   UNL A   1      32.417  18.797  25.391  1.00  0.00    -0.353 N 
ATOM     21  H   UNL A   1      31.498  18.597  25.685  1.00  0.00     0.163 HD
BRANCH  20  22
ATOM     22  C   UNL A   1      33.255  17.653  25.347  1.00  0.00     0.082 C 
ATOM     23  C   UNL A   1      32.619  16.298  25.578  1.00  0.00     0.027 C 
ATOM     24  C   UNL A   1      33.223  16.624  24.256  1.00  0.00     0.027 C 
ENDBRANCH  20  22
ENDBRANCH  17  18
ENDBRANCH  16  17
ENDBRANCH  14  16
ENDBRANCH   9  12
ENDBRANCH   6   7
ENDBRANCH   4   6
ENDBRANCH   1   2
BRANCH   1  25
ATOM     25  C   UNL A   1      33.572  29.851  26.429  1.00  0.00     0.021 C 
BRANCH  25  26
ATOM     26  C   UNL A   1      32.482  30.513  27.275  1.00  0.00     0.002 C 
BRANCH  26  27
ATOM     27  C   UNL A   1      31.434  31.324  26.489  1.00  0.00     0.002 C 
BRANCH  27  28
ATOM     28  C   UNL A   1      31.444  32.845  26.711  1.00  0.00     0.021 C 
BRANCH  28  29
ATOM     29  C   UNL A   1      32.768  33.388  27.200  1.00  0.00     0.116 C 
BRANCH  29  30
ATOM     30  N   UNL A   1      32.606  34.668  27.875  1.00  0.00    -0.352 N 
ATOM     31  C   UNL A   1      33.113  35.060  29.081  1.00  0.00     0.251 C 
ATOM     32  H   UNL A   1      32.060  35.336  27.401  1.00  0.00     0.163 HD
ATOM     33  O   UNL A   1      32.607  36.008  29.691  1.00  0.00    -0.269 OA
BRANCH  31  34
ATOM     34  C   UNL A   1      34.280  34.366  29.640  1.00  0.00     0.039 A 
ATOM     35  C   UNL A   1      34.143  33.604  30.805  1.00  0.00     0.014 A 
ATOM     36  C   UNL A   1      35.532  34.545  29.039  1.00  0.00     0.014 A 
ATOM     37  C   UNL A   1      35.267  33.002  31.347  1.00  0.00     0.010 A 
ATOM     38  C   UNL A   1      36.626  33.866  29.506  1.00  0.00     0.010 A 
ATOM     39  C   UNL A   1      36.493  33.136  30.680  1.00  0.00    -0.014 A 
BRANCH  39  40
ATOM     40  C   UNL A   1      37.680  32.432  31.162  1.00  0.00     0.031 A 
ATOM     41  C   UNL A   1      37.872  31.136  30.344  1.00  0.00     0.074 A 
ATOM     42  C   UNL A   1      38.322  33.070  32.196  1.00  0.00     0.049 A 
ATOM     43  N   UNL A   1      38.359  29.996  30.707  1.00  0.00    -0.248 NA
ATOM     44  C   UNL A   1      37.367  31.058  28.938  1.00  0.00     0.031 C 
ATOM     45  C   UNL A   1      37.954  34.410  32.743  1.00  0.00     0.029 A 
ATOM     46  N   UNL A   1      39.400  32.776  32.994  1.00  0.00    -0.354 N 
ATOM     47  C   UNL A   1      38.391  29.143  29.578  1.00  0.00     0.074 A 
ATOM     48  C   UNL A   1      37.657  29.811  28.550  1.00  0.00     0.031 C 
ATOM     49  C   UNL A   1      38.702  34.733  33.820  1.00  0.00     0.029 A 
ATOM     50  C   UNL A   1      39.614  33.647  34.099  1.00  0.00     0.049 A 
ATOM     51  H   UNL A   1      39.990  32.009  32.813  1.00  0.00     0.167 HD
ATOM     52  C   UNL A   1      39.159  28.012  29.543  1.00  0.00     0.031 A 
ATOM     53  C   UNL A   1      40.408  33.449  35.199  1.00  0.00     0.031 A 
ATOM     54  C   UNL A   1      39.802  27.844  30.804  1.00  0.00     0.049 A 
ATOM     55  C   UNL A   1      41.070  32.165  34.938  1.00  0.00     0.074 A 
ATOM     56  C   UNL A   1      39.309  27.487  32.032  1.00  0.00     0.029 A 
ATOM     57  N   UNL A   1      40.989  28.522  30.964  1.00  0.00    -0.354 N 
ATOM     58  N   UNL A   1      42.003  31.976  34.057  1.00  0.00    -0.248 NA
ATOM     59  C   UNL A   1      40.534  30.962  35.586  1.00  0.00     0.031 C 
ATOM     60  C   UNL A   1      39.893  28.458  32.874  1.00  0.00     0.029 A 
ATOM     61  C   UNL A   1      40.952  29.091  32.212  1.00  0.00     0.049 A 
ATOM     62  H   UNL A   1      41.721  28.586  30.309  1.00  0.00     0.167 HD
ATOM     63  C   UNL A   1      41.862  30.643  33.768  1.00  0.00     0.074 A 
ATOM     64  C   UNL A   1      41.212  30.037  34.915  1.00  0.00     0.031 C 
ATOM     65  C   UNL A   1      41.795  30.228  32.474  1.00  0.00     0.031 A 
BRANCH  52  66
ATOM     66  C   UNL A   1      39.643  27.134  28.424  1.00  0.00    -0.014 A 
ATOM     67  C   UNL A   1      39.628  25.733  28.657  1.00  0.00     0.009 A 
ATOM     68  C   UNL A   1      40.407  27.594  27.349  1.00  0.00     0.009 A 
ATOM     69  C   UNL A   1      40.452  24.856  27.952  1.00  0.00     0.001 A 
ATOM     70  C   UNL A   1      41.206  26.704  26.612  1.00  0.00     0.001 A 
ATOM     71  C   UNL A   1      41.260  25.348  26.940  1.00  0.00     0.000 A 
ENDBRANCH  52  66
BRANCH  53  72
ATOM     72  C   UNL A   1      40.612  34.034  36.576  1.00  0.00    -0.014 A 
ATOM     73  C   UNL A   1      41.806  34.076  37.298  1.00  0.00     0.009 A 
ATOM     74  C   UNL A   1      39.508  34.694  37.192  1.00  0.00     0.009 A 
ATOM     75  C   UNL A   1      41.909  34.834  38.489  1.00  0.00     0.001 A 
ATOM     76  C   UNL A   1      39.616  35.488  38.336  1.00  0.00     0.001 A 
ATOM     77  C   UNL A   1      40.833  35.574  38.979  1.00  0.00     0.000 A 
ENDBRANCH  53  72
BRANCH  65  78
ATOM     78  C   UNL A   1      42.318  31.219  31.435  1.00  0.00    -0.014 A 
ATOM     79  C   UNL A   1      43.705  31.403  31.296  1.00  0.00     0.009 A 
ATOM     80  C   UNL A   1      41.492  32.072  30.675  1.00  0.00     0.009 A 
ATOM     81  C   UNL A   1      44.243  32.401  30.472  1.00  0.00     0.001 A 
ATOM     82  C   UNL A   1      42.027  33.075  29.845  1.00  0.00     0.001 A 
ATOM     83  C   UNL A   1      43.406  33.241  29.748  1.00  0.00     0.000 A 
ENDBRANCH  65  78
ENDBRANCH  39  40
ENDBRANCH  31  34
ENDBRANCH  29  30
ENDBRANCH  28  29
ENDBRANCH  27  28
ENDBRANCH  26  27
ENDBRANCH  25  26
ENDBRANCH   1  25
TORSDOF 19
ENDMDL
MODEL 3
REMARK VINA RESULT:      -9.9      3.108      8.043
REMARK SMILES O=C(Cn1cccc1C(=O)NCCC(=O)NC1CC1)NCCCCCCNC(=O)c1ccc(-c2c3nc(c(-c4ccccc4)c4ccc([nH]4)c(-c4ccccc4)c4nc(c(-c5ccccc5)c5ccc2[nH]5)C=C4)C=C3)cc1
REMARK SMILES IDX 21 1 20 2 1 3 2 4 3 6 4 7 5 8 8 9 6 10 7 11 9 12 10 13 11 14
REMARK SMILES IDX 12 16 13 17 14 18 15 19 16 20 17 22 18 23 19 24 22 25 23 26
REMARK SMILES IDX 24 27 25 28 26 29 27 30 28 31 29 33 30 34 31 35 77 36 32 37
REMARK SMILES IDX 76 38 33 39 34 40 35 41 70 42 36 43 75 44 69 45 71 46 37 47
REMARK SMILES IDX 74 48 68 49 67 50 38 52 60 53 45 54 59 55 46 56 49 57 58 58
REMARK SMILES IDX 72 59 47 60 48 61 57 63 73 64 50 65 39 66 40 67 44 68 41 69
REMARK SMILES IDX 43 70 42 71 61 72 62 73 66 74 63 75 65 76 64 77 51 78 52 79
REMARK SMILES IDX 56 80 53 81 55 82 54 83
REMARK H PARENT 20 5 11 15 16 21 27 32 71 51 49 62
REMARK Flexibility Score: inf
ROOT
ATOM      1  C   UNL A   1      33.983  30.394  27.247  1.00  0.00     0.116 C 
ENDROOT
BRANCH   1   2
ATOM      2  N   UNL A   1      32.656  29.887  26.982  1.00  0.00    -0.355 N 
ATOM      3  O   UNL A   1      31.406  31.751  26.456  1.00  0.00    -0.273 OA
ATOM      4  C   UNL A   1      31.774  30.609  26.201  1.00  0.00     0.239 C 
ATOM      5  H   UNL A   1      32.378  29.022  27.362  1.00  0.00     0.163 HD
BRANCH   4   6
ATOM      6  C   UNL A   1      31.234  29.877  25.009  1.00  0.00     0.222 C 
BRANCH   6   7
ATOM      7  N   UNL A   1      31.979  28.678  24.641  1.00  0.00    -0.334 N 
ATOM      8  C   UNL A   1      32.867  28.779  23.572  1.00  0.00     0.087 A 
ATOM      9  C   UNL A   1      31.961  27.368  25.111  1.00  0.00     0.107 A 
ATOM     10  C   UNL A   1      33.252  27.528  23.188  1.00  0.00     0.020 A 
ATOM     11  C   UNL A   1      32.670  26.659  24.117  1.00  0.00     0.033 A 
BRANCH   9  12
ATOM     12  C   UNL A   1      31.451  26.586  26.242  1.00  0.00     0.267 C 
ATOM     13  O   UNL A   1      31.361  27.163  27.342  1.00  0.00    -0.268 OA
ATOM     14  N   UNL A   1      31.021  25.310  26.421  1.00  0.00    -0.350 N 
ATOM     15  H   UNL A   1      30.940  25.182  27.393  1.00  0.00     0.163 HD
BRANCH  14  16
ATOM     16  C   UNL A   1      30.626  24.051  25.813  1.00  0.00     0.126 C 
BRANCH  16  17
ATOM     17  C   UNL A   1      31.332  22.757  26.235  1.00  0.00     0.121 C 
BRANCH  17  18
ATOM     18  C   UNL A   1      32.826  22.500  26.383  1.00  0.00     0.221 C 
ATOM     19  O   UNL A   1      33.226  21.923  27.406  1.00  0.00    -0.275 OA
ATOM     20  N   UNL A   1      33.772  22.685  25.428  1.00  0.00    -0.353 N 
ATOM     21  H   UNL A   1      34.618  22.220  25.620  1.00  0.00     0.163 HD
BRANCH  20  22
ATOM     22  C   UNL A   1      33.794  23.413  24.210  1.00  0.00     0.082 C 
ATOM     23  C   UNL A   1      34.640  22.872  23.076  1.00  0.00     0.027 C 
ATOM     24  C   UNL A   1      33.158  22.944  22.935  1.00  0.00     0.027 C 
ENDBRANCH  20  22
ENDBRANCH  17  18
ENDBRANCH  16  17
ENDBRANCH  14  16
ENDBRANCH   9  12
ENDBRANCH   6   7
ENDBRANCH   4   6
ENDBRANCH   1   2
BRANCH   1  25
ATOM     25  C   UNL A   1      34.999  29.390  27.783  1.00  0.00     0.021 C 
BRANCH  25  26
ATOM     26  C   UNL A   1      36.028  30.032  28.716  1.00  0.00     0.002 C 
BRANCH  26  27
ATOM     27  C   UNL A   1      36.230  31.548  28.536  1.00  0.00     0.002 C 
BRANCH  27  28
ATOM     28  C   UNL A   1      35.559  32.453  29.582  1.00  0.00     0.021 C 
BRANCH  28  29
ATOM     29  C   UNL A   1      35.698  31.959  31.005  1.00  0.00     0.116 C 
BRANCH  29  30
ATOM     30  N   UNL A   1      36.494  32.872  31.813  1.00  0.00    -0.352 N 
ATOM     31  C   UNL A   1      37.768  32.702  32.276  1.00  0.00     0.251 C 
ATOM     32  H   UNL A   1      36.058  33.720  32.057  1.00  0.00     0.163 HD
ATOM     33  O   UNL A   1      38.177  33.369  33.233  1.00  0.00    -0.269 OA
BRANCH  31  34
ATOM     34  C   UNL A   1      38.660  31.741  31.616  1.00  0.00     0.039 A 
ATOM     35  C   UNL A   1      39.138  32.008  30.329  1.00  0.00     0.014 A 
ATOM     36  C   UNL A   1      38.954  30.532  32.257  1.00  0.00     0.014 A 
ATOM     37  C   UNL A   1      39.934  31.065  29.701  1.00  0.00     0.010 A 
ATOM     38  C   UNL A   1      39.827  29.642  31.689  1.00  0.00     0.010 A 
ATOM     39  C   UNL A   1      40.275  29.896  30.398  1.00  0.00    -0.014 A 
BRANCH  39  40
ATOM     40  C   UNL A   1      41.195  28.924  29.812  1.00  0.00     0.031 A 
ATOM     41  C   UNL A   1      42.620  29.521  29.786  1.00  0.00     0.074 A 
ATOM     42  C   UNL A   1      40.594  27.749  29.433  1.00  0.00     0.049 A 
ATOM     43  N   UNL A   1      43.576  29.339  28.937  1.00  0.00    -0.248 NA
ATOM     44  C   UNL A   1      43.020  30.544  30.802  1.00  0.00     0.031 C 
ATOM     45  C   UNL A   1      39.162  27.397  29.674  1.00  0.00     0.029 A 
ATOM     46  N   UNL A   1      41.015  26.606  28.800  1.00  0.00    -0.354 N 
ATOM     47  C   UNL A   1      44.714  30.050  29.384  1.00  0.00     0.074 A 
ATOM     48  C   UNL A   1      44.275  30.868  30.471  1.00  0.00     0.031 C 
ATOM     49  C   UNL A   1      38.835  26.217  29.102  1.00  0.00     0.029 A 
ATOM     50  C   UNL A   1      39.994  25.689  28.423  1.00  0.00     0.049 A 
ATOM     51  H   UNL A   1      41.967  26.430  28.618  1.00  0.00     0.167 HD
ATOM     52  C   UNL A   1      45.970  29.785  28.910  1.00  0.00     0.031 A 
ATOM     53  C   UNL A   1      40.076  24.635  27.549  1.00  0.00     0.031 A 
ATOM     54  C   UNL A   1      45.886  28.785  27.898  1.00  0.00     0.049 A 
ATOM     55  C   UNL A   1      41.491  24.602  27.156  1.00  0.00     0.074 A 
ATOM     56  C   UNL A   1      45.397  28.830  26.618  1.00  0.00     0.029 A 
ATOM     57  N   UNL A   1      45.891  27.483  28.344  1.00  0.00    -0.354 N 
ATOM     58  N   UNL A   1      42.466  24.224  27.923  1.00  0.00    -0.248 NA
ATOM     59  C   UNL A   1      41.868  25.198  25.870  1.00  0.00     0.031 C 
ATOM     60  C   UNL A   1      44.594  27.670  26.572  1.00  0.00     0.029 A 
ATOM     61  C   UNL A   1      44.916  26.822  27.640  1.00  0.00     0.049 A 
ATOM     62  H   UNL A   1      46.480  27.101  29.034  1.00  0.00     0.167 HD
ATOM     63  C   UNL A   1      43.532  24.904  27.391  1.00  0.00     0.074 A 
ATOM     64  C   UNL A   1      43.189  25.198  26.013  1.00  0.00     0.031 C 
ATOM     65  C   UNL A   1      44.357  25.620  28.201  1.00  0.00     0.031 A 
BRANCH  52  66
ATOM     66  C   UNL A   1      47.348  30.115  29.412  1.00  0.00    -0.014 A 
ATOM     67  C   UNL A   1      47.776  29.448  30.589  1.00  0.00     0.009 A 
ATOM     68  C   UNL A   1      48.069  31.244  29.019  1.00  0.00     0.009 A 
ATOM     69  C   UNL A   1      48.772  29.969  31.415  1.00  0.00     0.001 A 
ATOM     70  C   UNL A   1      49.101  31.746  29.830  1.00  0.00     0.001 A 
ATOM     71  C   UNL A   1      49.422  31.135  31.043  1.00  0.00     0.000 A 
ENDBRANCH  52  66
BRANCH  53  72
ATOM     72  C   UNL A   1      39.154  23.712  26.790  1.00  0.00    -0.014 A 
ATOM     73  C   UNL A   1      37.966  24.062  26.146  1.00  0.00     0.009 A 
ATOM     74  C   UNL A   1      39.554  22.353  26.626  1.00  0.00     0.009 A 
ATOM     75  C   UNL A   1      37.301  23.144  25.297  1.00  0.00     0.001 A 
ATOM     76  C   UNL A   1      38.936  21.460  25.748  1.00  0.00     0.001 A 
ATOM     77  C   UNL A   1      37.809  21.865  25.063  1.00  0.00     0.000 A 
ENDBRANCH  53  72
BRANCH  65  78
ATOM     78  C   UNL A   1      44.299  25.263  29.686  1.00  0.00    -0.014 A 
ATOM     79  C   UNL A   1      44.112  26.285  30.632  1.00  0.00     0.009 A 
ATOM     80  C   UNL A   1      44.548  23.973  30.196  1.00  0.00     0.009 A 
ATOM     81  C   UNL A   1      44.199  26.047  32.011  1.00  0.00     0.001 A 
ATOM     82  C   UNL A   1      44.636  23.727  31.579  1.00  0.00     0.001 A 
ATOM     83  C   UNL A   1      44.465  24.768  32.487  1.00  0.00     0.000 A 
ENDBRANCH  65  78
ENDBRANCH  39  40
ENDBRANCH  31  34
ENDBRANCH  29  30
ENDBRANCH  28  29
ENDBRANCH  27  28
ENDBRANCH  26  27
ENDBRANCH  25  26
ENDBRANCH   1  25
TORSDOF 19
ENDMDL
