MODEL 1
REMARK VINA RESULT:      -8.7      0.000      0.000
REMARK SMILES O=C(NCCCCCCNC(=O)[C@H](CO)NC(=O)[C@H](Cc1c[nH]c2ccccc12)NC(=O)[C@H](Cc1ccc(O)cc1)NC(=O)c1ccc(F)cc1)c1ccc(-c2c3nc(c(-c4ccccc4)c4ccc([nH]4)c(-c4ccccc4)c4nc(c(-c5ccccc5)c5ccc2[nH]5)C=C4)C=C3)cc1
REMARK SMILES IDX 9 1 8 2 7 3 6 4 5 5 4 6 3 7 1 8 2 9 52 11 53 12 99 13 54 14
REMARK SMILES IDX 98 15 55 16 56 17 57 18 92 19 58 20 97 21 91 22 93 23 59 24
REMARK SMILES IDX 96 25 90 26 89 27 60 29 82 30 67 31 81 32 68 33 71 34 80 35
REMARK SMILES IDX 94 36 69 37 70 38 79 40 95 41 72 42 61 43 62 44 66 45 63 46
REMARK SMILES IDX 65 47 64 48 83 49 84 50 88 51 85 52 87 53 86 54 73 55 74 56
REMARK SMILES IDX 78 57 75 58 77 59 76 60 10 61 11 62 12 64 13 65 16 66 17 67
REMARK SMILES IDX 18 69 19 70 30 71 31 72 32 74 33 75 42 76 43 77 44 79 45 80
REMARK SMILES IDX 46 81 51 82 47 83 50 84 48 85 49 86 34 87 35 88 36 89 41 90
REMARK SMILES IDX 37 91 40 92 38 93 39 94 20 96 21 97 22 98 29 99 23 100
REMARK SMILES IDX 24 101 28 102 25 104 27 105 26 106 14 107 15 108
REMARK H PARENT 3 10 93 28 71 39 10 63 16 68 30 73 42 78 39 95 23 103 15 109
REMARK Flexibility Score: inf
ROOT
ATOM      1  C   UNL A   1      40.964  30.096  29.926  1.00  0.00     0.116 C 
ENDROOT
BRANCH   1   2
ATOM      2  C   UNL A   1      40.220  29.552  28.709  1.00  0.00     0.021 C 
BRANCH   2   3
ATOM      3  C   UNL A   1      39.757  28.104  28.852  1.00  0.00     0.002 C 
BRANCH   3   4
ATOM      4  C   UNL A   1      40.418  27.119  27.884  1.00  0.00     0.002 C 
BRANCH   4   5
ATOM      5  C   UNL A   1      39.717  25.767  27.756  1.00  0.00     0.021 C 
BRANCH   5   6
ATOM      6  C   UNL A   1      39.852  25.117  26.387  1.00  0.00     0.116 C 
BRANCH   6   7
ATOM      7  N   UNL A   1      40.510  23.821  26.459  1.00  0.00    -0.352 N 
ATOM      8  O   UNL A   1      42.216  22.356  26.229  1.00  0.00    -0.269 OA
ATOM      9  C   UNL A   1      41.844  23.522  26.357  1.00  0.00     0.251 C 
ATOM     10  H   UNL A   1      39.913  23.051  26.601  1.00  0.00     0.163 HD
BRANCH   9  11
ATOM     11  C   UNL A   1      42.833  24.616  26.391  1.00  0.00     0.039 A 
ATOM     12  C   UNL A   1      43.184  25.275  25.211  1.00  0.00     0.014 A 
ATOM     13  C   UNL A   1      43.415  24.983  27.607  1.00  0.00     0.014 A 
ATOM     14  C   UNL A   1      44.222  26.193  25.222  1.00  0.00     0.010 A 
ATOM     15  C   UNL A   1      44.387  25.986  27.631  1.00  0.00     0.010 A 
ATOM     16  C   UNL A   1      44.815  26.582  26.435  1.00  0.00    -0.014 A 
BRANCH  16  17
ATOM     17  C   UNL A   1      45.816  27.677  26.421  1.00  0.00     0.031 A 
ATOM     18  C   UNL A   1      45.420  29.106  26.664  1.00  0.00     0.074 A 
ATOM     19  C   UNL A   1      47.109  27.354  26.225  1.00  0.00     0.049 A 
ATOM     20  N   UNL A   1      46.183  30.169  26.715  1.00  0.00    -0.248 NA
ATOM     21  C   UNL A   1      43.989  29.382  26.868  1.00  0.00     0.031 C 
ATOM     22  C   UNL A   1      47.611  25.997  25.976  1.00  0.00     0.029 A 
ATOM     23  N   UNL A   1      48.240  28.127  26.232  1.00  0.00    -0.354 N 
ATOM     24  C   UNL A   1      45.329  31.239  26.952  1.00  0.00     0.074 A 
ATOM     25  C   UNL A   1      43.984  30.702  26.995  1.00  0.00     0.031 C 
ATOM     26  C   UNL A   1      48.949  26.028  25.908  1.00  0.00     0.029 A 
ATOM     27  C   UNL A   1      49.394  27.410  26.031  1.00  0.00     0.049 A 
ATOM     28  H   UNL A   1      48.227  29.102  26.367  1.00  0.00     0.167 HD
ATOM     29  C   UNL A   1      45.639  32.547  27.126  1.00  0.00     0.031 A 
ATOM     30  C   UNL A   1      50.671  27.818  25.931  1.00  0.00     0.031 A 
ATOM     31  C   UNL A   1      46.978  33.077  27.063  1.00  0.00     0.049 A 
ATOM     32  C   UNL A   1      50.975  29.280  26.069  1.00  0.00     0.074 A 
ATOM     33  C   UNL A   1      47.396  34.386  27.229  1.00  0.00     0.029 A 
ATOM     34  N   UNL A   1      48.115  32.325  26.812  1.00  0.00    -0.354 N 
ATOM     35  N   UNL A   1      50.157  30.274  26.319  1.00  0.00    -0.248 NA
ATOM     36  C   UNL A   1      52.380  29.677  25.913  1.00  0.00     0.031 C 
ATOM     37  C   UNL A   1      48.778  34.435  27.022  1.00  0.00     0.029 A 
ATOM     38  C   UNL A   1      49.231  33.146  26.795  1.00  0.00     0.049 A 
ATOM     39  H   UNL A   1      48.127  31.351  26.665  1.00  0.00     0.167 HD
ATOM     40  C   UNL A   1      50.951  31.410  26.374  1.00  0.00     0.074 A 
ATOM     41  C   UNL A   1      52.318  30.977  26.160  1.00  0.00     0.031 C 
ATOM     42  C   UNL A   1      50.583  32.698  26.579  1.00  0.00     0.031 A 
BRANCH  29  43
ATOM     43  C   UNL A   1      44.506  33.504  27.384  1.00  0.00    -0.014 A 
ATOM     44  C   UNL A   1      43.928  34.245  26.342  1.00  0.00     0.009 A 
ATOM     45  C   UNL A   1      43.974  33.628  28.678  1.00  0.00     0.009 A 
ATOM     46  C   UNL A   1      42.861  35.111  26.594  1.00  0.00     0.001 A 
ATOM     47  C   UNL A   1      42.889  34.472  28.923  1.00  0.00     0.001 A 
ATOM     48  C   UNL A   1      42.338  35.219  27.882  1.00  0.00     0.000 A 
ENDBRANCH  29  43
BRANCH  30  49
ATOM     49  C   UNL A   1      51.750  26.834  25.653  1.00  0.00    -0.014 A 
ATOM     50  C   UNL A   1      52.167  26.573  24.339  1.00  0.00     0.009 A 
ATOM     51  C   UNL A   1      52.361  26.136  26.708  1.00  0.00     0.009 A 
ATOM     52  C   UNL A   1      53.144  25.608  24.087  1.00  0.00     0.001 A 
ATOM     53  C   UNL A   1      53.364  25.201  26.456  1.00  0.00     0.001 A 
ATOM     54  C   UNL A   1      53.745  24.927  25.145  1.00  0.00     0.000 A 
ENDBRANCH  30  49
BRANCH  42  55
ATOM     55  C   UNL A   1      51.686  33.720  26.620  1.00  0.00    -0.014 A 
ATOM     56  C   UNL A   1      52.107  34.391  25.461  1.00  0.00     0.009 A 
ATOM     57  C   UNL A   1      52.304  34.021  27.843  1.00  0.00     0.009 A 
ATOM     58  C   UNL A   1      53.156  35.310  25.520  1.00  0.00     0.001 A 
ATOM     59  C   UNL A   1      53.330  34.965  27.905  1.00  0.00     0.001 A 
ATOM     60  C   UNL A   1      53.764  35.599  26.742  1.00  0.00     0.000 A 
ENDBRANCH  42  55
ENDBRANCH  16  17
ENDBRANCH   9  11
ENDBRANCH   6   7
ENDBRANCH   5   6
ENDBRANCH   4   5
ENDBRANCH   3   4
ENDBRANCH   2   3
ENDBRANCH   1   2
BRANCH   1  61
ATOM     61  N   UNL A   1      40.767  29.277  31.106  1.00  0.00    -0.354 N 
ATOM     62  C   UNL A   1      39.750  29.118  31.999  1.00  0.00     0.244 C 
ATOM     63  H   UNL A   1      41.544  28.707  31.308  1.00  0.00     0.163 HD
ATOM     64  O   UNL A   1      39.979  28.332  32.925  1.00  0.00    -0.273 OA
BRANCH  62  65
ATOM     65  C   UNL A   1      38.456  29.979  32.017  1.00  0.00     0.197 C 
BRANCH  65  66
ATOM     66  N   UNL A   1      37.677  30.027  30.787  1.00  0.00    -0.340 N 
ATOM     67  C   UNL A   1      36.997  31.071  30.236  1.00  0.00     0.243 C 
ATOM     68  H   UNL A   1      37.635  29.183  30.281  1.00  0.00     0.164 HD
ATOM     69  O   UNL A   1      36.806  30.992  29.017  1.00  0.00    -0.273 OA
BRANCH  67  70
ATOM     70  C   UNL A   1      36.643  32.365  31.011  1.00  0.00     0.175 C 
BRANCH  70  71
ATOM     71  N   UNL A   1      37.272  33.522  30.361  1.00  0.00    -0.342 N 
ATOM     72  C   UNL A   1      38.423  34.190  30.678  1.00  0.00     0.243 C 
ATOM     73  H   UNL A   1      36.790  33.871  29.576  1.00  0.00     0.164 HD
ATOM     74  O   UNL A   1      38.905  34.926  29.812  1.00  0.00    -0.273 OA
BRANCH  72  75
ATOM     75  C   UNL A   1      39.096  34.036  32.058  1.00  0.00     0.176 C 
BRANCH  75  76
ATOM     76  N   UNL A   1      38.088  33.614  33.046  1.00  0.00    -0.340 N 
ATOM     77  C   UNL A   1      38.214  33.459  34.409  1.00  0.00     0.251 C 
ATOM     78  H   UNL A   1      37.196  33.411  32.680  1.00  0.00     0.164 HD
ATOM     79  O   UNL A   1      37.356  32.873  35.060  1.00  0.00    -0.269 OA
BRANCH  77  80
ATOM     80  C   UNL A   1      39.386  34.036  35.105  1.00  0.00     0.040 A 
ATOM     81  C   UNL A   1      39.433  35.412  35.318  1.00  0.00     0.017 A 
ATOM     82  C   UNL A   1      40.417  33.230  35.588  1.00  0.00     0.017 A 
ATOM     83  C   UNL A   1      40.567  36.015  35.860  1.00  0.00     0.040 A 
ATOM     84  C   UNL A   1      41.540  33.826  36.176  1.00  0.00     0.040 A 
ATOM     85  C   UNL A   1      41.620  35.213  36.273  1.00  0.00     0.123 A 
ATOM     86  F   UNL A   1      42.718  35.786  36.782  1.00  0.00    -0.207 F 
ENDBRANCH  77  80
ENDBRANCH  75  76
BRANCH  75  87
ATOM     87  C   UNL A   1      40.233  32.987  31.930  1.00  0.00     0.070 C 
BRANCH  87  88
ATOM     88  C   UNL A   1      41.647  33.490  32.164  1.00  0.00    -0.045 A 
ATOM     89  C   UNL A   1      42.753  32.629  32.189  1.00  0.00     0.007 A 
ATOM     90  C   UNL A   1      41.859  34.839  32.484  1.00  0.00     0.007 A 
ATOM     91  C   UNL A   1      44.031  33.090  32.507  1.00  0.00     0.046 A 
ATOM     92  C   UNL A   1      43.138  35.307  32.805  1.00  0.00     0.046 A 
ATOM     93  C   UNL A   1      44.212  34.429  32.817  1.00  0.00     0.115 A 
BRANCH  93  94
ATOM     94  O   UNL A   1      45.439  34.917  33.153  1.00  0.00    -0.508 OA
ATOM     95  H   UNL A   1      45.734  34.872  34.042  1.00  0.00     0.293 HD
ENDBRANCH  93  94
ENDBRANCH  87  88
ENDBRANCH  75  87
ENDBRANCH  72  75
ENDBRANCH  70  71
BRANCH  70  96
ATOM     96  C   UNL A   1      35.122  32.456  31.258  1.00  0.00     0.072 C 
BRANCH  96  97
ATOM     97  C   UNL A   1      34.496  33.712  30.755  1.00  0.00    -0.020 A 
ATOM     98  C   UNL A   1      34.017  33.960  29.485  1.00  0.00     0.087 A 
ATOM     99  C   UNL A   1      34.288  34.904  31.515  1.00  0.00     0.003 A 
ATOM    100  N   UNL A   1      33.363  35.166  29.507  1.00  0.00    -0.361 N 
ATOM    101  C   UNL A   1      33.508  35.758  30.739  1.00  0.00     0.046 A 
ATOM    102  C   UNL A   1      34.662  35.319  32.808  1.00  0.00     0.010 A 
ATOM    103  H   UNL A   1      32.864  35.550  28.751  1.00  0.00     0.166 HD
ATOM    104  C   UNL A   1      33.017  36.975  31.223  1.00  0.00     0.026 A 
ATOM    105  C   UNL A   1      34.198  36.539  33.302  1.00  0.00     0.001 A 
ATOM    106  C   UNL A   1      33.372  37.345  32.525  1.00  0.00     0.002 A 
ENDBRANCH  96  97
ENDBRANCH  70  96
ENDBRANCH  67  70
ENDBRANCH  65  66
BRANCH  65 107
ATOM    107  C   UNL A   1      37.550  29.604  33.207  1.00  0.00     0.191 C 
BRANCH 107 108
ATOM    108  O   UNL A   1      38.051  29.994  34.483  1.00  0.00    -0.394 OA
ATOM    109  H   UNL A   1      38.955  30.333  34.387  1.00  0.00     0.210 HD
ENDBRANCH 107 108
ENDBRANCH  65 107
ENDBRANCH  62  65
ENDBRANCH   1  61
TORSDOF 26
ENDMDL
MODEL 2
REMARK VINA RESULT:      -8.6      0.386      5.225
REMARK SMILES O=C(NCCCCCCNC(=O)[C@H](CO)NC(=O)[C@H](Cc1c[nH]c2ccccc12)NC(=O)[C@H](Cc1ccc(O)cc1)NC(=O)c1ccc(F)cc1)c1ccc(-c2c3nc(c(-c4ccccc4)c4ccc([nH]4)c(-c4ccccc4)c4nc(c(-c5ccccc5)c5ccc2[nH]5)C=C4)C=C3)cc1
REMARK SMILES IDX 9 1 8 2 7 3 6 4 5 5 4 6 3 7 1 8 2 9 52 11 53 12 99 13 54 14
REMARK SMILES IDX 98 15 55 16 56 17 57 18 92 19 58 20 97 21 91 22 93 23 59 24
REMARK SMILES IDX 96 25 90 26 89 27 60 29 82 30 67 31 81 32 68 33 71 34 80 35
REMARK SMILES IDX 94 36 69 37 70 38 79 40 95 41 72 42 61 43 62 44 66 45 63 46
REMARK SMILES IDX 65 47 64 48 83 49 84 50 88 51 85 52 87 53 86 54 73 55 74 56
REMARK SMILES IDX 78 57 75 58 77 59 76 60 10 61 11 62 12 64 13 65 16 66 17 67
REMARK SMILES IDX 18 69 19 70 30 71 31 72 32 74 33 75 42 76 43 77 44 79 45 80
REMARK SMILES IDX 46 81 51 82 47 83 50 84 48 85 49 86 34 87 35 88 36 89 41 90
REMARK SMILES IDX 37 91 40 92 38 93 39 94 20 96 21 97 22 98 29 99 23 100
REMARK SMILES IDX 24 101 28 102 25 104 27 105 26 106 14 107 15 108
REMARK H PARENT 3 10 93 28 71 39 10 63 16 68 30 73 42 78 39 95 23 103 15 109
REMARK Flexibility Score: inf
ROOT
ATOM      1  C   UNL A   1      41.183  29.837  29.953  1.00  0.00     0.116 C 
ENDROOT
BRANCH   1   2
ATOM      2  C   UNL A   1      40.512  29.446  28.639  1.00  0.00     0.021 C 
BRANCH   2   3
ATOM      3  C   UNL A   1      39.875  28.059  28.648  1.00  0.00     0.002 C 
BRANCH   3   4
ATOM      4  C   UNL A   1      40.563  27.031  27.744  1.00  0.00     0.002 C 
BRANCH   4   5
ATOM      5  C   UNL A   1      39.826  25.699  27.600  1.00  0.00     0.021 C 
BRANCH   5   6
ATOM      6  C   UNL A   1      40.042  25.004  26.264  1.00  0.00     0.116 C 
BRANCH   6   7
ATOM      7  N   UNL A   1      40.671  23.701  26.421  1.00  0.00    -0.352 N 
ATOM      8  O   UNL A   1      42.353  22.195  26.312  1.00  0.00    -0.269 OA
ATOM      9  C   UNL A   1      42.002  23.372  26.369  1.00  0.00     0.251 C 
ATOM     10  H   UNL A   1      40.056  22.951  26.588  1.00  0.00     0.163 HD
BRANCH   9  11
ATOM     11  C   UNL A   1      43.011  24.448  26.373  1.00  0.00     0.039 A 
ATOM     12  C   UNL A   1      43.622  24.827  27.570  1.00  0.00     0.014 A 
ATOM     13  C   UNL A   1      43.346  25.085  25.175  1.00  0.00     0.014 A 
ATOM     14  C   UNL A   1      44.451  25.937  27.596  1.00  0.00     0.010 A 
ATOM     15  C   UNL A   1      44.265  26.137  25.188  1.00  0.00     0.010 A 
ATOM     16  C   UNL A   1      44.807  26.587  26.401  1.00  0.00    -0.014 A 
BRANCH  16  17
ATOM     17  C   UNL A   1      45.815  27.673  26.453  1.00  0.00     0.031 A 
ATOM     18  C   UNL A   1      47.277  27.400  26.243  1.00  0.00     0.074 A 
ATOM     19  C   UNL A   1      45.381  28.934  26.653  1.00  0.00     0.049 A 
ATOM     20  N   UNL A   1      48.275  28.247  26.226  1.00  0.00    -0.248 NA
ATOM     21  C   UNL A   1      47.675  25.999  26.031  1.00  0.00     0.031 C 
ATOM     22  C   UNL A   1      43.983  29.320  26.873  1.00  0.00     0.029 A 
ATOM     23  N   UNL A   1      46.059  30.124  26.678  1.00  0.00    -0.354 N 
ATOM     24  C   UNL A   1      49.417  27.487  26.008  1.00  0.00     0.074 A 
ATOM     25  C   UNL A   1      48.994  26.104  25.937  1.00  0.00     0.031 C 
ATOM     26  C   UNL A   1      43.901  30.654  26.955  1.00  0.00     0.029 A 
ATOM     27  C   UNL A   1      45.244  31.213  26.872  1.00  0.00     0.049 A 
ATOM     28  H   UNL A   1      47.035  30.192  26.567  1.00  0.00     0.167 HD
ATOM     29  C   UNL A   1      50.698  27.905  25.870  1.00  0.00     0.031 A 
ATOM     30  C   UNL A   1      45.543  32.517  26.995  1.00  0.00     0.031 A 
ATOM     31  C   UNL A   1      51.115  29.283  25.960  1.00  0.00     0.049 A 
ATOM     32  C   UNL A   1      46.978  32.942  26.897  1.00  0.00     0.074 A 
ATOM     33  C   UNL A   1      52.389  29.809  25.831  1.00  0.00     0.029 A 
ATOM     34  N   UNL A   1      50.265  30.351  26.204  1.00  0.00    -0.354 N 
ATOM     35  N   UNL A   1      48.042  32.212  26.664  1.00  0.00    -0.248 NA
ATOM     36  C   UNL A   1      47.254  34.373  27.078  1.00  0.00     0.031 C 
ATOM     37  C   UNL A   1      52.318  31.188  26.054  1.00  0.00     0.029 A 
ATOM     38  C   UNL A   1      50.991  31.531  26.252  1.00  0.00     0.049 A 
ATOM     39  H   UNL A   1      49.291  30.282  26.325  1.00  0.00     0.167 HD
ATOM     40  C   UNL A   1      49.110  33.097  26.646  1.00  0.00     0.074 A 
ATOM     41  C   UNL A   1      48.560  34.421  26.863  1.00  0.00     0.031 C 
ATOM     42  C   UNL A   1      50.429  32.838  26.471  1.00  0.00     0.031 A 
BRANCH  29  43
ATOM     43  C   UNL A   1      51.752  26.859  25.625  1.00  0.00    -0.014 A 
ATOM     44  C   UNL A   1      52.251  26.069  26.673  1.00  0.00     0.009 A 
ATOM     45  C   UNL A   1      52.213  26.621  24.320  1.00  0.00     0.009 A 
ATOM     46  C   UNL A   1      53.211  25.085  26.425  1.00  0.00     0.001 A 
ATOM     47  C   UNL A   1      53.151  25.617  24.070  1.00  0.00     0.001 A 
ATOM     48  C   UNL A   1      53.655  24.855  25.123  1.00  0.00     0.000 A 
ENDBRANCH  29  43
BRANCH  30  49
ATOM     49  C   UNL A   1      44.467  33.508  27.259  1.00  0.00    -0.014 A 
ATOM     50  C   UNL A   1      43.967  33.703  28.555  1.00  0.00     0.009 A 
ATOM     51  C   UNL A   1      43.921  34.258  26.204  1.00  0.00     0.009 A 
ATOM     52  C   UNL A   1      42.921  34.598  28.782  1.00  0.00     0.001 A 
ATOM     53  C   UNL A   1      42.902  35.181  26.439  1.00  0.00     0.001 A 
ATOM     54  C   UNL A   1      42.392  35.340  27.725  1.00  0.00     0.000 A 
ENDBRANCH  30  49
BRANCH  42  55
ATOM     55  C   UNL A   1      51.356  34.022  26.466  1.00  0.00    -0.014 A 
ATOM     56  C   UNL A   1      51.966  34.480  27.646  1.00  0.00     0.009 A 
ATOM     57  C   UNL A   1      51.632  34.680  25.259  1.00  0.00     0.009 A 
ATOM     58  C   UNL A   1      52.796  35.602  27.620  1.00  0.00     0.001 A 
ATOM     59  C   UNL A   1      52.489  35.781  25.231  1.00  0.00     0.001 A 
ATOM     60  C   UNL A   1      53.060  36.249  26.414  1.00  0.00     0.000 A 
ENDBRANCH  42  55
ENDBRANCH  16  17
ENDBRANCH   9  11
ENDBRANCH   6   7
ENDBRANCH   5   6
ENDBRANCH   4   5
ENDBRANCH   3   4
ENDBRANCH   2   3
ENDBRANCH   1   2
BRANCH   1  61
ATOM     61  N   UNL A   1      40.828  28.947  31.042  1.00  0.00    -0.354 N 
ATOM     62  C   UNL A   1      39.763  28.851  31.888  1.00  0.00     0.244 C 
ATOM     63  H   UNL A   1      41.510  28.256  31.208  1.00  0.00     0.163 HD
ATOM     64  O   UNL A   1      39.844  27.957  32.738  1.00  0.00    -0.273 OA
BRANCH  62  65
ATOM     65  C   UNL A   1      38.602  29.881  31.955  1.00  0.00     0.197 C 
BRANCH  65  66
ATOM     66  N   UNL A   1      37.809  30.064  30.747  1.00  0.00    -0.340 N 
ATOM     67  C   UNL A   1      37.194  31.187  30.279  1.00  0.00     0.243 C 
ATOM     68  H   UNL A   1      37.701  29.261  30.188  1.00  0.00     0.164 HD
ATOM     69  O   UNL A   1      36.980  31.203  29.062  1.00  0.00    -0.273 OA
BRANCH  67  70
ATOM     70  C   UNL A   1      36.942  32.447  31.144  1.00  0.00     0.175 C 
BRANCH  70  71
ATOM     71  N   UNL A   1      37.461  33.636  30.455  1.00  0.00    -0.342 N 
ATOM     72  C   UNL A   1      38.530  34.432  30.759  1.00  0.00     0.243 C 
ATOM     73  H   UNL A   1      36.961  33.900  29.648  1.00  0.00     0.164 HD
ATOM     74  O   UNL A   1      38.950  35.178  29.870  1.00  0.00    -0.273 OA
BRANCH  72  75
ATOM     75  C   UNL A   1      39.189  34.406  32.155  1.00  0.00     0.176 C 
BRANCH  75  76
ATOM     76  N   UNL A   1      38.140  34.331  33.187  1.00  0.00    -0.340 N 
ATOM     77  C   UNL A   1      38.267  34.259  34.556  1.00  0.00     0.251 C 
ATOM     78  H   UNL A   1      37.215  34.330  32.849  1.00  0.00     0.164 HD
ATOM     79  O   UNL A   1      37.312  33.962  35.265  1.00  0.00    -0.269 OA
BRANCH  77  80
ATOM     80  C   UNL A   1      39.569  34.577  35.187  1.00  0.00     0.040 A 
ATOM     81  C   UNL A   1      39.937  35.912  35.337  1.00  0.00     0.017 A 
ATOM     82  C   UNL A   1      40.408  33.574  35.672  1.00  0.00     0.017 A 
ATOM     83  C   UNL A   1      41.200  36.258  35.814  1.00  0.00     0.040 A 
ATOM     84  C   UNL A   1      41.661  33.917  36.195  1.00  0.00     0.040 A 
ATOM     85  C   UNL A   1      42.059  35.252  36.228  1.00  0.00     0.123 A 
ATOM     86  F   UNL A   1      43.279  35.575  36.674  1.00  0.00    -0.207 F 
ENDBRANCH  77  80
ENDBRANCH  75  76
BRANCH  75  87
ATOM     87  C   UNL A   1      40.134  33.175  32.222  1.00  0.00     0.070 C 
BRANCH  87  88
ATOM     88  C   UNL A   1      41.625  33.465  32.186  1.00  0.00    -0.045 A 
ATOM     89  C   UNL A   1      42.578  32.458  31.984  1.00  0.00     0.007 A 
ATOM     90  C   UNL A   1      42.088  34.756  32.482  1.00  0.00     0.007 A 
ATOM     91  C   UNL A   1      43.947  32.721  32.055  1.00  0.00     0.046 A 
ATOM     92  C   UNL A   1      43.459  35.026  32.557  1.00  0.00     0.046 A 
ATOM     93  C   UNL A   1      44.377  34.007  32.346  1.00  0.00     0.115 A 
BRANCH  93  94
ATOM     94  O   UNL A   1      45.702  34.303  32.447  1.00  0.00    -0.508 OA
ATOM     95  H   UNL A   1      46.121  34.302  33.285  1.00  0.00     0.293 HD
ENDBRANCH  93  94
ENDBRANCH  87  88
ENDBRANCH  75  87
ENDBRANCH  72  75
ENDBRANCH  70  71
BRANCH  70  96
ATOM     96  C   UNL A   1      35.472  32.507  31.608  1.00  0.00     0.072 C 
BRANCH  96  97
ATOM     97  C   UNL A   1      34.674  33.595  30.974  1.00  0.00    -0.020 A 
ATOM     98  C   UNL A   1      34.126  33.604  29.708  1.00  0.00     0.087 A 
ATOM     99  C   UNL A   1      34.342  34.847  31.577  1.00  0.00     0.003 A 
ATOM    100  N   UNL A   1      33.325  34.713  29.601  1.00  0.00    -0.361 N 
ATOM    101  C   UNL A   1      33.435  35.484  30.734  1.00  0.00     0.046 A 
ATOM    102  C   UNL A   1      34.703  35.480  32.783  1.00  0.00     0.010 A 
ATOM    103  H   UNL A   1      32.757  34.925  28.827  1.00  0.00     0.166 HD
ATOM    104  C   UNL A   1      32.809  36.688  31.075  1.00  0.00     0.026 A 
ATOM    105  C   UNL A   1      34.105  36.692  33.131  1.00  0.00     0.001 A 
ATOM    106  C   UNL A   1      33.157  37.275  32.296  1.00  0.00     0.002 A 
ENDBRANCH  96  97
ENDBRANCH  70  96
ENDBRANCH  67  70
ENDBRANCH  65  66
BRANCH  65 107
ATOM    107  C   UNL A   1      37.680  29.608  33.161  1.00  0.00     0.191 C 
BRANCH 107 108
ATOM    108  O   UNL A   1      37.687  30.625  34.159  1.00  0.00    -0.394 OA
ATOM    109  H   UNL A   1      38.600  30.804  34.433  1.00  0.00     0.210 HD
ENDBRANCH 107 108
ENDBRANCH  65 107
ENDBRANCH  62  65
ENDBRANCH   1  61
TORSDOF 26
ENDMDL
MODEL 3
REMARK VINA RESULT:      -8.2      3.505      8.671
REMARK SMILES O=C(NCCCCCCNC(=O)[C@H](CO)NC(=O)[C@H](Cc1c[nH]c2ccccc12)NC(=O)[C@H](Cc1ccc(O)cc1)NC(=O)c1ccc(F)cc1)c1ccc(-c2c3nc(c(-c4ccccc4)c4ccc([nH]4)c(-c4ccccc4)c4nc(c(-c5ccccc5)c5ccc2[nH]5)C=C4)C=C3)cc1
REMARK SMILES IDX 9 1 8 2 7 3 6 4 5 5 4 6 3 7 1 8 2 9 52 11 53 12 99 13 54 14
REMARK SMILES IDX 98 15 55 16 56 17 57 18 92 19 58 20 97 21 91 22 93 23 59 24
REMARK SMILES IDX 96 25 90 26 89 27 60 29 82 30 67 31 81 32 68 33 71 34 80 35
REMARK SMILES IDX 94 36 69 37 70 38 79 40 95 41 72 42 61 43 62 44 66 45 63 46
REMARK SMILES IDX 65 47 64 48 83 49 84 50 88 51 85 52 87 53 86 54 73 55 74 56
REMARK SMILES IDX 78 57 75 58 77 59 76 60 10 61 11 62 12 64 13 65 16 66 17 67
REMARK SMILES IDX 18 69 19 70 30 71 31 72 32 74 33 75 42 76 43 77 44 79 45 80
REMARK SMILES IDX 46 81 51 82 47 83 50 84 48 85 49 86 34 87 35 88 36 89 41 90
REMARK SMILES IDX 37 91 40 92 38 93 39 94 20 96 21 97 22 98 29 99 23 100
REMARK SMILES IDX 24 101 28 102 25 104 27 105 26 106 14 107 15 108
REMARK H PARENT 3 10 93 28 71 39 10 63 16 68 30 73 42 78 39 95 23 103 15 109
REMARK Flexibility Score: inf
ROOT
ATOM      1  C   UNL A   1      43.841  34.350  35.451  1.00  0.00     0.116 C 
ENDROOT
BRANCH   1   2
ATOM      2  C   UNL A   1      44.265  35.662  34.797  1.00  0.00     0.021 C 
BRANCH   2   3
ATOM      3  C   UNL A   1      43.265  36.208  33.780  1.00  0.00     0.002 C 
BRANCH   3   4
ATOM      4  C   UNL A   1      43.720  36.115  32.320  1.00  0.00     0.002 C 
BRANCH   4   5
ATOM      5  C   UNL A   1      43.785  37.448  31.575  1.00  0.00     0.021 C 
BRANCH   5   6
ATOM      6  C   UNL A   1      43.813  37.319  30.059  1.00  0.00     0.116 C 
BRANCH   6   7
ATOM      7  N   UNL A   1      45.152  37.499  29.520  1.00  0.00    -0.352 N 
ATOM      8  O   UNL A   1      47.207  36.850  28.837  1.00  0.00    -0.269 OA
ATOM      9  C   UNL A   1      46.035  36.553  29.065  1.00  0.00     0.251 C 
ATOM     10  H   UNL A   1      45.469  38.430  29.475  1.00  0.00     0.163 HD
BRANCH   9  11
ATOM     11  C   UNL A   1      45.567  35.169  28.861  1.00  0.00     0.039 A 
ATOM     12  C   UNL A   1      45.793  34.205  29.845  1.00  0.00     0.014 A 
ATOM     13  C   UNL A   1      44.902  34.833  27.679  1.00  0.00     0.014 A 
ATOM     14  C   UNL A   1      45.491  32.877  29.586  1.00  0.00     0.010 A 
ATOM     15  C   UNL A   1      44.503  33.511  27.465  1.00  0.00     0.010 A 
ATOM     16  C   UNL A   1      44.816  32.518  28.407  1.00  0.00    -0.014 A 
BRANCH  16  17
ATOM     17  C   UNL A   1      44.376  31.112  28.236  1.00  0.00     0.031 A 
ATOM     18  C   UNL A   1      43.034  30.644  28.723  1.00  0.00     0.074 A 
ATOM     19  C   UNL A   1      45.199  30.263  27.590  1.00  0.00     0.049 A 
ATOM     20  N   UNL A   1      42.494  29.456  28.619  1.00  0.00    -0.248 NA
ATOM     21  C   UNL A   1      42.191  31.628  29.421  1.00  0.00     0.031 C 
ATOM     22  C   UNL A   1      46.529  30.605  27.075  1.00  0.00     0.029 A 
ATOM     23  N   UNL A   1      45.034  28.952  27.229  1.00  0.00    -0.354 N 
ATOM     24  C   UNL A   1      41.254  29.545  29.240  1.00  0.00     0.074 A 
ATOM     25  C   UNL A   1      41.137  30.895  29.753  1.00  0.00     0.031 C 
ATOM     26  C   UNL A   1      47.033  29.551  26.420  1.00  0.00     0.029 A 
ATOM     27  C   UNL A   1      46.101  28.438  26.534  1.00  0.00     0.049 A 
ATOM     28  H   UNL A   1      44.228  28.428  27.448  1.00  0.00     0.167 HD
ATOM     29  C   UNL A   1      40.299  28.592  29.362  1.00  0.00     0.031 A 
ATOM     30  C   UNL A   1      46.320  27.199  26.060  1.00  0.00     0.031 A 
ATOM     31  C   UNL A   1      40.429  27.245  28.865  1.00  0.00     0.049 A 
ATOM     32  C   UNL A   1      45.268  26.150  26.263  1.00  0.00     0.074 A 
ATOM     33  C   UNL A   1      39.516  26.207  28.937  1.00  0.00     0.029 A 
ATOM     34  N   UNL A   1      41.545  26.750  28.207  1.00  0.00    -0.354 N 
ATOM     35  N   UNL A   1      44.091  26.260  26.830  1.00  0.00    -0.248 NA
ATOM     36  C   UNL A   1      45.574  24.805  25.761  1.00  0.00     0.031 C 
ATOM     37  C   UNL A   1      40.102  25.069  28.372  1.00  0.00     0.029 A 
ATOM     38  C   UNL A   1      41.352  25.416  27.888  1.00  0.00     0.049 A 
ATOM     39  H   UNL A   1      42.355  27.270  27.998  1.00  0.00     0.167 HD
ATOM     40  C   UNL A   1      43.506  25.006  26.730  1.00  0.00     0.074 A 
ATOM     41  C   UNL A   1      44.448  24.161  26.023  1.00  0.00     0.031 C 
ATOM     42  C   UNL A   1      42.300  24.589  27.186  1.00  0.00     0.031 A 
BRANCH  29  43
ATOM     43  C   UNL A   1      39.029  28.965  30.079  1.00  0.00    -0.014 A 
ATOM     44  C   UNL A   1      37.961  29.573  29.400  1.00  0.00     0.009 A 
ATOM     45  C   UNL A   1      38.876  28.656  31.441  1.00  0.00     0.009 A 
ATOM     46  C   UNL A   1      36.779  29.891  30.075  1.00  0.00     0.001 A 
ATOM     47  C   UNL A   1      37.683  28.947  32.106  1.00  0.00     0.001 A 
ATOM     48  C   UNL A   1      36.639  29.572  31.425  1.00  0.00     0.000 A 
ENDBRANCH  29  43
BRANCH  30  49
ATOM     49  C   UNL A   1      47.602  26.877  25.378  1.00  0.00    -0.014 A 
ATOM     50  C   UNL A   1      48.678  26.325  26.089  1.00  0.00     0.009 A 
ATOM     51  C   UNL A   1      47.758  27.136  24.006  1.00  0.00     0.009 A 
ATOM     52  C   UNL A   1      49.893  26.076  25.449  1.00  0.00     0.001 A 
ATOM     53  C   UNL A   1      48.961  26.849  23.361  1.00  0.00     0.001 A 
ATOM     54  C   UNL A   1      50.033  26.334  24.085  1.00  0.00     0.000 A 
ENDBRANCH  30  49
BRANCH  42  55
ATOM     55  C   UNL A   1      41.921  23.164  26.894  1.00  0.00    -0.014 A 
ATOM     56  C   UNL A   1      40.648  22.829  26.405  1.00  0.00     0.009 A 
ATOM     57  C   UNL A   1      42.860  22.142  27.101  1.00  0.00     0.009 A 
ATOM     58  C   UNL A   1      40.310  21.494  26.175  1.00  0.00     0.001 A 
ATOM     59  C   UNL A   1      42.530  20.812  26.837  1.00  0.00     0.001 A 
ATOM     60  C   UNL A   1      41.252  20.488  26.387  1.00  0.00     0.000 A 
ENDBRANCH  42  55
ENDBRANCH  16  17
ENDBRANCH   9  11
ENDBRANCH   6   7
ENDBRANCH   5   6
ENDBRANCH   4   5
ENDBRANCH   3   4
ENDBRANCH   2   3
ENDBRANCH   1   2
BRANCH   1  61
ATOM     61  N   UNL A   1      43.122  34.557  36.695  1.00  0.00    -0.354 N 
ATOM     62  C   UNL A   1      41.813  34.486  37.063  1.00  0.00     0.244 C 
ATOM     63  H   UNL A   1      43.716  34.806  37.441  1.00  0.00     0.163 HD
ATOM     64  O   UNL A   1      41.580  34.781  38.241  1.00  0.00    -0.273 OA
BRANCH  62  65
ATOM     65  C   UNL A   1      40.635  34.252  36.077  1.00  0.00     0.197 C 
BRANCH  65  66
ATOM     66  N   UNL A   1      39.516  33.455  36.561  1.00  0.00    -0.340 N 
ATOM     67  C   UNL A   1      39.258  32.129  36.382  1.00  0.00     0.243 C 
ATOM     68  H   UNL A   1      38.848  33.945  37.093  1.00  0.00     0.164 HD
ATOM     69  O   UNL A   1      38.525  31.614  37.233  1.00  0.00    -0.273 OA
BRANCH  67  70
ATOM     70  C   UNL A   1      39.969  31.257  35.317  1.00  0.00     0.175 C 
BRANCH  70  71
ATOM     71  N   UNL A   1      40.178  29.901  35.842  1.00  0.00    -0.342 N 
ATOM     72  C   UNL A   1      41.303  29.124  35.847  1.00  0.00     0.243 C 
ATOM     73  H   UNL A   1      39.385  29.487  36.254  1.00  0.00     0.164 HD
ATOM     74  O   UNL A   1      41.318  28.155  36.612  1.00  0.00    -0.273 OA
BRANCH  72  75
ATOM     75  C   UNL A   1      42.508  29.437  34.935  1.00  0.00     0.176 C 
BRANCH  75  76
ATOM     76  N   UNL A   1      43.557  28.424  35.149  1.00  0.00    -0.340 N 
ATOM     77  C   UNL A   1      44.863  28.592  35.552  1.00  0.00     0.251 C 
ATOM     78  H   UNL A   1      43.285  27.493  34.979  1.00  0.00     0.164 HD
ATOM     79  O   UNL A   1      45.677  27.680  35.454  1.00  0.00    -0.269 OA
BRANCH  77  80
ATOM     80  C   UNL A   1      45.286  29.883  36.141  1.00  0.00     0.040 A 
ATOM     81  C   UNL A   1      46.095  30.733  35.390  1.00  0.00     0.017 A 
ATOM     82  C   UNL A   1      44.857  30.282  37.407  1.00  0.00     0.017 A 
ATOM     83  C   UNL A   1      46.615  31.901  35.944  1.00  0.00     0.040 A 
ATOM     84  C   UNL A   1      45.341  31.479  37.952  1.00  0.00     0.040 A 
ATOM     85  C   UNL A   1      46.242  32.257  37.231  1.00  0.00     0.123 A 
ATOM     86  F   UNL A   1      46.749  33.371  37.775  1.00  0.00    -0.207 F 
ENDBRANCH  77  80
ENDBRANCH  75  76
BRANCH  75  87
ATOM     87  C   UNL A   1      42.016  29.434  33.462  1.00  0.00     0.070 C 
BRANCH  87  88
ATOM     88  C   UNL A   1      42.983  28.884  32.427  1.00  0.00    -0.045 A 
ATOM     89  C   UNL A   1      42.874  27.583  31.917  1.00  0.00     0.007 A 
ATOM     90  C   UNL A   1      44.097  29.646  32.046  1.00  0.00     0.007 A 
ATOM     91  C   UNL A   1      43.828  27.057  31.045  1.00  0.00     0.046 A 
ATOM     92  C   UNL A   1      45.058  29.124  31.173  1.00  0.00     0.046 A 
ATOM     93  C   UNL A   1      44.917  27.833  30.682  1.00  0.00     0.115 A 
BRANCH  93  94
ATOM     94  O   UNL A   1      45.882  27.351  29.850  1.00  0.00    -0.508 OA
ATOM     95  H   UNL A   1      46.555  27.921  29.533  1.00  0.00     0.293 HD
ENDBRANCH  93  94
ENDBRANCH  87  88
ENDBRANCH  75  87
ENDBRANCH  72  75
ENDBRANCH  70  71
BRANCH  70  96
ATOM     96  C   UNL A   1      39.251  31.365  33.955  1.00  0.00     0.072 C 
BRANCH  96  97
ATOM     97  C   UNL A   1      39.786  32.435  33.065  1.00  0.00    -0.020 A 
ATOM     98  C   UNL A   1      41.038  33.012  33.106  1.00  0.00     0.087 A 
ATOM     99  C   UNL A   1      39.074  33.068  32.001  1.00  0.00     0.003 A 
ATOM    100  N   UNL A   1      41.171  33.815  32.002  1.00  0.00    -0.361 N 
ATOM    101  C   UNL A   1      39.986  33.860  31.306  1.00  0.00     0.046 A 
ATOM    102  C   UNL A   1      37.743  33.011  31.542  1.00  0.00     0.010 A 
ATOM    103  H   UNL A   1      41.994  34.290  31.746  1.00  0.00     0.166 HD
ATOM    104  C   UNL A   1      39.651  34.536  30.128  1.00  0.00     0.026 A 
ATOM    105  C   UNL A   1      37.384  33.696  30.379  1.00  0.00     0.001 A 
ATOM    106  C   UNL A   1      38.332  34.430  29.674  1.00  0.00     0.002 A 
ENDBRANCH  96  97
ENDBRANCH  70  96
ENDBRANCH  67  70
ENDBRANCH  65  66
BRANCH  65 107
ATOM    107  C   UNL A   1      40.126  35.582  35.486  1.00  0.00     0.191 C 
BRANCH 107 108
ATOM    108  O   UNL A   1      38.921  35.476  34.732  1.00  0.00    -0.394 OA
ATOM    109  H   UNL A   1      38.180  35.818  35.256  1.00  0.00     0.210 HD
ENDBRANCH 107 108
ENDBRANCH  65 107
ENDBRANCH  62  65
ENDBRANCH   1  61
TORSDOF 26
ENDMDL
