MODEL 1
REMARK VINA RESULT:     -11.3      0.000      0.000
REMARK SMILES Cc1ccc(F)c(C(=O)N[C@@H]2C=C[C@@H](C(=O)NCCCCCCNC(=O)c3ccc(-c4c5nc(c(-c6ccccc6)c6ccc([nH]6)c(-c6ccccc6)c6nc(c(-c7ccccc7)c7ccc4[nH]7)C=C6)C=C5)cc3)C2)c1
REMARK SMILES IDX 20 1 19 2 18 3 17 4 15 5 16 6 14 8 11 9 12 10 75 11 13 12
REMARK SMILES IDX 10 13 8 14 9 15 7 17 1 18 2 19 3 20 76 21 4 22 5 23 6 24
REMARK SMILES IDX 21 25 22 26 23 27 24 28 25 29 26 31 27 32 28 33 74 34 29 35
REMARK SMILES IDX 73 36 30 37 31 38 32 39 67 40 33 41 72 42 66 43 68 44 34 45
REMARK SMILES IDX 71 46 65 47 64 48 35 50 57 51 42 52 56 53 43 54 46 55 55 56
REMARK SMILES IDX 69 57 44 58 45 59 54 61 70 62 47 63 36 64 37 65 41 66 38 67
REMARK SMILES IDX 40 68 39 69 58 70 59 71 63 72 60 73 62 74 61 75 48 76 49 77
REMARK SMILES IDX 53 78 50 79 52 80 51 81
REMARK H PARENT 17 7 10 16 24 30 68 49 46 60
REMARK Flexibility Score: inf
ROOT
ATOM      1  C   UNL A   1      33.501  24.326  23.099  1.00  0.00     0.002 C 
ENDROOT
BRANCH   1   2
ATOM      2  C   UNL A   1      33.266  25.435  22.067  1.00  0.00     0.021 C 
BRANCH   2   3
ATOM      3  C   UNL A   1      33.079  26.832  22.658  1.00  0.00     0.116 C 
BRANCH   3   4
ATOM      4  N   UNL A   1      31.926  27.519  22.112  1.00  0.00    -0.356 N 
ATOM      5  C   UNL A   1      30.765  27.942  22.678  1.00  0.00     0.227 C 
ATOM      6  O   UNL A   1      30.031  28.640  21.970  1.00  0.00    -0.274 OA
ATOM      7  H   UNL A   1      31.997  27.716  21.150  1.00  0.00     0.163 HD
BRANCH   5   8
ATOM      8  C   UNL A   1      30.297  27.527  24.082  1.00  0.00     0.103 C 
ATOM      9  C   UNL A   1      30.714  25.327  25.115  1.00  0.00     0.106 C 
ATOM     10  C   UNL A   1      31.439  26.431  25.821  1.00  0.00    -0.006 C 
ATOM     11  C   UNL A   1      29.818  26.079  24.124  1.00  0.00     0.047 C 
ATOM     12  C   UNL A   1      31.267  27.614  25.215  1.00  0.00    -0.016 C 
BRANCH   9  13
ATOM     13  N   UNL A   1      30.031  24.474  26.060  1.00  0.00    -0.346 N 
ATOM     14  C   UNL A   1      30.446  23.319  26.694  1.00  0.00     0.254 C 
ATOM     15  O   UNL A   1      29.769  22.892  27.626  1.00  0.00    -0.269 OA
ATOM     16  H   UNL A   1      29.118  24.763  26.289  1.00  0.00     0.164 HD
BRANCH  14  17
ATOM     17  C   UNL A   1      31.631  22.553  26.228  1.00  0.00     0.075 A 
ATOM     18  C   UNL A   1      32.487  19.772  23.786  1.00  0.00     0.044 C 
ATOM     19  C   UNL A   1      32.644  20.822  24.847  1.00  0.00    -0.050 A 
ATOM     20  C   UNL A   1      33.770  20.824  25.674  1.00  0.00     0.006 A 
ATOM     21  C   UNL A   1      31.629  21.769  25.068  1.00  0.00     0.020 A 
ATOM     22  C   UNL A   1      33.846  21.709  26.747  1.00  0.00     0.040 A 
ATOM     23  C   UNL A   1      32.769  22.544  27.037  1.00  0.00     0.135 A 
ATOM     24  F   UNL A   1      32.842  23.292  28.147  1.00  0.00    -0.206 F 
ENDBRANCH  14  17
ENDBRANCH   9  13
ENDBRANCH   5   8
ENDBRANCH   3   4
ENDBRANCH   2   3
ENDBRANCH   1   2
BRANCH   1  25
ATOM     25  C   UNL A   1      34.464  24.698  24.231  1.00  0.00     0.002 C 
BRANCH  25  26
ATOM     26  C   UNL A   1      35.759  23.882  24.270  1.00  0.00     0.021 C 
BRANCH  26  27
ATOM     27  C   UNL A   1      36.532  23.987  25.580  1.00  0.00     0.116 C 
BRANCH  27  28
ATOM     28  N   UNL A   1      37.382  22.829  25.805  1.00  0.00    -0.352 N 
ATOM     29  C   UNL A   1      38.671  22.775  26.277  1.00  0.00     0.251 C 
ATOM     30  H   UNL A   1      36.976  21.959  25.588  1.00  0.00     0.163 HD
ATOM     31  O   UNL A   1      39.317  21.738  26.201  1.00  0.00    -0.269 OA
BRANCH  29  32
ATOM     32  C   UNL A   1      39.285  23.988  26.860  1.00  0.00     0.039 A 
ATOM     33  C   UNL A   1      40.016  24.840  26.030  1.00  0.00     0.014 A 
ATOM     34  C   UNL A   1      39.132  24.284  28.217  1.00  0.00     0.014 A 
ATOM     35  C   UNL A   1      40.531  26.030  26.546  1.00  0.00     0.010 A 
ATOM     36  C   UNL A   1      39.585  25.504  28.713  1.00  0.00     0.010 A 
ATOM     37  C   UNL A   1      40.282  26.392  27.881  1.00  0.00    -0.014 A 
BRANCH  37  38
ATOM     38  C   UNL A   1      40.708  27.714  28.407  1.00  0.00     0.031 A 
ATOM     39  C   UNL A   1      42.136  27.955  28.809  1.00  0.00     0.074 A 
ATOM     40  C   UNL A   1      39.785  28.679  28.588  1.00  0.00     0.049 A 
ATOM     41  N   UNL A   1      42.674  29.027  29.334  1.00  0.00    -0.248 NA
ATOM     42  C   UNL A   1      43.079  26.842  28.618  1.00  0.00     0.031 C 
ATOM     43  C   UNL A   1      38.358  28.557  28.278  1.00  0.00     0.029 A 
ATOM     44  N   UNL A   1      39.906  29.954  29.084  1.00  0.00    -0.354 N 
ATOM     45  C   UNL A   1      44.010  28.713  29.548  1.00  0.00     0.074 A 
ATOM     46  C   UNL A   1      44.192  27.338  29.139  1.00  0.00     0.031 C 
ATOM     47  C   UNL A   1      37.743  29.714  28.568  1.00  0.00     0.029 A 
ATOM     48  C   UNL A   1      38.719  30.644  29.129  1.00  0.00     0.049 A 
ATOM     49  H   UNL A   1      40.763  30.337  29.380  1.00  0.00     0.167 HD
ATOM     50  C   UNL A   1      44.999  29.504  30.029  1.00  0.00     0.031 A 
ATOM     51  C   UNL A   1      38.440  31.879  29.583  1.00  0.00     0.031 A 
ATOM     52  C   UNL A   1      44.817  30.874  30.432  1.00  0.00     0.049 A 
ATOM     53  C   UNL A   1      39.551  32.726  30.138  1.00  0.00     0.074 A 
ATOM     54  C   UNL A   1      45.773  31.776  30.866  1.00  0.00     0.029 A 
ATOM     55  N   UNL A   1      43.599  31.533  30.465  1.00  0.00    -0.354 N 
ATOM     56  N   UNL A   1      40.826  32.443  30.249  1.00  0.00    -0.248 NA
ATOM     57  C   UNL A   1      39.185  34.064  30.624  1.00  0.00     0.031 C 
ATOM     58  C   UNL A   1      45.122  32.960  31.229  1.00  0.00     0.029 A 
ATOM     59  C   UNL A   1      43.771  32.818  30.953  1.00  0.00     0.049 A 
ATOM     60  H   UNL A   1      42.739  31.147  30.182  1.00  0.00     0.167 HD
ATOM     61  C   UNL A   1      41.418  33.574  30.799  1.00  0.00     0.074 A 
ATOM     62  C   UNL A   1      40.365  34.554  30.973  1.00  0.00     0.031 C 
ATOM     63  C   UNL A   1      42.715  33.780  31.133  1.00  0.00     0.031 A 
BRANCH  50  64
ATOM     64  C   UNL A   1      46.372  28.904  30.162  1.00  0.00    -0.014 A 
ATOM     65  C   UNL A   1      46.807  28.334  31.370  1.00  0.00     0.009 A 
ATOM     66  C   UNL A   1      47.223  28.860  29.047  1.00  0.00     0.009 A 
ATOM     67  C   UNL A   1      48.078  27.761  31.464  1.00  0.00     0.001 A 
ATOM     68  C   UNL A   1      48.481  28.259  29.136  1.00  0.00     0.001 A 
ATOM     69  C   UNL A   1      48.910  27.718  30.347  1.00  0.00     0.000 A 
ENDBRANCH  50  64
BRANCH  51  70
ATOM     70  C   UNL A   1      37.043  32.390  29.547  1.00  0.00    -0.014 A 
ATOM     71  C   UNL A   1      36.564  33.090  28.429  1.00  0.00     0.009 A 
ATOM     72  C   UNL A   1      36.184  32.192  30.640  1.00  0.00     0.009 A 
ATOM     73  C   UNL A   1      35.265  33.606  28.419  1.00  0.00     0.001 A 
ATOM     74  C   UNL A   1      34.876  32.679  30.613  1.00  0.00     0.001 A 
ATOM     75  C   UNL A   1      34.421  33.397  29.508  1.00  0.00     0.000 A 
ENDBRANCH  51  70
BRANCH  63  76
ATOM     76  C   UNL A   1      43.072  35.124  31.705  1.00  0.00    -0.014 A 
ATOM     77  C   UNL A   1      43.551  36.159  30.886  1.00  0.00     0.009 A 
ATOM     78  C   UNL A   1      42.886  35.370  33.074  1.00  0.00     0.009 A 
ATOM     79  C   UNL A   1      43.868  37.404  31.435  1.00  0.00     0.001 A 
ATOM     80  C   UNL A   1      43.172  36.625  33.614  1.00  0.00     0.001 A 
ATOM     81  C   UNL A   1      43.672  37.637  32.796  1.00  0.00     0.000 A 
ENDBRANCH  63  76
ENDBRANCH  37  38
ENDBRANCH  29  32
ENDBRANCH  27  28
ENDBRANCH  26  27
ENDBRANCH  25  26
ENDBRANCH   1  25
TORSDOF 15
ENDMDL
MODEL 2
REMARK VINA RESULT:     -11.1      2.323      4.426
REMARK SMILES Cc1ccc(F)c(C(=O)N[C@@H]2C=C[C@@H](C(=O)NCCCCCCNC(=O)c3ccc(-c4c5nc(c(-c6ccccc6)c6ccc([nH]6)c(-c6ccccc6)c6nc(c(-c7ccccc7)c7ccc4[nH]7)C=C6)C=C5)cc3)C2)c1
REMARK SMILES IDX 20 1 19 2 18 3 17 4 15 5 16 6 14 8 11 9 12 10 75 11 13 12
REMARK SMILES IDX 10 13 8 14 9 15 7 17 1 18 2 19 3 20 76 21 4 22 5 23 6 24
REMARK SMILES IDX 21 25 22 26 23 27 24 28 25 29 26 31 27 32 28 33 74 34 29 35
REMARK SMILES IDX 73 36 30 37 31 38 32 39 67 40 33 41 72 42 66 43 68 44 34 45
REMARK SMILES IDX 71 46 65 47 64 48 35 50 57 51 42 52 56 53 43 54 46 55 55 56
REMARK SMILES IDX 69 57 44 58 45 59 54 61 70 62 47 63 36 64 37 65 41 66 38 67
REMARK SMILES IDX 40 68 39 69 58 70 59 71 63 72 60 73 62 74 61 75 48 76 49 77
REMARK SMILES IDX 53 78 50 79 52 80 51 81
REMARK H PARENT 17 7 10 16 24 30 68 49 46 60
REMARK Flexibility Score: inf
ROOT
ATOM      1  C   UNL A   1      34.568  20.663  24.968  1.00  0.00     0.002 C 
ENDROOT
BRANCH   1   2
ATOM      2  C   UNL A   1      33.604  20.739  26.157  1.00  0.00     0.021 C 
BRANCH   2   3
ATOM      3  C   UNL A   1      33.528  22.107  26.836  1.00  0.00     0.116 C 
BRANCH   3   4
ATOM      4  N   UNL A   1      32.190  22.434  27.284  1.00  0.00    -0.356 N 
ATOM      5  C   UNL A   1      31.264  23.316  26.823  1.00  0.00     0.227 C 
ATOM      6  O   UNL A   1      30.143  23.256  27.339  1.00  0.00    -0.274 OA
ATOM      7  H   UNL A   1      31.896  21.922  28.073  1.00  0.00     0.163 HD
BRANCH   5   8
ATOM      8  C   UNL A   1      31.567  24.410  25.787  1.00  0.00     0.103 C 
ATOM      9  C   UNL A   1      31.269  24.169  23.351  1.00  0.00     0.106 C 
ATOM     10  C   UNL A   1      30.322  25.167  23.942  1.00  0.00    -0.006 C 
ATOM     11  C   UNL A   1      32.205  23.845  24.521  1.00  0.00     0.047 C 
ATOM     12  C   UNL A   1      30.438  25.244  25.275  1.00  0.00    -0.016 C 
BRANCH   9  13
ATOM     13  N   UNL A   1      31.903  24.701  22.167  1.00  0.00    -0.346 N 
ATOM     14  C   UNL A   1      32.623  25.864  21.975  1.00  0.00     0.254 C 
ATOM     15  O   UNL A   1      33.253  25.992  20.929  1.00  0.00    -0.269 OA
ATOM     16  H   UNL A   1      31.804  24.142  21.362  1.00  0.00     0.164 HD
BRANCH  14  17
ATOM     17  C   UNL A   1      32.586  26.977  22.958  1.00  0.00     0.075 A 
ATOM     18  C   UNL A   1      34.018  27.866  26.363  1.00  0.00     0.044 C 
ATOM     19  C   UNL A   1      33.226  27.963  25.091  1.00  0.00    -0.050 A 
ATOM     20  C   UNL A   1      32.170  28.871  24.987  1.00  0.00     0.006 A 
ATOM     21  C   UNL A   1      33.493  27.094  24.018  1.00  0.00     0.020 A 
ATOM     22  C   UNL A   1      31.350  28.860  23.861  1.00  0.00     0.040 A 
ATOM     23  C   UNL A   1      31.540  27.899  22.871  1.00  0.00     0.135 A 
ATOM     24  F   UNL A   1      30.654  27.856  21.865  1.00  0.00    -0.206 F 
ENDBRANCH  14  17
ENDBRANCH   9  13
ENDBRANCH   5   8
ENDBRANCH   3   4
ENDBRANCH   2   3
ENDBRANCH   1   2
BRANCH   1  25
ATOM     25  C   UNL A   1      35.965  21.230  25.240  1.00  0.00     0.002 C 
BRANCH  25  26
ATOM     26  C   UNL A   1      37.119  20.263  24.958  1.00  0.00     0.021 C 
BRANCH  26  27
ATOM     27  C   UNL A   1      38.490  20.770  25.396  1.00  0.00     0.116 C 
BRANCH  27  28
ATOM     28  N   UNL A   1      39.442  19.686  25.569  1.00  0.00    -0.352 N 
ATOM     29  C   UNL A   1      40.750  19.736  25.984  1.00  0.00     0.251 C 
ATOM     30  H   UNL A   1      39.100  18.787  25.358  1.00  0.00     0.163 HD
ATOM     31  O   UNL A   1      41.477  18.758  25.867  1.00  0.00    -0.269 OA
BRANCH  29  32
ATOM     32  C   UNL A   1      41.286  20.990  26.555  1.00  0.00     0.039 A 
ATOM     33  C   UNL A   1      41.908  21.907  25.706  1.00  0.00     0.014 A 
ATOM     34  C   UNL A   1      41.166  21.262  27.921  1.00  0.00     0.014 A 
ATOM     35  C   UNL A   1      42.344  23.132  26.215  1.00  0.00     0.010 A 
ATOM     36  C   UNL A   1      41.538  22.511  28.413  1.00  0.00     0.010 A 
ATOM     37  C   UNL A   1      42.124  23.461  27.563  1.00  0.00    -0.014 A 
BRANCH  37  38
ATOM     38  C   UNL A   1      42.461  24.809  28.087  1.00  0.00     0.031 A 
ATOM     39  C   UNL A   1      43.857  25.127  28.544  1.00  0.00     0.074 A 
ATOM     40  C   UNL A   1      41.484  25.729  28.214  1.00  0.00     0.049 A 
ATOM     41  N   UNL A   1      44.318  26.231  29.075  1.00  0.00    -0.248 NA
ATOM     42  C   UNL A   1      44.861  24.059  28.409  1.00  0.00     0.031 C 
ATOM     43  C   UNL A   1      40.079  25.531  27.848  1.00  0.00     0.029 A 
ATOM     44  N   UNL A   1      41.521  27.014  28.696  1.00  0.00    -0.354 N 
ATOM     45  C   UNL A   1      45.658  25.987  29.349  1.00  0.00     0.074 A 
ATOM     46  C   UNL A   1      45.925  24.617  28.968  1.00  0.00     0.031 C 
ATOM     47  C   UNL A   1      39.396  26.659  28.095  1.00  0.00     0.029 A 
ATOM     48  C   UNL A   1      40.299  27.644  28.682  1.00  0.00     0.049 A 
ATOM     49  H   UNL A   1      42.344  27.443  29.022  1.00  0.00     0.167 HD
ATOM     50  C   UNL A   1      46.585  26.833  29.859  1.00  0.00     0.031 A 
ATOM     51  C   UNL A   1      39.940  28.870  29.105  1.00  0.00     0.031 A 
ATOM     52  C   UNL A   1      46.319  28.197  30.234  1.00  0.00     0.049 A 
ATOM     53  C   UNL A   1      40.984  29.778  29.694  1.00  0.00     0.074 A 
ATOM     54  C   UNL A   1      47.209  29.152  30.694  1.00  0.00     0.029 A 
ATOM     55  N   UNL A   1      45.068  28.795  30.206  1.00  0.00    -0.354 N 
ATOM     56  N   UNL A   1      42.266  29.561  29.862  1.00  0.00    -0.248 NA
ATOM     57  C   UNL A   1      40.532  31.102  30.144  1.00  0.00     0.031 C 
ATOM     58  C   UNL A   1      46.486  30.305  31.011  1.00  0.00     0.029 A 
ATOM     59  C   UNL A   1      45.156  30.092  30.682  1.00  0.00     0.049 A 
ATOM     60  H   UNL A   1      44.241  28.362  29.894  1.00  0.00     0.167 HD
ATOM     61  C   UNL A   1      42.777  30.727  30.419  1.00  0.00     0.074 A 
ATOM     62  C   UNL A   1      41.671  31.655  30.534  1.00  0.00     0.031 C 
ATOM     63  C   UNL A   1      44.047  31.002  30.803  1.00  0.00     0.031 A 
BRANCH  50  64
ATOM     64  C   UNL A   1      47.980  26.304  30.058  1.00  0.00    -0.014 A 
ATOM     65  C   UNL A   1      48.948  26.395  29.045  1.00  0.00     0.009 A 
ATOM     66  C   UNL A   1      48.344  25.755  31.297  1.00  0.00     0.009 A 
ATOM     67  C   UNL A   1      50.243  25.918  29.261  1.00  0.00     0.001 A 
ATOM     68  C   UNL A   1      49.649  25.307  31.520  1.00  0.00     0.001 A 
ATOM     69  C   UNL A   1      50.594  25.381  30.498  1.00  0.00     0.000 A 
ENDBRANCH  50  64
BRANCH  51  70
ATOM     70  C   UNL A   1      38.523  29.309  29.004  1.00  0.00    -0.014 A 
ATOM     71  C   UNL A   1      38.026  29.859  27.813  1.00  0.00     0.009 A 
ATOM     72  C   UNL A   1      37.661  29.193  30.107  1.00  0.00     0.009 A 
ATOM     73  C   UNL A   1      36.706  30.312  27.737  1.00  0.00     0.001 A 
ATOM     74  C   UNL A   1      36.333  29.615  30.018  1.00  0.00     0.001 A 
ATOM     75  C   UNL A   1      35.860  30.184  28.837  1.00  0.00     0.000 A 
ENDBRANCH  51  70
BRANCH  63  76
ATOM     76  C   UNL A   1      44.313  32.370  31.370  1.00  0.00    -0.014 A 
ATOM     77  C   UNL A   1      44.269  32.606  32.753  1.00  0.00     0.009 A 
ATOM     78  C   UNL A   1      44.655  33.425  30.510  1.00  0.00     0.009 A 
ATOM     79  C   UNL A   1      44.529  33.881  33.260  1.00  0.00     0.001 A 
ATOM     80  C   UNL A   1      44.947  34.690  31.022  1.00  0.00     0.001 A 
ATOM     81  C   UNL A   1      44.874  34.919  32.395  1.00  0.00     0.000 A 
ENDBRANCH  63  76
ENDBRANCH  37  38
ENDBRANCH  29  32
ENDBRANCH  27  28
ENDBRANCH  26  27
ENDBRANCH  25  26
ENDBRANCH   1  25
TORSDOF 15
ENDMDL
MODEL 3
REMARK VINA RESULT:     -11.0      2.283      6.729
REMARK SMILES Cc1ccc(F)c(C(=O)N[C@@H]2C=C[C@@H](C(=O)NCCCCCCNC(=O)c3ccc(-c4c5nc(c(-c6ccccc6)c6ccc([nH]6)c(-c6ccccc6)c6nc(c(-c7ccccc7)c7ccc4[nH]7)C=C6)C=C5)cc3)C2)c1
REMARK SMILES IDX 20 1 19 2 18 3 17 4 15 5 16 6 14 8 11 9 12 10 75 11 13 12
REMARK SMILES IDX 10 13 8 14 9 15 7 17 1 18 2 19 3 20 76 21 4 22 5 23 6 24
REMARK SMILES IDX 21 25 22 26 23 27 24 28 25 29 26 31 27 32 28 33 74 34 29 35
REMARK SMILES IDX 73 36 30 37 31 38 32 39 67 40 33 41 72 42 66 43 68 44 34 45
REMARK SMILES IDX 71 46 65 47 64 48 35 50 57 51 42 52 56 53 43 54 46 55 55 56
REMARK SMILES IDX 69 57 44 58 45 59 54 61 70 62 47 63 36 64 37 65 41 66 38 67
REMARK SMILES IDX 40 68 39 69 58 70 59 71 63 72 60 73 62 74 61 75 48 76 49 77
REMARK SMILES IDX 53 78 50 79 52 80 51 81
REMARK H PARENT 17 7 10 16 24 30 68 49 46 60
REMARK Flexibility Score: inf
ROOT
ATOM      1  C   UNL A   1      31.210  29.060  24.360  1.00  0.00     0.002 C 
ENDROOT
BRANCH   1   2
ATOM      2  C   UNL A   1      31.805  28.964  22.951  1.00  0.00     0.021 C 
BRANCH   2   3
ATOM      3  C   UNL A   1      33.142  28.228  22.868  1.00  0.00     0.116 C 
BRANCH   3   4
ATOM      4  N   UNL A   1      33.215  27.329  21.735  1.00  0.00    -0.356 N 
ATOM      5  C   UNL A   1      33.053  25.983  21.627  1.00  0.00     0.227 C 
ATOM      6  O   UNL A   1      33.031  25.523  20.480  1.00  0.00    -0.274 OA
ATOM      7  H   UNL A   1      33.422  27.776  20.882  1.00  0.00     0.163 HD
BRANCH   5   8
ATOM      8  C   UNL A   1      32.990  25.030  22.830  1.00  0.00     0.103 C 
ATOM      9  C   UNL A   1      30.913  24.176  23.848  1.00  0.00     0.106 C 
ATOM     10  C   UNL A   1      31.709  23.092  23.191  1.00  0.00    -0.006 C 
ATOM     11  C   UNL A   1      31.855  25.384  23.787  1.00  0.00     0.047 C 
ATOM     12  C   UNL A   1      32.801  23.570  22.578  1.00  0.00    -0.016 C 
BRANCH   9  13
ATOM     13  N   UNL A   1      30.489  23.774  25.169  1.00  0.00    -0.346 N 
ATOM     14  C   UNL A   1      31.216  23.290  26.239  1.00  0.00     0.254 C 
ATOM     15  O   UNL A   1      30.664  23.227  27.336  1.00  0.00    -0.269 OA
ATOM     16  H   UNL A   1      29.522  23.858  25.334  1.00  0.00     0.164 HD
BRANCH  14  17
ATOM     17  C   UNL A   1      32.601  22.779  26.078  1.00  0.00     0.075 A 
ATOM     18  C   UNL A   1      36.135  24.110  25.663  1.00  0.00     0.044 C 
ATOM     19  C   UNL A   1      34.989  23.146  25.773  1.00  0.00    -0.050 A 
ATOM     20  C   UNL A   1      35.135  21.826  25.340  1.00  0.00     0.006 A 
ATOM     21  C   UNL A   1      33.738  23.579  26.246  1.00  0.00     0.020 A 
ATOM     22  C   UNL A   1      34.033  20.976  25.311  1.00  0.00     0.040 A 
ATOM     23  C   UNL A   1      32.771  21.461  25.648  1.00  0.00     0.135 A 
ATOM     24  F   UNL A   1      31.724  20.637  25.492  1.00  0.00    -0.206 F 
ENDBRANCH  14  17
ENDBRANCH   9  13
ENDBRANCH   5   8
ENDBRANCH   3   4
ENDBRANCH   2   3
ENDBRANCH   1   2
BRANCH   1  25
ATOM     25  C   UNL A   1      32.176  29.579  25.429  1.00  0.00     0.002 C 
BRANCH  25  26
ATOM     26  C   UNL A   1      31.674  30.792  26.218  1.00  0.00     0.021 C 
BRANCH  26  27
ATOM     27  C   UNL A   1      32.734  31.466  27.083  1.00  0.00     0.116 C 
BRANCH  27  28
ATOM     28  N   UNL A   1      32.408  32.856  27.361  1.00  0.00    -0.352 N 
ATOM     29  C   UNL A   1      33.055  33.754  28.173  1.00  0.00     0.251 C 
ATOM     30  H   UNL A   1      31.609  33.201  26.901  1.00  0.00     0.163 HD
ATOM     31  O   UNL A   1      32.526  34.819  28.467  1.00  0.00    -0.269 OA
BRANCH  29  32
ATOM     32  C   UNL A   1      34.390  33.419  28.714  1.00  0.00     0.039 A 
ATOM     33  C   UNL A   1      34.476  32.771  29.947  1.00  0.00     0.014 A 
ATOM     34  C   UNL A   1      35.550  33.736  28.000  1.00  0.00     0.014 A 
ATOM     35  C   UNL A   1      35.724  32.373  30.431  1.00  0.00     0.010 A 
ATOM     36  C   UNL A   1      36.785  33.277  28.450  1.00  0.00     0.010 A 
ATOM     37  C   UNL A   1      36.883  32.584  29.667  1.00  0.00    -0.014 A 
BRANCH  37  38
ATOM     38  C   UNL A   1      38.197  32.050  30.105  1.00  0.00     0.031 A 
ATOM     39  C   UNL A   1      38.700  30.732  29.586  1.00  0.00     0.074 A 
ATOM     40  C   UNL A   1      38.908  32.726  31.030  1.00  0.00     0.049 A 
ATOM     41  N   UNL A   1      39.797  30.089  29.897  1.00  0.00    -0.248 NA
ATOM     42  C   UNL A   1      37.852  30.034  28.607  1.00  0.00     0.031 C 
ATOM     43  C   UNL A   1      38.509  33.994  31.645  1.00  0.00     0.029 A 
ATOM     44  N   UNL A   1      40.112  32.436  31.622  1.00  0.00    -0.354 N 
ATOM     45  C   UNL A   1      39.764  28.909  29.165  1.00  0.00     0.074 A 
ATOM     46  C   UNL A   1      38.519  28.902  28.430  1.00  0.00     0.031 C 
ATOM     47  C   UNL A   1      39.461  34.384  32.507  1.00  0.00     0.029 A 
ATOM     48  C   UNL A   1      40.513  33.373  32.543  1.00  0.00     0.049 A 
ATOM     49  H   UNL A   1      40.639  31.633  31.406  1.00  0.00     0.167 HD
ATOM     50  C   UNL A   1      40.694  27.925  29.102  1.00  0.00     0.031 A 
ATOM     51  C   UNL A   1      41.597  33.411  33.341  1.00  0.00     0.031 A 
ATOM     52  C   UNL A   1      41.934  27.935  29.832  1.00  0.00     0.049 A 
ATOM     53  C   UNL A   1      42.599  32.292  33.271  1.00  0.00     0.074 A 
ATOM     54  C   UNL A   1      42.970  27.018  29.779  1.00  0.00     0.029 A 
ATOM     55  N   UNL A   1      42.300  28.901  30.756  1.00  0.00    -0.354 N 
ATOM     56  N   UNL A   1      42.594  31.228  32.506  1.00  0.00    -0.248 NA
ATOM     57  C   UNL A   1      43.759  32.384  34.169  1.00  0.00     0.031 C 
ATOM     58  C   UNL A   1      43.931  27.391  30.723  1.00  0.00     0.029 A 
ATOM     59  C   UNL A   1      43.527  28.578  31.313  1.00  0.00     0.049 A 
ATOM     60  H   UNL A   1      41.768  29.697  30.983  1.00  0.00     0.167 HD
ATOM     61  C   UNL A   1      43.757  30.534  32.816  1.00  0.00     0.074 A 
ATOM     62  C   UNL A   1      44.454  31.313  33.819  1.00  0.00     0.031 C 
ATOM     63  C   UNL A   1      44.205  29.356  32.319  1.00  0.00     0.031 A 
BRANCH  50  64
ATOM     64  C   UNL A   1      40.400  26.741  28.221  1.00  0.00    -0.014 A 
ATOM     65  C   UNL A   1      39.613  25.670  28.674  1.00  0.00     0.009 A 
ATOM     66  C   UNL A   1      40.874  26.723  26.900  1.00  0.00     0.009 A 
ATOM     67  C   UNL A   1      39.334  24.592  27.831  1.00  0.00     0.001 A 
ATOM     68  C   UNL A   1      40.567  25.658  26.050  1.00  0.00     0.001 A 
ATOM     69  C   UNL A   1      39.805  24.590  26.519  1.00  0.00     0.000 A 
ENDBRANCH  50  64
BRANCH  51  70
ATOM     70  C   UNL A   1      41.788  34.541  34.289  1.00  0.00    -0.014 A 
ATOM     71  C   UNL A   1      41.285  34.472  35.597  1.00  0.00     0.009 A 
ATOM     72  C   UNL A   1      42.465  35.703  33.885  1.00  0.00     0.009 A 
ATOM     73  C   UNL A   1      41.428  35.554  36.469  1.00  0.00     0.001 A 
ATOM     74  C   UNL A   1      42.636  36.769  34.769  1.00  0.00     0.001 A 
ATOM     75  C   UNL A   1      42.107  36.699  36.057  1.00  0.00     0.000 A 
ENDBRANCH  51  70
BRANCH  63  76
ATOM     76  C   UNL A   1      45.521  28.845  32.838  1.00  0.00    -0.014 A 
ATOM     77  C   UNL A   1      46.731  29.182  32.212  1.00  0.00     0.009 A 
ATOM     78  C   UNL A   1      45.552  28.053  33.997  1.00  0.00     0.009 A 
ATOM     79  C   UNL A   1      47.943  28.706  32.716  1.00  0.00     0.001 A 
ATOM     80  C   UNL A   1      46.767  27.606  34.517  1.00  0.00     0.001 A 
ATOM     81  C   UNL A   1      47.961  27.925  33.871  1.00  0.00     0.000 A 
ENDBRANCH  63  76
ENDBRANCH  37  38
ENDBRANCH  29  32
ENDBRANCH  27  28
ENDBRANCH  26  27
ENDBRANCH  25  26
ENDBRANCH   1  25
TORSDOF 15
ENDMDL
