MODEL 1
REMARK VINA RESULT:     -12.6      0.000      0.000
REMARK SMILES O=C1O[C@@H](c2ccc(O)c(O)c2)[C@H](C(=O)NCCCCCCNC(=O)c2ccc(-c3c4nc(c(-c5ccccc5)c5ccc([nH]5)c(-c5ccccc5)c5nc(c(-c6ccccc6)c6ccc3[nH]6)C=C5)C=C4)cc2)/C1=C\c1ccc(O)c(O)c1
REMARK SMILES IDX 19 1 18 2 17 3 16 4 14 5 15 6 13 8 1 9 2 10 3 11 74 12 4 13
REMARK SMILES IDX 75 14 5 15 6 16 12 17 7 18 10 19 8 20 11 21 9 23 76 25 77 26
REMARK SMILES IDX 83 27 78 28 81 29 79 30 82 31 80 33 20 35 21 36 22 37 23 38
REMARK SMILES IDX 24 39 25 41 26 42 27 43 73 44 28 45 72 46 29 47 30 48 31 49
REMARK SMILES IDX 66 50 32 51 71 52 65 53 67 54 33 55 70 56 64 57 63 58 34 60
REMARK SMILES IDX 56 61 41 62 55 63 42 64 45 65 54 66 68 67 43 68 44 69 53 71
REMARK SMILES IDX 69 72 46 73 35 74 36 75 40 76 37 77 39 78 38 79 57 80 58 81
REMARK SMILES IDX 62 82 59 83 61 84 60 85 47 86 48 87 52 88 49 89 51 90 50 91
REMARK H PARENT 16 7 11 22 9 24 82 32 80 34 23 40 67 59 45 70
REMARK Flexibility Score: inf
ROOT
ATOM      1  C   UNL A   1      32.265  29.826  27.179  1.00  0.00     0.002 C 
ENDROOT
BRANCH   1   2
ATOM      2  C   UNL A   1      31.673  28.425  27.339  1.00  0.00     0.021 C 
BRANCH   2   3
ATOM      3  C   UNL A   1      32.676  27.293  27.164  1.00  0.00     0.116 C 
BRANCH   3   4
ATOM      4  N   UNL A   1      33.680  27.560  26.158  1.00  0.00    -0.355 N 
ATOM      5  C   UNL A   1      33.586  27.602  24.796  1.00  0.00     0.231 C 
ATOM      6  O   UNL A   1      34.581  28.005  24.189  1.00  0.00    -0.274 OA
ATOM      7  H   UNL A   1      34.580  27.742  26.514  1.00  0.00     0.163 HD
BRANCH   5   8
ATOM      8  C   UNL A   1      32.334  27.078  24.082  1.00  0.00     0.161 C 
ATOM      9  O   UNL A   1      33.303  26.016  20.811  1.00  0.00    -0.247 OA
ATOM     10  C   UNL A   1      32.826  26.557  21.793  1.00  0.00     0.335 C 
ATOM     11  O   UNL A   1      32.309  27.808  21.825  1.00  0.00    -0.453 OA
ATOM     12  C   UNL A   1      32.684  25.975  23.140  1.00  0.00     0.054 C 
ATOM     13  C   UNL A   1      31.733  28.091  23.111  1.00  0.00     0.224 C 
ATOM     14  C   UNL A   1      32.853  24.658  23.325  1.00  0.00     0.020 C 
BRANCH  13  15
ATOM     15  C   UNL A   1      30.201  28.107  23.055  1.00  0.00    -0.002 A 
ATOM     16  C   UNL A   1      29.430  27.111  23.697  1.00  0.00     0.012 A 
ATOM     17  C   UNL A   1      29.514  29.169  22.445  1.00  0.00     0.057 A 
ATOM     18  C   UNL A   1      28.034  27.178  23.753  1.00  0.00     0.050 A 
ATOM     19  C   UNL A   1      28.124  29.217  22.484  1.00  0.00     0.157 A 
ATOM     20  C   UNL A   1      27.387  28.239  23.143  1.00  0.00     0.157 A 
BRANCH  19  21
ATOM     21  O   UNL A   1      27.478  30.253  21.874  1.00  0.00    -0.504 OA
ATOM     22  H   UNL A   1      27.590  31.128  22.191  1.00  0.00     0.293 HD
ENDBRANCH  19  21
BRANCH  20  23
ATOM     23  O   UNL A   1      26.027  28.367  23.168  1.00  0.00    -0.504 OA
ATOM     24  H   UNL A   1      25.483  27.612  23.060  1.00  0.00     0.293 HD
ENDBRANCH  20  23
ENDBRANCH  13  15
BRANCH  14  25
ATOM     25  C   UNL A   1      32.725  23.985  24.616  1.00  0.00    -0.021 A 
ATOM     26  C   UNL A   1      33.764  24.026  25.560  1.00  0.00     0.012 A 
ATOM     27  C   UNL A   1      31.532  23.324  24.927  1.00  0.00     0.058 A 
ATOM     28  C   UNL A   1      33.627  23.387  26.796  1.00  0.00     0.051 A 
ATOM     29  C   UNL A   1      31.402  22.700  26.159  1.00  0.00     0.157 A 
ATOM     30  C   UNL A   1      32.441  22.724  27.086  1.00  0.00     0.157 A 
BRANCH  29  31
ATOM     31  O   UNL A   1      30.234  22.059  26.462  1.00  0.00    -0.504 OA
ATOM     32  H   UNL A   1      29.857  22.151  27.315  1.00  0.00     0.293 HD
ENDBRANCH  29  31
BRANCH  30  33
ATOM     33  O   UNL A   1      32.246  22.083  28.278  1.00  0.00    -0.504 OA
ATOM     34  H   UNL A   1      31.538  22.338  28.836  1.00  0.00     0.293 HD
ENDBRANCH  30  33
ENDBRANCH  14  25
ENDBRANCH   5   8
ENDBRANCH   3   4
ENDBRANCH   2   3
ENDBRANCH   1   2
BRANCH   1  35
ATOM     35  C   UNL A   1      31.580  30.707  26.128  1.00  0.00     0.002 C 
BRANCH  35  36
ATOM     36  C   UNL A   1      31.395  32.175  26.522  1.00  0.00     0.021 C 
BRANCH  36  37
ATOM     37  C   UNL A   1      32.568  32.783  27.281  1.00  0.00     0.116 C 
BRANCH  37  38
ATOM     38  N   UNL A   1      32.343  34.180  27.612  1.00  0.00    -0.352 N 
ATOM     39  C   UNL A   1      32.969  34.959  28.552  1.00  0.00     0.251 C 
ATOM     40  H   UNL A   1      31.644  34.631  27.086  1.00  0.00     0.163 HD
ATOM     41  O   UNL A   1      32.526  36.067  28.833  1.00  0.00    -0.269 OA
BRANCH  39  42
ATOM     42  C   UNL A   1      34.172  34.448  29.239  1.00  0.00     0.039 A 
ATOM     43  C   UNL A   1      34.035  33.844  30.490  1.00  0.00     0.014 A 
ATOM     44  C   UNL A   1      35.433  34.566  28.647  1.00  0.00     0.014 A 
ATOM     45  C   UNL A   1      35.157  33.308  31.125  1.00  0.00     0.010 A 
ATOM     46  C   UNL A   1      36.534  33.961  29.242  1.00  0.00     0.010 A 
ATOM     47  C   UNL A   1      36.410  33.335  30.492  1.00  0.00    -0.014 A 
BRANCH  47  48
ATOM     48  C   UNL A   1      37.608  32.728  31.123  1.00  0.00     0.031 A 
ATOM     49  C   UNL A   1      38.261  31.527  30.494  1.00  0.00     0.074 A 
ATOM     50  C   UNL A   1      38.069  33.211  32.293  1.00  0.00     0.049 A 
ATOM     51  N   UNL A   1      39.262  30.806  30.932  1.00  0.00    -0.248 NA
ATOM     52  C   UNL A   1      37.697  31.058  29.217  1.00  0.00     0.031 C 
ATOM     53  C   UNL A   1      37.507  34.352  33.020  1.00  0.00     0.029 A 
ATOM     54  N   UNL A   1      39.113  32.797  33.080  1.00  0.00    -0.354 N 
ATOM     55  C   UNL A   1      39.434  29.794  29.996  1.00  0.00     0.074 A 
ATOM     56  C   UNL A   1      38.401  29.958  28.998  1.00  0.00     0.031 C 
ATOM     57  C   UNL A   1      38.231  34.562  34.131  1.00  0.00     0.029 A 
ATOM     58  C   UNL A   1      39.274  33.546  34.221  1.00  0.00     0.049 A 
ATOM     59  H   UNL A   1      39.693  32.035  32.850  1.00  0.00     0.167 HD
ATOM     60  C   UNL A   1      40.380  28.826  29.958  1.00  0.00     0.031 A 
ATOM     61  C   UNL A   1      40.156  33.422  35.231  1.00  0.00     0.031 A 
ATOM     62  C   UNL A   1      41.413  28.667  30.948  1.00  0.00     0.049 A 
ATOM     63  C   UNL A   1      41.176  32.318  35.182  1.00  0.00     0.074 A 
ATOM     64  C   UNL A   1      42.446  27.748  30.975  1.00  0.00     0.029 A 
ATOM     65  N   UNL A   1      41.540  29.448  32.087  1.00  0.00    -0.354 N 
ATOM     66  N   UNL A   1      41.363  31.404  34.261  1.00  0.00    -0.248 NA
ATOM     67  C   UNL A   1      42.115  32.237  36.310  1.00  0.00     0.031 C 
ATOM     68  C   UNL A   1      43.163  27.932  32.160  1.00  0.00     0.029 A 
ATOM     69  C   UNL A   1      42.619  29.013  32.837  1.00  0.00     0.049 A 
ATOM     70  H   UNL A   1      40.951  30.199  32.327  1.00  0.00     0.167 HD
ATOM     71  C   UNL A   1      42.462  30.664  34.679  1.00  0.00     0.074 A 
ATOM     72  C   UNL A   1      42.906  31.243  35.930  1.00  0.00     0.031 C 
ATOM     73  C   UNL A   1      43.052  29.602  34.079  1.00  0.00     0.031 A 
BRANCH  60  74
ATOM     74  C   UNL A   1      40.332  27.853  28.812  1.00  0.00    -0.014 A 
ATOM     75  C   UNL A   1      40.993  28.119  27.600  1.00  0.00     0.009 A 
ATOM     76  C   UNL A   1      39.644  26.638  28.954  1.00  0.00     0.009 A 
ATOM     77  C   UNL A   1      40.930  27.208  26.544  1.00  0.00     0.001 A 
ATOM     78  C   UNL A   1      39.611  25.714  27.909  1.00  0.00     0.001 A 
ATOM     79  C   UNL A   1      40.244  26.004  26.701  1.00  0.00     0.000 A 
ENDBRANCH  60  74
BRANCH  61  80
ATOM     80  C   UNL A   1      40.122  34.374  36.374  1.00  0.00    -0.014 A 
ATOM     81  C   UNL A   1      39.375  34.079  37.524  1.00  0.00     0.009 A 
ATOM     82  C   UNL A   1      40.824  35.588  36.314  1.00  0.00     0.009 A 
ATOM     83  C   UNL A   1      39.305  34.995  38.578  1.00  0.00     0.001 A 
ATOM     84  C   UNL A   1      40.779  36.486  37.383  1.00  0.00     0.001 A 
ATOM     85  C   UNL A   1      40.011  36.195  38.508  1.00  0.00     0.000 A 
ENDBRANCH  61  80
BRANCH  73  86
ATOM     86  C   UNL A   1      44.274  29.025  34.738  1.00  0.00    -0.014 A 
ATOM     87  C   UNL A   1      44.183  27.984  35.675  1.00  0.00     0.009 A 
ATOM     88  C   UNL A   1      45.544  29.503  34.376  1.00  0.00     0.009 A 
ATOM     89  C   UNL A   1      45.336  27.458  36.261  1.00  0.00     0.001 A 
ATOM     90  C   UNL A   1      46.696  28.953  34.938  1.00  0.00     0.001 A 
ATOM     91  C   UNL A   1      46.591  27.939  35.886  1.00  0.00     0.000 A 
ENDBRANCH  73  86
ENDBRANCH  47  48
ENDBRANCH  39  42
ENDBRANCH  37  38
ENDBRANCH  36  37
ENDBRANCH  35  36
ENDBRANCH   1  35
TORSDOF 19
ENDMDL
MODEL 2
REMARK VINA RESULT:     -12.5      0.878      5.683
REMARK SMILES O=C1O[C@@H](c2ccc(O)c(O)c2)[C@H](C(=O)NCCCCCCNC(=O)c2ccc(-c3c4nc(c(-c5ccccc5)c5ccc([nH]5)c(-c5ccccc5)c5nc(c(-c6ccccc6)c6ccc3[nH]6)C=C5)C=C4)cc2)/C1=C\c1ccc(O)c(O)c1
REMARK SMILES IDX 19 1 18 2 17 3 16 4 14 5 15 6 13 8 1 9 2 10 3 11 74 12 4 13
REMARK SMILES IDX 75 14 5 15 6 16 12 17 7 18 10 19 8 20 11 21 9 23 76 25 77 26
REMARK SMILES IDX 83 27 78 28 81 29 79 30 82 31 80 33 20 35 21 36 22 37 23 38
REMARK SMILES IDX 24 39 25 41 26 42 27 43 73 44 28 45 72 46 29 47 30 48 31 49
REMARK SMILES IDX 66 50 32 51 71 52 65 53 67 54 33 55 70 56 64 57 63 58 34 60
REMARK SMILES IDX 56 61 41 62 55 63 42 64 45 65 54 66 68 67 43 68 44 69 53 71
REMARK SMILES IDX 69 72 46 73 35 74 36 75 40 76 37 77 39 78 38 79 57 80 58 81
REMARK SMILES IDX 62 82 59 83 61 84 60 85 47 86 48 87 52 88 49 89 51 90 50 91
REMARK H PARENT 16 7 11 22 9 24 82 32 80 34 23 40 67 59 45 70
REMARK Flexibility Score: inf
ROOT
ATOM      1  C   UNL A   1      32.381  29.935  26.929  1.00  0.00     0.002 C 
ENDROOT
BRANCH   1   2
ATOM      2  C   UNL A   1      31.769  28.632  27.446  1.00  0.00     0.021 C 
BRANCH   2   3
ATOM      3  C   UNL A   1      32.613  27.393  27.184  1.00  0.00     0.116 C 
BRANCH   3   4
ATOM      4  N   UNL A   1      33.643  27.593  26.190  1.00  0.00    -0.355 N 
ATOM      5  C   UNL A   1      33.576  27.581  24.825  1.00  0.00     0.231 C 
ATOM      6  O   UNL A   1      34.593  27.934  24.223  1.00  0.00    -0.274 OA
ATOM      7  H   UNL A   1      34.540  27.766  26.556  1.00  0.00     0.163 HD
BRANCH   5   8
ATOM      8  C   UNL A   1      32.324  27.061  24.107  1.00  0.00     0.161 C 
ATOM      9  O   UNL A   1      33.299  26.005  20.836  1.00  0.00    -0.247 OA
ATOM     10  C   UNL A   1      32.821  26.544  21.818  1.00  0.00     0.335 C 
ATOM     11  O   UNL A   1      32.306  27.796  21.851  1.00  0.00    -0.453 OA
ATOM     12  C   UNL A   1      32.676  25.960  23.163  1.00  0.00     0.054 C 
ATOM     13  C   UNL A   1      31.728  28.077  23.138  1.00  0.00     0.224 C 
ATOM     14  C   UNL A   1      32.842  24.642  23.346  1.00  0.00     0.020 C 
BRANCH  13  15
ATOM     15  C   UNL A   1      30.195  28.096  23.077  1.00  0.00    -0.002 A 
ATOM     16  C   UNL A   1      29.423  27.088  23.697  1.00  0.00     0.012 A 
ATOM     17  C   UNL A   1      29.511  29.170  22.487  1.00  0.00     0.057 A 
ATOM     18  C   UNL A   1      28.026  27.155  23.752  1.00  0.00     0.050 A 
ATOM     19  C   UNL A   1      28.121  29.218  22.525  1.00  0.00     0.157 A 
ATOM     20  C   UNL A   1      27.381  28.228  23.161  1.00  0.00     0.157 A 
BRANCH  19  21
ATOM     21  O   UNL A   1      27.477  30.267  21.934  1.00  0.00    -0.504 OA
ATOM     22  H   UNL A   1      27.100  30.165  21.082  1.00  0.00     0.293 HD
ENDBRANCH  19  21
BRANCH  20  23
ATOM     23  O   UNL A   1      26.022  28.356  23.186  1.00  0.00    -0.504 OA
ATOM     24  H   UNL A   1      25.582  28.814  22.498  1.00  0.00     0.293 HD
ENDBRANCH  20  23
ENDBRANCH  13  15
BRANCH  14  25
ATOM     25  C   UNL A   1      32.710  23.966  24.635  1.00  0.00    -0.021 A 
ATOM     26  C   UNL A   1      33.753  23.992  25.575  1.00  0.00     0.012 A 
ATOM     27  C   UNL A   1      31.511  23.318  24.947  1.00  0.00     0.058 A 
ATOM     28  C   UNL A   1      33.612  23.351  26.810  1.00  0.00     0.051 A 
ATOM     29  C   UNL A   1      31.377  22.691  26.178  1.00  0.00     0.157 A 
ATOM     30  C   UNL A   1      32.420  22.700  27.101  1.00  0.00     0.157 A 
BRANCH  29  31
ATOM     31  O   UNL A   1      30.203  22.063  26.483  1.00  0.00    -0.504 OA
ATOM     32  H   UNL A   1      30.144  21.527  27.249  1.00  0.00     0.293 HD
ENDBRANCH  29  31
BRANCH  30  33
ATOM     33  O   UNL A   1      32.220  22.058  28.292  1.00  0.00    -0.504 OA
ATOM     34  H   UNL A   1      32.536  22.438  29.088  1.00  0.00     0.293 HD
ENDBRANCH  30  33
ENDBRANCH  14  25
ENDBRANCH   5   8
ENDBRANCH   3   4
ENDBRANCH   2   3
ENDBRANCH   1   2
BRANCH   1  35
ATOM     35  C   UNL A   1      31.428  30.830  26.128  1.00  0.00     0.002 C 
BRANCH  35  36
ATOM     36  C   UNL A   1      31.356  32.289  26.589  1.00  0.00     0.021 C 
BRANCH  36  37
ATOM     37  C   UNL A   1      32.610  32.799  27.286  1.00  0.00     0.116 C 
BRANCH  37  38
ATOM     38  N   UNL A   1      32.445  34.149  27.795  1.00  0.00    -0.352 N 
ATOM     39  C   UNL A   1      33.150  34.797  28.779  1.00  0.00     0.251 C 
ATOM     40  H   UNL A   1      31.727  34.675  27.375  1.00  0.00     0.163 HD
ATOM     41  O   UNL A   1      32.756  35.871  29.220  1.00  0.00    -0.269 OA
BRANCH  39  42
ATOM     42  C   UNL A   1      34.380  34.183  29.319  1.00  0.00     0.039 A 
ATOM     43  C   UNL A   1      34.299  33.402  30.473  1.00  0.00     0.014 A 
ATOM     44  C   UNL A   1      35.610  34.380  28.685  1.00  0.00     0.014 A 
ATOM     45  C   UNL A   1      35.445  32.771  30.962  1.00  0.00     0.010 A 
ATOM     46  C   UNL A   1      36.732  33.687  29.125  1.00  0.00     0.010 A 
ATOM     47  C   UNL A   1      36.664  32.884  30.274  1.00  0.00    -0.014 A 
BRANCH  47  48
ATOM     48  C   UNL A   1      37.885  32.184  30.745  1.00  0.00     0.031 A 
ATOM     49  C   UNL A   1      38.711  32.779  31.854  1.00  0.00     0.074 A 
ATOM     50  C   UNL A   1      38.288  31.053  30.136  1.00  0.00     0.049 A 
ATOM     51  N   UNL A   1      39.848  32.365  32.350  1.00  0.00    -0.248 NA
ATOM     52  C   UNL A   1      38.204  34.018  32.467  1.00  0.00     0.031 C 
ATOM     53  C   UNL A   1      37.592  30.390  29.030  1.00  0.00     0.029 A 
ATOM     54  N   UNL A   1      39.388  30.263  30.357  1.00  0.00    -0.354 N 
ATOM     55  C   UNL A   1      40.199  33.298  33.318  1.00  0.00     0.074 A 
ATOM     56  C   UNL A   1      39.185  34.329  33.300  1.00  0.00     0.031 C 
ATOM     57  C   UNL A   1      38.268  29.281  28.690  1.00  0.00     0.029 A 
ATOM     58  C   UNL A   1      39.466  29.179  29.516  1.00  0.00     0.049 A 
ATOM     59  H   UNL A   1      40.058  30.455  31.052  1.00  0.00     0.167 HD
ATOM     60  C   UNL A   1      41.258  33.289  34.161  1.00  0.00     0.031 A 
ATOM     61  C   UNL A   1      40.402  28.216  29.416  1.00  0.00     0.031 A 
ATOM     62  C   UNL A   1      42.263  32.259  34.184  1.00  0.00     0.049 A 
ATOM     63  C   UNL A   1      41.586  28.246  30.342  1.00  0.00     0.074 A 
ATOM     64  C   UNL A   1      43.349  32.133  35.031  1.00  0.00     0.029 A 
ATOM     65  N   UNL A   1      42.304  31.178  33.316  1.00  0.00    -0.354 N 
ATOM     66  N   UNL A   1      41.874  29.103  31.292  1.00  0.00    -0.248 NA
ATOM     67  C   UNL A   1      42.572  27.166  30.189  1.00  0.00     0.031 C 
ATOM     68  C   UNL A   1      44.081  31.009  34.638  1.00  0.00     0.029 A 
ATOM     69  C   UNL A   1      43.412  30.395  33.591  1.00  0.00     0.049 A 
ATOM     70  H   UNL A   1      41.643  30.994  32.610  1.00  0.00     0.167 HD
ATOM     71  C   UNL A   1      43.050  28.647  31.872  1.00  0.00     0.074 A 
ATOM     72  C   UNL A   1      43.416  27.431  31.176  1.00  0.00     0.031 C 
ATOM     73  C   UNL A   1      43.762  29.185  32.892  1.00  0.00     0.031 A 
BRANCH  60  74
ATOM     74  C   UNL A   1      41.390  34.438  35.123  1.00  0.00    -0.014 A 
ATOM     75  C   UNL A   1      42.098  35.601  34.777  1.00  0.00     0.009 A 
ATOM     76  C   UNL A   1      40.771  34.372  36.380  1.00  0.00     0.009 A 
ATOM     77  C   UNL A   1      42.218  36.655  35.686  1.00  0.00     0.001 A 
ATOM     78  C   UNL A   1      40.863  35.440  37.274  1.00  0.00     0.001 A 
ATOM     79  C   UNL A   1      41.595  36.575  36.931  1.00  0.00     0.000 A 
ENDBRANCH  60  74
BRANCH  61  80
ATOM     80  C   UNL A   1      40.256  27.134  28.406  1.00  0.00    -0.014 A 
ATOM     81  C   UNL A   1      40.831  27.265  27.133  1.00  0.00     0.009 A 
ATOM     82  C   UNL A   1      39.527  25.971  28.704  1.00  0.00     0.009 A 
ATOM     83  C   UNL A   1      40.653  26.270  26.169  1.00  0.00     0.001 A 
ATOM     84  C   UNL A   1      39.380  24.962  27.748  1.00  0.00     0.001 A 
ATOM     85  C   UNL A   1      39.932  25.118  26.479  1.00  0.00     0.000 A 
ENDBRANCH  61  80
BRANCH  73  86
ATOM     86  C   UNL A   1      44.982  28.437  33.354  1.00  0.00    -0.014 A 
ATOM     87  C   UNL A   1      46.254  28.707  32.826  1.00  0.00     0.009 A 
ATOM     88  C   UNL A   1      44.859  27.479  34.373  1.00  0.00     0.009 A 
ATOM     89  C   UNL A   1      47.372  28.007  33.284  1.00  0.00     0.001 A 
ATOM     90  C   UNL A   1      45.982  26.805  34.853  1.00  0.00     0.001 A 
ATOM     91  C   UNL A   1      47.235  27.062  34.302  1.00  0.00     0.000 A 
ENDBRANCH  73  86
ENDBRANCH  47  48
ENDBRANCH  39  42
ENDBRANCH  37  38
ENDBRANCH  36  37
ENDBRANCH  35  36
ENDBRANCH   1  35
TORSDOF 19
ENDMDL
MODEL 3
REMARK VINA RESULT:     -12.5      4.377      9.441
REMARK SMILES O=C1O[C@@H](c2ccc(O)c(O)c2)[C@H](C(=O)NCCCCCCNC(=O)c2ccc(-c3c4nc(c(-c5ccccc5)c5ccc([nH]5)c(-c5ccccc5)c5nc(c(-c6ccccc6)c6ccc3[nH]6)C=C5)C=C4)cc2)/C1=C\c1ccc(O)c(O)c1
REMARK SMILES IDX 19 1 18 2 17 3 16 4 14 5 15 6 13 8 1 9 2 10 3 11 74 12 4 13
REMARK SMILES IDX 75 14 5 15 6 16 12 17 7 18 10 19 8 20 11 21 9 23 76 25 77 26
REMARK SMILES IDX 83 27 78 28 81 29 79 30 82 31 80 33 20 35 21 36 22 37 23 38
REMARK SMILES IDX 24 39 25 41 26 42 27 43 73 44 28 45 72 46 29 47 30 48 31 49
REMARK SMILES IDX 66 50 32 51 71 52 65 53 67 54 33 55 70 56 64 57 63 58 34 60
REMARK SMILES IDX 56 61 41 62 55 63 42 64 45 65 54 66 68 67 43 68 44 69 53 71
REMARK SMILES IDX 69 72 46 73 35 74 36 75 40 76 37 77 39 78 38 79 57 80 58 81
REMARK SMILES IDX 62 82 59 83 61 84 60 85 47 86 48 87 52 88 49 89 51 90 50 91
REMARK H PARENT 16 7 11 22 9 24 82 32 80 34 23 40 67 59 45 70
REMARK Flexibility Score: inf
ROOT
ATOM      1  C   UNL A   1      37.335  21.966  24.568  1.00  0.00     0.002 C 
ENDROOT
BRANCH   1   2
ATOM      2  C   UNL A   1      36.662  22.809  23.484  1.00  0.00     0.021 C 
BRANCH   2   3
ATOM      3  C   UNL A   1      36.012  24.087  23.994  1.00  0.00     0.116 C 
BRANCH   3   4
ATOM      4  N   UNL A   1      35.740  24.072  25.414  1.00  0.00    -0.355 N 
ATOM      5  C   UNL A   1      34.758  23.443  26.125  1.00  0.00     0.231 C 
ATOM      6  O   UNL A   1      34.857  23.485  27.354  1.00  0.00    -0.274 OA
ATOM      7  H   UNL A   1      36.366  24.602  25.958  1.00  0.00     0.163 HD
BRANCH   5   8
ATOM      8  C   UNL A   1      33.557  22.811  25.410  1.00  0.00     0.161 C 
ATOM      9  O   UNL A   1      30.724  23.097  27.569  1.00  0.00    -0.247 OA
ATOM     10  C   UNL A   1      31.653  22.738  26.868  1.00  0.00     0.335 C 
ATOM     11  O   UNL A   1      32.269  21.534  26.941  1.00  0.00    -0.453 OA
ATOM     12  C   UNL A   1      32.292  23.507  25.785  1.00  0.00     0.054 C 
ATOM     13  C   UNL A   1      33.250  21.397  25.898  1.00  0.00     0.224 C 
ATOM     14  C   UNL A   1      31.703  24.614  25.309  1.00  0.00     0.020 C 
BRANCH  13  15
ATOM     15  C   UNL A   1      32.787  20.421  24.810  1.00  0.00    -0.002 A 
ATOM     16  C   UNL A   1      32.455  20.869  23.511  1.00  0.00     0.012 A 
ATOM     17  C   UNL A   1      32.773  19.036  25.044  1.00  0.00     0.057 A 
ATOM     18  C   UNL A   1      32.146  19.979  22.478  1.00  0.00     0.050 A 
ATOM     19  C   UNL A   1      32.441  18.158  24.017  1.00  0.00     0.157 A 
ATOM     20  C   UNL A   1      32.142  18.620  22.740  1.00  0.00     0.157 A 
BRANCH  19  21
ATOM     21  O   UNL A   1      32.423  16.817  24.271  1.00  0.00    -0.504 OA
ATOM     22  H   UNL A   1      32.737  16.491  25.092  1.00  0.00     0.293 HD
ENDBRANCH  19  21
BRANCH  20  23
ATOM     23  O   UNL A   1      31.856  17.698  21.773  1.00  0.00    -0.504 OA
ATOM     24  H   UNL A   1      31.591  17.980  20.920  1.00  0.00     0.293 HD
ENDBRANCH  20  23
ENDBRANCH  13  15
BRANCH  14  25
ATOM     25  C   UNL A   1      32.249  25.438  24.233  1.00  0.00    -0.021 A 
ATOM     26  C   UNL A   1      33.218  26.421  24.495  1.00  0.00     0.012 A 
ATOM     27  C   UNL A   1      31.824  25.217  22.919  1.00  0.00     0.058 A 
ATOM     28  C   UNL A   1      33.741  27.197  23.457  1.00  0.00     0.051 A 
ATOM     29  C   UNL A   1      32.355  25.987  21.894  1.00  0.00     0.157 A 
ATOM     30  C   UNL A   1      33.301  26.974  22.159  1.00  0.00     0.157 A 
BRANCH  29  31
ATOM     31  O   UNL A   1      31.943  25.765  20.611  1.00  0.00    -0.504 OA
ATOM     32  H   UNL A   1      32.524  25.935  19.896  1.00  0.00     0.293 HD
ENDBRANCH  29  31
BRANCH  30  33
ATOM     33  O   UNL A   1      33.777  27.699  21.101  1.00  0.00    -0.504 OA
ATOM     34  H   UNL A   1      33.551  27.453  20.226  1.00  0.00     0.293 HD
ENDBRANCH  30  33
ENDBRANCH  14  25
ENDBRANCH   5   8
ENDBRANCH   3   4
ENDBRANCH   2   3
ENDBRANCH   1   2
BRANCH   1  35
ATOM     35  C   UNL A   1      36.875  20.505  24.637  1.00  0.00     0.002 C 
BRANCH  35  36
ATOM     36  C   UNL A   1      37.957  19.494  25.029  1.00  0.00     0.021 C 
BRANCH  36  37
ATOM     37  C   UNL A   1      39.134  20.087  25.792  1.00  0.00     0.116 C 
BRANCH  37  38
ATOM     38  N   UNL A   1      40.271  19.183  25.835  1.00  0.00    -0.352 N 
ATOM     39  C   UNL A   1      41.591  19.462  26.089  1.00  0.00     0.251 C 
ATOM     40  H   UNL A   1      40.067  18.237  25.657  1.00  0.00     0.163 HD
ATOM     41  O   UNL A   1      42.453  18.612  25.898  1.00  0.00    -0.269 OA
BRANCH  39  42
ATOM     42  C   UNL A   1      41.971  20.803  26.579  1.00  0.00     0.039 A 
ATOM     43  C   UNL A   1      42.392  21.767  25.662  1.00  0.00     0.014 A 
ATOM     44  C   UNL A   1      41.912  21.104  27.943  1.00  0.00     0.014 A 
ATOM     45  C   UNL A   1      42.702  23.054  26.106  1.00  0.00     0.010 A 
ATOM     46  C   UNL A   1      42.142  22.406  28.373  1.00  0.00     0.010 A 
ATOM     47  C   UNL A   1      42.549  23.392  27.461  1.00  0.00    -0.014 A 
BRANCH  47  48
ATOM     48  C   UNL A   1      42.824  24.766  27.950  1.00  0.00     0.031 A 
ATOM     49  C   UNL A   1      44.226  25.161  28.331  1.00  0.00     0.074 A 
ATOM     50  C   UNL A   1      41.810  25.636  28.115  1.00  0.00     0.049 A 
ATOM     51  N   UNL A   1      44.655  26.281  28.853  1.00  0.00    -0.248 NA
ATOM     52  C   UNL A   1      45.279  24.152  28.123  1.00  0.00     0.031 C 
ATOM     53  C   UNL A   1      40.402  25.367  27.810  1.00  0.00     0.029 A 
ATOM     54  N   UNL A   1      41.806  26.924  28.587  1.00  0.00    -0.354 N 
ATOM     55  C   UNL A   1      46.020  26.105  29.050  1.00  0.00     0.074 A 
ATOM     56  C   UNL A   1      46.336  24.754  28.646  1.00  0.00     0.031 C 
ATOM     57  C   UNL A   1      39.678  26.465  28.077  1.00  0.00     0.029 A 
ATOM     58  C   UNL A   1      40.558  27.497  28.616  1.00  0.00     0.049 A 
ATOM     59  H   UNL A   1      42.621  27.393  28.879  1.00  0.00     0.167 HD
ATOM     60  C   UNL A   1      46.932  26.996  29.506  1.00  0.00     0.031 A 
ATOM     61  C   UNL A   1      40.164  28.713  29.039  1.00  0.00     0.031 A 
ATOM     62  C   UNL A   1      46.618  28.343  29.901  1.00  0.00     0.049 A 
ATOM     63  C   UNL A   1      41.192  29.672  29.573  1.00  0.00     0.074 A 
ATOM     64  C   UNL A   1      47.478  29.337  30.332  1.00  0.00     0.029 A 
ATOM     65  N   UNL A   1      45.341  28.884  29.914  1.00  0.00    -0.354 N 
ATOM     66  N   UNL A   1      42.487  29.513  29.698  1.00  0.00    -0.248 NA
ATOM     67  C   UNL A   1      40.703  30.987  30.013  1.00  0.00     0.031 C 
ATOM     68  C   UNL A   1      46.715  30.461  30.664  1.00  0.00     0.029 A 
ATOM     69  C   UNL A   1      45.387  30.190  30.372  1.00  0.00     0.049 A 
ATOM     70  H   UNL A   1      44.523  28.410  29.639  1.00  0.00     0.167 HD
ATOM     71  C   UNL A   1      42.972  30.715  30.196  1.00  0.00     0.074 A 
ATOM     72  C   UNL A   1      41.833  31.599  30.338  1.00  0.00     0.031 C 
ATOM     73  C   UNL A   1      44.246  31.058  30.504  1.00  0.00     0.031 A 
BRANCH  60  74
ATOM     74  C   UNL A   1      48.359  26.533  29.615  1.00  0.00    -0.014 A 
ATOM     75  C   UNL A   1      49.270  26.722  28.562  1.00  0.00     0.009 A 
ATOM     76  C   UNL A   1      48.810  25.928  30.798  1.00  0.00     0.009 A 
ATOM     77  C   UNL A   1      50.589  26.277  28.677  1.00  0.00     0.001 A 
ATOM     78  C   UNL A   1      50.137  25.515  30.925  1.00  0.00     0.001 A 
ATOM     79  C   UNL A   1      51.022  25.679  29.860  1.00  0.00     0.000 A 
ENDBRANCH  60  74
BRANCH  61  80
ATOM     80  C   UNL A   1      38.730  29.101  28.967  1.00  0.00    -0.014 A 
ATOM     81  C   UNL A   1      38.198  29.649  27.789  1.00  0.00     0.009 A 
ATOM     82  C   UNL A   1      37.889  28.941  30.080  1.00  0.00     0.009 A 
ATOM     83  C   UNL A   1      36.863  30.058  27.738  1.00  0.00     0.001 A 
ATOM     84  C   UNL A   1      36.545  29.320  30.014  1.00  0.00     0.001 A 
ATOM     85  C   UNL A   1      36.037  29.888  28.848  1.00  0.00     0.000 A 
ENDBRANCH  61  80
BRANCH  73  86
ATOM     86  C   UNL A   1      44.488  32.465  30.979  1.00  0.00    -0.014 A 
ATOM     87  C   UNL A   1      44.734  33.513  30.078  1.00  0.00     0.009 A 
ATOM     88  C   UNL A   1      44.420  32.752  32.351  1.00  0.00     0.009 A 
ATOM     89  C   UNL A   1      44.941  34.812  30.546  1.00  0.00     0.001 A 
ATOM     90  C   UNL A   1      44.594  34.056  32.814  1.00  0.00     0.001 A 
ATOM     91  C   UNL A   1      44.864  35.083  31.913  1.00  0.00     0.000 A 
ENDBRANCH  73  86
ENDBRANCH  47  48
ENDBRANCH  39  42
ENDBRANCH  37  38
ENDBRANCH  36  37
ENDBRANCH  35  36
ENDBRANCH   1  35
TORSDOF 19
ENDMDL
