MODEL 1
REMARK VINA RESULT:     -12.1      0.000      0.000
REMARK SMILES CC(C)n1c2c(c3ccccc31)[C@@H](c1ccccc1)N(CC(=O)NCCCCCCNC(=O)c1ccc(-c3c4nc(c(-c5ccccc5)c5ccc([nH]5)c(-c5ccccc5)c5nc(c(-c6ccccc6)c6ccc3[nH]6)C=C5)C=C4)cc1)C2=O
REMARK SMILES IDX 27 1 26 2 25 3 24 4 22 5 23 6 21 8 20 9 4 10 5 11 12 12 6 13
REMARK SMILES IDX 82 14 7 15 11 16 13 17 83 18 8 19 10 20 9 21 2 22 1 23 3 24
REMARK SMILES IDX 14 25 15 26 19 27 16 28 18 29 17 30 28 31 29 32 30 33 31 34
REMARK SMILES IDX 32 35 33 37 34 38 35 39 81 40 36 41 80 42 37 43 38 44 39 45
REMARK SMILES IDX 74 46 40 47 79 48 73 49 75 50 41 51 78 52 72 53 71 54 42 56
REMARK SMILES IDX 64 57 49 58 63 59 50 60 53 61 62 62 76 63 51 64 52 65 61 67
REMARK SMILES IDX 77 68 54 69 43 70 44 71 48 72 45 73 47 74 46 75 65 76 66 77
REMARK SMILES IDX 70 78 67 79 69 80 68 81 55 82 56 83 60 84 57 85 59 86 58 87
REMARK H PARENT 24 7 31 36 75 55 53 66
REMARK Flexibility Score: inf
ROOT
ATOM      1  C   UNL A   1      33.255  29.591  27.237  1.00  0.00     0.002 C 
ENDROOT
BRANCH   1   2
ATOM      2  C   UNL A   1      31.824  29.107  26.981  1.00  0.00     0.021 C 
BRANCH   2   3
ATOM      3  C   UNL A   1      31.622  27.610  27.210  1.00  0.00     0.116 C 
BRANCH   3   4
ATOM      4  N   UNL A   1      30.734  27.049  26.211  1.00  0.00    -0.355 N 
ATOM      5  C   UNL A   1      30.511  25.734  25.917  1.00  0.00     0.239 C 
ATOM      6  O   UNL A   1      29.813  25.460  24.938  1.00  0.00    -0.273 OA
ATOM      7  H   UNL A   1      30.228  27.701  25.674  1.00  0.00     0.163 HD
BRANCH   5   8
ATOM      8  C   UNL A   1      31.161  24.629  26.760  1.00  0.00     0.220 C 
BRANCH   8   9
ATOM      9  N   UNL A   1      32.014  23.769  25.958  1.00  0.00    -0.317 N 
ATOM     10  N   UNL A   1      33.412  20.625  24.998  1.00  0.00    -0.334 N 
ATOM     11  C   UNL A   1      32.918  21.861  25.273  1.00  0.00     0.114 A 
ATOM     12  C   UNL A   1      34.806  20.727  24.963  1.00  0.00     0.049 A 
ATOM     13  C   UNL A   1      33.934  22.774  25.320  1.00  0.00     0.018 A 
ATOM     14  C   UNL A   1      31.678  22.456  25.633  1.00  0.00     0.272 C 
ATOM     15  C   UNL A   1      35.144  22.086  25.156  1.00  0.00     0.006 A 
ATOM     16  C   UNL A   1      35.814  19.764  24.796  1.00  0.00     0.027 A 
ATOM     17  C   UNL A   1      33.421  24.134  25.629  1.00  0.00     0.150 C 
ATOM     18  O   UNL A   1      30.591  21.907  25.760  1.00  0.00    -0.267 OA
ATOM     19  C   UNL A   1      36.494  22.478  25.168  1.00  0.00     0.011 A 
ATOM     20  C   UNL A   1      37.150  20.181  24.796  1.00  0.00     0.002 A 
ATOM     21  C   UNL A   1      37.489  21.517  24.978  1.00  0.00     0.001 A 
BRANCH  10  22
ATOM     22  C   UNL A   1      32.584  19.431  24.834  1.00  0.00     0.082 C 
ATOM     23  C   UNL A   1      32.605  18.846  23.421  1.00  0.00     0.031 C 
ATOM     24  C   UNL A   1      32.893  18.369  25.887  1.00  0.00     0.031 C 
ENDBRANCH  10  22
BRANCH  17  25
ATOM     25  C   UNL A   1      33.501  25.015  24.391  1.00  0.00    -0.021 A 
ATOM     26  C   UNL A   1      33.812  26.378  24.569  1.00  0.00     0.006 A 
ATOM     27  C   UNL A   1      33.246  24.582  23.076  1.00  0.00     0.006 A 
ATOM     28  C   UNL A   1      33.825  27.269  23.492  1.00  0.00     0.000 A 
ATOM     29  C   UNL A   1      33.282  25.467  21.996  1.00  0.00     0.000 A 
ATOM     30  C   UNL A   1      33.558  26.813  22.205  1.00  0.00     0.000 A 
ENDBRANCH  17  25
ENDBRANCH   8   9
ENDBRANCH   5   8
ENDBRANCH   3   4
ENDBRANCH   2   3
ENDBRANCH   1   2
BRANCH   1  31
ATOM     31  C   UNL A   1      33.387  31.095  27.501  1.00  0.00     0.002 C 
BRANCH  31  32
ATOM     32  C   UNL A   1      34.822  31.607  27.672  1.00  0.00     0.021 C 
BRANCH  32  33
ATOM     33  C   UNL A   1      34.933  32.910  28.466  1.00  0.00     0.116 C 
BRANCH  33  34
ATOM     34  N   UNL A   1      34.805  32.727  29.897  1.00  0.00    -0.352 N 
ATOM     35  C   UNL A   1      35.495  32.029  30.846  1.00  0.00     0.251 C 
ATOM     36  H   UNL A   1      34.042  33.223  30.273  1.00  0.00     0.163 HD
ATOM     37  O   UNL A   1      35.136  32.197  32.014  1.00  0.00    -0.269 OA
BRANCH  35  38
ATOM     38  C   UNL A   1      36.573  31.041  30.569  1.00  0.00     0.039 A 
ATOM     39  C   UNL A   1      36.454  29.655  30.656  1.00  0.00     0.014 A 
ATOM     40  C   UNL A   1      37.834  31.589  30.259  1.00  0.00     0.014 A 
ATOM     41  C   UNL A   1      37.583  28.849  30.574  1.00  0.00     0.010 A 
ATOM     42  C   UNL A   1      38.961  30.787  30.151  1.00  0.00     0.010 A 
ATOM     43  C   UNL A   1      38.842  29.422  30.372  1.00  0.00    -0.014 A 
BRANCH  43  44
ATOM     44  C   UNL A   1      39.993  28.531  30.297  1.00  0.00     0.031 A 
ATOM     45  C   UNL A   1      40.708  28.344  31.590  1.00  0.00     0.074 A 
ATOM     46  C   UNL A   1      40.345  27.863  29.181  1.00  0.00     0.049 A 
ATOM     47  N   UNL A   1      41.932  28.650  31.872  1.00  0.00    -0.248 NA
ATOM     48  C   UNL A   1      39.926  27.871  32.743  1.00  0.00     0.031 C 
ATOM     49  C   UNL A   1      39.592  27.742  27.929  1.00  0.00     0.029 A 
ATOM     50  N   UNL A   1      41.421  27.053  28.969  1.00  0.00    -0.354 N 
ATOM     51  C   UNL A   1      42.130  28.266  33.196  1.00  0.00     0.074 A 
ATOM     52  C   UNL A   1      40.834  27.917  33.718  1.00  0.00     0.031 C 
ATOM     53  C   UNL A   1      40.105  26.727  27.195  1.00  0.00     0.029 A 
ATOM     54  C   UNL A   1      41.308  26.241  27.847  1.00  0.00     0.049 A 
ATOM     55  H   UNL A   1      42.210  27.045  29.558  1.00  0.00     0.167 HD
ATOM     56  C   UNL A   1      43.377  28.077  33.709  1.00  0.00     0.031 A 
ATOM     57  C   UNL A   1      42.115  25.205  27.509  1.00  0.00     0.031 A 
ATOM     58  C   UNL A   1      44.385  28.697  32.894  1.00  0.00     0.049 A 
ATOM     59  C   UNL A   1      43.396  25.383  28.226  1.00  0.00     0.074 A 
ATOM     60  C   UNL A   1      44.709  29.996  32.566  1.00  0.00     0.029 A 
ATOM     61  N   UNL A   1      45.019  27.895  31.979  1.00  0.00    -0.354 N 
ATOM     62  N   UNL A   1      44.227  26.355  27.985  1.00  0.00    -0.248 NA
ATOM     63  C   UNL A   1      43.566  24.715  29.505  1.00  0.00     0.031 C 
ATOM     64  C   UNL A   1      45.152  29.934  31.214  1.00  0.00     0.029 A 
ATOM     65  C   UNL A   1      45.145  28.596  30.810  1.00  0.00     0.049 A 
ATOM     66  H   UNL A   1      45.328  26.973  32.136  1.00  0.00     0.167 HD
ATOM     67  C   UNL A   1      44.717  26.712  29.232  1.00  0.00     0.074 A 
ATOM     68  C   UNL A   1      44.369  25.594  30.107  1.00  0.00     0.031 C 
ATOM     69  C   UNL A   1      45.105  27.995  29.492  1.00  0.00     0.031 A 
BRANCH  56  70
ATOM     70  C   UNL A   1      43.712  27.014  34.725  1.00  0.00    -0.014 A 
ATOM     71  C   UNL A   1      44.019  27.297  36.069  1.00  0.00     0.009 A 
ATOM     72  C   UNL A   1      43.446  25.666  34.412  1.00  0.00     0.009 A 
ATOM     73  C   UNL A   1      44.040  26.304  37.052  1.00  0.00     0.001 A 
ATOM     74  C   UNL A   1      43.428  24.675  35.402  1.00  0.00     0.001 A 
ATOM     75  C   UNL A   1      43.719  24.997  36.723  1.00  0.00     0.000 A 
ENDBRANCH  56  70
BRANCH  57  76
ATOM     76  C   UNL A   1      41.716  23.894  26.945  1.00  0.00    -0.014 A 
ATOM     77  C   UNL A   1      40.567  23.245  27.435  1.00  0.00     0.009 A 
ATOM     78  C   UNL A   1      42.608  23.143  26.162  1.00  0.00     0.009 A 
ATOM     79  C   UNL A   1      40.339  21.887  27.190  1.00  0.00     0.001 A 
ATOM     80  C   UNL A   1      42.377  21.781  25.916  1.00  0.00     0.001 A 
ATOM     81  C   UNL A   1      41.252  21.151  26.444  1.00  0.00     0.000 A 
ENDBRANCH  57  76
BRANCH  69  82
ATOM     82  C   UNL A   1      45.261  28.949  28.329  1.00  0.00    -0.014 A 
ATOM     83  C   UNL A   1      46.556  29.172  27.835  1.00  0.00     0.009 A 
ATOM     84  C   UNL A   1      44.218  29.760  27.846  1.00  0.00     0.009 A 
ATOM     85  C   UNL A   1      46.811  30.190  26.914  1.00  0.00     0.001 A 
ATOM     86  C   UNL A   1      44.469  30.761  26.901  1.00  0.00     0.001 A 
ATOM     87  C   UNL A   1      45.768  30.985  26.447  1.00  0.00     0.000 A 
ENDBRANCH  69  82
ENDBRANCH  43  44
ENDBRANCH  35  38
ENDBRANCH  33  34
ENDBRANCH  32  33
ENDBRANCH  31  32
ENDBRANCH   1  31
TORSDOF 16
ENDMDL
MODEL 2
REMARK VINA RESULT:     -11.9      3.361      5.343
REMARK SMILES CC(C)n1c2c(c3ccccc31)[C@@H](c1ccccc1)N(CC(=O)NCCCCCCNC(=O)c1ccc(-c3c4nc(c(-c5ccccc5)c5ccc([nH]5)c(-c5ccccc5)c5nc(c(-c6ccccc6)c6ccc3[nH]6)C=C5)C=C4)cc1)C2=O
REMARK SMILES IDX 27 1 26 2 25 3 24 4 22 5 23 6 21 8 20 9 4 10 5 11 12 12 6 13
REMARK SMILES IDX 82 14 7 15 11 16 13 17 83 18 8 19 10 20 9 21 2 22 1 23 3 24
REMARK SMILES IDX 14 25 15 26 19 27 16 28 18 29 17 30 28 31 29 32 30 33 31 34
REMARK SMILES IDX 32 35 33 37 34 38 35 39 81 40 36 41 80 42 37 43 38 44 39 45
REMARK SMILES IDX 74 46 40 47 79 48 73 49 75 50 41 51 78 52 72 53 71 54 42 56
REMARK SMILES IDX 64 57 49 58 63 59 50 60 53 61 62 62 76 63 51 64 52 65 61 67
REMARK SMILES IDX 77 68 54 69 43 70 44 71 48 72 45 73 47 74 46 75 65 76 66 77
REMARK SMILES IDX 70 78 67 79 69 80 68 81 55 82 56 83 60 84 57 85 59 86 58 87
REMARK H PARENT 24 7 31 36 75 55 53 66
REMARK Flexibility Score: inf
ROOT
ATOM      1  C   UNL A   1      33.933  35.091  28.308  1.00  0.00     0.002 C 
ENDROOT
BRANCH   1   2
ATOM      2  C   UNL A   1      34.113  33.615  28.676  1.00  0.00     0.021 C 
BRANCH   2   3
ATOM      3  C   UNL A   1      33.212  32.662  27.892  1.00  0.00     0.116 C 
BRANCH   3   4
ATOM      4  N   UNL A   1      33.913  31.437  27.567  1.00  0.00    -0.355 N 
ATOM      5  C   UNL A   1      33.402  30.277  27.058  1.00  0.00     0.239 C 
ATOM      6  O   UNL A   1      34.143  29.295  26.972  1.00  0.00    -0.273 OA
ATOM      7  H   UNL A   1      34.883  31.441  27.735  1.00  0.00     0.163 HD
BRANCH   5   8
ATOM      8  C   UNL A   1      31.924  30.191  26.655  1.00  0.00     0.220 C 
BRANCH   8   9
ATOM      9  N   UNL A   1      31.630  28.957  25.946  1.00  0.00    -0.317 N 
ATOM     10  N   UNL A   1      31.913  25.444  25.359  1.00  0.00    -0.334 N 
ATOM     11  C   UNL A   1      31.722  26.781  25.518  1.00  0.00     0.114 A 
ATOM     12  C   UNL A   1      32.240  25.223  24.018  1.00  0.00     0.049 A 
ATOM     13  C   UNL A   1      31.818  27.416  24.311  1.00  0.00     0.018 A 
ATOM     14  C   UNL A   1      31.565  27.716  26.577  1.00  0.00     0.272 C 
ATOM     15  C   UNL A   1      32.172  26.463  23.346  1.00  0.00     0.006 A 
ATOM     16  C   UNL A   1      32.605  24.059  23.321  1.00  0.00     0.027 A 
ATOM     17  C   UNL A   1      31.622  28.882  24.458  1.00  0.00     0.150 C 
ATOM     18  O   UNL A   1      31.520  27.487  27.779  1.00  0.00    -0.267 OA
ATOM     19  C   UNL A   1      32.458  26.533  21.971  1.00  0.00     0.011 A 
ATOM     20  C   UNL A   1      32.869  24.151  21.950  1.00  0.00     0.002 A 
ATOM     21  C   UNL A   1      32.797  25.367  21.281  1.00  0.00     0.001 A 
BRANCH  10  22
ATOM     22  C   UNL A   1      31.832  24.473  26.448  1.00  0.00     0.082 C 
ATOM     23  C   UNL A   1      30.652  23.504  26.334  1.00  0.00     0.031 C 
ATOM     24  C   UNL A   1      33.150  23.730  26.656  1.00  0.00     0.031 C 
ENDBRANCH  10  22
BRANCH  17  25
ATOM     25  C   UNL A   1      30.275  29.288  23.879  1.00  0.00    -0.021 A 
ATOM     26  C   UNL A   1      29.903  30.645  23.959  1.00  0.00     0.006 A 
ATOM     27  C   UNL A   1      29.346  28.402  23.302  1.00  0.00     0.006 A 
ATOM     28  C   UNL A   1      28.649  31.084  23.525  1.00  0.00     0.000 A 
ATOM     29  C   UNL A   1      28.101  28.844  22.845  1.00  0.00     0.000 A 
ATOM     30  C   UNL A   1      27.747  30.181  22.969  1.00  0.00     0.000 A 
ENDBRANCH  17  25
ENDBRANCH   8   9
ENDBRANCH   5   8
ENDBRANCH   3   4
ENDBRANCH   2   3
ENDBRANCH   1   2
BRANCH   1  31
ATOM     31  C   UNL A   1      32.986  35.871  29.226  1.00  0.00     0.002 C 
BRANCH  31  32
ATOM     32  C   UNL A   1      33.531  37.207  29.747  1.00  0.00     0.021 C 
BRANCH  32  33
ATOM     33  C   UNL A   1      33.355  37.412  31.253  1.00  0.00     0.116 C 
BRANCH  33  34
ATOM     34  N   UNL A   1      32.580  36.368  31.891  1.00  0.00    -0.352 N 
ATOM     35  C   UNL A   1      32.876  35.185  32.505  1.00  0.00     0.251 C 
ATOM     36  H   UNL A   1      31.614  36.557  31.879  1.00  0.00     0.163 HD
ATOM     37  O   UNL A   1      31.930  34.592  33.029  1.00  0.00    -0.269 OA
BRANCH  35  38
ATOM     38  C   UNL A   1      34.215  34.536  32.516  1.00  0.00     0.039 A 
ATOM     39  C   UNL A   1      35.438  35.188  32.663  1.00  0.00     0.014 A 
ATOM     40  C   UNL A   1      34.218  33.145  32.288  1.00  0.00     0.014 A 
ATOM     41  C   UNL A   1      36.628  34.501  32.451  1.00  0.00     0.010 A 
ATOM     42  C   UNL A   1      35.403  32.448  32.101  1.00  0.00     0.010 A 
ATOM     43  C   UNL A   1      36.604  33.143  32.121  1.00  0.00    -0.014 A 
BRANCH  43  44
ATOM     44  C   UNL A   1      37.880  32.472  31.905  1.00  0.00     0.031 A 
ATOM     45  C   UNL A   1      38.748  32.401  33.114  1.00  0.00     0.074 A 
ATOM     46  C   UNL A   1      38.225  31.887  30.741  1.00  0.00     0.049 A 
ATOM     47  N   UNL A   1      39.921  32.916  33.280  1.00  0.00    -0.248 NA
ATOM     48  C   UNL A   1      38.185  31.785  34.326  1.00  0.00     0.031 C 
ATOM     49  C   UNL A   1      37.380  31.648  29.568  1.00  0.00     0.029 A 
ATOM     50  N   UNL A   1      39.399  31.284  30.398  1.00  0.00    -0.354 N 
ATOM     51  C   UNL A   1      40.320  32.560  34.566  1.00  0.00     0.074 A 
ATOM     52  C   UNL A   1      39.166  31.981  35.205  1.00  0.00     0.031 C 
ATOM     53  C   UNL A   1      37.983  30.748  28.757  1.00  0.00     0.029 A 
ATOM     54  C   UNL A   1      39.314  30.476  29.271  1.00  0.00     0.049 A 
ATOM     55  H   UNL A   1      40.234  31.409  30.905  1.00  0.00     0.167 HD
ATOM     56  C   UNL A   1      41.627  32.590  34.945  1.00  0.00     0.031 A 
ATOM     57  C   UNL A   1      40.251  29.602  28.825  1.00  0.00     0.031 A 
ATOM     58  C   UNL A   1      42.420  33.387  34.051  1.00  0.00     0.049 A 
ATOM     59  C   UNL A   1      41.548  29.998  29.415  1.00  0.00     0.074 A 
ATOM     60  C   UNL A   1      42.475  34.726  33.729  1.00  0.00     0.029 A 
ATOM     61  N   UNL A   1      43.087  32.719  33.055  1.00  0.00    -0.354 N 
ATOM     62  N   UNL A   1      42.167  31.104  29.119  1.00  0.00    -0.248 NA
ATOM     63  C   UNL A   1      41.965  29.357  30.650  1.00  0.00     0.031 C 
ATOM     64  C   UNL A   1      42.780  34.758  32.339  1.00  0.00     0.029 A 
ATOM     65  C   UNL A   1      42.965  33.444  31.899  1.00  0.00     0.049 A 
ATOM     66  H   UNL A   1      43.568  31.865  33.154  1.00  0.00     0.167 HD
ATOM     67  C   UNL A   1      42.713  31.529  30.320  1.00  0.00     0.074 A 
ATOM     68  C   UNL A   1      42.660  30.359  31.193  1.00  0.00     0.031 C 
ATOM     69  C   UNL A   1      42.895  32.858  30.575  1.00  0.00     0.031 A 
BRANCH  56  70
ATOM     70  C   UNL A   1      42.247  31.592  35.892  1.00  0.00    -0.014 A 
ATOM     71  C   UNL A   1      42.304  30.211  35.630  1.00  0.00     0.009 A 
ATOM     72  C   UNL A   1      43.044  32.065  36.952  1.00  0.00     0.009 A 
ATOM     73  C   UNL A   1      43.125  29.349  36.364  1.00  0.00     0.001 A 
ATOM     74  C   UNL A   1      43.897  31.211  37.663  1.00  0.00     0.001 A 
ATOM     75  C   UNL A   1      43.941  29.853  37.363  1.00  0.00     0.000 A 
ENDBRANCH  56  70
BRANCH  57  76
ATOM     76  C   UNL A   1      40.032  28.248  28.266  1.00  0.00    -0.014 A 
ATOM     77  C   UNL A   1      39.450  27.249  29.070  1.00  0.00     0.009 A 
ATOM     78  C   UNL A   1      40.659  27.847  27.076  1.00  0.00     0.009 A 
ATOM     79  C   UNL A   1      39.531  25.897  28.720  1.00  0.00     0.001 A 
ATOM     80  C   UNL A   1      40.738  26.491  26.725  1.00  0.00     0.001 A 
ATOM     81  C   UNL A   1      40.188  25.516  27.556  1.00  0.00     0.000 A 
ENDBRANCH  57  76
BRANCH  69  82
ATOM     82  C   UNL A   1      42.759  33.837  29.430  1.00  0.00    -0.014 A 
ATOM     83  C   UNL A   1      43.891  34.070  28.633  1.00  0.00     0.009 A 
ATOM     84  C   UNL A   1      41.633  34.657  29.241  1.00  0.00     0.009 A 
ATOM     85  C   UNL A   1      43.913  35.108  27.698  1.00  0.00     0.001 A 
ATOM     86  C   UNL A   1      41.645  35.679  28.283  1.00  0.00     0.001 A 
ATOM     87  C   UNL A   1      42.790  35.912  27.523  1.00  0.00     0.000 A 
ENDBRANCH  69  82
ENDBRANCH  43  44
ENDBRANCH  35  38
ENDBRANCH  33  34
ENDBRANCH  32  33
ENDBRANCH  31  32
ENDBRANCH   1  31
TORSDOF 16
ENDMDL
MODEL 3
REMARK VINA RESULT:     -11.8      2.517      3.984
REMARK SMILES CC(C)n1c2c(c3ccccc31)[C@@H](c1ccccc1)N(CC(=O)NCCCCCCNC(=O)c1ccc(-c3c4nc(c(-c5ccccc5)c5ccc([nH]5)c(-c5ccccc5)c5nc(c(-c6ccccc6)c6ccc3[nH]6)C=C5)C=C4)cc1)C2=O
REMARK SMILES IDX 27 1 26 2 25 3 24 4 22 5 23 6 21 8 20 9 4 10 5 11 12 12 6 13
REMARK SMILES IDX 82 14 7 15 11 16 13 17 83 18 8 19 10 20 9 21 2 22 1 23 3 24
REMARK SMILES IDX 14 25 15 26 19 27 16 28 18 29 17 30 28 31 29 32 30 33 31 34
REMARK SMILES IDX 32 35 33 37 34 38 35 39 81 40 36 41 80 42 37 43 38 44 39 45
REMARK SMILES IDX 74 46 40 47 79 48 73 49 75 50 41 51 78 52 72 53 71 54 42 56
REMARK SMILES IDX 64 57 49 58 63 59 50 60 53 61 62 62 76 63 51 64 52 65 61 67
REMARK SMILES IDX 77 68 54 69 43 70 44 71 48 72 45 73 47 74 46 75 65 76 66 77
REMARK SMILES IDX 70 78 67 79 69 80 68 81 55 82 56 83 60 84 57 85 59 86 58 87
REMARK H PARENT 24 7 31 36 75 55 53 66
REMARK Flexibility Score: inf
ROOT
ATOM      1  C   UNL A   1      35.617  32.028  29.153  1.00  0.00     0.002 C 
ENDROOT
BRANCH   1   2
ATOM      2  C   UNL A   1      34.475  32.777  28.460  1.00  0.00     0.021 C 
BRANCH   2   3
ATOM      3  C   UNL A   1      33.515  31.874  27.686  1.00  0.00     0.116 C 
BRANCH   3   4
ATOM      4  N   UNL A   1      34.218  30.748  27.106  1.00  0.00    -0.355 N 
ATOM      5  C   UNL A   1      33.694  29.660  26.467  1.00  0.00     0.239 C 
ATOM      6  O   UNL A   1      34.453  28.737  26.158  1.00  0.00    -0.273 OA
ATOM      7  H   UNL A   1      35.199  30.769  27.184  1.00  0.00     0.163 HD
BRANCH   5   8
ATOM      8  C   UNL A   1      32.188  29.571  26.191  1.00  0.00     0.220 C 
BRANCH   8   9
ATOM      9  N   UNL A   1      31.815  28.278  25.644  1.00  0.00    -0.317 N 
ATOM     10  N   UNL A   1      31.766  24.706  25.592  1.00  0.00    -0.334 N 
ATOM     11  C   UNL A   1      31.707  26.063  25.541  1.00  0.00     0.114 A 
ATOM     12  C   UNL A   1      32.160  24.255  24.329  1.00  0.00     0.049 A 
ATOM     13  C   UNL A   1      31.952  26.497  24.268  1.00  0.00     0.018 A 
ATOM     14  C   UNL A   1      31.576  27.158  26.438  1.00  0.00     0.272 C 
ATOM     15  C   UNL A   1      32.270  25.381  23.483  1.00  0.00     0.006 A 
ATOM     16  C   UNL A   1      32.448  22.970  23.839  1.00  0.00     0.027 A 
ATOM     17  C   UNL A   1      31.903  27.980  24.187  1.00  0.00     0.150 C 
ATOM     18  O   UNL A   1      31.423  27.118  27.653  1.00  0.00    -0.267 OA
ATOM     19  C   UNL A   1      32.657  25.215  22.141  1.00  0.00     0.011 A 
ATOM     20  C   UNL A   1      32.814  22.829  22.496  1.00  0.00     0.002 A 
ATOM     21  C   UNL A   1      32.918  23.932  21.657  1.00  0.00     0.001 A 
BRANCH  10  22
ATOM     22  C   UNL A   1      31.507  23.922  26.798  1.00  0.00     0.082 C 
ATOM     23  C   UNL A   1      30.259  23.040  26.713  1.00  0.00     0.031 C 
ATOM     24  C   UNL A   1      32.732  23.121  27.237  1.00  0.00     0.031 C 
ENDBRANCH  10  22
BRANCH  17  25
ATOM     25  C   UNL A   1      30.650  28.420  23.444  1.00  0.00    -0.021 A 
ATOM     26  C   UNL A   1      30.765  29.478  22.521  1.00  0.00     0.006 A 
ATOM     27  C   UNL A   1      29.365  27.876  23.639  1.00  0.00     0.006 A 
ATOM     28  C   UNL A   1      29.647  29.994  21.859  1.00  0.00     0.000 A 
ATOM     29  C   UNL A   1      28.251  28.375  22.960  1.00  0.00     0.000 A 
ATOM     30  C   UNL A   1      28.388  29.442  22.081  1.00  0.00     0.000 A 
ENDBRANCH  17  25
ENDBRANCH   8   9
ENDBRANCH   5   8
ENDBRANCH   3   4
ENDBRANCH   2   3
ENDBRANCH   1   2
BRANCH   1  31
ATOM     31  C   UNL A   1      37.007  32.634  28.937  1.00  0.00     0.002 C 
BRANCH  31  32
ATOM     32  C   UNL A   1      37.199  34.050  29.495  1.00  0.00     0.021 C 
BRANCH  32  33
ATOM     33  C   UNL A   1      38.615  34.604  29.328  1.00  0.00     0.116 C 
BRANCH  33  34
ATOM     34  N   UNL A   1      39.364  34.657  30.566  1.00  0.00    -0.352 N 
ATOM     35  C   UNL A   1      40.219  33.813  31.214  1.00  0.00     0.251 C 
ATOM     36  H   UNL A   1      39.224  35.501  31.054  1.00  0.00     0.163 HD
ATOM     37  O   UNL A   1      40.754  34.256  32.233  1.00  0.00    -0.269 OA
BRANCH  35  38
ATOM     38  C   UNL A   1      40.483  32.400  30.831  1.00  0.00     0.039 A 
ATOM     39  C   UNL A   1      39.620  31.323  31.031  1.00  0.00     0.014 A 
ATOM     40  C   UNL A   1      41.755  32.147  30.278  1.00  0.00     0.014 A 
ATOM     41  C   UNL A   1      40.062  30.023  30.819  1.00  0.00     0.010 A 
ATOM     42  C   UNL A   1      42.193  30.853  30.040  1.00  0.00     0.010 A 
ATOM     43  C   UNL A   1      41.365  29.789  30.371  1.00  0.00    -0.014 A 
BRANCH  43  44
ATOM     44  C   UNL A   1      41.779  28.406  30.168  1.00  0.00     0.031 A 
ATOM     45  C   UNL A   1      42.512  27.809  31.318  1.00  0.00     0.074 A 
ATOM     46  C   UNL A   1      41.462  27.689  29.071  1.00  0.00     0.049 A 
ATOM     47  N   UNL A   1      43.724  27.362  31.342  1.00  0.00    -0.248 NA
ATOM     48  C   UNL A   1      41.852  27.827  32.634  1.00  0.00     0.031 C 
ATOM     49  C   UNL A   1      40.535  28.051  27.995  1.00  0.00     0.029 A 
ATOM     50  N   UNL A   1      41.832  26.419  28.739  1.00  0.00    -0.354 N 
ATOM     51  C   UNL A   1      43.937  26.894  32.637  1.00  0.00     0.074 A 
ATOM     52  C   UNL A   1      42.805  27.323  33.417  1.00  0.00     0.031 C 
ATOM     53  C   UNL A   1      40.232  26.947  27.274  1.00  0.00     0.029 A 
ATOM     54  C   UNL A   1      41.060  25.846  27.736  1.00  0.00     0.049 A 
ATOM     55  H   UNL A   1      42.581  25.949  29.172  1.00  0.00     0.167 HD
ATOM     56  C   UNL A   1      44.939  26.018  32.927  1.00  0.00     0.031 A 
ATOM     57  C   UNL A   1      41.062  24.546  27.352  1.00  0.00     0.031 A 
ATOM     58  C   UNL A   1      45.930  25.984  31.887  1.00  0.00     0.049 A 
ATOM     59  C   UNL A   1      42.337  23.948  27.802  1.00  0.00     0.074 A 
ATOM     60  C   UNL A   1      46.850  26.882  31.389  1.00  0.00     0.029 A 
ATOM     61  N   UNL A   1      45.806  24.991  30.949  1.00  0.00    -0.354 N 
ATOM     62  N   UNL A   1      43.500  24.286  27.325  1.00  0.00    -0.248 NA
ATOM     63  C   UNL A   1      42.360  23.263  29.083  1.00  0.00     0.031 C 
ATOM     64  C   UNL A   1      46.898  26.620  29.990  1.00  0.00     0.029 A 
ATOM     65  C   UNL A   1      46.062  25.533  29.717  1.00  0.00     0.049 A 
ATOM     66  H   UNL A   1      45.573  24.052  31.129  1.00  0.00     0.167 HD
ATOM     67  C   UNL A   1      44.346  24.267  28.423  1.00  0.00     0.074 A 
ATOM     68  C   UNL A   1      43.620  23.517  29.445  1.00  0.00     0.031 C 
ATOM     69  C   UNL A   1      45.427  25.099  28.489  1.00  0.00     0.031 A 
BRANCH  56  70
ATOM     70  C   UNL A   1      44.820  24.923  33.956  1.00  0.00    -0.014 A 
ATOM     71  C   UNL A   1      43.873  23.885  33.875  1.00  0.00     0.009 A 
ATOM     72  C   UNL A   1      45.857  24.755  34.895  1.00  0.00     0.009 A 
ATOM     73  C   UNL A   1      43.962  22.734  34.664  1.00  0.00     0.001 A 
ATOM     74  C   UNL A   1      45.971  23.587  35.658  1.00  0.00     0.001 A 
ATOM     75  C   UNL A   1      45.025  22.574  35.537  1.00  0.00     0.000 A 
ENDBRANCH  56  70
BRANCH  57  76
ATOM     76  C   UNL A   1      39.895  23.708  26.991  1.00  0.00    -0.014 A 
ATOM     77  C   UNL A   1      40.092  22.369  26.600  1.00  0.00     0.009 A 
ATOM     78  C   UNL A   1      38.642  24.287  26.733  1.00  0.00     0.009 A 
ATOM     79  C   UNL A   1      39.092  21.651  25.937  1.00  0.00     0.001 A 
ATOM     80  C   UNL A   1      37.639  23.564  26.069  1.00  0.00     0.001 A 
ATOM     81  C   UNL A   1      37.871  22.253  25.657  1.00  0.00     0.000 A 
ENDBRANCH  57  76
BRANCH  69  82
ATOM     82  C   UNL A   1      45.849  25.831  27.236  1.00  0.00    -0.014 A 
ATOM     83  C   UNL A   1      45.148  26.998  26.892  1.00  0.00     0.009 A 
ATOM     84  C   UNL A   1      46.767  25.310  26.305  1.00  0.00     0.009 A 
ATOM     85  C   UNL A   1      45.330  27.609  25.649  1.00  0.00     0.001 A 
ATOM     86  C   UNL A   1      46.971  25.940  25.072  1.00  0.00     0.001 A 
ATOM     87  C   UNL A   1      46.241  27.080  24.739  1.00  0.00     0.000 A 
ENDBRANCH  69  82
ENDBRANCH  43  44
ENDBRANCH  35  38
ENDBRANCH  33  34
ENDBRANCH  32  33
ENDBRANCH  31  32
ENDBRANCH   1  31
TORSDOF 16
ENDMDL
