MODEL 1
REMARK VINA RESULT:      -9.8      0.000      0.000
REMARK SMILES CC(=O)Oc1ccccc1C(=O)NCCCCCCNC(=O)c1ccc(-c2c3nc(c(-c4ccccc4)c4ccc([nH]4)c(-c4ccccc4)c4nc(c(-c5ccccc5)c5ccc2[nH]5)C=C4)C=C3)cc1
REMARK SMILES IDX 16 1 15 2 14 3 13 4 11 5 12 6 10 8 5 9 6 10 7 11 9 12 8 13
REMARK SMILES IDX 4 14 2 15 1 16 3 17 17 18 18 19 19 20 20 21 21 22 22 24
REMARK SMILES IDX 23 25 24 26 70 27 25 28 69 29 26 30 27 31 28 32 63 33 29 34
REMARK SMILES IDX 68 35 62 36 64 37 30 38 67 39 61 40 60 41 31 43 53 44 38 45
REMARK SMILES IDX 52 46 39 47 42 48 51 49 65 50 40 51 41 52 50 54 66 55 43 56
REMARK SMILES IDX 32 57 33 58 37 59 34 60 36 61 35 62 54 63 55 64 59 65 56 66
REMARK SMILES IDX 58 67 57 68 44 69 45 70 49 71 46 72 48 73 47 74
REMARK H PARENT 13 7 20 23 64 42 42 53
REMARK Flexibility Score: inf
ROOT
ATOM      1  C   UNL A   1      32.917  29.721  26.303  1.00  0.00     0.002 C 
ENDROOT
BRANCH   1   2
ATOM      2  C   UNL A   1      32.888  28.359  27.004  1.00  0.00     0.021 C 
BRANCH   2   3
ATOM      3  C   UNL A   1      31.519  27.784  27.354  1.00  0.00     0.116 C 
BRANCH   3   4
ATOM      4  N   UNL A   1      31.188  26.539  26.709  1.00  0.00    -0.352 N 
ATOM      5  C   UNL A   1      30.948  26.240  25.388  1.00  0.00     0.255 C 
ATOM      6  O   UNL A   1      30.707  25.057  25.129  1.00  0.00    -0.269 OA
ATOM      7  H   UNL A   1      31.122  25.769  27.319  1.00  0.00     0.163 HD
BRANCH   5   8
ATOM      8  C   UNL A   1      30.880  27.237  24.275  1.00  0.00     0.082 A 
ATOM      9  C   UNL A   1      31.915  27.678  23.439  1.00  0.00     0.143 A 
ATOM     10  C   UNL A   1      31.691  28.645  22.444  1.00  0.00     0.048 A 
ATOM     11  C   UNL A   1      30.412  29.149  22.228  1.00  0.00     0.004 A 
ATOM     12  C   UNL A   1      29.590  27.749  24.014  1.00  0.00     0.018 A 
ATOM     13  C   UNL A   1      29.356  28.693  23.006  1.00  0.00     0.001 A 
BRANCH   9  14
ATOM     14  O   UNL A   1      33.244  27.269  23.560  1.00  0.00    -0.426 OA
BRANCH  14  15
ATOM     15  C   UNL A   1      33.621  26.214  22.739  1.00  0.00     0.308 C 
ATOM     16  C   UNL A   1      33.990  25.041  23.606  1.00  0.00     0.139 C 
ATOM     17  O   UNL A   1      33.664  26.213  21.520  1.00  0.00    -0.252 OA
ENDBRANCH  14  15
ENDBRANCH   9  14
ENDBRANCH   5   8
ENDBRANCH   3   4
ENDBRANCH   2   3
ENDBRANCH   1   2
BRANCH   1  18
ATOM     18  C   UNL A   1      31.580  30.426  26.043  1.00  0.00     0.002 C 
BRANCH  18  19
ATOM     19  C   UNL A   1      31.423  31.859  26.555  1.00  0.00     0.021 C 
BRANCH  19  20
ATOM     20  C   UNL A   1      32.694  32.587  26.980  1.00  0.00     0.116 C 
BRANCH  20  21
ATOM     21  N   UNL A   1      32.443  33.850  27.646  1.00  0.00    -0.352 N 
ATOM     22  C   UNL A   1      33.153  34.499  28.627  1.00  0.00     0.251 C 
ATOM     23  H   UNL A   1      31.630  34.319  27.348  1.00  0.00     0.163 HD
ATOM     24  O   UNL A   1      32.695  35.526  29.123  1.00  0.00    -0.269 OA
BRANCH  22  25
ATOM     25  C   UNL A   1      34.450  33.974  29.123  1.00  0.00     0.039 A 
ATOM     26  C   UNL A   1      34.440  33.106  30.221  1.00  0.00     0.014 A 
ATOM     27  C   UNL A   1      35.672  34.355  28.561  1.00  0.00     0.014 A 
ATOM     28  C   UNL A   1      35.638  32.580  30.716  1.00  0.00     0.010 A 
ATOM     29  C   UNL A   1      36.861  33.774  29.008  1.00  0.00     0.010 A 
ATOM     30  C   UNL A   1      36.859  32.886  30.095  1.00  0.00    -0.014 A 
BRANCH  30  31
ATOM     31  C   UNL A   1      38.137  32.295  30.576  1.00  0.00     0.031 A 
ATOM     32  C   UNL A   1      38.657  31.013  29.980  1.00  0.00     0.074 A 
ATOM     33  C   UNL A   1      38.809  32.880  31.588  1.00  0.00     0.049 A 
ATOM     34  N   UNL A   1      39.722  30.322  30.307  1.00  0.00    -0.248 NA
ATOM     35  C   UNL A   1      37.867  30.418  28.891  1.00  0.00     0.031 C 
ATOM     36  C   UNL A   1      38.404  34.105  32.279  1.00  0.00     0.029 A 
ATOM     37  N   UNL A   1      39.976  32.517  32.216  1.00  0.00    -0.354 N 
ATOM     38  C   UNL A   1      39.716  29.204  29.482  1.00  0.00     0.074 A 
ATOM     39  C   UNL A   1      38.521  29.287  28.669  1.00  0.00     0.031 C 
ATOM     40  C   UNL A   1      39.318  34.404  33.217  1.00  0.00     0.029 A 
ATOM     41  C   UNL A   1      40.351  33.374  33.221  1.00  0.00     0.049 A 
ATOM     42  H   UNL A   1      40.493  31.716  31.968  1.00  0.00     0.167 HD
ATOM     43  C   UNL A   1      40.629  28.207  29.392  1.00  0.00     0.031 A 
ATOM     44  C   UNL A   1      41.406  33.336  34.058  1.00  0.00     0.031 A 
ATOM     45  C   UNL A   1      41.828  28.129  30.181  1.00  0.00     0.049 A 
ATOM     46  C   UNL A   1      42.401  32.215  33.944  1.00  0.00     0.074 A 
ATOM     47  C   UNL A   1      42.844  27.190  30.116  1.00  0.00     0.029 A 
ATOM     48  N   UNL A   1      42.174  29.023  31.182  1.00  0.00    -0.354 N 
ATOM     49  N   UNL A   1      42.414  31.202  33.111  1.00  0.00    -0.248 NA
ATOM     50  C   UNL A   1      43.535  32.238  34.879  1.00  0.00     0.031 C 
ATOM     51  C   UNL A   1      43.780  27.488  31.112  1.00  0.00     0.029 A 
ATOM     52  C   UNL A   1      43.374  28.644  31.760  1.00  0.00     0.049 A 
ATOM     53  H   UNL A   1      41.645  29.811  31.444  1.00  0.00     0.167 HD
ATOM     54  C   UNL A   1      43.567  30.486  33.403  1.00  0.00     0.074 A 
ATOM     55  C   UNL A   1      44.237  31.187  34.479  1.00  0.00     0.031 C 
ATOM     56  C   UNL A   1      44.030  29.349  32.830  1.00  0.00     0.031 A 
BRANCH  43  57
ATOM     57  C   UNL A   1      40.358  27.106  28.403  1.00  0.00    -0.014 A 
ATOM     58  C   UNL A   1      40.887  27.147  27.103  1.00  0.00     0.009 A 
ATOM     59  C   UNL A   1      39.595  25.992  28.790  1.00  0.00     0.009 A 
ATOM     60  C   UNL A   1      40.627  26.113  26.200  1.00  0.00     0.001 A 
ATOM     61  C   UNL A   1      39.361  24.946  27.895  1.00  0.00     0.001 A 
ATOM     62  C   UNL A   1      39.869  25.013  26.599  1.00  0.00     0.000 A 
ENDBRANCH  43  57
BRANCH  44  63
ATOM     63  C   UNL A   1      41.587  34.403  35.078  1.00  0.00    -0.014 A 
ATOM     64  C   UNL A   1      41.020  34.272  36.355  1.00  0.00     0.009 A 
ATOM     65  C   UNL A   1      42.318  35.563  34.775  1.00  0.00     0.009 A 
ATOM     66  C   UNL A   1      41.158  35.292  37.298  1.00  0.00     0.001 A 
ATOM     67  C   UNL A   1      42.479  36.568  35.731  1.00  0.00     0.001 A 
ATOM     68  C   UNL A   1      41.890  36.437  36.988  1.00  0.00     0.000 A 
ENDBRANCH  44  63
BRANCH  56  69
ATOM     69  C   UNL A   1      45.341  28.810  33.330  1.00  0.00    -0.014 A 
ATOM     70  C   UNL A   1      45.392  27.842  34.345  1.00  0.00     0.009 A 
ATOM     71  C   UNL A   1      46.541  29.249  32.746  1.00  0.00     0.009 A 
ATOM     72  C   UNL A   1      46.621  27.349  34.789  1.00  0.00     0.001 A 
ATOM     73  C   UNL A   1      47.766  28.733  33.172  1.00  0.00     0.001 A 
ATOM     74  C   UNL A   1      47.805  27.791  34.199  1.00  0.00     0.000 A 
ENDBRANCH  56  69
ENDBRANCH  30  31
ENDBRANCH  22  25
ENDBRANCH  20  21
ENDBRANCH  19  20
ENDBRANCH  18  19
ENDBRANCH   1  18
TORSDOF 15
ENDMDL
MODEL 2
REMARK VINA RESULT:      -9.6      3.841      8.920
REMARK SMILES CC(=O)Oc1ccccc1C(=O)NCCCCCCNC(=O)c1ccc(-c2c3nc(c(-c4ccccc4)c4ccc([nH]4)c(-c4ccccc4)c4nc(c(-c5ccccc5)c5ccc2[nH]5)C=C4)C=C3)cc1
REMARK SMILES IDX 16 1 15 2 14 3 13 4 11 5 12 6 10 8 5 9 6 10 7 11 9 12 8 13
REMARK SMILES IDX 4 14 2 15 1 16 3 17 17 18 18 19 19 20 20 21 21 22 22 24
REMARK SMILES IDX 23 25 24 26 70 27 25 28 69 29 26 30 27 31 28 32 63 33 29 34
REMARK SMILES IDX 68 35 62 36 64 37 30 38 67 39 61 40 60 41 31 43 53 44 38 45
REMARK SMILES IDX 52 46 39 47 42 48 51 49 65 50 40 51 41 52 50 54 66 55 43 56
REMARK SMILES IDX 32 57 33 58 37 59 34 60 36 61 35 62 54 63 55 64 59 65 56 66
REMARK SMILES IDX 58 67 57 68 44 69 45 70 49 71 46 72 48 73 47 74
REMARK H PARENT 13 7 20 23 64 42 42 53
REMARK Flexibility Score: inf
ROOT
ATOM      1  C   UNL A   1      35.493  21.327  25.346  1.00  0.00     0.002 C 
ENDROOT
BRANCH   1   2
ATOM      2  C   UNL A   1      35.842  22.538  24.474  1.00  0.00     0.021 C 
BRANCH   2   3
ATOM      3  C   UNL A   1      35.135  23.851  24.791  1.00  0.00     0.116 C 
BRANCH   3   4
ATOM      4  N   UNL A   1      34.364  24.415  23.711  1.00  0.00    -0.352 N 
ATOM      5  C   UNL A   1      33.511  25.493  23.677  1.00  0.00     0.255 C 
ATOM      6  O   UNL A   1      33.002  25.754  22.583  1.00  0.00    -0.269 OA
ATOM      7  H   UNL A   1      34.465  23.948  22.851  1.00  0.00     0.163 HD
BRANCH   5   8
ATOM      8  C   UNL A   1      33.098  26.307  24.862  1.00  0.00     0.082 A 
ATOM      9  C   UNL A   1      31.989  26.123  25.699  1.00  0.00     0.143 A 
ATOM     10  C   UNL A   1      31.725  26.997  26.768  1.00  0.00     0.048 A 
ATOM     11  C   UNL A   1      32.599  28.041  27.055  1.00  0.00     0.004 A 
ATOM     12  C   UNL A   1      33.978  27.361  25.194  1.00  0.00     0.018 A 
ATOM     13  C   UNL A   1      33.734  28.218  26.274  1.00  0.00     0.001 A 
BRANCH   9  14
ATOM     14  O   UNL A   1      31.027  25.130  25.513  1.00  0.00    -0.426 OA
BRANCH  14  15
ATOM     15  C   UNL A   1      31.260  23.937  26.185  1.00  0.00     0.308 C 
ATOM     16  C   UNL A   1      31.422  22.839  25.170  1.00  0.00     0.139 C 
ATOM     17  O   UNL A   1      31.320  23.777  27.393  1.00  0.00    -0.252 OA
ENDBRANCH  14  15
ENDBRANCH   9  14
ENDBRANCH   5   8
ENDBRANCH   3   4
ENDBRANCH   2   3
ENDBRANCH   1   2
BRANCH   1  18
ATOM     18  C   UNL A   1      36.118  19.974  24.985  1.00  0.00     0.002 C 
BRANCH  18  19
ATOM     19  C   UNL A   1      37.600  19.957  24.606  1.00  0.00     0.021 C 
BRANCH  19  20
ATOM     20  C   UNL A   1      38.603  20.246  25.717  1.00  0.00     0.116 C 
BRANCH  20  21
ATOM     21  N   UNL A   1      39.750  19.358  25.706  1.00  0.00    -0.352 N 
ATOM     22  C   UNL A   1      41.059  19.586  26.056  1.00  0.00     0.251 C 
ATOM     23  H   UNL A   1      39.559  18.442  25.398  1.00  0.00     0.163 HD
ATOM     24  O   UNL A   1      41.894  18.703  25.870  1.00  0.00    -0.269 OA
BRANCH  22  25
ATOM     25  C   UNL A   1      41.496  20.884  26.627  1.00  0.00     0.039 A 
ATOM     26  C   UNL A   1      41.998  21.859  25.756  1.00  0.00     0.014 A 
ATOM     27  C   UNL A   1      41.466  21.141  28.000  1.00  0.00     0.014 A 
ATOM     28  C   UNL A   1      42.412  23.100  26.250  1.00  0.00     0.010 A 
ATOM     29  C   UNL A   1      41.811  22.405  28.485  1.00  0.00     0.010 A 
ATOM     30  C   UNL A   1      42.295  23.397  27.617  1.00  0.00    -0.014 A 
BRANCH  30  31
ATOM     31  C   UNL A   1      42.683  24.730  28.152  1.00  0.00     0.031 A 
ATOM     32  C   UNL A   1      41.642  25.797  28.370  1.00  0.00     0.074 A 
ATOM     33  C   UNL A   1      43.980  25.005  28.394  1.00  0.00     0.049 A 
ATOM     34  N   UNL A   1      41.798  27.033  28.777  1.00  0.00    -0.248 NA
ATOM     35  C   UNL A   1      40.248  25.436  28.071  1.00  0.00     0.031 C 
ATOM     36  C   UNL A   1      45.096  24.078  28.197  1.00  0.00     0.029 A 
ATOM     37  N   UNL A   1      44.580  26.152  28.855  1.00  0.00    -0.354 N 
ATOM     38  C   UNL A   1      40.530  27.600  28.761  1.00  0.00     0.074 A 
ATOM     39  C   UNL A   1      39.622  26.588  28.264  1.00  0.00     0.031 C 
ATOM     40  C   UNL A   1      46.240  24.683  28.556  1.00  0.00     0.029 A 
ATOM     41  C   UNL A   1      45.946  26.051  28.972  1.00  0.00     0.049 A 
ATOM     42  H   UNL A   1      44.079  26.969  29.080  1.00  0.00     0.167 HD
ATOM     43  C   UNL A   1      40.148  28.843  29.142  1.00  0.00     0.031 A 
ATOM     44  C   UNL A   1      46.862  26.957  29.364  1.00  0.00     0.031 A 
ATOM     45  C   UNL A   1      41.041  29.846  29.656  1.00  0.00     0.049 A 
ATOM     46  C   UNL A   1      46.414  28.332  29.774  1.00  0.00     0.074 A 
ATOM     47  C   UNL A   1      40.736  31.113  30.126  1.00  0.00     0.029 A 
ATOM     48  N   UNL A   1      42.415  29.699  29.765  1.00  0.00    -0.354 N 
ATOM     49  N   UNL A   1      45.202  28.828  29.816  1.00  0.00    -0.248 NA
ATOM     50  C   UNL A   1      47.462  29.269  30.203  1.00  0.00     0.031 C 
ATOM     51  C   UNL A   1      41.932  31.749  30.474  1.00  0.00     0.029 A 
ATOM     52  C   UNL A   1      42.975  30.860  30.271  1.00  0.00     0.049 A 
ATOM     53  H   UNL A   1      42.918  28.889  29.520  1.00  0.00     0.167 HD
ATOM     54  C   UNL A   1      45.338  30.123  30.300  1.00  0.00     0.074 A 
ATOM     55  C   UNL A   1      46.749  30.331  30.552  1.00  0.00     0.031 C 
ATOM     56  C   UNL A   1      44.380  31.055  30.518  1.00  0.00     0.031 A 
BRANCH  43  57
ATOM     57  C   UNL A   1      38.691  29.193  29.007  1.00  0.00    -0.014 A 
ATOM     58  C   UNL A   1      37.805  29.055  30.087  1.00  0.00     0.009 A 
ATOM     59  C   UNL A   1      38.206  29.705  27.792  1.00  0.00     0.009 A 
ATOM     60  C   UNL A   1      36.456  29.388  29.943  1.00  0.00     0.001 A 
ATOM     61  C   UNL A   1      36.864  30.065  27.660  1.00  0.00     0.001 A 
ATOM     62  C   UNL A   1      35.988  29.897  28.731  1.00  0.00     0.000 A 
ENDBRANCH  43  57
BRANCH  44  63
ATOM     63  C   UNL A   1      48.303  26.591  29.401  1.00  0.00    -0.014 A 
ATOM     64  C   UNL A   1      48.859  26.003  30.548  1.00  0.00     0.009 A 
ATOM     65  C   UNL A   1      49.131  26.839  28.295  1.00  0.00     0.009 A 
ATOM     66  C   UNL A   1      50.220  25.696  30.596  1.00  0.00     0.001 A 
ATOM     67  C   UNL A   1      50.486  26.503  28.336  1.00  0.00     0.001 A 
ATOM     68  C   UNL A   1      51.032  25.942  29.489  1.00  0.00     0.000 A 
ENDBRANCH  44  63
BRANCH  56  69
ATOM     69  C   UNL A   1      44.819  32.375  31.088  1.00  0.00    -0.014 A 
ATOM     70  C   UNL A   1      44.908  32.577  32.474  1.00  0.00     0.009 A 
ATOM     71  C   UNL A   1      45.186  33.418  30.222  1.00  0.00     0.009 A 
ATOM     72  C   UNL A   1      45.325  33.809  32.981  1.00  0.00     0.001 A 
ATOM     73  C   UNL A   1      45.630  34.638  30.732  1.00  0.00     0.001 A 
ATOM     74  C   UNL A   1      45.691  34.836  32.111  1.00  0.00     0.000 A 
ENDBRANCH  56  69
ENDBRANCH  30  31
ENDBRANCH  22  25
ENDBRANCH  20  21
ENDBRANCH  19  20
ENDBRANCH  18  19
ENDBRANCH   1  18
TORSDOF 15
ENDMDL
MODEL 3
REMARK VINA RESULT:      -9.5      5.022     10.969
REMARK SMILES CC(=O)Oc1ccccc1C(=O)NCCCCCCNC(=O)c1ccc(-c2c3nc(c(-c4ccccc4)c4ccc([nH]4)c(-c4ccccc4)c4nc(c(-c5ccccc5)c5ccc2[nH]5)C=C4)C=C3)cc1
REMARK SMILES IDX 16 1 15 2 14 3 13 4 11 5 12 6 10 8 5 9 6 10 7 11 9 12 8 13
REMARK SMILES IDX 4 14 2 15 1 16 3 17 17 18 18 19 19 20 20 21 21 22 22 24
REMARK SMILES IDX 23 25 24 26 70 27 25 28 69 29 26 30 27 31 28 32 63 33 29 34
REMARK SMILES IDX 68 35 62 36 64 37 30 38 67 39 61 40 60 41 31 43 53 44 38 45
REMARK SMILES IDX 52 46 39 47 42 48 51 49 65 50 40 51 41 52 50 54 66 55 43 56
REMARK SMILES IDX 32 57 33 58 37 59 34 60 36 61 35 62 54 63 55 64 59 65 56 66
REMARK SMILES IDX 58 67 57 68 44 69 45 70 49 71 46 72 48 73 47 74
REMARK H PARENT 13 7 20 23 64 42 42 53
REMARK Flexibility Score: inf
ROOT
ATOM      1  C   UNL A   1      45.864  22.930  24.353  1.00  0.00     0.002 C 
ENDROOT
BRANCH   1   2
ATOM      2  C   UNL A   1      45.146  24.173  24.890  1.00  0.00     0.021 C 
BRANCH   2   3
ATOM      3  C   UNL A   1      45.971  25.147  25.725  1.00  0.00     0.116 C 
BRANCH   3   4
ATOM      4  N   UNL A   1      46.418  26.330  25.035  1.00  0.00    -0.352 N 
ATOM      5  C   UNL A   1      45.829  27.563  24.879  1.00  0.00     0.255 C 
ATOM      6  O   UNL A   1      46.474  28.401  24.243  1.00  0.00    -0.269 OA
ATOM      7  H   UNL A   1      47.296  26.241  24.600  1.00  0.00     0.163 HD
BRANCH   5   8
ATOM      8  C   UNL A   1      44.456  27.930  25.346  1.00  0.00     0.082 A 
ATOM      9  C   UNL A   1      44.063  29.047  26.095  1.00  0.00     0.143 A 
ATOM     10  C   UNL A   1      42.723  29.240  26.475  1.00  0.00     0.048 A 
ATOM     11  C   UNL A   1      41.740  28.346  26.064  1.00  0.00     0.004 A 
ATOM     12  C   UNL A   1      43.431  27.055  24.923  1.00  0.00     0.018 A 
ATOM     13  C   UNL A   1      42.091  27.257  25.277  1.00  0.00     0.001 A 
BRANCH   9  14
ATOM     14  O   UNL A   1      44.948  30.008  26.586  1.00  0.00    -0.426 OA
BRANCH  14  15
ATOM     15  C   UNL A   1      45.205  29.943  27.949  1.00  0.00     0.308 C 
ATOM     16  C   UNL A   1      44.839  31.264  28.569  1.00  0.00     0.139 C 
ATOM     17  O   UNL A   1      45.658  28.992  28.564  1.00  0.00    -0.252 OA
ENDBRANCH  14  15
ENDBRANCH   9  14
ENDBRANCH   5   8
ENDBRANCH   3   4
ENDBRANCH   2   3
ENDBRANCH   1   2
BRANCH   1  18
ATOM     18  C   UNL A   1      45.704  21.615  25.127  1.00  0.00     0.002 C 
BRANCH  18  19
ATOM     19  C   UNL A   1      44.833  20.525  24.500  1.00  0.00     0.021 C 
BRANCH  19  20
ATOM     20  C   UNL A   1      44.398  19.379  25.406  1.00  0.00     0.116 C 
BRANCH  20  21
ATOM     21  N   UNL A   1      42.984  19.071  25.311  1.00  0.00    -0.352 N 
ATOM     22  C   UNL A   1      41.889  19.749  25.791  1.00  0.00     0.251 C 
ATOM     23  H   UNL A   1      42.774  18.242  24.824  1.00  0.00     0.163 HD
ATOM     24  O   UNL A   1      40.773  19.246  25.679  1.00  0.00    -0.269 OA
BRANCH  22  25
ATOM     25  C   UNL A   1      42.024  21.063  26.467  1.00  0.00     0.039 A 
ATOM     26  C   UNL A   1      42.063  21.090  27.867  1.00  0.00     0.014 A 
ATOM     27  C   UNL A   1      42.065  22.266  25.757  1.00  0.00     0.014 A 
ATOM     28  C   UNL A   1      42.198  22.305  28.545  1.00  0.00     0.010 A 
ATOM     29  C   UNL A   1      42.273  23.472  26.430  1.00  0.00     0.010 A 
ATOM     30  C   UNL A   1      42.335  23.507  27.833  1.00  0.00    -0.014 A 
BRANCH  30  31
ATOM     31  C   UNL A   1      42.531  24.802  28.537  1.00  0.00     0.031 A 
ATOM     32  C   UNL A   1      43.829  25.099  29.241  1.00  0.00     0.074 A 
ATOM     33  C   UNL A   1      41.524  25.697  28.592  1.00  0.00     0.049 A 
ATOM     34  N   UNL A   1      44.163  26.149  29.952  1.00  0.00    -0.248 NA
ATOM     35  C   UNL A   1      44.881  24.074  29.156  1.00  0.00     0.031 C 
ATOM     36  C   UNL A   1      40.203  25.526  27.983  1.00  0.00     0.029 A 
ATOM     37  N   UNL A   1      41.453  26.929  29.195  1.00  0.00    -0.354 N 
ATOM     38  C   UNL A   1      45.449  25.900  30.414  1.00  0.00     0.074 A 
ATOM     39  C   UNL A   1      45.820  24.583  29.940  1.00  0.00     0.031 C 
ATOM     40  C   UNL A   1      39.463  26.622  28.223  1.00  0.00     0.029 A 
ATOM     41  C   UNL A   1      40.240  27.554  29.035  1.00  0.00     0.049 A 
ATOM     42  H   UNL A   1      42.202  27.326  29.697  1.00  0.00     0.167 HD
ATOM     43  C   UNL A   1      46.260  26.699  31.149  1.00  0.00     0.031 A 
ATOM     44  C   UNL A   1      39.797  28.741  29.491  1.00  0.00     0.031 A 
ATOM     45  C   UNL A   1      45.906  28.016  31.606  1.00  0.00     0.049 A 
ATOM     46  C   UNL A   1      40.713  29.606  30.312  1.00  0.00     0.074 A 
ATOM     47  C   UNL A   1      46.684  28.924  32.304  1.00  0.00     0.029 A 
ATOM     48  N   UNL A   1      44.671  28.613  31.413  1.00  0.00    -0.354 N 
ATOM     49  N   UNL A   1      41.950  29.382  30.682  1.00  0.00    -0.248 NA
ATOM     50  C   UNL A   1      40.172  30.894  30.769  1.00  0.00     0.031 C 
ATOM     51  C   UNL A   1      45.902  30.052  32.575  1.00  0.00     0.029 A 
ATOM     52  C   UNL A   1      44.656  29.867  32.000  1.00  0.00     0.049 A 
ATOM     53  H   UNL A   1      43.915  28.207  30.930  1.00  0.00     0.167 HD
ATOM     54  C   UNL A   1      42.344  30.510  31.390  1.00  0.00     0.074 A 
ATOM     55  C   UNL A   1      41.220  31.424  31.385  1.00  0.00     0.031 C 
ATOM     56  C   UNL A   1      43.532  30.767  31.989  1.00  0.00     0.031 A 
BRANCH  43  57
ATOM     57  C   UNL A   1      47.616  26.161  31.517  1.00  0.00    -0.014 A 
ATOM     58  C   UNL A   1      47.836  25.516  32.745  1.00  0.00     0.009 A 
ATOM     59  C   UNL A   1      48.679  26.267  30.606  1.00  0.00     0.009 A 
ATOM     60  C   UNL A   1      49.102  25.021  33.067  1.00  0.00     0.001 A 
ATOM     61  C   UNL A   1      49.936  25.746  30.919  1.00  0.00     0.001 A 
ATOM     62  C   UNL A   1      50.148  25.132  32.152  1.00  0.00     0.000 A 
ENDBRANCH  43  57
BRANCH  44  63
ATOM     63  C   UNL A   1      38.418  29.194  29.172  1.00  0.00    -0.014 A 
ATOM     64  C   UNL A   1      38.117  29.729  27.910  1.00  0.00     0.009 A 
ATOM     65  C   UNL A   1      37.397  29.104  30.132  1.00  0.00     0.009 A 
ATOM     66  C   UNL A   1      36.831  30.190  27.625  1.00  0.00     0.001 A 
ATOM     67  C   UNL A   1      36.104  29.539  29.833  1.00  0.00     0.001 A 
ATOM     68  C   UNL A   1      35.824  30.091  28.584  1.00  0.00     0.000 A 
ENDBRANCH  44  63
BRANCH  56  69
ATOM     69  C   UNL A   1      43.691  32.102  32.660  1.00  0.00    -0.014 A 
ATOM     70  C   UNL A   1      43.387  32.276  34.019  1.00  0.00     0.009 A 
ATOM     71  C   UNL A   1      44.191  33.192  31.929  1.00  0.00     0.009 A 
ATOM     72  C   UNL A   1      43.550  33.524  34.624  1.00  0.00     0.001 A 
ATOM     73  C   UNL A   1      44.379  34.430  32.544  1.00  0.00     0.001 A 
ATOM     74  C   UNL A   1      44.051  34.598  33.888  1.00  0.00     0.000 A 
ENDBRANCH  56  69
ENDBRANCH  30  31
ENDBRANCH  22  25
ENDBRANCH  20  21
ENDBRANCH  19  20
ENDBRANCH  18  19
ENDBRANCH   1  18
TORSDOF 15
ENDMDL
