MODEL 1
REMARK VINA RESULT:     -11.1      0.000      0.000
REMARK SMILES C[C@@H]1CCCC[C@@H]1NC(=O)NCc1ccc(C(=O)NCCCCCCNC(=O)c2ccc(-c3c4nc(c(-c5ccccc5)c5ccc([nH]5)c(-c5ccccc5)c5nc(c(-c6ccccc6)c6ccc3[nH]6)C=C5)C=C4)cc2)o1
REMARK SMILES IDX 22 1 21 2 20 3 19 4 17 5 18 6 16 8 13 9 14 10 77 11 15 12
REMARK SMILES IDX 12 13 11 14 8 15 9 16 10 18 7 20 1 21 2 22 3 23 4 24 6 25
REMARK SMILES IDX 5 26 23 27 24 28 25 29 26 30 27 31 28 33 29 34 30 35 76 36
REMARK SMILES IDX 31 37 75 38 32 39 33 40 34 41 69 42 35 43 74 44 68 45 70 46
REMARK SMILES IDX 36 47 73 48 67 49 66 50 37 52 59 53 44 54 58 55 45 56 48 57
REMARK SMILES IDX 57 58 71 59 46 60 47 61 56 63 72 64 49 65 38 66 39 67 43 68
REMARK SMILES IDX 40 69 42 70 41 71 60 72 61 73 65 74 62 75 64 76 63 77 50 78
REMARK SMILES IDX 51 79 55 80 52 81 54 82 53 83
REMARK H PARENT 19 7 8 17 11 19 26 32 70 51 48 62
REMARK Flexibility Score: inf
ROOT
ATOM      1  C   UNL A   1      36.863  21.872  24.406  1.00  0.00     0.002 C 
ENDROOT
BRANCH   1   2
ATOM      2  C   UNL A   1      37.154  22.944  25.467  1.00  0.00     0.021 C 
BRANCH   2   3
ATOM      3  C   UNL A   1      35.907  23.702  25.920  1.00  0.00     0.116 C 
BRANCH   3   4
ATOM      4  N   UNL A   1      35.132  22.901  26.836  1.00  0.00    -0.349 N 
ATOM      5  C   UNL A   1      33.954  22.208  26.691  1.00  0.00     0.286 C 
ATOM      6  O   UNL A   1      33.573  21.649  27.721  1.00  0.00    -0.266 OA
ATOM      7  H   UNL A   1      35.522  22.838  27.738  1.00  0.00     0.163 HD
BRANCH   5   8
ATOM      8  C   UNL A   1      33.232  22.137  25.428  1.00  0.00     0.191 A 
ATOM      9  C   UNL A   1      31.854  22.982  23.894  1.00  0.00     0.124 A 
ATOM     10  C   UNL A   1      32.212  21.730  23.449  1.00  0.00     0.048 A 
ATOM     11  O   UNL A   1      32.471  23.238  25.083  1.00  0.00    -0.454 OA
ATOM     12  C   UNL A   1      33.116  21.208  24.407  1.00  0.00     0.056 A 
BRANCH   9  13
ATOM     13  C   UNL A   1      30.986  24.039  23.313  1.00  0.00     0.193 C 
BRANCH  13  14
ATOM     14  N   UNL A   1      31.629  24.621  22.155  1.00  0.00    -0.331 N 
ATOM     15  N   UNL A   1      33.356  26.008  22.979  1.00  0.00    -0.335 N 
ATOM     16  C   UNL A   1      32.763  25.314  21.997  1.00  0.00     0.315 C 
ATOM     17  H   UNL A   1      34.317  26.167  22.837  1.00  0.00     0.165 HD
ATOM     18  O   UNL A   1      33.291  25.310  20.883  1.00  0.00    -0.249 OA
ATOM     19  H   UNL A   1      31.132  24.480  21.316  1.00  0.00     0.165 HD
BRANCH  15  20
ATOM     20  C   UNL A   1      32.832  26.568  24.213  1.00  0.00     0.086 C 
ATOM     21  C   UNL A   1      32.319  28.897  23.216  1.00  0.00     0.010 C 
ATOM     22  C   UNL A   1      31.786  27.676  23.973  1.00  0.00     0.008 C 
ATOM     23  C   UNL A   1      31.205  28.082  25.338  1.00  0.00     0.005 C 
ATOM     24  C   UNL A   1      32.260  28.473  26.374  1.00  0.00     0.000 C 
ATOM     25  C   UNL A   1      33.955  27.043  25.138  1.00  0.00     0.025 C 
ATOM     26  C   UNL A   1      33.375  27.435  26.497  1.00  0.00     0.002 C 
ENDBRANCH  15  20
ENDBRANCH  13  14
ENDBRANCH   9  13
ENDBRANCH   5   8
ENDBRANCH   3   4
ENDBRANCH   2   3
ENDBRANCH   1   2
BRANCH   1  27
ATOM     27  C   UNL A   1      36.677  20.450  24.952  1.00  0.00     0.002 C 
BRANCH  27  28
ATOM     28  C   UNL A   1      37.942  19.586  24.959  1.00  0.00     0.021 C 
BRANCH  28  29
ATOM     29  C   UNL A   1      39.126  20.213  25.689  1.00  0.00     0.116 C 
BRANCH  29  30
ATOM     30  N   UNL A   1      40.232  19.279  25.821  1.00  0.00    -0.352 N 
ATOM     31  C   UNL A   1      41.548  19.524  26.122  1.00  0.00     0.251 C 
ATOM     32  H   UNL A   1      40.003  18.332  25.672  1.00  0.00     0.163 HD
ATOM     33  O   UNL A   1      42.392  18.648  25.967  1.00  0.00    -0.269 OA
BRANCH  31  34
ATOM     34  C   UNL A   1      41.950  20.854  26.626  1.00  0.00     0.039 A 
ATOM     35  C   UNL A   1      42.414  21.809  25.718  1.00  0.00     0.014 A 
ATOM     36  C   UNL A   1      41.882  21.151  27.989  1.00  0.00     0.014 A 
ATOM     37  C   UNL A   1      42.752  23.085  26.172  1.00  0.00     0.010 A 
ATOM     38  C   UNL A   1      42.154  22.443  28.430  1.00  0.00     0.010 A 
ATOM     39  C   UNL A   1      42.592  23.422  27.526  1.00  0.00    -0.014 A 
BRANCH  39  40
ATOM     40  C   UNL A   1      42.859  24.798  28.012  1.00  0.00     0.031 A 
ATOM     41  C   UNL A   1      44.248  25.204  28.415  1.00  0.00     0.074 A 
ATOM     42  C   UNL A   1      41.834  25.659  28.157  1.00  0.00     0.049 A 
ATOM     43  N   UNL A   1      44.663  26.340  28.916  1.00  0.00    -0.248 NA
ATOM     44  C   UNL A   1      45.308  24.195  28.253  1.00  0.00     0.031 C 
ATOM     45  C   UNL A   1      40.434  25.372  27.836  1.00  0.00     0.029 A 
ATOM     46  N   UNL A   1      41.813  26.951  28.619  1.00  0.00    -0.354 N 
ATOM     47  C   UNL A   1      46.023  26.178  29.144  1.00  0.00     0.074 A 
ATOM     48  C   UNL A   1      46.355  24.820  28.772  1.00  0.00     0.031 C 
ATOM     49  C   UNL A   1      39.695  26.465  28.086  1.00  0.00     0.029 A 
ATOM     50  C   UNL A   1      40.558  27.512  28.623  1.00  0.00     0.049 A 
ATOM     51  H   UNL A   1      42.618  27.430  28.920  1.00  0.00     0.167 HD
ATOM     52  C   UNL A   1      46.919  27.084  29.606  1.00  0.00     0.031 A 
ATOM     53  C   UNL A   1      40.148  28.731  29.020  1.00  0.00     0.031 A 
ATOM     54  C   UNL A   1      46.588  28.434  29.974  1.00  0.00     0.049 A 
ATOM     55  C   UNL A   1      41.155  29.707  29.556  1.00  0.00     0.074 A 
ATOM     56  C   UNL A   1      47.434  29.445  30.395  1.00  0.00     0.029 A 
ATOM     57  N   UNL A   1      45.306  28.962  29.970  1.00  0.00    -0.354 N 
ATOM     58  N   UNL A   1      42.450  29.561  29.700  1.00  0.00    -0.248 NA
ATOM     59  C   UNL A   1      40.644  31.018  29.977  1.00  0.00     0.031 C 
ATOM     60  C   UNL A   1      46.656  30.567  30.701  1.00  0.00     0.029 A 
ATOM     61  C   UNL A   1      45.333  30.273  30.414  1.00  0.00     0.049 A 
ATOM     62  H   UNL A   1      44.496  28.475  29.692  1.00  0.00     0.167 HD
ATOM     63  C   UNL A   1      42.912  30.768  30.207  1.00  0.00     0.074 A 
ATOM     64  C   UNL A   1      41.762  31.640  30.329  1.00  0.00     0.031 C 
ATOM     65  C   UNL A   1      44.177  31.124  30.541  1.00  0.00     0.031 A 
BRANCH  52  66
ATOM     66  C   UNL A   1      48.345  26.630  29.750  1.00  0.00    -0.014 A 
ATOM     67  C   UNL A   1      49.281  26.822  28.719  1.00  0.00     0.009 A 
ATOM     68  C   UNL A   1      48.769  26.023  30.944  1.00  0.00     0.009 A 
ATOM     69  C   UNL A   1      50.597  26.377  28.864  1.00  0.00     0.001 A 
ATOM     70  C   UNL A   1      50.093  25.608  31.098  1.00  0.00     0.001 A 
ATOM     71  C   UNL A   1      51.002  25.775  30.054  1.00  0.00     0.000 A 
ENDBRANCH  52  66
BRANCH  53  72
ATOM     72  C   UNL A   1      38.712  29.099  28.913  1.00  0.00    -0.014 A 
ATOM     73  C   UNL A   1      37.866  28.985  30.027  1.00  0.00     0.009 A 
ATOM     74  C   UNL A   1      38.182  29.571  27.703  1.00  0.00     0.009 A 
ATOM     75  C   UNL A   1      36.514  29.318  29.925  1.00  0.00     0.001 A 
ATOM     76  C   UNL A   1      36.835  29.931  27.612  1.00  0.00     0.001 A 
ATOM     77  C   UNL A   1      36.001  29.796  28.720  1.00  0.00     0.000 A 
ENDBRANCH  53  72
BRANCH  65  78
ATOM     78  C   UNL A   1      44.385  32.521  31.051  1.00  0.00    -0.014 A 
ATOM     79  C   UNL A   1      44.619  33.590  30.172  1.00  0.00     0.009 A 
ATOM     80  C   UNL A   1      44.305  32.777  32.429  1.00  0.00     0.009 A 
ATOM     81  C   UNL A   1      44.799  34.883  30.667  1.00  0.00     0.001 A 
ATOM     82  C   UNL A   1      44.457  34.076  32.919  1.00  0.00     0.001 A 
ATOM     83  C   UNL A   1      44.712  35.125  32.038  1.00  0.00     0.000 A 
ENDBRANCH  65  78
ENDBRANCH  39  40
ENDBRANCH  31  34
ENDBRANCH  29  30
ENDBRANCH  28  29
ENDBRANCH  27  28
ENDBRANCH   1  27
TORSDOF 16
ENDMDL
MODEL 2
REMARK VINA RESULT:     -11.1      1.291      1.618
REMARK SMILES C[C@@H]1CCCC[C@@H]1NC(=O)NCc1ccc(C(=O)NCCCCCCNC(=O)c2ccc(-c3c4nc(c(-c5ccccc5)c5ccc([nH]5)c(-c5ccccc5)c5nc(c(-c6ccccc6)c6ccc3[nH]6)C=C5)C=C4)cc2)o1
REMARK SMILES IDX 22 1 21 2 20 3 19 4 17 5 18 6 16 8 13 9 14 10 77 11 15 12
REMARK SMILES IDX 12 13 11 14 8 15 9 16 10 18 7 20 1 21 2 22 3 23 4 24 6 25
REMARK SMILES IDX 5 26 23 27 24 28 25 29 26 30 27 31 28 33 29 34 30 35 76 36
REMARK SMILES IDX 31 37 75 38 32 39 33 40 34 41 69 42 35 43 74 44 68 45 70 46
REMARK SMILES IDX 36 47 73 48 67 49 66 50 37 52 59 53 44 54 58 55 45 56 48 57
REMARK SMILES IDX 57 58 71 59 46 60 47 61 56 63 72 64 49 65 38 66 39 67 43 68
REMARK SMILES IDX 40 69 42 70 41 71 60 72 61 73 65 74 62 75 64 76 63 77 50 78
REMARK SMILES IDX 51 79 55 80 52 81 54 82 53 83
REMARK H PARENT 19 7 8 17 11 19 26 32 70 51 48 62
REMARK Flexibility Score: inf
ROOT
ATOM      1  C   UNL A   1      37.653  21.892  25.260  1.00  0.00     0.002 C 
ENDROOT
BRANCH   1   2
ATOM      2  C   UNL A   1      36.864  23.085  24.700  1.00  0.00     0.021 C 
BRANCH   2   3
ATOM      3  C   UNL A   1      36.072  23.841  25.767  1.00  0.00     0.116 C 
BRANCH   3   4
ATOM      4  N   UNL A   1      35.461  22.918  26.693  1.00  0.00    -0.349 N 
ATOM      5  C   UNL A   1      34.363  22.099  26.594  1.00  0.00     0.286 C 
ATOM      6  O   UNL A   1      34.122  21.459  27.619  1.00  0.00    -0.266 OA
ATOM      7  H   UNL A   1      35.920  22.866  27.563  1.00  0.00     0.163 HD
BRANCH   5   8
ATOM      8  C   UNL A   1      33.564  21.995  25.380  1.00  0.00     0.191 A 
ATOM      9  C   UNL A   1      32.084  22.796  23.919  1.00  0.00     0.124 A 
ATOM     10  C   UNL A   1      32.427  21.538  23.477  1.00  0.00     0.048 A 
ATOM     11  O   UNL A   1      32.771  23.082  25.062  1.00  0.00    -0.454 OA
ATOM     12  C   UNL A   1      33.394  21.045  24.387  1.00  0.00     0.056 A 
BRANCH   9  13
ATOM     13  C   UNL A   1      31.169  23.832  23.372  1.00  0.00     0.193 C 
BRANCH  13  14
ATOM     14  N   UNL A   1      31.732  24.396  22.165  1.00  0.00    -0.331 N 
ATOM     15  N   UNL A   1      33.133  26.172  22.849  1.00  0.00    -0.335 N 
ATOM     16  C   UNL A   1      32.718  25.273  21.945  1.00  0.00     0.315 C 
ATOM     17  H   UNL A   1      34.051  26.497  22.704  1.00  0.00     0.165 HD
ATOM     18  O   UNL A   1      33.278  25.248  20.846  1.00  0.00    -0.249 OA
ATOM     19  H   UNL A   1      31.302  24.071  21.340  1.00  0.00     0.165 HD
BRANCH  15  20
ATOM     20  C   UNL A   1      32.467  26.753  24.003  1.00  0.00     0.086 C 
ATOM     21  C   UNL A   1      33.521  29.097  23.728  1.00  0.00     0.010 C 
ATOM     22  C   UNL A   1      32.238  28.272  23.863  1.00  0.00     0.008 C 
ATOM     23  C   UNL A   1      31.404  28.737  25.068  1.00  0.00     0.005 C 
ATOM     24  C   UNL A   1      31.996  28.348  26.424  1.00  0.00     0.000 C 
ATOM     25  C   UNL A   1      33.197  26.411  25.305  1.00  0.00     0.025 C 
ATOM     26  C   UNL A   1      32.360  26.866  26.500  1.00  0.00     0.002 C 
ENDBRANCH  15  20
ENDBRANCH  13  14
ENDBRANCH   9  13
ENDBRANCH   5   8
ENDBRANCH   3   4
ENDBRANCH   2   3
ENDBRANCH   1   2
BRANCH   1  27
ATOM     27  C   UNL A   1      37.316  20.534  24.629  1.00  0.00     0.002 C 
BRANCH  27  28
ATOM     28  C   UNL A   1      38.264  19.390  25.002  1.00  0.00     0.021 C 
BRANCH  28  29
ATOM     29  C   UNL A   1      39.325  19.766  26.032  1.00  0.00     0.116 C 
BRANCH  29  30
ATOM     30  N   UNL A   1      40.436  18.829  26.025  1.00  0.00    -0.352 N 
ATOM     31  C   UNL A   1      41.786  19.077  26.066  1.00  0.00     0.251 C 
ATOM     32  H   UNL A   1      40.184  17.878  25.987  1.00  0.00     0.163 HD
ATOM     33  O   UNL A   1      42.587  18.182  25.820  1.00  0.00    -0.269 OA
BRANCH  31  34
ATOM     34  C   UNL A   1      42.273  20.433  26.394  1.00  0.00     0.039 A 
ATOM     35  C   UNL A   1      42.735  21.254  25.363  1.00  0.00     0.014 A 
ATOM     36  C   UNL A   1      42.286  20.886  27.716  1.00  0.00     0.014 A 
ATOM     37  C   UNL A   1      43.154  22.555  25.652  1.00  0.00     0.010 A 
ATOM     38  C   UNL A   1      42.638  22.203  27.993  1.00  0.00     0.010 A 
ATOM     39  C   UNL A   1      43.076  23.050  26.964  1.00  0.00    -0.014 A 
BRANCH  39  40
ATOM     40  C   UNL A   1      43.430  24.456  27.276  1.00  0.00     0.031 A 
ATOM     41  C   UNL A   1      44.861  24.909  27.219  1.00  0.00     0.074 A 
ATOM     42  C   UNL A   1      42.467  25.307  27.680  1.00  0.00     0.049 A 
ATOM     43  N   UNL A   1      45.368  26.079  27.514  1.00  0.00    -0.248 NA
ATOM     44  C   UNL A   1      45.857  23.911  26.796  1.00  0.00     0.031 C 
ATOM     45  C   UNL A   1      41.047  24.978  27.813  1.00  0.00     0.029 A 
ATOM     46  N   UNL A   1      42.542  26.623  28.062  1.00  0.00    -0.354 N 
ATOM     47  C   UNL A   1      46.739  25.955  27.328  1.00  0.00     0.074 A 
ATOM     48  C   UNL A   1      46.990  24.583  26.942  1.00  0.00     0.031 C 
ATOM     49  C   UNL A   1      40.380  26.071  28.219  1.00  0.00     0.029 A 
ATOM     50  C   UNL A   1      41.329  27.161  28.416  1.00  0.00     0.049 A 
ATOM     51  H   UNL A   1      43.384  27.132  28.080  1.00  0.00     0.167 HD
ATOM     52  C   UNL A   1      47.701  26.900  27.451  1.00  0.00     0.031 A 
ATOM     53  C   UNL A   1      41.015  28.394  28.856  1.00  0.00     0.031 A 
ATOM     54  C   UNL A   1      47.450  28.264  27.833  1.00  0.00     0.049 A 
ATOM     55  C   UNL A   1      42.104  29.417  29.013  1.00  0.00     0.074 A 
ATOM     56  C   UNL A   1      48.349  29.313  27.927  1.00  0.00     0.029 A 
ATOM     57  N   UNL A   1      46.210  28.769  28.190  1.00  0.00    -0.354 N 
ATOM     58  N   UNL A   1      43.386  29.302  28.766  1.00  0.00    -0.248 NA
ATOM     59  C   UNL A   1      41.699  30.741  29.502  1.00  0.00     0.031 C 
ATOM     60  C   UNL A   1      47.662  30.437  28.397  1.00  0.00     0.029 A 
ATOM     61  C   UNL A   1      46.324  30.104  28.538  1.00  0.00     0.049 A 
ATOM     62  H   UNL A   1      45.371  28.253  28.195  1.00  0.00     0.167 HD
ATOM     63  C   UNL A   1      43.938  30.545  29.048  1.00  0.00     0.074 A 
ATOM     64  C   UNL A   1      42.849  31.402  29.468  1.00  0.00     0.031 C 
ATOM     65  C   UNL A   1      45.232  30.941  28.966  1.00  0.00     0.031 A 
BRANCH  52  66
ATOM     66  C   UNL A   1      49.119  26.480  27.180  1.00  0.00    -0.014 A 
ATOM     67  C   UNL A   1      49.649  26.492  25.878  1.00  0.00     0.009 A 
ATOM     68  C   UNL A   1      49.948  26.091  28.244  1.00  0.00     0.009 A 
ATOM     69  C   UNL A   1      50.963  26.081  25.644  1.00  0.00     0.001 A 
ATOM     70  C   UNL A   1      51.272  25.711  28.011  1.00  0.00     0.001 A 
ATOM     71  C   UNL A   1      51.774  25.694  26.710  1.00  0.00     0.000 A 
ENDBRANCH  52  66
BRANCH  53  72
ATOM     72  C   UNL A   1      39.603  28.730  29.170  1.00  0.00    -0.014 A 
ATOM     73  C   UNL A   1      39.090  28.511  30.458  1.00  0.00     0.009 A 
ATOM     74  C   UNL A   1      38.762  29.278  28.189  1.00  0.00     0.009 A 
ATOM     75  C   UNL A   1      37.760  28.815  30.751  1.00  0.00     0.001 A 
ATOM     76  C   UNL A   1      37.439  29.607  28.493  1.00  0.00     0.001 A 
ATOM     77  C   UNL A   1      36.937  29.367  29.771  1.00  0.00     0.000 A 
ENDBRANCH  53  72
BRANCH  65  78
ATOM     78  C   UNL A   1      45.536  32.369  29.318  1.00  0.00    -0.014 A 
ATOM     79  C   UNL A   1      45.921  32.731  30.618  1.00  0.00     0.009 A 
ATOM     80  C   UNL A   1      45.473  33.359  28.325  1.00  0.00     0.009 A 
ATOM     81  C   UNL A   1      46.209  34.064  30.923  1.00  0.00     0.001 A 
ATOM     82  C   UNL A   1      45.789  34.685  28.625  1.00  0.00     0.001 A 
ATOM     83  C   UNL A   1      46.148  35.037  29.925  1.00  0.00     0.000 A 
ENDBRANCH  65  78
ENDBRANCH  39  40
ENDBRANCH  31  34
ENDBRANCH  29  30
ENDBRANCH  28  29
ENDBRANCH  27  28
ENDBRANCH   1  27
TORSDOF 16
ENDMDL
MODEL 3
REMARK VINA RESULT:     -11.0      1.124      5.957
REMARK SMILES C[C@@H]1CCCC[C@@H]1NC(=O)NCc1ccc(C(=O)NCCCCCCNC(=O)c2ccc(-c3c4nc(c(-c5ccccc5)c5ccc([nH]5)c(-c5ccccc5)c5nc(c(-c6ccccc6)c6ccc3[nH]6)C=C5)C=C4)cc2)o1
REMARK SMILES IDX 22 1 21 2 20 3 19 4 17 5 18 6 16 8 13 9 14 10 77 11 15 12
REMARK SMILES IDX 12 13 11 14 8 15 9 16 10 18 7 20 1 21 2 22 3 23 4 24 6 25
REMARK SMILES IDX 5 26 23 27 24 28 25 29 26 30 27 31 28 33 29 34 30 35 76 36
REMARK SMILES IDX 31 37 75 38 32 39 33 40 34 41 69 42 35 43 74 44 68 45 70 46
REMARK SMILES IDX 36 47 73 48 67 49 66 50 37 52 59 53 44 54 58 55 45 56 48 57
REMARK SMILES IDX 57 58 71 59 46 60 47 61 56 63 72 64 49 65 38 66 39 67 43 68
REMARK SMILES IDX 40 69 42 70 41 71 60 72 61 73 65 74 62 75 64 76 63 77 50 78
REMARK SMILES IDX 51 79 55 80 52 81 54 82 53 83
REMARK H PARENT 19 7 8 17 11 19 26 32 70 51 48 62
REMARK Flexibility Score: inf
ROOT
ATOM      1  C   UNL A   1      36.642  21.796  24.287  1.00  0.00     0.002 C 
ENDROOT
BRANCH   1   2
ATOM      2  C   UNL A   1      37.140  22.998  25.103  1.00  0.00     0.021 C 
BRANCH   2   3
ATOM      3  C   UNL A   1      36.012  23.895  25.610  1.00  0.00     0.116 C 
BRANCH   3   4
ATOM      4  N   UNL A   1      35.305  23.256  26.694  1.00  0.00    -0.349 N 
ATOM      5  C   UNL A   1      34.105  22.591  26.751  1.00  0.00     0.286 C 
ATOM      6  O   UNL A   1      33.806  22.195  27.879  1.00  0.00    -0.266 OA
ATOM      7  H   UNL A   1      35.774  23.307  27.559  1.00  0.00     0.163 HD
BRANCH   5   8
ATOM      8  C   UNL A   1      33.270  22.369  25.578  1.00  0.00     0.191 A 
ATOM      9  C   UNL A   1      31.820  23.055  24.031  1.00  0.00     0.124 A 
ATOM     10  C   UNL A   1      32.054  21.721  23.782  1.00  0.00     0.048 A 
ATOM     11  O   UNL A   1      32.556  23.455  25.107  1.00  0.00    -0.454 OA
ATOM     12  C   UNL A   1      33.002  21.296  24.744  1.00  0.00     0.056 A 
BRANCH   9  13
ATOM     13  C   UNL A   1      30.976  24.067  23.344  1.00  0.00     0.193 C 
BRANCH  13  14
ATOM     14  N   UNL A   1      31.676  24.591  22.191  1.00  0.00    -0.331 N 
ATOM     15  N   UNL A   1      33.330  26.058  23.028  1.00  0.00    -0.335 N 
ATOM     16  C   UNL A   1      32.806  25.295  22.057  1.00  0.00     0.315 C 
ATOM     17  H   UNL A   1      34.295  26.227  22.933  1.00  0.00     0.165 HD
ATOM     18  O   UNL A   1      33.399  25.234  20.978  1.00  0.00    -0.249 OA
ATOM     19  H   UNL A   1      31.232  24.390  21.335  1.00  0.00     0.165 HD
BRANCH  15  20
ATOM     20  C   UNL A   1      32.725  26.680  24.194  1.00  0.00     0.086 C 
ATOM     21  C   UNL A   1      33.055  29.106  23.363  1.00  0.00     0.010 C 
ATOM     22  C   UNL A   1      32.078  28.044  23.878  1.00  0.00     0.008 C 
ATOM     23  C   UNL A   1      31.352  28.528  25.145  1.00  0.00     0.005 C 
ATOM     24  C   UNL A   1      32.235  28.562  26.394  1.00  0.00     0.000 C 
ATOM     25  C   UNL A   1      33.717  26.782  25.356  1.00  0.00     0.025 C 
ATOM     26  C   UNL A   1      32.989  27.252  26.615  1.00  0.00     0.002 C 
ENDBRANCH  15  20
ENDBRANCH  13  14
ENDBRANCH   9  13
ENDBRANCH   5   8
ENDBRANCH   3   4
ENDBRANCH   2   3
ENDBRANCH   1   2
BRANCH   1  27
ATOM     27  C   UNL A   1      36.803  20.432  24.973  1.00  0.00     0.002 C 
BRANCH  27  28
ATOM     28  C   UNL A   1      38.162  19.755  24.764  1.00  0.00     0.021 C 
BRANCH  28  29
ATOM     29  C   UNL A   1      39.223  20.153  25.786  1.00  0.00     0.116 C 
BRANCH  29  30
ATOM     30  N   UNL A   1      40.239  19.123  25.933  1.00  0.00    -0.352 N 
ATOM     31  C   UNL A   1      41.585  19.255  26.166  1.00  0.00     0.251 C 
ATOM     32  H   UNL A   1      39.914  18.197  25.855  1.00  0.00     0.163 HD
ATOM     33  O   UNL A   1      42.333  18.292  26.033  1.00  0.00    -0.269 OA
BRANCH  31  34
ATOM     34  C   UNL A   1      42.136  20.567  26.566  1.00  0.00     0.039 A 
ATOM     35  C   UNL A   1      42.684  21.398  25.586  1.00  0.00     0.014 A 
ATOM     36  C   UNL A   1      42.124  20.967  27.905  1.00  0.00     0.014 A 
ATOM     37  C   UNL A   1      43.165  22.660  25.942  1.00  0.00     0.010 A 
ATOM     38  C   UNL A   1      42.540  22.250  28.247  1.00  0.00     0.010 A 
ATOM     39  C   UNL A   1      43.065  23.108  27.270  1.00  0.00    -0.014 A 
BRANCH  39  40
ATOM     40  C   UNL A   1      43.486  24.478  27.650  1.00  0.00     0.031 A 
ATOM     41  C   UNL A   1      42.461  25.525  27.981  1.00  0.00     0.074 A 
ATOM     42  C   UNL A   1      44.795  24.798  27.628  1.00  0.00     0.049 A 
ATOM     43  N   UNL A   1      42.636  26.788  28.277  1.00  0.00    -0.248 NA
ATOM     44  C   UNL A   1      41.051  25.103  27.954  1.00  0.00     0.031 C 
ATOM     45  C   UNL A   1      45.885  23.882  27.287  1.00  0.00     0.029 A 
ATOM     46  N   UNL A   1      45.428  25.986  27.891  1.00  0.00    -0.354 N 
ATOM     47  C   UNL A   1      41.364  27.314  28.456  1.00  0.00     0.074 A 
ATOM     48  C   UNL A   1      40.424  26.247  28.188  1.00  0.00     0.031 C 
ATOM     49  C   UNL A   1      47.054  24.535  27.389  1.00  0.00     0.029 A 
ATOM     50  C   UNL A   1      46.794  25.922  27.759  1.00  0.00     0.049 A 
ATOM     51  H   UNL A   1      44.949  26.807  28.150  1.00  0.00     0.167 HD
ATOM     52  C   UNL A   1      41.009  28.568  28.826  1.00  0.00     0.031 A 
ATOM     53  C   UNL A   1      47.732  26.875  27.911  1.00  0.00     0.031 A 
ATOM     54  C   UNL A   1      41.945  29.627  29.094  1.00  0.00     0.049 A 
ATOM     55  C   UNL A   1      47.313  28.265  28.294  1.00  0.00     0.074 A 
ATOM     56  C   UNL A   1      41.687  30.914  29.533  1.00  0.00     0.029 A 
ATOM     57  N   UNL A   1      43.319  29.525  28.942  1.00  0.00    -0.354 N 
ATOM     58  N   UNL A   1      46.108  28.729  28.527  1.00  0.00    -0.248 NA
ATOM     59  C   UNL A   1      48.382  29.261  28.440  1.00  0.00     0.031 C 
ATOM     60  C   UNL A   1      42.901  31.607  29.591  1.00  0.00     0.029 A 
ATOM     61  C   UNL A   1      43.920  30.734  29.246  1.00  0.00     0.049 A 
ATOM     62  H   UNL A   1      43.796  28.711  28.660  1.00  0.00     0.167 HD
ATOM     63  C   UNL A   1      46.277  30.063  28.870  1.00  0.00     0.074 A 
ATOM     64  C   UNL A   1      47.700  30.330  28.830  1.00  0.00     0.031 C 
ATOM     65  C   UNL A   1      45.337  30.987  29.190  1.00  0.00     0.031 A 
BRANCH  52  66
ATOM     66  C   UNL A   1      39.539  28.860  28.949  1.00  0.00    -0.014 A 
ATOM     67  C   UNL A   1      38.849  28.642  30.154  1.00  0.00     0.009 A 
ATOM     68  C   UNL A   1      38.837  29.386  27.853  1.00  0.00     0.009 A 
ATOM     69  C   UNL A   1      37.480  28.903  30.244  1.00  0.00     0.001 A 
ATOM     70  C   UNL A   1      37.475  29.675  27.955  1.00  0.00     0.001 A 
ATOM     71  C   UNL A   1      36.795  29.422  29.146  1.00  0.00     0.000 A 
ENDBRANCH  52  66
BRANCH  53  72
ATOM     72  C   UNL A   1      49.166  26.540  27.713  1.00  0.00    -0.014 A 
ATOM     73  C   UNL A   1      49.758  26.678  26.448  1.00  0.00     0.009 A 
ATOM     74  C   UNL A   1      49.951  26.087  28.785  1.00  0.00     0.009 A 
ATOM     75  C   UNL A   1      51.102  26.352  26.257  1.00  0.00     0.001 A 
ATOM     76  C   UNL A   1      51.303  25.788  28.596  1.00  0.00     0.001 A 
ATOM     77  C   UNL A   1      51.874  25.913  27.331  1.00  0.00     0.000 A 
ENDBRANCH  53  72
BRANCH  65  78
ATOM     78  C   UNL A   1      45.821  32.365  29.542  1.00  0.00    -0.014 A 
ATOM     79  C   UNL A   1      46.179  32.696  30.857  1.00  0.00     0.009 A 
ATOM     80  C   UNL A   1      45.957  33.332  28.534  1.00  0.00     0.009 A 
ATOM     81  C   UNL A   1      46.636  33.980  31.161  1.00  0.00     0.001 A 
ATOM     82  C   UNL A   1      46.441  34.606  28.835  1.00  0.00     0.001 A 
ATOM     83  C   UNL A   1      46.772  34.931  30.150  1.00  0.00     0.000 A 
ENDBRANCH  65  78
ENDBRANCH  39  40
ENDBRANCH  31  34
ENDBRANCH  29  30
ENDBRANCH  28  29
ENDBRANCH  27  28
ENDBRANCH   1  27
TORSDOF 16
ENDMDL
