MODEL 1
REMARK VINA RESULT:     -11.2      0.000      0.000
REMARK SMILES N#C[C@H]1CN(c2cc(C(=O)NCCCCCCNC(=O)c3ccc(-c4c5nc(c(-c6ccccc6)c6ccc([nH]6)c(-c6ccccc6)c6nc(c(-c7ccccc7)c7ccc4[nH]7)C=C6)C=C5)cc3)c(N)cc2F)CCO1
REMARK SMILES IDX 14 1 13 2 12 3 11 4 9 5 10 6 8 8 6 9 7 10 72 11 71 12 73 13
REMARK SMILES IDX 69 14 5 15 3 16 4 17 76 18 75 19 74 20 2 21 1 22 70 23 15 26
REMARK SMILES IDX 16 27 17 28 18 29 19 30 20 32 21 33 22 34 68 35 23 36 67 37
REMARK SMILES IDX 24 38 25 39 26 40 61 41 27 42 66 43 60 44 62 45 28 46 65 47
REMARK SMILES IDX 59 48 58 49 29 51 51 52 36 53 50 54 37 55 40 56 49 57 63 58
REMARK SMILES IDX 38 59 39 60 48 62 64 63 41 64 30 65 31 66 35 67 32 68 34 69
REMARK SMILES IDX 33 70 52 71 53 72 57 73 54 74 56 75 55 76 42 77 43 78 47 79
REMARK SMILES IDX 44 80 46 81 45 82
REMARK H PARENT 11 7 70 24 70 25 18 31 62 50 40 61
REMARK Flexibility Score: inf
ROOT
ATOM      1  C   UNL A   1      32.149  29.816  26.976  1.00  0.00     0.002 C 
ENDROOT
BRANCH   1   2
ATOM      2  C   UNL A   1      33.651  29.585  26.798  1.00  0.00     0.021 C 
BRANCH   2   3
ATOM      3  C   UNL A   1      34.051  28.363  25.982  1.00  0.00     0.116 C 
BRANCH   3   4
ATOM      4  N   UNL A   1      34.339  28.617  24.587  1.00  0.00    -0.352 N 
ATOM      5  C   UNL A   1      33.514  28.547  23.486  1.00  0.00     0.253 C 
ATOM      6  O   UNL A   1      33.998  28.855  22.395  1.00  0.00    -0.269 OA
ATOM      7  H   UNL A   1      35.268  28.880  24.395  1.00  0.00     0.163 HD
BRANCH   5   8
ATOM      8  C   UNL A   1      32.099  28.052  23.535  1.00  0.00     0.065 A 
ATOM      9  C   UNL A   1      30.661  26.204  24.299  1.00  0.00     0.074 A 
ATOM     10  C   UNL A   1      31.918  26.814  24.203  1.00  0.00     0.045 A 
ATOM     11  C   UNL A   1      29.562  26.953  23.864  1.00  0.00     0.148 A 
ATOM     12  C   UNL A   1      29.712  28.160  23.198  1.00  0.00     0.067 A 
ATOM     13  F   UNL A   1      28.317  26.476  24.031  1.00  0.00    -0.205 F 
ATOM     14  C   UNL A   1      30.987  28.656  22.914  1.00  0.00     0.047 A 
BRANCH   9  15
ATOM     15  N   UNL A   1      30.531  24.894  24.703  1.00  0.00    -0.363 N 
ATOM     16  C   UNL A   1      31.942  22.885  24.505  1.00  0.00     0.240 C 
ATOM     17  C   UNL A   1      30.827  23.741  23.847  1.00  0.00     0.164 C 
ATOM     18  O   UNL A   1      31.604  22.541  25.873  1.00  0.00    -0.360 OA
ATOM     19  C   UNL A   1      31.422  23.726  26.668  1.00  0.00     0.183 C 
ATOM     20  C   UNL A   1      30.282  24.589  26.119  1.00  0.00     0.145 C 
BRANCH  16  21
ATOM     21  C   UNL A   1      32.152  21.654  23.720  1.00  0.00     0.096 C 
ATOM     22  N   UNL A   1      32.300  20.692  23.090  1.00  0.00    -0.195 NA
ENDBRANCH  16  21
ENDBRANCH   9  15
BRANCH  14  23
ATOM     23  N   UNL A   1      31.063  29.701  22.001  1.00  0.00    -0.398 N 
ATOM     24  H   UNL A   1      31.670  29.637  21.228  1.00  0.00     0.156 HD
ATOM     25  H   UNL A   1      30.511  30.506  22.126  1.00  0.00     0.156 HD
ENDBRANCH  14  23
ENDBRANCH   5   8
ENDBRANCH   3   4
ENDBRANCH   2   3
ENDBRANCH   1   2
BRANCH   1  26
ATOM     26  C   UNL A   1      31.481  30.802  26.011  1.00  0.00     0.002 C 
BRANCH  26  27
ATOM     27  C   UNL A   1      31.335  32.244  26.501  1.00  0.00     0.021 C 
BRANCH  27  28
ATOM     28  C   UNL A   1      32.566  32.839  27.172  1.00  0.00     0.116 C 
BRANCH  28  29
ATOM     29  N   UNL A   1      32.356  34.203  27.627  1.00  0.00    -0.352 N 
ATOM     30  C   UNL A   1      33.003  34.902  28.615  1.00  0.00     0.251 C 
ATOM     31  H   UNL A   1      31.645  34.698  27.158  1.00  0.00     0.163 HD
ATOM     32  O   UNL A   1      32.588  36.001  28.971  1.00  0.00    -0.269 OA
BRANCH  30  33
ATOM     33  C   UNL A   1      34.190  34.316  29.273  1.00  0.00     0.039 A 
ATOM     34  C   UNL A   1      34.012  33.551  30.428  1.00  0.00     0.014 A 
ATOM     35  C   UNL A   1      35.470  34.515  28.751  1.00  0.00     0.014 A 
ATOM     36  C   UNL A   1      35.115  32.933  31.024  1.00  0.00     0.010 A 
ATOM     37  C   UNL A   1      36.552  33.828  29.292  1.00  0.00     0.010 A 
ATOM     38  C   UNL A   1      36.387  33.035  30.439  1.00  0.00    -0.014 A 
BRANCH  38  39
ATOM     39  C   UNL A   1      37.560  32.329  31.012  1.00  0.00     0.031 A 
ATOM     40  C   UNL A   1      38.190  32.818  32.287  1.00  0.00     0.074 A 
ATOM     41  C   UNL A   1      38.095  31.280  30.357  1.00  0.00     0.049 A 
ATOM     42  N   UNL A   1      39.245  32.364  32.916  1.00  0.00    -0.248 NA
ATOM     43  C   UNL A   1      37.567  33.989  32.925  1.00  0.00     0.031 C 
ATOM     44  C   UNL A   1      37.593  30.719  29.101  1.00  0.00     0.029 A 
ATOM     45  N   UNL A   1      39.180  30.498  30.661  1.00  0.00    -0.354 N 
ATOM     46  C   UNL A   1      39.415  33.198  34.014  1.00  0.00     0.074 A 
ATOM     47  C   UNL A   1      38.400  34.225  33.925  1.00  0.00     0.031 C 
ATOM     48  C   UNL A   1      38.342  29.656  28.767  1.00  0.00     0.029 A 
ATOM     49  C   UNL A   1      39.407  29.494  29.750  1.00  0.00     0.049 A 
ATOM     50  H   UNL A   1      39.744  30.642  31.455  1.00  0.00     0.167 HD
ATOM     51  C   UNL A   1      40.316  33.106  35.021  1.00  0.00     0.031 A 
ATOM     52  C   UNL A   1      40.366  28.550  29.710  1.00  0.00     0.031 A 
ATOM     53  C   UNL A   1      41.337  32.094  35.098  1.00  0.00     0.049 A 
ATOM     54  C   UNL A   1      41.401  28.511  30.800  1.00  0.00     0.074 A 
ATOM     55  C   UNL A   1      42.282  31.894  36.090  1.00  0.00     0.029 A 
ATOM     56  N   UNL A   1      41.555  31.119  34.136  1.00  0.00    -0.354 N 
ATOM     57  N   UNL A   1      41.515  29.269  31.863  1.00  0.00    -0.248 NA
ATOM     58  C   UNL A   1      42.437  27.474  30.685  1.00  0.00     0.031 C 
ATOM     59  C   UNL A   1      43.116  30.844  35.693  1.00  0.00     0.029 A 
ATOM     60  C   UNL A   1      42.641  30.336  34.494  1.00  0.00     0.049 A 
ATOM     61  H   UNL A   1      41.018  31.000  33.320  1.00  0.00     0.167 HD
ATOM     62  C   UNL A   1      42.609  28.778  32.564  1.00  0.00     0.074 A 
ATOM     63  C   UNL A   1      43.117  27.650  31.809  1.00  0.00     0.031 C 
ATOM     64  C   UNL A   1      43.141  29.218  33.732  1.00  0.00     0.031 A 
BRANCH  51  65
ATOM     65  C   UNL A   1      40.245  34.152  36.102  1.00  0.00    -0.014 A 
ATOM     66  C   UNL A   1      39.420  33.986  37.228  1.00  0.00     0.009 A 
ATOM     67  C   UNL A   1      41.011  35.324  35.996  1.00  0.00     0.009 A 
ATOM     68  C   UNL A   1      39.314  34.998  38.187  1.00  0.00     0.001 A 
ATOM     69  C   UNL A   1      40.935  36.314  36.976  1.00  0.00     0.001 A 
ATOM     70  C   UNL A   1      40.074  36.159  38.061  1.00  0.00     0.000 A 
ENDBRANCH  51  65
BRANCH  52  71
ATOM     71  C   UNL A   1      40.376  27.547  28.613  1.00  0.00    -0.014 A 
ATOM     72  C   UNL A   1      39.668  26.343  28.750  1.00  0.00     0.009 A 
ATOM     73  C   UNL A   1      41.085  27.784  27.425  1.00  0.00     0.009 A 
ATOM     74  C   UNL A   1      39.691  25.387  27.731  1.00  0.00     0.001 A 
ATOM     75  C   UNL A   1      41.078  26.842  26.394  1.00  0.00     0.001 A 
ATOM     76  C   UNL A   1      40.390  25.641  26.551  1.00  0.00     0.000 A 
ENDBRANCH  52  71
BRANCH  64  77
ATOM     77  C   UNL A   1      44.307  28.450  34.294  1.00  0.00    -0.014 A 
ATOM     78  C   UNL A   1      45.634  28.808  34.008  1.00  0.00     0.009 A 
ATOM     79  C   UNL A   1      44.069  27.373  35.164  1.00  0.00     0.009 A 
ATOM     80  C   UNL A   1      46.695  28.079  34.552  1.00  0.00     0.001 A 
ATOM     81  C   UNL A   1      45.130  26.670  35.735  1.00  0.00     0.001 A 
ATOM     82  C   UNL A   1      46.443  27.017  35.419  1.00  0.00     0.000 A 
ENDBRANCH  64  77
ENDBRANCH  38  39
ENDBRANCH  30  33
ENDBRANCH  28  29
ENDBRANCH  27  28
ENDBRANCH  26  27
ENDBRANCH   1  26
TORSDOF 16
ENDMDL
MODEL 2
REMARK VINA RESULT:     -11.2      0.460      5.909
REMARK SMILES N#C[C@H]1CN(c2cc(C(=O)NCCCCCCNC(=O)c3ccc(-c4c5nc(c(-c6ccccc6)c6ccc([nH]6)c(-c6ccccc6)c6nc(c(-c7ccccc7)c7ccc4[nH]7)C=C6)C=C5)cc3)c(N)cc2F)CCO1
REMARK SMILES IDX 14 1 13 2 12 3 11 4 9 5 10 6 8 8 6 9 7 10 72 11 71 12 73 13
REMARK SMILES IDX 69 14 5 15 3 16 4 17 76 18 75 19 74 20 2 21 1 22 70 23 15 26
REMARK SMILES IDX 16 27 17 28 18 29 19 30 20 32 21 33 22 34 68 35 23 36 67 37
REMARK SMILES IDX 24 38 25 39 26 40 61 41 27 42 66 43 60 44 62 45 28 46 65 47
REMARK SMILES IDX 59 48 58 49 29 51 51 52 36 53 50 54 37 55 40 56 49 57 63 58
REMARK SMILES IDX 38 59 39 60 48 62 64 63 41 64 30 65 31 66 35 67 32 68 34 69
REMARK SMILES IDX 33 70 52 71 53 72 57 73 54 74 56 75 55 76 42 77 43 78 47 79
REMARK SMILES IDX 44 80 46 81 45 82
REMARK H PARENT 11 7 70 24 70 25 18 31 62 50 40 61
REMARK Flexibility Score: inf
ROOT
ATOM      1  C   UNL A   1      32.283  29.813  27.165  1.00  0.00     0.002 C 
ENDROOT
BRANCH   1   2
ATOM      2  C   UNL A   1      33.742  29.459  26.873  1.00  0.00     0.021 C 
BRANCH   2   3
ATOM      3  C   UNL A   1      33.976  28.300  25.914  1.00  0.00     0.116 C 
BRANCH   3   4
ATOM      4  N   UNL A   1      34.272  28.676  24.549  1.00  0.00    -0.352 N 
ATOM      5  C   UNL A   1      33.461  28.676  23.434  1.00  0.00     0.253 C 
ATOM      6  O   UNL A   1      33.949  29.086  22.380  1.00  0.00    -0.269 OA
ATOM      7  H   UNL A   1      35.195  28.980  24.391  1.00  0.00     0.163 HD
BRANCH   5   8
ATOM      8  C   UNL A   1      32.059  28.140  23.423  1.00  0.00     0.065 A 
ATOM      9  C   UNL A   1      30.660  26.212  24.045  1.00  0.00     0.074 A 
ATOM     10  C   UNL A   1      31.901  26.860  24.012  1.00  0.00     0.045 A 
ATOM     11  C   UNL A   1      29.549  26.956  23.632  1.00  0.00     0.148 A 
ATOM     12  C   UNL A   1      29.677  28.205  23.044  1.00  0.00     0.067 A 
ATOM     13  F   UNL A   1      28.315  26.436  23.744  1.00  0.00    -0.205 F 
ATOM     14  C   UNL A   1      30.943  28.751  22.817  1.00  0.00     0.047 A 
BRANCH   9  15
ATOM     15  N   UNL A   1      30.559  24.877  24.366  1.00  0.00    -0.363 N 
ATOM     16  C   UNL A   1      31.894  22.875  23.839  1.00  0.00     0.240 C 
ATOM     17  C   UNL A   1      30.720  23.788  23.397  1.00  0.00     0.164 C 
ATOM     18  O   UNL A   1      31.731  22.433  25.211  1.00  0.00    -0.360 OA
ATOM     19  C   UNL A   1      31.676  23.557  26.107  1.00  0.00     0.183 C 
ATOM     20  C   UNL A   1      30.490  24.469  25.776  1.00  0.00     0.145 C 
BRANCH  16  21
ATOM     21  C   UNL A   1      31.977  21.704  22.946  1.00  0.00     0.096 C 
ATOM     22  N   UNL A   1      32.028  20.773  22.258  1.00  0.00    -0.195 NA
ENDBRANCH  16  21
ENDBRANCH   9  15
BRANCH  14  23
ATOM     23  N   UNL A   1      31.008  29.852  21.971  1.00  0.00    -0.398 N 
ATOM     24  H   UNL A   1      30.368  30.593  22.076  1.00  0.00     0.156 HD
ATOM     25  H   UNL A   1      31.695  29.892  21.267  1.00  0.00     0.156 HD
ENDBRANCH  14  23
ENDBRANCH   5   8
ENDBRANCH   3   4
ENDBRANCH   2   3
ENDBRANCH   1   2
BRANCH   1  26
ATOM     26  C   UNL A   1      31.569  30.705  26.144  1.00  0.00     0.002 C 
BRANCH  26  27
ATOM     27  C   UNL A   1      31.387  32.174  26.530  1.00  0.00     0.021 C 
BRANCH  27  28
ATOM     28  C   UNL A   1      32.536  32.797  27.313  1.00  0.00     0.116 C 
BRANCH  28  29
ATOM     29  N   UNL A   1      32.305  34.194  27.638  1.00  0.00    -0.352 N 
ATOM     30  C   UNL A   1      32.944  34.994  28.553  1.00  0.00     0.251 C 
ATOM     31  H   UNL A   1      31.585  34.631  27.127  1.00  0.00     0.163 HD
ATOM     32  O   UNL A   1      32.512  36.114  28.805  1.00  0.00    -0.269 OA
BRANCH  30  33
ATOM     33  C   UNL A   1      34.142  34.491  29.259  1.00  0.00     0.039 A 
ATOM     34  C   UNL A   1      33.989  33.922  30.526  1.00  0.00     0.014 A 
ATOM     35  C   UNL A   1      35.407  34.575  28.672  1.00  0.00     0.014 A 
ATOM     36  C   UNL A   1      35.100  33.380  31.177  1.00  0.00     0.010 A 
ATOM     37  C   UNL A   1      36.493  33.956  29.283  1.00  0.00     0.010 A 
ATOM     38  C   UNL A   1      36.353  33.359  30.545  1.00  0.00    -0.014 A 
BRANCH  38  39
ATOM     39  C   UNL A   1      37.531  32.724  31.187  1.00  0.00     0.031 A 
ATOM     40  C   UNL A   1      38.176  31.518  30.562  1.00  0.00     0.074 A 
ATOM     41  C   UNL A   1      37.988  33.197  32.363  1.00  0.00     0.049 A 
ATOM     42  N   UNL A   1      39.181  30.798  30.995  1.00  0.00    -0.248 NA
ATOM     43  C   UNL A   1      37.599  31.042  29.294  1.00  0.00     0.031 C 
ATOM     44  C   UNL A   1      37.440  34.346  33.085  1.00  0.00     0.029 A 
ATOM     45  N   UNL A   1      39.022  32.767  33.156  1.00  0.00    -0.354 N 
ATOM     46  C   UNL A   1      39.346  29.784  30.060  1.00  0.00     0.074 A 
ATOM     47  C   UNL A   1      38.296  29.939  29.078  1.00  0.00     0.031 C 
ATOM     48  C   UNL A   1      38.170  34.557  34.191  1.00  0.00     0.029 A 
ATOM     49  C   UNL A   1      39.201  33.529  34.286  1.00  0.00     0.049 A 
ATOM     50  H   UNL A   1      39.582  31.988  32.937  1.00  0.00     0.167 HD
ATOM     51  C   UNL A   1      40.300  28.823  30.008  1.00  0.00     0.031 A 
ATOM     52  C   UNL A   1      40.093  33.410  35.287  1.00  0.00     0.031 A 
ATOM     53  C   UNL A   1      41.333  28.658  30.997  1.00  0.00     0.049 A 
ATOM     54  C   UNL A   1      41.098  32.293  35.246  1.00  0.00     0.074 A 
ATOM     55  C   UNL A   1      42.365  27.736  31.022  1.00  0.00     0.029 A 
ATOM     56  N   UNL A   1      41.456  29.428  32.144  1.00  0.00    -0.354 N 
ATOM     57  N   UNL A   1      41.280  31.376  34.327  1.00  0.00    -0.248 NA
ATOM     58  C   UNL A   1      42.027  32.202  36.381  1.00  0.00     0.031 C 
ATOM     59  C   UNL A   1      43.068  27.902  32.220  1.00  0.00     0.029 A 
ATOM     60  C   UNL A   1      42.526  28.979  32.902  1.00  0.00     0.049 A 
ATOM     61  H   UNL A   1      40.871  30.182  32.385  1.00  0.00     0.167 HD
ATOM     62  C   UNL A   1      42.368  30.624  34.752  1.00  0.00     0.074 A 
ATOM     63  C   UNL A   1      42.809  31.200  36.006  1.00  0.00     0.031 C 
ATOM     64  C   UNL A   1      42.953  29.557  34.153  1.00  0.00     0.031 A 
BRANCH  51  65
ATOM     65  C   UNL A   1      40.243  27.863  28.848  1.00  0.00    -0.014 A 
ATOM     66  C   UNL A   1      39.561  26.637  28.947  1.00  0.00     0.009 A 
ATOM     67  C   UNL A   1      40.881  28.183  27.640  1.00  0.00     0.009 A 
ATOM     68  C   UNL A   1      39.577  25.729  27.885  1.00  0.00     0.001 A 
ATOM     69  C   UNL A   1      40.860  27.292  26.567  1.00  0.00     0.001 A 
ATOM     70  C   UNL A   1      40.224  26.058  26.696  1.00  0.00     0.000 A 
ENDBRANCH  51  65
BRANCH  52  71
ATOM     71  C   UNL A   1      40.094  34.395  36.401  1.00  0.00    -0.014 A 
ATOM     72  C   UNL A   1      40.852  35.573  36.303  1.00  0.00     0.009 A 
ATOM     73  C   UNL A   1      39.339  34.171  37.563  1.00  0.00     0.009 A 
ATOM     74  C   UNL A   1      40.874  36.492  37.355  1.00  0.00     0.001 A 
ATOM     75  C   UNL A   1      39.336  35.107  38.599  1.00  0.00     0.001 A 
ATOM     76  C   UNL A   1      40.110  36.261  38.499  1.00  0.00     0.000 A 
ENDBRANCH  52  71
BRANCH  64  77
ATOM     77  C   UNL A   1      44.166  28.967  34.821  1.00  0.00    -0.014 A 
ATOM     78  C   UNL A   1      44.062  27.917  35.746  1.00  0.00     0.009 A 
ATOM     79  C   UNL A   1      45.442  29.447  34.482  1.00  0.00     0.009 A 
ATOM     80  C   UNL A   1      45.209  27.386  36.344  1.00  0.00     0.001 A 
ATOM     81  C   UNL A   1      46.587  28.890  35.052  1.00  0.00     0.001 A 
ATOM     82  C   UNL A   1      46.469  27.867  35.991  1.00  0.00     0.000 A 
ENDBRANCH  64  77
ENDBRANCH  38  39
ENDBRANCH  30  33
ENDBRANCH  28  29
ENDBRANCH  27  28
ENDBRANCH  26  27
ENDBRANCH   1  26
TORSDOF 16
ENDMDL
MODEL 3
REMARK VINA RESULT:     -10.9      4.934      9.718
REMARK SMILES N#C[C@H]1CN(c2cc(C(=O)NCCCCCCNC(=O)c3ccc(-c4c5nc(c(-c6ccccc6)c6ccc([nH]6)c(-c6ccccc6)c6nc(c(-c7ccccc7)c7ccc4[nH]7)C=C6)C=C5)cc3)c(N)cc2F)CCO1
REMARK SMILES IDX 14 1 13 2 12 3 11 4 9 5 10 6 8 8 6 9 7 10 72 11 71 12 73 13
REMARK SMILES IDX 69 14 5 15 3 16 4 17 76 18 75 19 74 20 2 21 1 22 70 23 15 26
REMARK SMILES IDX 16 27 17 28 18 29 19 30 20 32 21 33 22 34 68 35 23 36 67 37
REMARK SMILES IDX 24 38 25 39 26 40 61 41 27 42 66 43 60 44 62 45 28 46 65 47
REMARK SMILES IDX 59 48 58 49 29 51 51 52 36 53 50 54 37 55 40 56 49 57 63 58
REMARK SMILES IDX 38 59 39 60 48 62 64 63 41 64 30 65 31 66 35 67 32 68 34 69
REMARK SMILES IDX 33 70 52 71 53 72 57 73 54 74 56 75 55 76 42 77 43 78 47 79
REMARK SMILES IDX 44 80 46 81 45 82
REMARK H PARENT 11 7 70 24 70 25 18 31 62 50 40 61
REMARK Flexibility Score: inf
ROOT
ATOM      1  C   UNL A   1      37.120  22.159  24.468  1.00  0.00     0.002 C 
ENDROOT
BRANCH   1   2
ATOM      2  C   UNL A   1      36.362  23.251  25.226  1.00  0.00     0.021 C 
BRANCH   2   3
ATOM      3  C   UNL A   1      35.261  22.778  26.164  1.00  0.00     0.116 C 
BRANCH   3   4
ATOM      4  N   UNL A   1      34.026  23.530  26.099  1.00  0.00    -0.352 N 
ATOM      5  C   UNL A   1      32.853  23.251  25.431  1.00  0.00     0.253 C 
ATOM      6  O   UNL A   1      31.921  24.043  25.570  1.00  0.00    -0.269 OA
ATOM      7  H   UNL A   1      34.023  24.371  26.611  1.00  0.00     0.163 HD
BRANCH   5   8
ATOM      8  C   UNL A   1      32.682  22.087  24.499  1.00  0.00     0.065 A 
ATOM      9  C   UNL A   1      32.941  19.647  24.292  1.00  0.00     0.074 A 
ATOM     10  C   UNL A   1      33.013  20.823  25.049  1.00  0.00     0.045 A 
ATOM     11  C   UNL A   1      32.358  19.749  23.024  1.00  0.00     0.148 A 
ATOM     12  C   UNL A   1      32.036  20.974  22.458  1.00  0.00     0.067 A 
ATOM     13  F   UNL A   1      32.154  18.642  22.289  1.00  0.00    -0.205 F 
ATOM     14  C   UNL A   1      32.315  22.161  23.140  1.00  0.00     0.047 A 
BRANCH   9  15
ATOM     15  N   UNL A   1      33.512  18.475  24.735  1.00  0.00    -0.363 N 
ATOM     16  C   UNL A   1      32.680  16.186  25.096  1.00  0.00     0.240 C 
ATOM     17  C   UNL A   1      32.894  17.587  25.726  1.00  0.00     0.164 C 
ATOM     18  O   UNL A   1      33.909  15.673  24.520  1.00  0.00    -0.360 OA
ATOM     19  C   UNL A   1      34.398  16.554  23.493  1.00  0.00     0.183 C 
ATOM     20  C   UNL A   1      34.704  17.944  24.059  1.00  0.00     0.145 C 
BRANCH  16  21
ATOM     21  C   UNL A   1      32.185  15.250  26.124  1.00  0.00     0.096 C 
ATOM     22  N   UNL A   1      31.776  14.525  26.931  1.00  0.00    -0.195 NA
ENDBRANCH  16  21
ENDBRANCH   9  15
BRANCH  14  23
ATOM     23  N   UNL A   1      32.240  23.338  22.405  1.00  0.00    -0.398 N 
ATOM     24  H   UNL A   1      31.384  23.817  22.328  1.00  0.00     0.156 HD
ATOM     25  H   UNL A   1      33.044  23.693  21.961  1.00  0.00     0.156 HD
ENDBRANCH  14  23
ENDBRANCH   5   8
ENDBRANCH   3   4
ENDBRANCH   2   3
ENDBRANCH   1   2
BRANCH   1  26
ATOM     26  C   UNL A   1      36.693  20.711  24.730  1.00  0.00     0.002 C 
BRANCH  26  27
ATOM     27  C   UNL A   1      37.814  19.706  24.999  1.00  0.00     0.021 C 
BRANCH  27  28
ATOM     28  C   UNL A   1      39.021  20.253  25.751  1.00  0.00     0.116 C 
BRANCH  28  29
ATOM     29  N   UNL A   1      40.115  19.300  25.830  1.00  0.00    -0.352 N 
ATOM     30  C   UNL A   1      41.437  19.512  26.134  1.00  0.00     0.251 C 
ATOM     31  H   UNL A   1      39.872  18.364  25.638  1.00  0.00     0.163 HD
ATOM     32  O   UNL A   1      42.256  18.608  26.002  1.00  0.00    -0.269 OA
BRANCH  30  33
ATOM     33  C   UNL A   1      41.880  20.845  26.595  1.00  0.00     0.039 A 
ATOM     34  C   UNL A   1      42.328  21.771  25.649  1.00  0.00     0.014 A 
ATOM     35  C   UNL A   1      41.849  21.181  27.950  1.00  0.00     0.014 A 
ATOM     36  C   UNL A   1      42.685  23.058  26.059  1.00  0.00     0.010 A 
ATOM     37  C   UNL A   1      42.120  22.488  28.344  1.00  0.00     0.010 A 
ATOM     38  C   UNL A   1      42.547  23.438  27.404  1.00  0.00    -0.014 A 
BRANCH  38  39
ATOM     39  C   UNL A   1      42.852  24.821  27.850  1.00  0.00     0.031 A 
ATOM     40  C   UNL A   1      44.276  25.245  28.083  1.00  0.00     0.074 A 
ATOM     41  C   UNL A   1      41.845  25.679  28.102  1.00  0.00     0.049 A 
ATOM     42  N   UNL A   1      44.737  26.391  28.517  1.00  0.00    -0.248 NA
ATOM     43  C   UNL A   1      45.317  24.239  27.817  1.00  0.00     0.031 C 
ATOM     44  C   UNL A   1      40.420  25.387  27.937  1.00  0.00     0.029 A 
ATOM     45  N   UNL A   1      41.869  26.976  28.549  1.00  0.00    -0.354 N 
ATOM     46  C   UNL A   1      46.117  26.238  28.584  1.00  0.00     0.074 A 
ATOM     47  C   UNL A   1      46.409  24.871  28.216  1.00  0.00     0.031 C 
ATOM     48  C   UNL A   1      39.710  26.486  28.236  1.00  0.00     0.029 A 
ATOM     49  C   UNL A   1      40.622  27.542  28.664  1.00  0.00     0.049 A 
ATOM     50  H   UNL A   1      42.701  27.456  28.767  1.00  0.00     0.167 HD
ATOM     51  C   UNL A   1      47.060  27.158  28.899  1.00  0.00     0.031 A 
ATOM     52  C   UNL A   1      40.253  28.770  29.072  1.00  0.00     0.031 A 
ATOM     53  C   UNL A   1      46.766  28.514  29.284  1.00  0.00     0.049 A 
ATOM     54  C   UNL A   1      41.313  29.753  29.487  1.00  0.00     0.074 A 
ATOM     55  C   UNL A   1      47.649  29.534  29.595  1.00  0.00     0.029 A 
ATOM     56  N   UNL A   1      45.488  29.035  29.424  1.00  0.00    -0.354 N 
ATOM     57  N   UNL A   1      42.616  29.615  29.490  1.00  0.00    -0.248 NA
ATOM     58  C   UNL A   1      40.845  31.069  29.947  1.00  0.00     0.031 C 
ATOM     59  C   UNL A   1      46.904  30.649  29.992  1.00  0.00     0.029 A 
ATOM     60  C   UNL A   1      45.558  30.352  29.850  1.00  0.00     0.049 A 
ATOM     61  H   UNL A   1      44.655  28.542  29.246  1.00  0.00     0.167 HD
ATOM     62  C   UNL A   1      43.126  30.836  29.913  1.00  0.00     0.074 A 
ATOM     63  C   UNL A   1      41.991  31.704  30.147  1.00  0.00     0.031 C 
ATOM     64  C   UNL A   1      44.420  31.206  30.086  1.00  0.00     0.031 A 
BRANCH  51  65
ATOM     65  C   UNL A   1      48.497  26.707  28.863  1.00  0.00    -0.014 A 
ATOM     66  C   UNL A   1      49.090  26.065  29.964  1.00  0.00     0.009 A 
ATOM     67  C   UNL A   1      49.273  26.929  27.715  1.00  0.00     0.009 A 
ATOM     68  C   UNL A   1      50.443  25.716  29.939  1.00  0.00     0.001 A 
ATOM     69  C   UNL A   1      50.613  26.541  27.677  1.00  0.00     0.001 A 
ATOM     70  C   UNL A   1      51.202  25.952  28.795  1.00  0.00     0.000 A 
ENDBRANCH  51  65
BRANCH  52  71
ATOM     71  C   UNL A   1      38.816  29.150  29.081  1.00  0.00    -0.014 A 
ATOM     72  C   UNL A   1      38.218  29.683  27.929  1.00  0.00     0.009 A 
ATOM     73  C   UNL A   1      38.032  28.980  30.234  1.00  0.00     0.009 A 
ATOM     74  C   UNL A   1      36.873  30.062  27.938  1.00  0.00     0.001 A 
ATOM     75  C   UNL A   1      36.680  29.327  30.230  1.00  0.00     0.001 A 
ATOM     76  C   UNL A   1      36.104  29.876  29.086  1.00  0.00     0.000 A 
ENDBRANCH  52  71
BRANCH  64  77
ATOM     77  C   UNL A   1      44.683  32.627  30.505  1.00  0.00    -0.014 A 
ATOM     78  C   UNL A   1      44.808  32.987  31.856  1.00  0.00     0.009 A 
ATOM     79  C   UNL A   1      44.852  33.617  29.522  1.00  0.00     0.009 A 
ATOM     80  C   UNL A   1      45.060  34.315  32.212  1.00  0.00     0.001 A 
ATOM     81  C   UNL A   1      45.141  34.934  29.880  1.00  0.00     0.001 A 
ATOM     82  C   UNL A   1      45.234  35.284  31.225  1.00  0.00     0.000 A 
ENDBRANCH  64  77
ENDBRANCH  38  39
ENDBRANCH  30  33
ENDBRANCH  28  29
ENDBRANCH  27  28
ENDBRANCH  26  27
ENDBRANCH   1  26
TORSDOF 16
ENDMDL
