MODEL 1
REMARK VINA RESULT:     -10.8      0.000      0.000
REMARK SMILES O=C(Cc1cccc(Oc2ncnc3c2CCCC3)c1)NCCCCCCNC(=O)c1ccc(-c2c3nc(c(-c4ccccc4)c4ccc([nH]4)c(-c4ccccc4)c4nc(c(-c5ccccc5)c5ccc2[nH]5)C=C4)C=C3)cc1
REMARK SMILES IDX 24 1 23 2 22 3 21 4 1 5 2 6 3 8 4 9 5 10 20 11 6 12 8 13
REMARK SMILES IDX 7 14 9 15 10 16 11 17 15 18 12 19 14 20 16 21 13 22 19 23
REMARK SMILES IDX 17 24 18 25 25 26 26 27 27 28 28 29 29 30 30 32 31 33 32 34
REMARK SMILES IDX 78 35 33 36 77 37 34 38 35 39 36 40 71 41 37 42 76 43 70 44
REMARK SMILES IDX 72 45 38 46 75 47 69 48 68 49 39 51 61 52 46 53 60 54 47 55
REMARK SMILES IDX 50 56 59 57 73 58 48 59 49 60 58 62 74 63 51 64 40 65 41 66
REMARK SMILES IDX 45 67 42 68 44 69 43 70 62 71 63 72 67 73 64 74 66 75 65 76
REMARK SMILES IDX 52 77 53 78 57 79 54 80 56 81 55 82
REMARK H PARENT 21 7 28 31 72 50 50 61
REMARK Flexibility Score: inf
ROOT
ATOM      1  C   UNL A   1      33.494  28.383  24.590  1.00  0.00     0.002 C 
ENDROOT
BRANCH   1   2
ATOM      2  C   UNL A   1      33.409  29.012  23.191  1.00  0.00     0.021 C 
BRANCH   2   3
ATOM      3  C   UNL A   1      33.698  28.048  22.040  1.00  0.00     0.116 C 
BRANCH   3   4
ATOM      4  N   UNL A   1      33.192  26.732  22.348  1.00  0.00    -0.356 N 
ATOM      5  O   UNL A   1      31.035  27.048  21.623  1.00  0.00    -0.275 OA
ATOM      6  C   UNL A   1      31.905  26.322  22.087  1.00  0.00     0.224 C 
ATOM      7  H   UNL A   1      33.805  26.088  22.769  1.00  0.00     0.163 HD
BRANCH   6   8
ATOM      8  C   UNL A   1      31.677  24.863  22.446  1.00  0.00     0.135 C 
BRANCH   8   9
ATOM      9  C   UNL A   1      31.477  24.638  23.928  1.00  0.00    -0.035 A 
ATOM     10  C   UNL A   1      30.417  25.219  24.639  1.00  0.00     0.004 A 
ATOM     11  C   UNL A   1      32.375  23.813  24.617  1.00  0.00     0.051 A 
ATOM     12  C   UNL A   1      30.287  25.013  26.013  1.00  0.00     0.004 A 
ATOM     13  C   UNL A   1      32.246  23.596  25.993  1.00  0.00     0.129 A 
ATOM     14  C   UNL A   1      31.202  24.210  26.688  1.00  0.00     0.047 A 
BRANCH  13  15
ATOM     15  O   UNL A   1      33.078  22.806  26.758  1.00  0.00    -0.439 OA
BRANCH  15  16
ATOM     16  C   UNL A   1      33.795  21.822  26.105  1.00  0.00     0.225 A 
ATOM     17  N   UNL A   1      33.111  20.727  25.720  1.00  0.00    -0.201 NA
ATOM     18  C   UNL A   1      35.138  22.038  25.852  1.00  0.00     0.036 A 
ATOM     19  C   UNL A   1      33.836  19.793  25.101  1.00  0.00     0.226 A 
ATOM     20  C   UNL A   1      35.775  21.011  25.173  1.00  0.00     0.051 A 
ATOM     21  C   UNL A   1      35.828  23.319  26.220  1.00  0.00     0.043 C 
ATOM     22  N   UNL A   1      35.142  19.872  24.815  1.00  0.00    -0.241 NA
ATOM     23  C   UNL A   1      37.241  21.088  24.841  1.00  0.00     0.057 C 
ATOM     24  C   UNL A   1      37.352  23.230  26.128  1.00  0.00     0.005 C 
ATOM     25  C   UNL A   1      37.775  22.518  24.847  1.00  0.00     0.007 C 
ENDBRANCH  15  16
ENDBRANCH  13  15
ENDBRANCH   8   9
ENDBRANCH   6   8
ENDBRANCH   3   4
ENDBRANCH   2   3
ENDBRANCH   1   2
BRANCH   1  26
ATOM     26  C   UNL A   1      32.161  28.265  25.334  1.00  0.00     0.002 C 
BRANCH  26  27
ATOM     27  C   UNL A   1      32.274  28.310  26.858  1.00  0.00     0.021 C 
BRANCH  27  28
ATOM     28  C   UNL A   1      33.634  28.761  27.380  1.00  0.00     0.116 C 
BRANCH  28  29
ATOM     29  N   UNL A   1      33.629  30.146  27.824  1.00  0.00    -0.352 N 
ATOM     30  C   UNL A   1      34.631  30.854  28.439  1.00  0.00     0.251 C 
ATOM     31  H   UNL A   1      32.795  30.643  27.661  1.00  0.00     0.163 HD
ATOM     32  O   UNL A   1      34.411  31.974  28.896  1.00  0.00    -0.269 OA
BRANCH  30  33
ATOM     33  C   UNL A   1      35.973  30.251  28.573  1.00  0.00     0.039 A 
ATOM     34  C   UNL A   1      36.838  30.273  27.476  1.00  0.00     0.014 A 
ATOM     35  C   UNL A   1      36.382  29.677  29.780  1.00  0.00     0.014 A 
ATOM     36  C   UNL A   1      38.134  29.770  27.608  1.00  0.00     0.010 A 
ATOM     37  C   UNL A   1      37.697  29.249  29.933  1.00  0.00     0.010 A 
ATOM     38  C   UNL A   1      38.585  29.283  28.847  1.00  0.00    -0.014 A 
BRANCH  38  39
ATOM     39  C   UNL A   1      39.975  28.789  29.021  1.00  0.00     0.031 A 
ATOM     40  C   UNL A   1      41.045  29.714  29.534  1.00  0.00     0.074 A 
ATOM     41  C   UNL A   1      40.287  27.524  28.671  1.00  0.00     0.049 A 
ATOM     42  N   UNL A   1      42.326  29.490  29.689  1.00  0.00    -0.248 NA
ATOM     43  C   UNL A   1      40.625  31.078  29.902  1.00  0.00     0.031 C 
ATOM     44  C   UNL A   1      39.351  26.535  28.131  1.00  0.00     0.029 A 
ATOM     45  N   UNL A   1      41.486  26.858  28.712  1.00  0.00    -0.354 N 
ATOM     46  C   UNL A   1      42.862  30.682  30.162  1.00  0.00     0.074 A 
ATOM     47  C   UNL A   1      41.783  31.642  30.213  1.00  0.00     0.031 C 
ATOM     48  C   UNL A   1      40.007  25.383  27.913  1.00  0.00     0.029 A 
ATOM     49  C   UNL A   1      41.414  25.563  28.254  1.00  0.00     0.049 A 
ATOM     50  H   UNL A   1      42.321  27.267  29.038  1.00  0.00     0.167 HD
ATOM     51  C   UNL A   1      44.134  30.947  30.545  1.00  0.00     0.031 A 
ATOM     52  C   UNL A   1      42.375  24.630  28.113  1.00  0.00     0.031 A 
ATOM     53  C   UNL A   1      45.208  29.993  30.501  1.00  0.00     0.049 A 
ATOM     54  C   UNL A   1      43.787  24.965  28.514  1.00  0.00     0.074 A 
ATOM     55  C   UNL A   1      46.524  30.160  30.896  1.00  0.00     0.029 A 
ATOM     56  N   UNL A   1      45.089  28.693  30.039  1.00  0.00    -0.354 N 
ATOM     57  N   UNL A   1      44.264  26.081  29.012  1.00  0.00    -0.248 NA
ATOM     58  C   UNL A   1      44.791  23.904  28.348  1.00  0.00     0.031 C 
ATOM     59  C   UNL A   1      47.214  28.975  30.627  1.00  0.00     0.029 A 
ATOM     60  C   UNL A   1      46.313  28.050  30.125  1.00  0.00     0.049 A 
ATOM     61  H   UNL A   1      44.260  28.285  29.700  1.00  0.00     0.167 HD
ATOM     62  C   UNL A   1      45.612  25.842  29.251  1.00  0.00     0.074 A 
ATOM     63  C   UNL A   1      45.872  24.472  28.862  1.00  0.00     0.031 C 
ATOM     64  C   UNL A   1      46.552  26.682  29.748  1.00  0.00     0.031 A 
BRANCH  51  65
ATOM     65  C   UNL A   1      44.432  32.330  31.056  1.00  0.00    -0.014 A 
ATOM     66  C   UNL A   1      44.449  32.603  32.433  1.00  0.00     0.009 A 
ATOM     67  C   UNL A   1      44.758  33.356  30.156  1.00  0.00     0.009 A 
ATOM     68  C   UNL A   1      44.760  33.883  32.897  1.00  0.00     0.001 A 
ATOM     69  C   UNL A   1      45.098  34.627  30.624  1.00  0.00     0.001 A 
ATOM     70  C   UNL A   1      45.092  34.891  31.993  1.00  0.00     0.000 A 
ENDBRANCH  51  65
BRANCH  52  71
ATOM     71  C   UNL A   1      42.050  23.287  27.563  1.00  0.00    -0.014 A 
ATOM     72  C   UNL A   1      42.232  23.007  26.199  1.00  0.00     0.009 A 
ATOM     73  C   UNL A   1      41.508  22.291  28.391  1.00  0.00     0.009 A 
ATOM     74  C   UNL A   1      41.837  21.776  25.670  1.00  0.00     0.001 A 
ATOM     75  C   UNL A   1      41.148  21.048  27.865  1.00  0.00     0.001 A 
ATOM     76  C   UNL A   1      41.297  20.797  26.502  1.00  0.00     0.000 A 
ENDBRANCH  52  71
BRANCH  64  77
ATOM     77  C   UNL A   1      47.934  26.127  29.957  1.00  0.00    -0.014 A 
ATOM     78  C   UNL A   1      48.857  26.041  28.903  1.00  0.00     0.009 A 
ATOM     79  C   UNL A   1      48.328  25.723  31.242  1.00  0.00     0.009 A 
ATOM     80  C   UNL A   1      50.134  25.524  29.127  1.00  0.00     0.001 A 
ATOM     81  C   UNL A   1      49.617  25.239  31.469  1.00  0.00     0.001 A 
ATOM     82  C   UNL A   1      50.516  25.129  30.410  1.00  0.00     0.000 A 
ENDBRANCH  64  77
ENDBRANCH  38  39
ENDBRANCH  30  33
ENDBRANCH  28  29
ENDBRANCH  27  28
ENDBRANCH  26  27
ENDBRANCH   1  26
TORSDOF 16
ENDMDL
MODEL 2
REMARK VINA RESULT:     -10.7      4.157      7.581
REMARK SMILES O=C(Cc1cccc(Oc2ncnc3c2CCCC3)c1)NCCCCCCNC(=O)c1ccc(-c2c3nc(c(-c4ccccc4)c4ccc([nH]4)c(-c4ccccc4)c4nc(c(-c5ccccc5)c5ccc2[nH]5)C=C4)C=C3)cc1
REMARK SMILES IDX 24 1 23 2 22 3 21 4 1 5 2 6 3 8 4 9 5 10 20 11 6 12 8 13
REMARK SMILES IDX 7 14 9 15 10 16 11 17 15 18 12 19 14 20 16 21 13 22 19 23
REMARK SMILES IDX 17 24 18 25 25 26 26 27 27 28 28 29 29 30 30 32 31 33 32 34
REMARK SMILES IDX 78 35 33 36 77 37 34 38 35 39 36 40 71 41 37 42 76 43 70 44
REMARK SMILES IDX 72 45 38 46 75 47 69 48 68 49 39 51 61 52 46 53 60 54 47 55
REMARK SMILES IDX 50 56 59 57 73 58 48 59 49 60 58 62 74 63 51 64 40 65 41 66
REMARK SMILES IDX 45 67 42 68 44 69 43 70 62 71 63 72 67 73 64 74 66 75 65 76
REMARK SMILES IDX 52 77 53 78 57 79 54 80 56 81 55 82
REMARK H PARENT 21 7 28 31 72 50 50 61
REMARK Flexibility Score: inf
ROOT
ATOM      1  C   UNL A   1      34.407  34.475  32.627  1.00  0.00     0.002 C 
ENDROOT
BRANCH   1   2
ATOM      2  C   UNL A   1      35.023  33.258  33.334  1.00  0.00     0.021 C 
BRANCH   2   3
ATOM      3  C   UNL A   1      35.890  33.596  34.547  1.00  0.00     0.116 C 
BRANCH   3   4
ATOM      4  N   UNL A   1      37.271  33.272  34.283  1.00  0.00    -0.356 N 
ATOM      5  O   UNL A   1      37.564  31.750  35.979  1.00  0.00    -0.275 OA
ATOM      6  C   UNL A   1      37.996  32.349  35.002  1.00  0.00     0.224 C 
ATOM      7  H   UNL A   1      37.723  33.739  33.544  1.00  0.00     0.163 HD
BRANCH   6   8
ATOM      8  C   UNL A   1      39.399  32.158  34.452  1.00  0.00     0.135 C 
BRANCH   8   9
ATOM      9  C   UNL A   1      39.672  30.744  33.994  1.00  0.00    -0.035 A 
ATOM     10  C   UNL A   1      38.752  30.009  33.233  1.00  0.00     0.004 A 
ATOM     11  C   UNL A   1      40.893  30.145  34.334  1.00  0.00     0.051 A 
ATOM     12  C   UNL A   1      39.029  28.694  32.858  1.00  0.00     0.004 A 
ATOM     13  C   UNL A   1      41.180  28.829  33.955  1.00  0.00     0.129 A 
ATOM     14  C   UNL A   1      40.237  28.105  33.225  1.00  0.00     0.047 A 
BRANCH  13  15
ATOM     15  O   UNL A   1      42.347  28.153  34.243  1.00  0.00    -0.439 OA
BRANCH  15  16
ATOM     16  C   UNL A   1      42.251  27.038  35.054  1.00  0.00     0.225 A 
ATOM     17  N   UNL A   1      41.517  27.165  36.175  1.00  0.00    -0.201 NA
ATOM     18  C   UNL A   1      42.866  25.867  34.646  1.00  0.00     0.036 A 
ATOM     19  C   UNL A   1      41.453  26.072  36.940  1.00  0.00     0.226 A 
ATOM     20  C   UNL A   1      42.700  24.793  35.505  1.00  0.00     0.051 A 
ATOM     21  C   UNL A   1      43.593  25.756  33.338  1.00  0.00     0.043 C 
ATOM     22  N   UNL A   1      42.018  24.888  36.669  1.00  0.00    -0.241 NA
ATOM     23  C   UNL A   1      43.326  23.455  35.212  1.00  0.00     0.057 C 
ATOM     24  C   UNL A   1      44.442  24.489  33.226  1.00  0.00     0.005 C 
ATOM     25  C   UNL A   1      43.672  23.276  33.735  1.00  0.00     0.007 C 
ENDBRANCH  15  16
ENDBRANCH  13  15
ENDBRANCH   8   9
ENDBRANCH   6   8
ENDBRANCH   3   4
ENDBRANCH   2   3
ENDBRANCH   1   2
BRANCH   1  26
ATOM     26  C   UNL A   1      34.453  34.431  31.097  1.00  0.00     0.002 C 
BRANCH  26  27
ATOM     27  C   UNL A   1      34.928  33.102  30.510  1.00  0.00     0.021 C 
BRANCH  27  28
ATOM     28  C   UNL A   1      35.093  33.100  28.995  1.00  0.00     0.116 C 
BRANCH  28  29
ATOM     29  N   UNL A   1      34.218  32.139  28.340  1.00  0.00    -0.352 N 
ATOM     30  C   UNL A   1      34.515  30.878  27.887  1.00  0.00     0.251 C 
ATOM     31  H   UNL A   1      33.288  32.433  28.204  1.00  0.00     0.163 HD
ATOM     32  O   UNL A   1      33.701  30.253  27.209  1.00  0.00    -0.269 OA
BRANCH  30  33
ATOM     33  C   UNL A   1      35.832  30.283  28.196  1.00  0.00     0.039 A 
ATOM     34  C   UNL A   1      36.827  30.297  27.216  1.00  0.00     0.014 A 
ATOM     35  C   UNL A   1      36.088  29.723  29.450  1.00  0.00     0.014 A 
ATOM     36  C   UNL A   1      38.097  29.801  27.514  1.00  0.00     0.010 A 
ATOM     37  C   UNL A   1      37.375  29.303  29.771  1.00  0.00     0.010 A 
ATOM     38  C   UNL A   1      38.392  29.330  28.805  1.00  0.00    -0.014 A 
BRANCH  38  39
ATOM     39  C   UNL A   1      39.750  28.844  29.157  1.00  0.00     0.031 A 
ATOM     40  C   UNL A   1      40.704  29.743  29.896  1.00  0.00     0.074 A 
ATOM     41  C   UNL A   1      40.145  27.614  28.770  1.00  0.00     0.049 A 
ATOM     42  N   UNL A   1      41.951  29.527  30.232  1.00  0.00    -0.248 NA
ATOM     43  C   UNL A   1      40.197  31.069  30.292  1.00  0.00     0.031 C 
ATOM     44  C   UNL A   1      39.330  26.655  28.021  1.00  0.00     0.029 A 
ATOM     45  N   UNL A   1      41.340  26.964  28.949  1.00  0.00    -0.354 N 
ATOM     46  C   UNL A   1      42.377  30.687  30.868  1.00  0.00     0.074 A 
ATOM     47  C   UNL A   1      41.278  31.625  30.819  1.00  0.00     0.031 C 
ATOM     48  C   UNL A   1      40.041  25.532  27.825  1.00  0.00     0.029 A 
ATOM     49  C   UNL A   1      41.374  25.707  28.394  1.00  0.00     0.049 A 
ATOM     50  H   UNL A   1      42.104  27.359  29.430  1.00  0.00     0.167 HD
ATOM     51  C   UNL A   1      43.567  30.941  31.462  1.00  0.00     0.031 A 
ATOM     52  C   UNL A   1      42.369  24.801  28.337  1.00  0.00     0.031 A 
ATOM     53  C   UNL A   1      44.659  30.009  31.518  1.00  0.00     0.049 A 
ATOM     54  C   UNL A   1      43.693  25.125  28.976  1.00  0.00     0.074 A 
ATOM     55  C   UNL A   1      45.894  30.165  32.124  1.00  0.00     0.029 A 
ATOM     56  N   UNL A   1      44.647  28.746  30.950  1.00  0.00    -0.354 N 
ATOM     57  N   UNL A   1      44.059  26.207  29.621  1.00  0.00    -0.248 NA
ATOM     58  C   UNL A   1      44.738  24.094  28.892  1.00  0.00     0.031 C 
ATOM     59  C   UNL A   1      46.648  29.013  31.881  1.00  0.00     0.029 A 
ATOM     60  C   UNL A   1      45.859  28.116  31.179  1.00  0.00     0.049 A 
ATOM     61  H   UNL A   1      43.891  28.353  30.458  1.00  0.00     0.167 HD
ATOM     62  C   UNL A   1      45.359  25.970  30.050  1.00  0.00     0.074 A 
ATOM     63  C   UNL A   1      45.711  24.637  29.608  1.00  0.00     0.031 C 
ATOM     64  C   UNL A   1      46.189  26.783  30.746  1.00  0.00     0.031 A 
BRANCH  51  65
ATOM     65  C   UNL A   1      43.747  32.285  32.112  1.00  0.00    -0.014 A 
ATOM     66  C   UNL A   1      44.309  33.361  31.406  1.00  0.00     0.009 A 
ATOM     67  C   UNL A   1      43.295  32.497  33.425  1.00  0.00     0.009 A 
ATOM     68  C   UNL A   1      44.440  34.613  32.010  1.00  0.00     0.001 A 
ATOM     69  C   UNL A   1      43.401  33.758  34.015  1.00  0.00     0.001 A 
ATOM     70  C   UNL A   1      43.979  34.812  33.310  1.00  0.00     0.000 A 
ENDBRANCH  51  65
BRANCH  52  71
ATOM     71  C   UNL A   1      42.167  23.498  27.648  1.00  0.00    -0.014 A 
ATOM     72  C   UNL A   1      41.626  22.399  28.334  1.00  0.00     0.009 A 
ATOM     73  C   UNL A   1      42.562  23.331  26.311  1.00  0.00     0.009 A 
ATOM     74  C   UNL A   1      41.525  21.153  27.711  1.00  0.00     0.001 A 
ATOM     75  C   UNL A   1      42.427  22.093  25.679  1.00  0.00     0.001 A 
ATOM     76  C   UNL A   1      41.924  21.001  26.384  1.00  0.00     0.000 A 
ENDBRANCH  52  71
BRANCH  64  77
ATOM     77  C   UNL A   1      47.536  26.235  31.127  1.00  0.00    -0.014 A 
ATOM     78  C   UNL A   1      48.621  26.272  30.238  1.00  0.00     0.009 A 
ATOM     79  C   UNL A   1      47.728  25.710  32.415  1.00  0.00     0.009 A 
ATOM     80  C   UNL A   1      49.862  25.757  30.620  1.00  0.00     0.001 A 
ATOM     81  C   UNL A   1      48.978  25.227  32.805  1.00  0.00     0.001 A 
ATOM     82  C   UNL A   1      50.041  25.241  31.904  1.00  0.00     0.000 A 
ENDBRANCH  64  77
ENDBRANCH  38  39
ENDBRANCH  30  33
ENDBRANCH  28  29
ENDBRANCH  27  28
ENDBRANCH  26  27
ENDBRANCH   1  26
TORSDOF 16
ENDMDL
MODEL 3
REMARK VINA RESULT:     -10.7      5.246      8.646
REMARK SMILES O=C(Cc1cccc(Oc2ncnc3c2CCCC3)c1)NCCCCCCNC(=O)c1ccc(-c2c3nc(c(-c4ccccc4)c4ccc([nH]4)c(-c4ccccc4)c4nc(c(-c5ccccc5)c5ccc2[nH]5)C=C4)C=C3)cc1
REMARK SMILES IDX 24 1 23 2 22 3 21 4 1 5 2 6 3 8 4 9 5 10 20 11 6 12 8 13
REMARK SMILES IDX 7 14 9 15 10 16 11 17 15 18 12 19 14 20 16 21 13 22 19 23
REMARK SMILES IDX 17 24 18 25 25 26 26 27 27 28 28 29 29 30 30 32 31 33 32 34
REMARK SMILES IDX 78 35 33 36 77 37 34 38 35 39 36 40 71 41 37 42 76 43 70 44
REMARK SMILES IDX 72 45 38 46 75 47 69 48 68 49 39 51 61 52 46 53 60 54 47 55
REMARK SMILES IDX 50 56 59 57 73 58 48 59 49 60 58 62 74 63 51 64 40 65 41 66
REMARK SMILES IDX 45 67 42 68 44 69 43 70 62 71 63 72 67 73 64 74 66 75 65 76
REMARK SMILES IDX 52 77 53 78 57 79 54 80 56 81 55 82
REMARK H PARENT 21 7 28 31 72 50 50 61
REMARK Flexibility Score: inf
ROOT
ATOM      1  C   UNL A   1      34.356  35.762  33.874  1.00  0.00     0.002 C 
ENDROOT
BRANCH   1   2
ATOM      2  C   UNL A   1      35.580  34.890  33.551  1.00  0.00     0.021 C 
BRANCH   2   3
ATOM      3  C   UNL A   1      35.956  33.890  34.644  1.00  0.00     0.116 C 
BRANCH   3   4
ATOM      4  N   UNL A   1      36.863  32.896  34.124  1.00  0.00    -0.356 N 
ATOM      5  O   UNL A   1      37.453  31.933  36.125  1.00  0.00    -0.275 OA
ATOM      6  C   UNL A   1      37.520  31.971  34.903  1.00  0.00     0.224 C 
ATOM      7  H   UNL A   1      37.021  32.876  33.153  1.00  0.00     0.163 HD
BRANCH   6   8
ATOM      8  C   UNL A   1      38.348  31.001  34.077  1.00  0.00     0.135 C 
BRANCH   8   9
ATOM      9  C   UNL A   1      39.725  30.756  34.650  1.00  0.00    -0.035 A 
ATOM     10  C   UNL A   1      40.330  31.637  35.557  1.00  0.00     0.004 A 
ATOM     11  C   UNL A   1      40.422  29.601  34.270  1.00  0.00     0.051 A 
ATOM     12  C   UNL A   1      41.616  31.391  36.037  1.00  0.00     0.004 A 
ATOM     13  C   UNL A   1      41.710  29.344  34.753  1.00  0.00     0.129 A 
ATOM     14  C   UNL A   1      42.306  30.252  35.631  1.00  0.00     0.047 A 
BRANCH  13  15
ATOM     15  O   UNL A   1      42.476  28.242  34.438  1.00  0.00    -0.439 OA
BRANCH  15  16
ATOM     16  C   UNL A   1      42.262  27.090  35.171  1.00  0.00     0.225 A 
ATOM     17  N   UNL A   1      41.450  27.192  36.240  1.00  0.00    -0.201 NA
ATOM     18  C   UNL A   1      42.849  25.913  34.741  1.00  0.00     0.036 A 
ATOM     19  C   UNL A   1      41.274  26.064  36.931  1.00  0.00     0.226 A 
ATOM     20  C   UNL A   1      42.565  24.803  35.520  1.00  0.00     0.051 A 
ATOM     21  C   UNL A   1      43.670  25.836  33.487  1.00  0.00     0.043 C 
ATOM     22  N   UNL A   1      41.800  24.869  36.632  1.00  0.00    -0.241 NA
ATOM     23  C   UNL A   1      43.146  23.452  35.194  1.00  0.00     0.057 C 
ATOM     24  C   UNL A   1      44.463  24.535  33.363  1.00  0.00     0.005 C 
ATOM     25  C   UNL A   1      43.596  23.338  33.740  1.00  0.00     0.007 C 
ENDBRANCH  15  16
ENDBRANCH  13  15
ENDBRANCH   8   9
ENDBRANCH   6   8
ENDBRANCH   3   4
ENDBRANCH   2   3
ENDBRANCH   1   2
BRANCH   1  26
ATOM     26  C   UNL A   1      34.195  37.009  32.999  1.00  0.00     0.002 C 
BRANCH  26  27
ATOM     27  C   UNL A   1      33.584  36.747  31.622  1.00  0.00     0.021 C 
BRANCH  27  28
ATOM     28  C   UNL A   1      32.778  35.457  31.521  1.00  0.00     0.116 C 
BRANCH  28  29
ATOM     29  N   UNL A   1      32.435  35.120  30.148  1.00  0.00    -0.352 N 
ATOM     30  C   UNL A   1      33.213  34.518  29.191  1.00  0.00     0.251 C 
ATOM     31  H   UNL A   1      31.521  35.356  29.867  1.00  0.00     0.163 HD
ATOM     32  O   UNL A   1      32.826  34.449  28.027  1.00  0.00    -0.269 OA
BRANCH  30  33
ATOM     33  C   UNL A   1      34.536  33.975  29.563  1.00  0.00     0.039 A 
ATOM     34  C   UNL A   1      34.607  32.968  30.529  1.00  0.00     0.014 A 
ATOM     35  C   UNL A   1      35.701  34.448  28.954  1.00  0.00     0.014 A 
ATOM     36  C   UNL A   1      35.842  32.396  30.841  1.00  0.00     0.010 A 
ATOM     37  C   UNL A   1      36.919  33.824  29.208  1.00  0.00     0.010 A 
ATOM     38  C   UNL A   1      37.004  32.797  30.160  1.00  0.00    -0.014 A 
BRANCH  38  39
ATOM     39  C   UNL A   1      38.319  32.168  30.442  1.00  0.00     0.031 A 
ATOM     40  C   UNL A   1      39.324  32.879  31.307  1.00  0.00     0.074 A 
ATOM     41  C   UNL A   1      38.631  30.982  29.881  1.00  0.00     0.049 A 
ATOM     42  N   UNL A   1      40.548  32.527  31.612  1.00  0.00    -0.248 NA
ATOM     43  C   UNL A   1      38.908  34.167  31.890  1.00  0.00     0.031 C 
ATOM     44  C   UNL A   1      37.760  30.203  28.998  1.00  0.00     0.029 A 
ATOM     45  N   UNL A   1      39.774  30.228  29.967  1.00  0.00    -0.354 N 
ATOM     46  C   UNL A   1      41.047  33.548  32.412  1.00  0.00     0.074 A 
ATOM     47  C   UNL A   1      40.018  34.561  32.497  1.00  0.00     0.031 C 
ATOM     48  C   UNL A   1      38.392  29.073  28.643  1.00  0.00     0.029 A 
ATOM     49  C   UNL A   1      39.726  29.065  29.235  1.00  0.00     0.049 A 
ATOM     50  H   UNL A   1      40.557  30.493  30.503  1.00  0.00     0.167 HD
ATOM     51  C   UNL A   1      42.243  33.627  33.041  1.00  0.00     0.031 A 
ATOM     52  C   UNL A   1      40.655  28.108  29.050  1.00  0.00     0.031 A 
ATOM     53  C   UNL A   1      43.266  32.619  32.963  1.00  0.00     0.049 A 
ATOM     54  C   UNL A   1      41.989  28.239  29.734  1.00  0.00     0.074 A 
ATOM     55  C   UNL A   1      44.500  32.596  33.590  1.00  0.00     0.029 A 
ATOM     56  N   UNL A   1      43.171  31.456  32.217  1.00  0.00    -0.354 N 
ATOM     57  N   UNL A   1      42.422  29.186  30.531  1.00  0.00    -0.248 NA
ATOM     58  C   UNL A   1      42.959  27.158  29.504  1.00  0.00     0.031 C 
ATOM     59  C   UNL A   1      45.173  31.440  33.184  1.00  0.00     0.029 A 
ATOM     60  C   UNL A   1      44.333  30.714  32.356  1.00  0.00     0.049 A 
ATOM     61  H   UNL A   1      42.396  31.195  31.671  1.00  0.00     0.167 HD
ATOM     62  C   UNL A   1      43.696  28.796  30.924  1.00  0.00     0.074 A 
ATOM     63  C   UNL A   1      43.959  27.520  30.294  1.00  0.00     0.031 C 
ATOM     64  C   UNL A   1      44.572  29.438  31.734  1.00  0.00     0.031 A 
BRANCH  51  65
ATOM     65  C   UNL A   1      42.510  34.845  33.880  1.00  0.00    -0.014 A 
ATOM     66  C   UNL A   1      43.068  36.004  33.317  1.00  0.00     0.009 A 
ATOM     67  C   UNL A   1      42.145  34.858  35.236  1.00  0.00     0.009 A 
ATOM     68  C   UNL A   1      43.280  37.141  34.099  1.00  0.00     0.001 A 
ATOM     69  C   UNL A   1      42.330  36.006  36.008  1.00  0.00     0.001 A 
ATOM     70  C   UNL A   1      42.903  37.143  35.442  1.00  0.00     0.000 A 
ENDBRANCH  51  65
BRANCH  52  71
ATOM     71  C   UNL A   1      40.370  26.937  28.177  1.00  0.00    -0.014 A 
ATOM     72  C   UNL A   1      39.680  25.821  28.677  1.00  0.00     0.009 A 
ATOM     73  C   UNL A   1      40.831  26.909  26.851  1.00  0.00     0.009 A 
ATOM     74  C   UNL A   1      39.498  24.686  27.882  1.00  0.00     0.001 A 
ATOM     75  C   UNL A   1      40.616  25.786  26.048  1.00  0.00     0.001 A 
ATOM     76  C   UNL A   1      39.964  24.670  26.569  1.00  0.00     0.000 A 
ENDBRANCH  52  71
BRANCH  64  77
ATOM     77  C   UNL A   1      45.872  28.744  32.036  1.00  0.00    -0.014 A 
ATOM     78  C   UNL A   1      46.945  28.770  31.132  1.00  0.00     0.009 A 
ATOM     79  C   UNL A   1      46.034  28.086  33.266  1.00  0.00     0.009 A 
ATOM     80  C   UNL A   1      48.141  28.119  31.439  1.00  0.00     0.001 A 
ATOM     81  C   UNL A   1      47.243  27.465  33.584  1.00  0.00     0.001 A 
ATOM     82  C   UNL A   1      48.291  27.472  32.667  1.00  0.00     0.000 A 
ENDBRANCH  64  77
ENDBRANCH  38  39
ENDBRANCH  30  33
ENDBRANCH  28  29
ENDBRANCH  27  28
ENDBRANCH  26  27
ENDBRANCH   1  26
TORSDOF 16
ENDMDL
