MODEL 1
REMARK VINA RESULT:     -10.9      0.000      0.000
REMARK SMILES CCC[N@@H+]1CC2(CCN(C(=O)Cn3nnnc3C)CC2)C[C@H]1C(=O)NCCCCCCNC(=O)c1ccc(-c2c3nc(c(-c4ccccc4)c4ccc([nH]4)c(-c4ccccc4)c4nc(c(-c5ccccc5)c5ccc2[nH]5)C=C4)C=C3)cc1
REMARK SMILES IDX 28 1 27 2 26 3 25 4 23 5 24 6 22 8 4 9 5 10 6 12 21 13 7 14
REMARK SMILES IDX 20 15 8 16 19 17 9 18 10 19 11 20 3 21 2 22 1 23 12 24 13 25
REMARK SMILES IDX 14 26 17 27 15 28 16 29 18 30 29 31 30 32 31 33 32 34 33 35
REMARK SMILES IDX 34 37 35 38 36 39 82 40 37 41 81 42 38 43 39 44 40 45 75 46
REMARK SMILES IDX 41 47 80 48 74 49 76 50 42 51 79 52 73 53 72 54 43 56 65 57
REMARK SMILES IDX 50 58 64 59 51 60 54 61 63 62 77 63 52 64 53 65 62 67 78 68
REMARK SMILES IDX 55 69 44 70 45 71 49 72 46 73 48 74 47 75 66 76 67 77 71 78
REMARK SMILES IDX 68 79 70 80 69 81 56 82 57 83 61 84 58 85 60 86 59 87
REMARK H PARENT 25 7 4 11 32 36 76 55 54 66
REMARK Flexibility Score: inf
ROOT
ATOM      1  C   UNL A   1      34.040  33.451  28.885  1.00  0.00     0.002 C 
ENDROOT
BRANCH   1   2
ATOM      2  C   UNL A   1      34.372  31.959  28.810  1.00  0.00     0.021 C 
BRANCH   2   3
ATOM      3  C   UNL A   1      33.704  31.223  27.656  1.00  0.00     0.116 C 
BRANCH   3   4
ATOM      4  N   UNL A   1      34.459  30.135  27.101  1.00  0.00    -0.351 N 
ATOM      5  C   UNL A   1      34.138  29.088  26.297  1.00  0.00     0.278 C 
ATOM      6  O   UNL A   1      35.123  28.449  25.890  1.00  0.00    -0.268 OA
ATOM      7  H   UNL A   1      35.410  30.151  27.357  1.00  0.00     0.163 HD
BRANCH   5   8
ATOM      8  C   UNL A   1      32.718  28.625  25.833  1.00  0.00     0.274 C 
ATOM      9  N   UNL A   1      32.589  28.462  24.369  1.00  0.00    -0.324 N 
ATOM     10  C   UNL A   1      32.636  27.001  24.119  1.00  0.00     0.270 C 
ATOM     11  H   UNL A   1      33.332  28.984  23.902  1.00  0.00     0.348 HD
ATOM     12  C   UNL A   1      32.225  26.259  25.431  1.00  0.00     0.029 C 
ATOM     13  C   UNL A   1      32.051  27.398  26.448  1.00  0.00     0.088 C 
ATOM     14  C   UNL A   1      33.180  25.246  26.097  1.00  0.00     0.034 C 
ATOM     15  C   UNL A   1      30.971  25.409  25.120  1.00  0.00     0.034 C 
ATOM     16  C   UNL A   1      33.605  24.160  25.146  1.00  0.00     0.120 C 
ATOM     17  C   UNL A   1      31.315  24.246  24.157  1.00  0.00     0.120 C 
ATOM     18  N   UNL A   1      32.487  23.444  24.553  1.00  0.00    -0.341 N 
ATOM     19  C   UNL A   1      32.612  22.169  23.982  1.00  0.00     0.244 C 
ATOM     20  O   UNL A   1      31.787  21.762  23.160  1.00  0.00    -0.273 OA
BRANCH   9  21
ATOM     21  C   UNL A   1      31.293  28.983  23.847  1.00  0.00     0.262 C 
BRANCH  21  22
ATOM     22  C   UNL A   1      30.476  28.154  22.841  1.00  0.00     0.058 C 
ATOM     23  C   UNL A   1      29.028  27.927  23.236  1.00  0.00     0.010 C 
ENDBRANCH  21  22
ENDBRANCH   9  21
BRANCH  19  24
ATOM     24  C   UNL A   1      33.757  21.268  24.403  1.00  0.00     0.248 C 
BRANCH  24  25
ATOM     25  N   UNL A   1      33.390  19.876  24.569  1.00  0.00    -0.220 N 
ATOM     26  N   UNL A   1      32.115  19.581  24.890  1.00  0.00    -0.044 NA
ATOM     27  C   UNL A   1      34.154  18.743  24.715  1.00  0.00     0.148 A 
ATOM     28  N   UNL A   1      32.104  18.289  25.175  1.00  0.00    -0.024 NA
ATOM     29  N   UNL A   1      33.359  17.758  25.078  1.00  0.00    -0.114 NA
ATOM     30  C   UNL A   1      35.612  18.633  24.559  1.00  0.00     0.091 C 
ENDBRANCH  24  25
ENDBRANCH  19  24
ENDBRANCH   5   8
ENDBRANCH   3   4
ENDBRANCH   2   3
ENDBRANCH   1   2
BRANCH   1  31
ATOM     31  C   UNL A   1      34.348  34.163  30.218  1.00  0.00     0.002 C 
BRANCH  31  32
ATOM     32  C   UNL A   1      34.930  33.313  31.359  1.00  0.00     0.021 C 
BRANCH  32  33
ATOM     33  C   UNL A   1      36.435  33.445  31.528  1.00  0.00     0.116 C 
BRANCH  33  34
ATOM     34  N   UNL A   1      37.083  34.171  30.425  1.00  0.00    -0.352 N 
ATOM     35  C   UNL A   1      38.272  33.881  29.757  1.00  0.00     0.251 C 
ATOM     36  H   UNL A   1      36.610  34.976  30.114  1.00  0.00     0.163 HD
ATOM     37  O   UNL A   1      38.873  34.736  29.133  1.00  0.00    -0.269 OA
BRANCH  35  38
ATOM     38  C   UNL A   1      38.771  32.493  29.794  1.00  0.00     0.039 A 
ATOM     39  C   UNL A   1      38.102  31.386  29.261  1.00  0.00     0.014 A 
ATOM     40  C   UNL A   1      40.024  32.337  30.344  1.00  0.00     0.014 A 
ATOM     41  C   UNL A   1      38.742  30.144  29.322  1.00  0.00     0.010 A 
ATOM     42  C   UNL A   1      40.765  31.296  29.902  1.00  0.00     0.010 A 
ATOM     43  C   UNL A   1      40.090  30.119  29.695  1.00  0.00    -0.014 A 
BRANCH  43  44
ATOM     44  C   UNL A   1      40.917  28.932  29.822  1.00  0.00     0.031 A 
ATOM     45  C   UNL A   1      41.304  28.644  31.212  1.00  0.00     0.074 A 
ATOM     46  C   UNL A   1      41.066  28.036  28.815  1.00  0.00     0.049 A 
ATOM     47  N   UNL A   1      42.456  28.850  31.749  1.00  0.00    -0.248 NA
ATOM     48  C   UNL A   1      40.250  28.259  32.162  1.00  0.00     0.031 C 
ATOM     49  C   UNL A   1      40.443  28.036  27.478  1.00  0.00     0.029 A 
ATOM     50  N   UNL A   1      41.749  26.858  28.811  1.00  0.00    -0.354 N 
ATOM     51  C   UNL A   1      42.338  28.394  33.054  1.00  0.00     0.074 A 
ATOM     52  C   UNL A   1      40.926  28.267  33.311  1.00  0.00     0.031 C 
ATOM     53  C   UNL A   1      40.610  26.828  26.887  1.00  0.00     0.029 A 
ATOM     54  C   UNL A   1      41.499  26.036  27.715  1.00  0.00     0.049 A 
ATOM     55  H   UNL A   1      42.372  26.605  29.530  1.00  0.00     0.167 HD
ATOM     56  C   UNL A   1      43.409  27.852  33.695  1.00  0.00     0.031 A 
ATOM     57  C   UNL A   1      42.008  24.799  27.499  1.00  0.00     0.031 A 
ATOM     58  C   UNL A   1      44.621  28.059  32.938  1.00  0.00     0.049 A 
ATOM     59  C   UNL A   1      43.233  24.695  28.319  1.00  0.00     0.074 A 
ATOM     60  C   UNL A   1      45.407  29.138  32.596  1.00  0.00     0.029 A 
ATOM     61  N   UNL A   1      44.903  27.052  32.048  1.00  0.00    -0.354 N 
ATOM     62  N   UNL A   1      44.289  25.426  28.108  1.00  0.00    -0.248 NA
ATOM     63  C   UNL A   1      43.152  24.080  29.635  1.00  0.00     0.031 C 
ATOM     64  C   UNL A   1      45.913  28.840  31.293  1.00  0.00     0.029 A 
ATOM     65  C   UNL A   1      45.471  27.570  30.915  1.00  0.00     0.049 A 
ATOM     66  H   UNL A   1      44.723  26.096  32.203  1.00  0.00     0.167 HD
ATOM     67  C   UNL A   1      44.760  25.729  29.374  1.00  0.00     0.074 A 
ATOM     68  C   UNL A   1      44.134  24.745  30.253  1.00  0.00     0.031 C 
ATOM     69  C   UNL A   1      45.370  26.926  29.621  1.00  0.00     0.031 A 
BRANCH  56  70
ATOM     70  C   UNL A   1      43.306  26.717  34.684  1.00  0.00    -0.014 A 
ATOM     71  C   UNL A   1      43.900  26.879  35.947  1.00  0.00     0.009 A 
ATOM     72  C   UNL A   1      42.917  25.410  34.333  1.00  0.00     0.009 A 
ATOM     73  C   UNL A   1      44.151  25.784  36.783  1.00  0.00     0.001 A 
ATOM     74  C   UNL A   1      43.133  24.318  35.179  1.00  0.00     0.001 A 
ATOM     75  C   UNL A   1      43.774  24.503  36.393  1.00  0.00     0.000 A 
ENDBRANCH  56  70
BRANCH  57  76
ATOM     76  C   UNL A   1      41.403  23.621  26.841  1.00  0.00    -0.014 A 
ATOM     77  C   UNL A   1      42.171  22.489  26.515  1.00  0.00     0.009 A 
ATOM     78  C   UNL A   1      40.003  23.489  26.820  1.00  0.00     0.009 A 
ATOM     79  C   UNL A   1      41.557  21.262  26.222  1.00  0.00     0.001 A 
ATOM     80  C   UNL A   1      39.391  22.262  26.536  1.00  0.00     0.001 A 
ATOM     81  C   UNL A   1      40.169  21.144  26.252  1.00  0.00     0.000 A 
ENDBRANCH  57  76
BRANCH  69  82
ATOM     82  C   UNL A   1      45.806  27.732  28.421  1.00  0.00    -0.014 A 
ATOM     83  C   UNL A   1      44.978  28.661  27.765  1.00  0.00     0.009 A 
ATOM     84  C   UNL A   1      47.140  27.624  28.008  1.00  0.00     0.009 A 
ATOM     85  C   UNL A   1      45.469  29.440  26.710  1.00  0.00     0.001 A 
ATOM     86  C   UNL A   1      47.635  28.414  26.968  1.00  0.00     0.001 A 
ATOM     87  C   UNL A   1      46.800  29.318  26.317  1.00  0.00     0.000 A 
ENDBRANCH  69  82
ENDBRANCH  43  44
ENDBRANCH  35  38
ENDBRANCH  33  34
ENDBRANCH  32  33
ENDBRANCH  31  32
ENDBRANCH   1  31
TORSDOF 17
ENDMDL
MODEL 2
REMARK VINA RESULT:     -10.8      5.516     10.313
REMARK SMILES CCC[N@@H+]1CC2(CCN(C(=O)Cn3nnnc3C)CC2)C[C@H]1C(=O)NCCCCCCNC(=O)c1ccc(-c2c3nc(c(-c4ccccc4)c4ccc([nH]4)c(-c4ccccc4)c4nc(c(-c5ccccc5)c5ccc2[nH]5)C=C4)C=C3)cc1
REMARK SMILES IDX 28 1 27 2 26 3 25 4 23 5 24 6 22 8 4 9 5 10 6 12 21 13 7 14
REMARK SMILES IDX 20 15 8 16 19 17 9 18 10 19 11 20 3 21 2 22 1 23 12 24 13 25
REMARK SMILES IDX 14 26 17 27 15 28 16 29 18 30 29 31 30 32 31 33 32 34 33 35
REMARK SMILES IDX 34 37 35 38 36 39 82 40 37 41 81 42 38 43 39 44 40 45 75 46
REMARK SMILES IDX 41 47 80 48 74 49 76 50 42 51 79 52 73 53 72 54 43 56 65 57
REMARK SMILES IDX 50 58 64 59 51 60 54 61 63 62 77 63 52 64 53 65 62 67 78 68
REMARK SMILES IDX 55 69 44 70 45 71 49 72 46 73 48 74 47 75 66 76 67 77 71 78
REMARK SMILES IDX 68 79 70 80 69 81 56 82 57 83 61 84 58 85 60 86 59 87
REMARK H PARENT 25 7 4 11 32 36 76 55 54 66
REMARK Flexibility Score: inf
ROOT
ATOM      1  C   UNL A   1      44.132  30.658  26.776  1.00  0.00     0.002 C 
ENDROOT
BRANCH   1   2
ATOM      2  C   UNL A   1      43.230  29.852  27.714  1.00  0.00     0.021 C 
BRANCH   2   3
ATOM      3  C   UNL A   1      42.121  29.080  27.010  1.00  0.00     0.116 C 
BRANCH   3   4
ATOM      4  N   UNL A   1      41.988  27.703  27.398  1.00  0.00    -0.351 N 
ATOM      5  C   UNL A   1      42.823  26.633  27.345  1.00  0.00     0.278 C 
ATOM      6  O   UNL A   1      42.394  25.634  27.948  1.00  0.00    -0.268 OA
ATOM      7  H   UNL A   1      41.108  27.492  27.784  1.00  0.00     0.163 HD
BRANCH   5   8
ATOM      8  C   UNL A   1      44.218  26.528  26.648  1.00  0.00     0.274 C 
ATOM      9  N   UNL A   1      45.243  25.835  27.458  1.00  0.00    -0.324 N 
ATOM     10  C   UNL A   1      45.370  24.477  26.874  1.00  0.00     0.270 C 
ATOM     11  H   UNL A   1      44.961  25.836  28.438  1.00  0.00     0.348 HD
ATOM     12  C   UNL A   1      44.862  24.522  25.396  1.00  0.00     0.029 C 
ATOM     13  C   UNL A   1      44.352  25.963  25.237  1.00  0.00     0.088 C 
ATOM     14  C   UNL A   1      43.705  23.614  24.931  1.00  0.00     0.034 C 
ATOM     15  C   UNL A   1      46.035  24.095  24.481  1.00  0.00     0.034 C 
ATOM     16  C   UNL A   1      43.978  22.161  25.211  1.00  0.00     0.120 C 
ATOM     17  C   UNL A   1      46.379  22.599  24.684  1.00  0.00     0.120 C 
ATOM     18  N   UNL A   1      45.223  21.687  24.624  1.00  0.00    -0.341 N 
ATOM     19  C   UNL A   1      45.490  20.330  24.393  1.00  0.00     0.244 C 
ATOM     20  O   UNL A   1      46.650  19.926  24.278  1.00  0.00    -0.273 OA
BRANCH   9  21
ATOM     21  C   UNL A   1      46.577  26.499  27.385  1.00  0.00     0.262 C 
BRANCH  21  22
ATOM     22  C   UNL A   1      47.822  25.690  26.982  1.00  0.00     0.058 C 
ATOM     23  C   UNL A   1      48.868  26.478  26.215  1.00  0.00     0.010 C 
ENDBRANCH  21  22
ENDBRANCH   9  21
BRANCH  19  24
ATOM     24  C   UNL A   1      44.339  19.353  24.249  1.00  0.00     0.248 C 
BRANCH  24  25
ATOM     25  N   UNL A   1      43.915  18.743  25.494  1.00  0.00    -0.220 N 
ATOM     26  N   UNL A   1      44.690  17.782  26.035  1.00  0.00    -0.044 NA
ATOM     27  C   UNL A   1      42.710  18.761  26.154  1.00  0.00     0.148 A 
ATOM     28  N   UNL A   1      43.984  17.268  27.029  1.00  0.00    -0.024 NA
ATOM     29  N   UNL A   1      42.754  17.858  27.111  1.00  0.00    -0.114 NA
ATOM     30  C   UNL A   1      41.538  19.589  25.833  1.00  0.00     0.091 C 
ENDBRANCH  24  25
ENDBRANCH  19  24
ENDBRANCH   5   8
ENDBRANCH   3   4
ENDBRANCH   2   3
ENDBRANCH   1   2
BRANCH   1  31
ATOM     31  C   UNL A   1      43.917  32.186  26.751  1.00  0.00     0.002 C 
BRANCH  31  32
ATOM     32  C   UNL A   1      44.687  32.994  25.694  1.00  0.00     0.021 C 
BRANCH  32  33
ATOM     33  C   UNL A   1      44.052  34.332  25.351  1.00  0.00     0.116 C 
BRANCH  33  34
ATOM     34  N   UNL A   1      44.722  35.476  25.988  1.00  0.00    -0.352 N 
ATOM     35  C   UNL A   1      44.419  36.120  27.186  1.00  0.00     0.251 C 
ATOM     36  H   UNL A   1      45.494  35.839  25.497  1.00  0.00     0.163 HD
ATOM     37  O   UNL A   1      44.805  37.251  27.413  1.00  0.00    -0.269 OA
BRANCH  35  38
ATOM     38  C   UNL A   1      43.642  35.378  28.199  1.00  0.00     0.039 A 
ATOM     39  C   UNL A   1      44.192  34.549  29.181  1.00  0.00     0.014 A 
ATOM     40  C   UNL A   1      42.284  35.606  28.176  1.00  0.00     0.014 A 
ATOM     41  C   UNL A   1      43.321  33.967  30.108  1.00  0.00     0.010 A 
ATOM     42  C   UNL A   1      41.618  35.474  29.345  1.00  0.00     0.010 A 
ATOM     43  C   UNL A   1      42.000  34.425  30.143  1.00  0.00    -0.014 A 
BRANCH  43  44
ATOM     44  C   UNL A   1      40.953  33.940  31.024  1.00  0.00     0.031 A 
ATOM     45  C   UNL A   1      41.348  33.938  32.442  1.00  0.00     0.074 A 
ATOM     46  C   UNL A   1      39.669  33.788  30.617  1.00  0.00     0.049 A 
ATOM     47  N   UNL A   1      41.676  32.913  33.149  1.00  0.00    -0.248 NA
ATOM     48  C   UNL A   1      41.585  35.232  33.100  1.00  0.00     0.031 C 
ATOM     49  C   UNL A   1      39.074  34.092  29.302  1.00  0.00     0.029 A 
ATOM     50  N   UNL A   1      38.579  33.411  31.343  1.00  0.00    -0.354 N 
ATOM     51  C   UNL A   1      41.934  33.412  34.418  1.00  0.00     0.074 A 
ATOM     52  C   UNL A   1      42.089  34.836  34.269  1.00  0.00     0.031 C 
ATOM     53  C   UNL A   1      37.722  34.084  29.390  1.00  0.00     0.029 A 
ATOM     54  C   UNL A   1      37.355  33.601  30.707  1.00  0.00     0.049 A 
ATOM     55  H   UNL A   1      38.652  33.033  32.248  1.00  0.00     0.167 HD
ATOM     56  C   UNL A   1      41.673  32.658  35.521  1.00  0.00     0.031 A 
ATOM     57  C   UNL A   1      36.127  33.357  31.227  1.00  0.00     0.031 A 
ATOM     58  C   UNL A   1      41.362  31.297  35.152  1.00  0.00     0.049 A 
ATOM     59  C   UNL A   1      36.319  32.395  32.332  1.00  0.00     0.074 A 
ATOM     60  C   UNL A   1      42.049  30.229  34.619  1.00  0.00     0.029 A 
ATOM     61  N   UNL A   1      40.025  31.069  34.933  1.00  0.00    -0.354 N 
ATOM     62  N   UNL A   1      36.744  31.178  32.145  1.00  0.00    -0.248 NA
ATOM     63  C   UNL A   1      36.441  32.896  33.693  1.00  0.00     0.031 C 
ATOM     64  C   UNL A   1      41.102  29.537  33.803  1.00  0.00     0.029 A 
ATOM     65  C   UNL A   1      39.861  30.167  33.916  1.00  0.00     0.049 A 
ATOM     66  H   UNL A   1      39.291  31.493  35.435  1.00  0.00     0.167 HD
ATOM     67  C   UNL A   1      37.581  30.935  33.220  1.00  0.00     0.074 A 
ATOM     68  C   UNL A   1      37.222  31.944  34.213  1.00  0.00     0.031 C 
ATOM     69  C   UNL A   1      38.678  30.133  33.079  1.00  0.00     0.031 A 
BRANCH  56  70
ATOM     70  C   UNL A   1      41.186  33.230  36.830  1.00  0.00    -0.014 A 
ATOM     71  C   UNL A   1      40.092  34.112  36.803  1.00  0.00     0.009 A 
ATOM     72  C   UNL A   1      41.923  33.175  38.027  1.00  0.00     0.009 A 
ATOM     73  C   UNL A   1      39.796  34.942  37.892  1.00  0.00     0.001 A 
ATOM     74  C   UNL A   1      41.610  33.975  39.130  1.00  0.00     0.001 A 
ATOM     75  C   UNL A   1      40.561  34.877  39.052  1.00  0.00     0.000 A 
ENDBRANCH  56  70
BRANCH  57  76
ATOM     76  C   UNL A   1      34.844  34.060  31.015  1.00  0.00    -0.014 A 
ATOM     77  C   UNL A   1      34.396  35.052  31.904  1.00  0.00     0.009 A 
ATOM     78  C   UNL A   1      34.212  33.972  29.761  1.00  0.00     0.009 A 
ATOM     79  C   UNL A   1      33.383  35.949  31.532  1.00  0.00     0.001 A 
ATOM     80  C   UNL A   1      33.207  34.873  29.388  1.00  0.00     0.001 A 
ATOM     81  C   UNL A   1      32.803  35.871  30.268  1.00  0.00     0.000 A 
ENDBRANCH  57  76
BRANCH  69  82
ATOM     82  C   UNL A   1      38.745  29.275  31.838  1.00  0.00    -0.014 A 
ATOM     83  C   UNL A   1      39.144  29.758  30.579  1.00  0.00     0.009 A 
ATOM     84  C   UNL A   1      38.495  27.904  31.975  1.00  0.00     0.009 A 
ATOM     85  C   UNL A   1      39.267  28.892  29.485  1.00  0.00     0.001 A 
ATOM     86  C   UNL A   1      38.634  27.038  30.889  1.00  0.00     0.001 A 
ATOM     87  C   UNL A   1      39.016  27.532  29.644  1.00  0.00     0.000 A 
ENDBRANCH  69  82
ENDBRANCH  43  44
ENDBRANCH  35  38
ENDBRANCH  33  34
ENDBRANCH  32  33
ENDBRANCH  31  32
ENDBRANCH   1  31
TORSDOF 17
ENDMDL
MODEL 3
REMARK VINA RESULT:     -10.6      4.863     11.564
REMARK SMILES CCC[N@@H+]1CC2(CCN(C(=O)Cn3nnnc3C)CC2)C[C@H]1C(=O)NCCCCCCNC(=O)c1ccc(-c2c3nc(c(-c4ccccc4)c4ccc([nH]4)c(-c4ccccc4)c4nc(c(-c5ccccc5)c5ccc2[nH]5)C=C4)C=C3)cc1
REMARK SMILES IDX 28 1 27 2 26 3 25 4 23 5 24 6 22 8 4 9 5 10 6 12 21 13 7 14
REMARK SMILES IDX 20 15 8 16 19 17 9 18 10 19 11 20 3 21 2 22 1 23 12 24 13 25
REMARK SMILES IDX 14 26 17 27 15 28 16 29 18 30 29 31 30 32 31 33 32 34 33 35
REMARK SMILES IDX 34 37 35 38 36 39 82 40 37 41 81 42 38 43 39 44 40 45 75 46
REMARK SMILES IDX 41 47 80 48 74 49 76 50 42 51 79 52 73 53 72 54 43 56 65 57
REMARK SMILES IDX 50 58 64 59 51 60 54 61 63 62 77 63 52 64 53 65 62 67 78 68
REMARK SMILES IDX 55 69 44 70 45 71 49 72 46 73 48 74 47 75 66 76 67 77 71 78
REMARK SMILES IDX 68 79 70 80 69 81 56 82 57 83 61 84 58 85 60 86 59 87
REMARK H PARENT 25 7 4 11 32 36 76 55 54 66
REMARK Flexibility Score: inf
ROOT
ATOM      1  C   UNL A   1      49.533  28.064  30.025  1.00  0.00     0.002 C 
ENDROOT
BRANCH   1   2
ATOM      2  C   UNL A   1      51.002  28.365  29.717  1.00  0.00     0.021 C 
BRANCH   2   3
ATOM      3  C   UNL A   1      51.604  27.501  28.617  1.00  0.00     0.116 C 
BRANCH   3   4
ATOM      4  N   UNL A   1      51.045  26.184  28.494  1.00  0.00    -0.351 N 
ATOM      5  C   UNL A   1      50.050  25.659  27.733  1.00  0.00     0.278 C 
ATOM      6  O   UNL A   1      49.979  24.419  27.789  1.00  0.00    -0.268 OA
ATOM      7  H   UNL A   1      51.472  25.523  29.086  1.00  0.00     0.163 HD
BRANCH   5   8
ATOM      8  C   UNL A   1      49.033  26.412  26.815  1.00  0.00     0.274 C 
ATOM      9  N   UNL A   1      49.035  25.951  25.410  1.00  0.00    -0.324 N 
ATOM     10  C   UNL A   1      47.828  25.103  25.260  1.00  0.00     0.270 C 
ATOM     11  H   UNL A   1      49.909  25.462  25.215  1.00  0.00     0.348 HD
ATOM     12  C   UNL A   1      46.804  25.496  26.373  1.00  0.00     0.029 C 
ATOM     13  C   UNL A   1      47.564  26.539  27.208  1.00  0.00     0.088 C 
ATOM     14  C   UNL A   1      46.292  24.446  27.381  1.00  0.00     0.034 C 
ATOM     15  C   UNL A   1      45.509  25.975  25.675  1.00  0.00     0.034 C 
ATOM     16  C   UNL A   1      45.690  23.249  26.695  1.00  0.00     0.120 C 
ATOM     17  C   UNL A   1      44.802  24.801  24.953  1.00  0.00     0.120 C 
ATOM     18  N   UNL A   1      44.615  23.593  25.776  1.00  0.00    -0.341 N 
ATOM     19  C   UNL A   1      43.653  22.668  25.346  1.00  0.00     0.244 C 
ATOM     20  O   UNL A   1      43.019  22.856  24.304  1.00  0.00    -0.273 OA
BRANCH   9  21
ATOM     21  C   UNL A   1      48.937  27.078  24.437  1.00  0.00     0.262 C 
BRANCH  21  22
ATOM     22  C   UNL A   1      48.793  26.789  22.933  1.00  0.00     0.058 C 
ATOM     23  C   UNL A   1      50.011  27.144  22.101  1.00  0.00     0.010 C 
ENDBRANCH  21  22
ENDBRANCH   9  21
BRANCH  19  24
ATOM     24  C   UNL A   1      43.363  21.441  26.189  1.00  0.00     0.248 C 
BRANCH  24  25
ATOM     25  N   UNL A   1      43.602  20.183  25.511  1.00  0.00    -0.220 N 
ATOM     26  N   UNL A   1      42.614  19.267  25.489  1.00  0.00    -0.044 NA
ATOM     27  C   UNL A   1      44.762  19.591  25.071  1.00  0.00     0.148 A 
ATOM     28  N   UNL A   1      43.156  18.164  25.000  1.00  0.00    -0.024 NA
ATOM     29  N   UNL A   1      44.486  18.345  24.742  1.00  0.00    -0.114 NA
ATOM     30  C   UNL A   1      46.100  20.196  25.021  1.00  0.00     0.091 C 
ENDBRANCH  24  25
ENDBRANCH  19  24
ENDBRANCH   5   8
ENDBRANCH   3   4
ENDBRANCH   2   3
ENDBRANCH   1   2
BRANCH   1  31
ATOM     31  C   UNL A   1      49.240  27.315  31.341  1.00  0.00     0.002 C 
BRANCH  31  32
ATOM     32  C   UNL A   1      48.432  26.009  31.250  1.00  0.00     0.021 C 
BRANCH  32  33
ATOM     33  C   UNL A   1      46.976  26.207  30.863  1.00  0.00     0.116 C 
BRANCH  33  34
ATOM     34  N   UNL A   1      46.059  25.287  31.554  1.00  0.00    -0.352 N 
ATOM     35  C   UNL A   1      44.754  25.507  31.992  1.00  0.00     0.251 C 
ATOM     36  H   UNL A   1      46.419  24.389  31.733  1.00  0.00     0.163 HD
ATOM     37  O   UNL A   1      44.249  24.811  32.853  1.00  0.00    -0.269 OA
BRANCH  35  38
ATOM     38  C   UNL A   1      43.979  26.590  31.356  1.00  0.00     0.039 A 
ATOM     39  C   UNL A   1      43.446  26.542  30.064  1.00  0.00     0.014 A 
ATOM     40  C   UNL A   1      43.730  27.680  32.160  1.00  0.00     0.014 A 
ATOM     41  C   UNL A   1      42.680  27.629  29.632  1.00  0.00     0.010 A 
ATOM     42  C   UNL A   1      42.606  28.388  31.907  1.00  0.00     0.010 A 
ATOM     43  C   UNL A   1      42.300  28.582  30.583  1.00  0.00    -0.014 A 
BRANCH  43  44
ATOM     44  C   UNL A   1      41.516  29.776  30.327  1.00  0.00     0.031 A 
ATOM     45  C   UNL A   1      42.333  30.923  29.898  1.00  0.00     0.074 A 
ATOM     46  C   UNL A   1      40.165  29.752  30.213  1.00  0.00     0.049 A 
ATOM     47  N   UNL A   1      42.663  31.943  30.610  1.00  0.00    -0.248 NA
ATOM     48  C   UNL A   1      43.013  30.843  28.596  1.00  0.00     0.031 C 
ATOM     49  C   UNL A   1      39.253  28.593  30.278  1.00  0.00     0.029 A 
ATOM     50  N   UNL A   1      39.312  30.769  29.911  1.00  0.00    -0.354 N 
ATOM     51  C   UNL A   1      43.403  32.756  29.763  1.00  0.00     0.074 A 
ATOM     52  C   UNL A   1      43.776  31.936  28.639  1.00  0.00     0.031 C 
ATOM     53  C   UNL A   1      38.025  28.942  29.824  1.00  0.00     0.029 A 
ATOM     54  C   UNL A   1      38.010  30.376  29.610  1.00  0.00     0.049 A 
ATOM     55  H   UNL A   1      39.594  31.712  29.906  1.00  0.00     0.167 HD
ATOM     56  C   UNL A   1      43.366  34.110  29.900  1.00  0.00     0.031 A 
ATOM     57  C   UNL A   1      36.989  31.183  29.230  1.00  0.00     0.031 A 
ATOM     58  C   UNL A   1      42.696  34.485  31.123  1.00  0.00     0.049 A 
ATOM     59  C   UNL A   1      37.332  32.545  29.689  1.00  0.00     0.074 A 
ATOM     60  C   UNL A   1      42.956  34.383  32.472  1.00  0.00     0.029 A 
ATOM     61  N   UNL A   1      41.341  34.667  30.984  1.00  0.00    -0.354 N 
ATOM     62  N   UNL A   1      37.430  32.864  30.948  1.00  0.00    -0.248 NA
ATOM     63  C   UNL A   1      37.975  33.463  28.761  1.00  0.00     0.031 C 
ATOM     64  C   UNL A   1      41.684  34.188  33.091  1.00  0.00     0.029 A 
ATOM     65  C   UNL A   1      40.691  34.240  32.111  1.00  0.00     0.049 A 
ATOM     66  H   UNL A   1      40.902  35.050  30.190  1.00  0.00     0.167 HD
ATOM     67  C   UNL A   1      38.502  33.738  31.001  1.00  0.00     0.074 A 
ATOM     68  C   UNL A   1      38.681  34.198  29.627  1.00  0.00     0.031 C 
ATOM     69  C   UNL A   1      39.320  33.769  32.095  1.00  0.00     0.031 A 
BRANCH  56  70
ATOM     70  C   UNL A   1      43.442  35.071  28.739  1.00  0.00    -0.014 A 
ATOM     71  C   UNL A   1      43.606  36.439  29.019  1.00  0.00     0.009 A 
ATOM     72  C   UNL A   1      43.068  34.736  27.424  1.00  0.00     0.009 A 
ATOM     73  C   UNL A   1      43.346  37.418  28.052  1.00  0.00     0.001 A 
ATOM     74  C   UNL A   1      42.842  35.708  26.446  1.00  0.00     0.001 A 
ATOM     75  C   UNL A   1      42.956  37.051  26.768  1.00  0.00     0.000 A 
ENDBRANCH  56  70
BRANCH  57  76
ATOM     76  C   UNL A   1      35.868  30.929  28.301  1.00  0.00    -0.014 A 
ATOM     77  C   UNL A   1      35.726  29.694  27.644  1.00  0.00     0.009 A 
ATOM     78  C   UNL A   1      34.762  31.798  28.305  1.00  0.00     0.009 A 
ATOM     79  C   UNL A   1      34.507  29.329  27.052  1.00  0.00     0.001 A 
ATOM     80  C   UNL A   1      33.544  31.430  27.721  1.00  0.00     0.001 A 
ATOM     81  C   UNL A   1      33.411  30.188  27.108  1.00  0.00     0.000 A 
ENDBRANCH  57  76
BRANCH  69  82
ATOM     82  C   UNL A   1      38.820  33.083  33.344  1.00  0.00    -0.014 A 
ATOM     83  C   UNL A   1      38.017  33.715  34.311  1.00  0.00     0.009 A 
ATOM     84  C   UNL A   1      39.086  31.716  33.492  1.00  0.00     0.009 A 
ATOM     85  C   UNL A   1      37.514  32.999  35.405  1.00  0.00     0.001 A 
ATOM     86  C   UNL A   1      38.571  30.998  34.573  1.00  0.00     0.001 A 
ATOM     87  C   UNL A   1      37.789  31.640  35.531  1.00  0.00     0.000 A 
ENDBRANCH  69  82
ENDBRANCH  43  44
ENDBRANCH  35  38
ENDBRANCH  33  34
ENDBRANCH  32  33
ENDBRANCH  31  32
ENDBRANCH   1  31
TORSDOF 17
ENDMDL
