MODEL 1
REMARK VINA RESULT:     -12.0      0.000      0.000
REMARK SMILES C[C@@H]1C[C@H](C)C[C@H]([N@@H+]2[C@@H](C(=O)NCCCCCCNC(=O)c3ccc(-c4c5nc(c(-c6ccccc6)c6ccc([nH]6)c(-c6ccccc6)c6nc(c(-c7ccccc7)c7ccc4[nH]7)C=C6)C=C5)cc3)CC[C@@H]3CCCC[C@@H]32)C1
REMARK SMILES IDX 16 1 15 2 14 3 13 4 12 5 10 6 11 7 9 9 8 10 77 11 70 13
REMARK SMILES IDX 72 14 76 15 71 16 73 17 75 18 74 19 7 20 5 21 4 22 6 23 3 24
REMARK SMILES IDX 2 25 78 26 1 27 17 28 18 29 19 30 20 31 21 33 22 34 23 35
REMARK SMILES IDX 69 36 24 37 68 38 25 39 26 40 27 41 62 42 28 43 67 44 61 45
REMARK SMILES IDX 63 46 29 47 66 48 60 49 59 50 30 52 52 53 37 54 51 55 38 56
REMARK SMILES IDX 41 57 50 58 64 59 39 60 40 61 49 63 65 64 42 65 31 66 32 67
REMARK SMILES IDX 36 68 33 69 35 70 34 71 53 72 54 73 58 74 55 75 57 76 56 77
REMARK SMILES IDX 43 78 44 79 48 80 45 81 47 82 46 83
REMARK H PARENT 12 8 8 12 19 32 63 51 41 62
REMARK Flexibility Score: inf
ROOT
ATOM      1  C   UNL A   1      31.443  30.028  25.584  1.00  0.00     0.002 C 
ENDROOT
BRANCH   1   2
ATOM      2  C   UNL A   1      30.734  29.727  24.267  1.00  0.00     0.002 C 
BRANCH   2   3
ATOM      3  C   UNL A   1      31.575  28.964  23.244  1.00  0.00     0.021 C 
BRANCH   3   4
ATOM      4  C   UNL A   1      33.081  28.950  23.497  1.00  0.00     0.116 C 
BRANCH   4   5
ATOM      5  N   UNL A   1      33.761  27.873  22.799  1.00  0.00    -0.351 N 
ATOM      6  C   UNL A   1      33.389  26.594  22.529  1.00  0.00     0.278 C 
ATOM      7  O   UNL A   1      33.649  26.248  21.361  1.00  0.00    -0.268 OA
ATOM      8  H   UNL A   1      34.653  28.114  22.462  1.00  0.00     0.163 HD
BRANCH   6   9
ATOM      9  C   UNL A   1      32.928  25.487  23.532  1.00  0.00     0.274 C 
ATOM     10  N   UNL A   1      33.703  25.305  24.815  1.00  0.00    -0.320 N 
ATOM     11  C   UNL A   1      34.819  24.333  24.596  1.00  0.00     0.188 C 
ATOM     12  H   UNL A   1      34.310  26.054  25.148  1.00  0.00     0.349 HD
ATOM     13  C   UNL A   1      32.517  24.179  22.862  1.00  0.00     0.076 C 
ATOM     14  C   UNL A   1      34.723  23.132  23.620  1.00  0.00     0.048 C 
ATOM     15  C   UNL A   1      36.037  24.177  25.530  1.00  0.00     0.065 C 
ATOM     16  C   UNL A   1      33.663  23.259  22.522  1.00  0.00     0.016 C 
ATOM     17  C   UNL A   1      34.777  21.739  24.221  1.00  0.00     0.010 C 
ATOM     18  C   UNL A   1      36.537  22.769  25.884  1.00  0.00     0.006 C 
ATOM     19  C   UNL A   1      35.869  21.540  25.268  1.00  0.00     0.001 C 
BRANCH  10  20
ATOM     20  C   UNL A   1      32.765  25.380  25.997  1.00  0.00     0.185 C 
ATOM     21  C   UNL A   1      30.037  25.819  24.295  1.00  0.00     0.008 C 
ATOM     22  C   UNL A   1      30.228  25.926  25.780  1.00  0.00    -0.008 C 
ATOM     23  C   UNL A   1      31.638  26.422  26.096  1.00  0.00     0.068 C 
ATOM     24  C   UNL A   1      29.849  24.609  26.463  1.00  0.00     0.007 C 
ATOM     25  C   UNL A   1      30.952  23.543  26.600  1.00  0.00    -0.008 C 
ATOM     26  C   UNL A   1      32.365  24.101  26.774  1.00  0.00     0.068 C 
ATOM     27  C   UNL A   1      30.916  22.424  25.562  1.00  0.00     0.008 C 
ENDBRANCH  10  20
ENDBRANCH   6   9
ENDBRANCH   4   5
ENDBRANCH   3   4
ENDBRANCH   2   3
ENDBRANCH   1   2
BRANCH   1  28
ATOM     28  C   UNL A   1      31.271  31.460  26.093  1.00  0.00     0.021 C 
BRANCH  28  29
ATOM     29  C   UNL A   1      32.396  31.948  27.001  1.00  0.00     0.116 C 
BRANCH  29  30
ATOM     30  N   UNL A   1      32.248  33.356  27.331  1.00  0.00    -0.352 N 
ATOM     31  C   UNL A   1      32.995  34.119  28.196  1.00  0.00     0.251 C 
ATOM     32  H   UNL A   1      31.515  33.826  26.872  1.00  0.00     0.163 HD
ATOM     33  O   UNL A   1      32.601  35.215  28.567  1.00  0.00    -0.269 OA
BRANCH  31  34
ATOM     34  C   UNL A   1      34.285  33.590  28.681  1.00  0.00     0.039 A 
ATOM     35  C   UNL A   1      34.328  32.901  29.894  1.00  0.00     0.014 A 
ATOM     36  C   UNL A   1      35.448  33.774  27.927  1.00  0.00     0.014 A 
ATOM     37  C   UNL A   1      35.536  32.354  30.329  1.00  0.00     0.010 A 
ATOM     38  C   UNL A   1      36.631  33.161  28.323  1.00  0.00     0.010 A 
ATOM     39  C   UNL A   1      36.689  32.457  29.535  1.00  0.00    -0.014 A 
BRANCH  39  40
ATOM     40  C   UNL A   1      37.974  31.851  29.961  1.00  0.00     0.031 A 
ATOM     41  C   UNL A   1      38.858  32.572  30.940  1.00  0.00     0.074 A 
ATOM     42  C   UNL A   1      38.368  30.678  29.431  1.00  0.00     0.049 A 
ATOM     43  N   UNL A   1      40.029  32.224  31.410  1.00  0.00    -0.248 NA
ATOM     44  C   UNL A   1      38.372  33.869  31.439  1.00  0.00     0.031 C 
ATOM     45  C   UNL A   1      37.614  29.892  28.452  1.00  0.00     0.029 A 
ATOM     46  N   UNL A   1      39.505  29.940  29.645  1.00  0.00    -0.354 N 
ATOM     47  C   UNL A   1      40.422  33.261  32.246  1.00  0.00     0.074 A 
ATOM     48  C   UNL A   1      39.397  34.279  32.169  1.00  0.00     0.031 C 
ATOM     49  C   UNL A   1      38.287  28.762  28.184  1.00  0.00     0.029 A 
ATOM     50  C   UNL A   1      39.540  28.766  28.934  1.00  0.00     0.049 A 
ATOM     51  H   UNL A   1      40.227  30.225  30.251  1.00  0.00     0.167 HD
ATOM     52  C   UNL A   1      41.526  33.352  33.027  1.00  0.00     0.031 A 
ATOM     53  C   UNL A   1      40.476  27.800  28.891  1.00  0.00     0.031 A 
ATOM     54  C   UNL A   1      42.548  32.342  33.095  1.00  0.00     0.049 A 
ATOM     55  C   UNL A   1      41.718  27.946  29.726  1.00  0.00     0.074 A 
ATOM     56  C   UNL A   1      43.685  32.316  33.884  1.00  0.00     0.029 A 
ATOM     57  N   UNL A   1      42.560  31.181  32.337  1.00  0.00    -0.354 N 
ATOM     58  N   UNL A   1      42.046  28.902  30.562  1.00  0.00    -0.248 NA
ATOM     59  C   UNL A   1      42.714  26.872  29.618  1.00  0.00     0.031 C 
ATOM     60  C   UNL A   1      44.415  31.169  33.559  1.00  0.00     0.029 A 
ATOM     61  C   UNL A   1      43.699  30.446  32.617  1.00  0.00     0.049 A 
ATOM     62  H   UNL A   1      41.861  30.918  31.696  1.00  0.00     0.167 HD
ATOM     63  C   UNL A   1      43.268  28.528  31.104  1.00  0.00     0.074 A 
ATOM     64  C   UNL A   1      43.616  27.252  30.511  1.00  0.00     0.031 C 
ATOM     65  C   UNL A   1      44.032  29.179  32.015  1.00  0.00     0.031 A 
BRANCH  52  66
ATOM     66  C   UNL A   1      41.680  34.601  33.853  1.00  0.00    -0.014 A 
ATOM     67  C   UNL A   1      42.403  35.708  33.376  1.00  0.00     0.009 A 
ATOM     68  C   UNL A   1      41.096  34.675  35.126  1.00  0.00     0.009 A 
ATOM     69  C   UNL A   1      42.582  36.837  34.177  1.00  0.00     0.001 A 
ATOM     70  C   UNL A   1      41.247  35.819  35.911  1.00  0.00     0.001 A 
ATOM     71  C   UNL A   1      42.002  36.894  35.443  1.00  0.00     0.000 A 
ENDBRANCH  52  66
BRANCH  53  72
ATOM     72  C   UNL A   1      40.264  26.592  28.052  1.00  0.00    -0.014 A 
ATOM     73  C   UNL A   1      39.563  25.488  28.566  1.00  0.00     0.009 A 
ATOM     74  C   UNL A   1      40.758  26.529  26.740  1.00  0.00     0.009 A 
ATOM     75  C   UNL A   1      39.383  24.340  27.791  1.00  0.00     0.001 A 
ATOM     76  C   UNL A   1      40.549  25.390  25.957  1.00  0.00     0.001 A 
ATOM     77  C   UNL A   1      39.871  24.294  26.487  1.00  0.00     0.000 A 
ENDBRANCH  53  72
BRANCH  65  78
ATOM     78  C   UNL A   1      45.301  28.503  32.457  1.00  0.00    -0.014 A 
ATOM     79  C   UNL A   1      46.526  28.750  31.818  1.00  0.00     0.009 A 
ATOM     80  C   UNL A   1      45.273  27.631  33.557  1.00  0.00     0.009 A 
ATOM     81  C   UNL A   1      47.690  28.109  32.250  1.00  0.00     0.001 A 
ATOM     82  C   UNL A   1      46.443  27.018  34.007  1.00  0.00     0.001 A 
ATOM     83  C   UNL A   1      47.648  27.248  33.347  1.00  0.00     0.000 A 
ENDBRANCH  65  78
ENDBRANCH  39  40
ENDBRANCH  31  34
ENDBRANCH  29  30
ENDBRANCH  28  29
ENDBRANCH   1  28
TORSDOF 14
ENDMDL
MODEL 2
REMARK VINA RESULT:     -11.9      0.400      5.776
REMARK SMILES C[C@@H]1C[C@H](C)C[C@H]([N@@H+]2[C@@H](C(=O)NCCCCCCNC(=O)c3ccc(-c4c5nc(c(-c6ccccc6)c6ccc([nH]6)c(-c6ccccc6)c6nc(c(-c7ccccc7)c7ccc4[nH]7)C=C6)C=C5)cc3)CC[C@@H]3CCCC[C@@H]32)C1
REMARK SMILES IDX 16 1 15 2 14 3 13 4 12 5 10 6 11 7 9 9 8 10 77 11 70 13
REMARK SMILES IDX 72 14 76 15 71 16 73 17 75 18 74 19 7 20 5 21 4 22 6 23 3 24
REMARK SMILES IDX 2 25 78 26 1 27 17 28 18 29 19 30 20 31 21 33 22 34 23 35
REMARK SMILES IDX 69 36 24 37 68 38 25 39 26 40 27 41 62 42 28 43 67 44 61 45
REMARK SMILES IDX 63 46 29 47 66 48 60 49 59 50 30 52 52 53 37 54 51 55 38 56
REMARK SMILES IDX 41 57 50 58 64 59 39 60 40 61 49 63 65 64 42 65 31 66 32 67
REMARK SMILES IDX 36 68 33 69 35 70 34 71 53 72 54 73 58 74 55 75 57 76 56 77
REMARK SMILES IDX 43 78 44 79 48 80 45 81 47 82 46 83
REMARK H PARENT 12 8 8 12 19 32 63 51 41 62
REMARK Flexibility Score: inf
ROOT
ATOM      1  C   UNL A   1      31.725  29.981  25.863  1.00  0.00     0.002 C 
ENDROOT
BRANCH   1   2
ATOM      2  C   UNL A   1      30.957  29.709  24.573  1.00  0.00     0.002 C 
BRANCH   2   3
ATOM      3  C   UNL A   1      31.717  28.884  23.534  1.00  0.00     0.021 C 
BRANCH   3   4
ATOM      4  C   UNL A   1      33.237  28.875  23.674  1.00  0.00     0.116 C 
BRANCH   4   5
ATOM      5  N   UNL A   1      33.867  27.806  22.920  1.00  0.00    -0.351 N 
ATOM      6  C   UNL A   1      33.456  26.545  22.622  1.00  0.00     0.278 C 
ATOM      7  O   UNL A   1      33.668  26.232  21.436  1.00  0.00    -0.268 OA
ATOM      8  H   UNL A   1      34.754  28.036  22.561  1.00  0.00     0.163 HD
BRANCH   6   9
ATOM      9  C   UNL A   1      33.000  25.417  23.604  1.00  0.00     0.274 C 
ATOM     10  N   UNL A   1      33.786  25.204  24.875  1.00  0.00    -0.320 N 
ATOM     11  C   UNL A   1      34.897  24.234  24.625  1.00  0.00     0.188 C 
ATOM     12  H   UNL A   1      34.398  25.943  25.220  1.00  0.00     0.349 HD
ATOM     13  C   UNL A   1      32.578  24.126  22.908  1.00  0.00     0.076 C 
ATOM     14  C   UNL A   1      34.788  23.055  23.623  1.00  0.00     0.048 C 
ATOM     15  C   UNL A   1      36.122  24.053  25.544  1.00  0.00     0.065 C 
ATOM     16  C   UNL A   1      33.719  23.210  22.538  1.00  0.00     0.016 C 
ATOM     17  C   UNL A   1      34.844  21.649  24.192  1.00  0.00     0.010 C 
ATOM     18  C   UNL A   1      36.621  22.637  25.862  1.00  0.00     0.006 C 
ATOM     19  C   UNL A   1      35.945  21.424  25.224  1.00  0.00     0.001 C 
BRANCH  10  20
ATOM     20  C   UNL A   1      32.858  25.255  26.067  1.00  0.00     0.185 C 
ATOM     21  C   UNL A   1      30.118  25.748  24.401  1.00  0.00     0.008 C 
ATOM     22  C   UNL A   1      30.323  25.819  25.886  1.00  0.00    -0.008 C 
ATOM     23  C   UNL A   1      31.738  26.299  26.201  1.00  0.00     0.068 C 
ATOM     24  C   UNL A   1      29.943  24.488  26.541  1.00  0.00     0.007 C 
ATOM     25  C   UNL A   1      31.041  23.413  26.642  1.00  0.00    -0.008 C 
ATOM     26  C   UNL A   1      32.459  23.959  26.817  1.00  0.00     0.068 C 
ATOM     27  C   UNL A   1      30.991  22.320  25.577  1.00  0.00     0.008 C 
ENDBRANCH  10  20
ENDBRANCH   6   9
ENDBRANCH   4   5
ENDBRANCH   3   4
ENDBRANCH   2   3
ENDBRANCH   1   2
BRANCH   1  28
ATOM     28  C   UNL A   1      31.490  31.365  26.469  1.00  0.00     0.021 C 
BRANCH  28  29
ATOM     29  C   UNL A   1      32.733  32.010  27.077  1.00  0.00     0.116 C 
BRANCH  29  30
ATOM     30  N   UNL A   1      32.495  33.397  27.442  1.00  0.00    -0.352 N 
ATOM     31  C   UNL A   1      33.165  34.171  28.358  1.00  0.00     0.251 C 
ATOM     32  H   UNL A   1      31.755  33.841  26.969  1.00  0.00     0.163 HD
ATOM     33  O   UNL A   1      32.698  35.232  28.745  1.00  0.00    -0.269 OA
BRANCH  31  34
ATOM     34  C   UNL A   1      34.464  33.697  28.877  1.00  0.00     0.039 A 
ATOM     35  C   UNL A   1      34.497  32.955  30.058  1.00  0.00     0.014 A 
ATOM     36  C   UNL A   1      35.645  33.987  28.187  1.00  0.00     0.014 A 
ATOM     37  C   UNL A   1      35.716  32.460  30.523  1.00  0.00     0.010 A 
ATOM     38  C   UNL A   1      36.845  33.428  28.608  1.00  0.00     0.010 A 
ATOM     39  C   UNL A   1      36.895  32.670  29.788  1.00  0.00    -0.014 A 
BRANCH  39  40
ATOM     40  C   UNL A   1      38.195  32.122  30.245  1.00  0.00     0.031 A 
ATOM     41  C   UNL A   1      38.689  30.808  29.707  1.00  0.00     0.074 A 
ATOM     42  C   UNL A   1      38.906  32.782  31.178  1.00  0.00     0.049 A 
ATOM     43  N   UNL A   1      39.780  30.149  30.005  1.00  0.00    -0.248 NA
ATOM     44  C   UNL A   1      37.830  30.132  28.720  1.00  0.00     0.031 C 
ATOM     45  C   UNL A   1      38.523  34.052  31.798  1.00  0.00     0.029 A 
ATOM     46  N   UNL A   1      40.106  32.472  31.768  1.00  0.00    -0.354 N 
ATOM     47  C   UNL A   1      39.731  28.982  29.255  1.00  0.00     0.074 A 
ATOM     48  C   UNL A   1      38.474  28.991  28.538  1.00  0.00     0.031 C 
ATOM     49  C   UNL A   1      39.490  34.434  32.647  1.00  0.00     0.029 A 
ATOM     50  C   UNL A   1      40.536  33.416  32.668  1.00  0.00     0.049 A 
ATOM     51  H   UNL A   1      40.611  31.651  31.565  1.00  0.00     0.167 HD
ATOM     52  C   UNL A   1      40.657  27.998  29.152  1.00  0.00     0.031 A 
ATOM     53  C   UNL A   1      41.648  33.457  33.424  1.00  0.00     0.031 A 
ATOM     54  C   UNL A   1      41.903  27.987  29.872  1.00  0.00     0.049 A 
ATOM     55  C   UNL A   1      42.638  32.328  33.333  1.00  0.00     0.074 A 
ATOM     56  C   UNL A   1      42.929  27.061  29.808  1.00  0.00     0.029 A 
ATOM     57  N   UNL A   1      42.287  28.948  30.795  1.00  0.00    -0.354 N 
ATOM     58  N   UNL A   1      42.609  31.262  32.570  1.00  0.00    -0.248 NA
ATOM     59  C   UNL A   1      43.819  32.417  34.202  1.00  0.00     0.031 C 
ATOM     60  C   UNL A   1      43.906  27.429  30.739  1.00  0.00     0.029 A 
ATOM     61  C   UNL A   1      43.521  28.621  31.331  1.00  0.00     0.049 A 
ATOM     62  H   UNL A   1      41.761  29.745  31.033  1.00  0.00     0.167 HD
ATOM     63  C   UNL A   1      43.783  30.571  32.842  1.00  0.00     0.074 A 
ATOM     64  C   UNL A   1      44.506  31.346  33.829  1.00  0.00     0.031 C 
ATOM     65  C   UNL A   1      44.225  29.402  32.317  1.00  0.00     0.031 A 
BRANCH  52  66
ATOM     66  C   UNL A   1      40.337  26.848  28.235  1.00  0.00    -0.014 A 
ATOM     67  C   UNL A   1      40.831  26.801  26.920  1.00  0.00     0.009 A 
ATOM     68  C   UNL A   1      39.530  25.794  28.690  1.00  0.00     0.009 A 
ATOM     69  C   UNL A   1      40.480  25.754  26.067  1.00  0.00     0.001 A 
ATOM     70  C   UNL A   1      39.209  24.730  27.845  1.00  0.00     0.001 A 
ATOM     71  C   UNL A   1      39.671  24.718  26.530  1.00  0.00     0.000 A 
ENDBRANCH  52  66
BRANCH  53  72
ATOM     72  C   UNL A   1      41.904  34.621  34.312  1.00  0.00    -0.014 A 
ATOM     73  C   UNL A   1      41.474  34.599  35.648  1.00  0.00     0.009 A 
ATOM     74  C   UNL A   1      42.575  35.758  33.835  1.00  0.00     0.009 A 
ATOM     75  C   UNL A   1      41.689  35.700  36.480  1.00  0.00     0.001 A 
ATOM     76  C   UNL A   1      42.815  36.845  34.679  1.00  0.00     0.001 A 
ATOM     77  C   UNL A   1      42.364  36.820  35.997  1.00  0.00     0.000 A 
ENDBRANCH  53  72
BRANCH  65  78
ATOM     78  C   UNL A   1      45.573  28.911  32.771  1.00  0.00    -0.014 A 
ATOM     79  C   UNL A   1      46.754  29.305  32.124  1.00  0.00     0.009 A 
ATOM     80  C   UNL A   1      45.660  28.067  33.890  1.00  0.00     0.009 A 
ATOM     81  C   UNL A   1      47.993  28.835  32.567  1.00  0.00     0.001 A 
ATOM     82  C   UNL A   1      46.901  27.626  34.351  1.00  0.00     0.001 A 
ATOM     83  C   UNL A   1      48.065  28.001  33.683  1.00  0.00     0.000 A 
ENDBRANCH  65  78
ENDBRANCH  39  40
ENDBRANCH  31  34
ENDBRANCH  29  30
ENDBRANCH  28  29
ENDBRANCH   1  28
TORSDOF 14
ENDMDL
MODEL 3
REMARK VINA RESULT:     -11.7      3.122      8.362
REMARK SMILES C[C@@H]1C[C@H](C)C[C@H]([N@@H+]2[C@@H](C(=O)NCCCCCCNC(=O)c3ccc(-c4c5nc(c(-c6ccccc6)c6ccc([nH]6)c(-c6ccccc6)c6nc(c(-c7ccccc7)c7ccc4[nH]7)C=C6)C=C5)cc3)CC[C@@H]3CCCC[C@@H]32)C1
REMARK SMILES IDX 16 1 15 2 14 3 13 4 12 5 10 6 11 7 9 9 8 10 77 11 70 13
REMARK SMILES IDX 72 14 76 15 71 16 73 17 75 18 74 19 7 20 5 21 4 22 6 23 3 24
REMARK SMILES IDX 2 25 78 26 1 27 17 28 18 29 19 30 20 31 21 33 22 34 23 35
REMARK SMILES IDX 69 36 24 37 68 38 25 39 26 40 27 41 62 42 28 43 67 44 61 45
REMARK SMILES IDX 63 46 29 47 66 48 60 49 59 50 30 52 52 53 37 54 51 55 38 56
REMARK SMILES IDX 41 57 50 58 64 59 39 60 40 61 49 63 65 64 42 65 31 66 32 67
REMARK SMILES IDX 36 68 33 69 35 70 34 71 53 72 54 73 58 74 55 75 57 76 56 77
REMARK SMILES IDX 43 78 44 79 48 80 45 81 47 82 46 83
REMARK H PARENT 12 8 8 12 19 32 63 51 41 62
REMARK Flexibility Score: inf
ROOT
ATOM      1  C   UNL A   1      35.982  20.507  25.056  1.00  0.00     0.002 C 
ENDROOT
BRANCH   1   2
ATOM      2  C   UNL A   1      34.691  19.832  24.602  1.00  0.00     0.002 C 
BRANCH   2   3
ATOM      3  C   UNL A   1      33.542  19.902  25.608  1.00  0.00     0.021 C 
BRANCH   3   4
ATOM      4  C   UNL A   1      32.537  21.031  25.393  1.00  0.00     0.116 C 
BRANCH   4   5
ATOM      5  N   UNL A   1      32.310  21.821  26.590  1.00  0.00    -0.351 N 
ATOM      6  C   UNL A   1      32.023  23.138  26.765  1.00  0.00     0.278 C 
ATOM      7  O   UNL A   1      31.124  23.334  27.604  1.00  0.00    -0.268 OA
ATOM      8  H   UNL A   1      32.376  21.308  27.428  1.00  0.00     0.163 HD
BRANCH   6   9
ATOM      9  C   UNL A   1      32.821  24.379  26.247  1.00  0.00     0.274 C 
ATOM     10  N   UNL A   1      32.058  25.510  25.598  1.00  0.00    -0.320 N 
ATOM     11  C   UNL A   1      31.929  25.254  24.130  1.00  0.00     0.188 C 
ATOM     12  H   UNL A   1      31.055  25.596  25.756  1.00  0.00     0.349 HD
ATOM     13  C   UNL A   1      34.126  24.023  25.540  1.00  0.00     0.076 C 
ATOM     14  C   UNL A   1      33.013  24.526  23.294  1.00  0.00     0.048 C 
ATOM     15  C   UNL A   1      30.916  25.961  23.207  1.00  0.00     0.065 C 
ATOM     16  C   UNL A   1      33.971  23.636  24.090  1.00  0.00     0.016 C 
ATOM     17  C   UNL A   1      33.720  25.330  22.218  1.00  0.00     0.010 C 
ATOM     18  C   UNL A   1      31.371  26.447  21.823  1.00  0.00     0.006 C 
ATOM     19  C   UNL A   1      32.797  26.176  21.347  1.00  0.00     0.001 C 
BRANCH  10  20
ATOM     20  C   UNL A   1      32.397  26.815  26.280  1.00  0.00     0.185 C 
ATOM     21  C   UNL A   1      34.151  28.071  23.856  1.00  0.00     0.008 C 
ATOM     22  C   UNL A   1      34.001  28.592  25.256  1.00  0.00    -0.008 C 
ATOM     23  C   UNL A   1      33.804  27.434  26.231  1.00  0.00     0.068 C 
ATOM     24  C   UNL A   1      32.908  29.663  25.312  1.00  0.00     0.007 C 
ATOM     25  C   UNL A   1      31.464  29.185  25.548  1.00  0.00    -0.008 C 
ATOM     26  C   UNL A   1      31.337  27.935  26.421  1.00  0.00     0.068 C 
ATOM     27  C   UNL A   1      30.591  29.086  24.300  1.00  0.00     0.008 C 
ENDBRANCH  10  20
ENDBRANCH   6   9
ENDBRANCH   4   5
ENDBRANCH   3   4
ENDBRANCH   2   3
ENDBRANCH   1   2
BRANCH   1  28
ATOM     28  C   UNL A   1      37.232  19.632  24.959  1.00  0.00     0.021 C 
BRANCH  28  29
ATOM     29  C   UNL A   1      38.527  20.330  25.365  1.00  0.00     0.116 C 
BRANCH  29  30
ATOM     30  N   UNL A   1      39.594  19.377  25.620  1.00  0.00    -0.352 N 
ATOM     31  C   UNL A   1      40.879  19.620  26.042  1.00  0.00     0.251 C 
ATOM     32  H   UNL A   1      39.366  18.431  25.471  1.00  0.00     0.163 HD
ATOM     33  O   UNL A   1      41.739  18.753  25.968  1.00  0.00    -0.269 OA
BRANCH  31  34
ATOM     34  C   UNL A   1      41.212  20.952  26.584  1.00  0.00     0.039 A 
ATOM     35  C   UNL A   1      41.093  21.180  27.956  1.00  0.00     0.014 A 
ATOM     36  C   UNL A   1      41.648  21.970  25.730  1.00  0.00     0.014 A 
ATOM     37  C   UNL A   1      41.458  22.422  28.479  1.00  0.00     0.010 A 
ATOM     38  C   UNL A   1      42.085  23.176  26.262  1.00  0.00     0.010 A 
ATOM     39  C   UNL A   1      41.982  23.419  27.640  1.00  0.00    -0.014 A 
BRANCH  39  40
ATOM     40  C   UNL A   1      42.410  24.732  28.180  1.00  0.00     0.031 A 
ATOM     41  C   UNL A   1      41.404  25.836  28.363  1.00  0.00     0.074 A 
ATOM     42  C   UNL A   1      43.709  24.949  28.459  1.00  0.00     0.049 A 
ATOM     43  N   UNL A   1      41.587  27.059  28.788  1.00  0.00    -0.248 NA
ATOM     44  C   UNL A   1      40.012  25.529  27.994  1.00  0.00     0.031 C 
ATOM     45  C   UNL A   1      44.786  23.969  28.300  1.00  0.00     0.029 A 
ATOM     46  N   UNL A   1      44.344  26.067  28.937  1.00  0.00    -0.354 N 
ATOM     47  C   UNL A   1      40.341  27.668  28.727  1.00  0.00     0.074 A 
ATOM     48  C   UNL A   1      39.424  26.702  28.163  1.00  0.00     0.031 C 
ATOM     49  C   UNL A   1      45.940  24.515  28.716  1.00  0.00     0.029 A 
ATOM     50  C   UNL A   1      45.693  25.895  29.125  1.00  0.00     0.049 A 
ATOM     51  H   UNL A   1      43.876  26.912  29.129  1.00  0.00     0.167 HD
ATOM     52  C   UNL A   1      39.982  28.913  29.126  1.00  0.00     0.031 A 
ATOM     53  C   UNL A   1      46.627  26.752  29.577  1.00  0.00     0.031 A 
ATOM     54  C   UNL A   1      40.897  29.876  29.679  1.00  0.00     0.049 A 
ATOM     55  C   UNL A   1      46.216  28.146  29.964  1.00  0.00     0.074 A 
ATOM     56  C   UNL A   1      40.630  31.148  30.152  1.00  0.00     0.029 A 
ATOM     57  N   UNL A   1      42.261  29.672  29.826  1.00  0.00    -0.354 N 
ATOM     58  N   UNL A   1      45.021  28.687  29.962  1.00  0.00    -0.248 NA
ATOM     59  C   UNL A   1      47.284  29.043  30.426  1.00  0.00     0.031 C 
ATOM     60  C   UNL A   1      41.842  31.737  30.528  1.00  0.00     0.029 A 
ATOM     61  C   UNL A   1      42.854  30.806  30.354  1.00  0.00     0.049 A 
ATOM     62  H   UNL A   1      42.736  28.843  29.590  1.00  0.00     0.167 HD
ATOM     63  C   UNL A   1      45.189  29.975  30.453  1.00  0.00     0.074 A 
ATOM     64  C   UNL A   1      46.598  30.128  30.755  1.00  0.00     0.031 C 
ATOM     65  C   UNL A   1      44.259  30.943  30.644  1.00  0.00     0.031 A 
BRANCH  52  66
ATOM     66  C   UNL A   1      38.537  29.298  28.954  1.00  0.00    -0.014 A 
ATOM     67  C   UNL A   1      37.624  29.205  30.019  1.00  0.00     0.009 A 
ATOM     68  C   UNL A   1      38.078  29.761  27.712  1.00  0.00     0.009 A 
ATOM     69  C   UNL A   1      36.277  29.515  29.828  1.00  0.00     0.001 A 
ATOM     70  C   UNL A   1      36.737  30.104  27.533  1.00  0.00     0.001 A 
ATOM     71  C   UNL A   1      35.834  29.966  28.586  1.00  0.00     0.000 A 
ENDBRANCH  52  66
BRANCH  53  72
ATOM     72  C   UNL A   1      48.039  26.310  29.720  1.00  0.00    -0.014 A 
ATOM     73  C   UNL A   1      48.932  26.437  28.644  1.00  0.00     0.009 A 
ATOM     74  C   UNL A   1      48.503  25.759  30.925  1.00  0.00     0.009 A 
ATOM     75  C   UNL A   1      50.253  26.000  28.764  1.00  0.00     0.001 A 
ATOM     76  C   UNL A   1      49.834  25.351  31.051  1.00  0.00     0.001 A 
ATOM     77  C   UNL A   1      50.704  25.462  29.968  1.00  0.00     0.000 A 
ENDBRANCH  53  72
BRANCH  65  78
ATOM     78  C   UNL A   1      44.729  32.240  31.242  1.00  0.00    -0.014 A 
ATOM     79  C   UNL A   1      44.736  32.450  32.629  1.00  0.00     0.009 A 
ATOM     80  C   UNL A   1      45.209  33.257  30.400  1.00  0.00     0.009 A 
ATOM     81  C   UNL A   1      45.180  33.664  33.158  1.00  0.00     0.001 A 
ATOM     82  C   UNL A   1      45.683  34.456  30.933  1.00  0.00     0.001 A 
ATOM     83  C   UNL A   1      45.658  34.663  32.310  1.00  0.00     0.000 A 
ENDBRANCH  65  78
ENDBRANCH  39  40
ENDBRANCH  31  34
ENDBRANCH  29  30
ENDBRANCH  28  29
ENDBRANCH   1  28
TORSDOF 14
ENDMDL
