MODEL 1
REMARK VINA RESULT:     -11.3      0.000      0.000
REMARK SMILES COc1ccc2c(c1)[C@H]([NH2+][C@H]1CCC[C@H](C(=O)NCCCCCCNC(=O)c3ccc(-c4c5nc(c(-c6ccccc6)c6ccc([nH]6)c(-c6ccccc6)c6nc(c(-c7ccccc7)c7ccc4[nH]7)C=C6)C=C5)cc3)C1)CC2
REMARK SMILES IDX 21 1 20 2 19 3 18 4 16 5 17 6 15 8 11 9 12 10 76 11 13 12
REMARK SMILES IDX 14 13 10 14 9 17 3 18 4 19 8 20 5 21 7 22 6 23 78 24 77 25
REMARK SMILES IDX 2 26 1 27 22 28 23 29 24 30 25 31 26 32 27 34 28 35 29 36
REMARK SMILES IDX 75 37 30 38 74 39 31 40 32 41 33 42 68 43 34 44 73 45 67 46
REMARK SMILES IDX 69 47 35 48 72 49 66 50 65 51 36 53 58 54 43 55 57 56 44 57
REMARK SMILES IDX 47 58 56 59 70 60 45 61 46 62 55 64 71 65 48 66 37 67 38 68
REMARK SMILES IDX 42 69 39 70 41 71 40 72 59 73 60 74 64 75 61 76 63 77 62 78
REMARK SMILES IDX 49 79 50 80 54 81 51 82 53 83 52 84
REMARK H PARENT 18 7 10 15 10 16 25 33 69 52 47 63
REMARK Flexibility Score: inf
ROOT
ATOM      1  C   UNL A   1      32.925  29.880  25.896  1.00  0.00     0.002 C 
ENDROOT
BRANCH   1   2
ATOM      2  C   UNL A   1      33.320  28.946  24.748  1.00  0.00     0.021 C 
BRANCH   2   3
ATOM      3  C   UNL A   1      32.165  28.651  23.784  1.00  0.00     0.116 C 
BRANCH   3   4
ATOM      4  N   UNL A   1      32.693  28.108  22.560  1.00  0.00    -0.356 N 
ATOM      5  C   UNL A   1      33.014  26.830  22.251  1.00  0.00     0.223 C 
ATOM      6  O   UNL A   1      33.667  26.664  21.215  1.00  0.00    -0.275 OA
ATOM      7  H   UNL A   1      32.842  28.765  21.841  1.00  0.00     0.163 HD
BRANCH   5   8
ATOM      8  C   UNL A   1      32.495  25.617  23.029  1.00  0.00     0.084 C 
ATOM      9  C   UNL A   1      33.165  23.241  23.678  1.00  0.00     0.183 C 
ATOM     10  C   UNL A   1      31.750  22.741  23.341  1.00  0.00     0.065 C 
ATOM     11  C   UNL A   1      33.448  24.450  22.775  1.00  0.00     0.078 C 
ATOM     12  C   UNL A   1      30.649  23.793  23.430  1.00  0.00     0.007 C 
ATOM     13  C   UNL A   1      31.012  25.218  22.979  1.00  0.00     0.014 C 
BRANCH   9  14
ATOM     14  N   UNL A   1      33.401  23.322  25.122  1.00  0.00    -0.338 N 
ATOM     15  H   UNL A   1      33.103  24.255  25.408  1.00  0.00     0.347 HD
ATOM     16  H   UNL A   1      32.890  22.509  25.469  1.00  0.00     0.347 HD
BRANCH  14  17
ATOM     17  C   UNL A   1      34.714  23.122  25.700  1.00  0.00     0.214 C 
ATOM     18  C   UNL A   1      35.816  19.551  24.803  1.00  0.00     0.119 A 
ATOM     19  C   UNL A   1      37.194  19.736  24.898  1.00  0.00     0.047 A 
ATOM     20  C   UNL A   1      34.943  20.623  24.943  1.00  0.00     0.056 A 
ATOM     21  C   UNL A   1      37.710  21.014  25.142  1.00  0.00     0.008 A 
ATOM     22  C   UNL A   1      35.442  21.871  25.264  1.00  0.00     0.016 A 
ATOM     23  C   UNL A   1      36.825  22.072  25.307  1.00  0.00    -0.038 A 
ATOM     24  C   UNL A   1      37.128  23.516  25.574  1.00  0.00     0.042 C 
ATOM     25  C   UNL A   1      35.762  24.165  25.257  1.00  0.00     0.075 C 
BRANCH  18  26
ATOM     26  O   UNL A   1      35.304  18.310  24.541  1.00  0.00    -0.497 OA
ATOM     27  C   UNL A   1      33.884  18.366  24.389  1.00  0.00     0.278 C 
ENDBRANCH  18  26
ENDBRANCH  14  17
ENDBRANCH   9  14
ENDBRANCH   5   8
ENDBRANCH   3   4
ENDBRANCH   2   3
ENDBRANCH   1   2
BRANCH   1  28
ATOM     28  C   UNL A   1      31.494  30.419  25.803  1.00  0.00     0.002 C 
BRANCH  28  29
ATOM     29  C   UNL A   1      31.309  31.825  26.379  1.00  0.00     0.021 C 
BRANCH  29  30
ATOM     30  C   UNL A   1      32.523  32.338  27.145  1.00  0.00     0.116 C 
BRANCH  30  31
ATOM     31  N   UNL A   1      32.375  33.747  27.470  1.00  0.00    -0.352 N 
ATOM     32  C   UNL A   1      33.044  34.472  28.416  1.00  0.00     0.251 C 
ATOM     33  H   UNL A   1      31.708  34.241  26.942  1.00  0.00     0.163 HD
ATOM     34  O   UNL A   1      32.616  35.566  28.787  1.00  0.00    -0.269 OA
BRANCH  32  35
ATOM     35  C   UNL A   1      34.291  33.934  28.991  1.00  0.00     0.039 A 
ATOM     36  C   UNL A   1      34.220  33.032  30.053  1.00  0.00     0.014 A 
ATOM     37  C   UNL A   1      35.529  34.339  28.480  1.00  0.00     0.014 A 
ATOM     38  C   UNL A   1      35.397  32.508  30.586  1.00  0.00     0.010 A 
ATOM     39  C   UNL A   1      36.696  33.764  28.969  1.00  0.00     0.010 A 
ATOM     40  C   UNL A   1      36.641  32.858  30.036  1.00  0.00    -0.014 A 
BRANCH  40  41
ATOM     41  C   UNL A   1      37.902  32.306  30.585  1.00  0.00     0.031 A 
ATOM     42  C   UNL A   1      38.488  31.052  29.999  1.00  0.00     0.074 A 
ATOM     43  C   UNL A   1      38.484  32.899  31.643  1.00  0.00     0.049 A 
ATOM     44  N   UNL A   1      39.550  30.384  30.374  1.00  0.00    -0.248 NA
ATOM     45  C   UNL A   1      37.775  30.456  28.857  1.00  0.00     0.031 C 
ATOM     46  C   UNL A   1      37.985  34.097  32.324  1.00  0.00     0.029 A 
ATOM     47  N   UNL A   1      39.620  32.569  32.337  1.00  0.00    -0.354 N 
ATOM     48  C   UNL A   1      39.620  29.286  29.527  1.00  0.00     0.074 A 
ATOM     49  C   UNL A   1      38.468  29.347  28.654  1.00  0.00     0.031 C 
ATOM     50  C   UNL A   1      38.825  34.412  33.324  1.00  0.00     0.029 A 
ATOM     51  C   UNL A   1      39.897  33.423  33.375  1.00  0.00     0.049 A 
ATOM     52  H   UNL A   1      40.182  31.794  32.112  1.00  0.00     0.167 HD
ATOM     53  C   UNL A   1      40.570  28.323  29.468  1.00  0.00     0.031 A 
ATOM     54  C   UNL A   1      40.901  33.408  34.271  1.00  0.00     0.031 A 
ATOM     55  C   UNL A   1      41.719  28.269  30.329  1.00  0.00     0.049 A 
ATOM     56  C   UNL A   1      41.942  32.328  34.186  1.00  0.00     0.074 A 
ATOM     57  C   UNL A   1      42.765  27.363  30.318  1.00  0.00     0.029 A 
ATOM     58  N   UNL A   1      41.973  29.163  31.358  1.00  0.00    -0.354 N 
ATOM     59  N   UNL A   1      42.028  31.329  33.340  1.00  0.00    -0.248 NA
ATOM     60  C   UNL A   1      43.032  32.382  35.169  1.00  0.00     0.031 C 
ATOM     61  C   UNL A   1      43.630  27.684  31.369  1.00  0.00     0.029 A 
ATOM     62  C   UNL A   1      43.150  28.820  32.001  1.00  0.00     0.049 A 
ATOM     63  H   UNL A   1      41.401  29.929  31.596  1.00  0.00     0.167 HD
ATOM     64  C   UNL A   1      43.193  30.651  33.675  1.00  0.00     0.074 A 
ATOM     65  C   UNL A   1      43.787  31.361  34.788  1.00  0.00     0.031 C 
ATOM     66  C   UNL A   1      43.722  29.538  33.110  1.00  0.00     0.031 A 
BRANCH  53  67
ATOM     67  C   UNL A   1      40.397  27.246  28.432  1.00  0.00    -0.014 A 
ATOM     68  C   UNL A   1      39.689  26.068  28.722  1.00  0.00     0.009 A 
ATOM     69  C   UNL A   1      40.925  27.421  27.144  1.00  0.00     0.009 A 
ATOM     70  C   UNL A   1      39.546  25.072  27.754  1.00  0.00     0.001 A 
ATOM     71  C   UNL A   1      40.755  26.437  26.169  1.00  0.00     0.001 A 
ATOM     72  C   UNL A   1      40.076  25.259  26.477  1.00  0.00     0.000 A 
ENDBRANCH  53  67
BRANCH  54  73
ATOM     73  C   UNL A   1      40.977  34.460  35.317  1.00  0.00    -0.014 A 
ATOM     74  C   UNL A   1      40.156  34.394  36.454  1.00  0.00     0.009 A 
ATOM     75  C   UNL A   1      41.876  35.531  35.189  1.00  0.00     0.009 A 
ATOM     76  C   UNL A   1      40.218  35.393  37.429  1.00  0.00     0.001 A 
ATOM     77  C   UNL A   1      41.954  36.512  36.179  1.00  0.00     0.001 A 
ATOM     78  C   UNL A   1      41.119  36.447  37.293  1.00  0.00     0.000 A 
ENDBRANCH  54  73
BRANCH  66  79
ATOM     79  C   UNL A   1      45.024  29.040  33.670  1.00  0.00    -0.014 A 
ATOM     80  C   UNL A   1      46.252  29.518  33.190  1.00  0.00     0.009 A 
ATOM     81  C   UNL A   1      45.016  28.110  34.722  1.00  0.00     0.009 A 
ATOM     82  C   UNL A   1      47.450  29.050  33.733  1.00  0.00     0.001 A 
ATOM     83  C   UNL A   1      46.215  27.664  35.280  1.00  0.00     0.001 A 
ATOM     84  C   UNL A   1      47.430  28.128  34.779  1.00  0.00     0.000 A 
ENDBRANCH  66  79
ENDBRANCH  40  41
ENDBRANCH  32  35
ENDBRANCH  30  31
ENDBRANCH  29  30
ENDBRANCH  28  29
ENDBRANCH   1  28
TORSDOF 16
ENDMDL
MODEL 2
REMARK VINA RESULT:     -11.2      1.602      2.446
REMARK SMILES COc1ccc2c(c1)[C@H]([NH2+][C@H]1CCC[C@H](C(=O)NCCCCCCNC(=O)c3ccc(-c4c5nc(c(-c6ccccc6)c6ccc([nH]6)c(-c6ccccc6)c6nc(c(-c7ccccc7)c7ccc4[nH]7)C=C6)C=C5)cc3)C1)CC2
REMARK SMILES IDX 21 1 20 2 19 3 18 4 16 5 17 6 15 8 11 9 12 10 76 11 13 12
REMARK SMILES IDX 14 13 10 14 9 17 3 18 4 19 8 20 5 21 7 22 6 23 78 24 77 25
REMARK SMILES IDX 2 26 1 27 22 28 23 29 24 30 25 31 26 32 27 34 28 35 29 36
REMARK SMILES IDX 75 37 30 38 74 39 31 40 32 41 33 42 68 43 34 44 73 45 67 46
REMARK SMILES IDX 69 47 35 48 72 49 66 50 65 51 36 53 58 54 43 55 57 56 44 57
REMARK SMILES IDX 47 58 56 59 70 60 45 61 46 62 55 64 71 65 48 66 37 67 38 68
REMARK SMILES IDX 42 69 39 70 41 71 40 72 59 73 60 74 64 75 61 76 63 77 62 78
REMARK SMILES IDX 49 79 50 80 54 81 51 82 53 83 52 84
REMARK H PARENT 18 7 10 15 10 16 25 33 69 52 47 63
REMARK Flexibility Score: inf
ROOT
ATOM      1  C   UNL A   1      32.763  29.978  26.197  1.00  0.00     0.002 C 
ENDROOT
BRANCH   1   2
ATOM      2  C   UNL A   1      32.840  28.542  25.669  1.00  0.00     0.021 C 
BRANCH   2   3
ATOM      3  C   UNL A   1      32.787  27.486  26.780  1.00  0.00     0.116 C 
BRANCH   3   4
ATOM      4  N   UNL A   1      31.476  26.894  26.813  1.00  0.00    -0.356 N 
ATOM      5  C   UNL A   1      31.047  25.719  26.297  1.00  0.00     0.223 C 
ATOM      6  O   UNL A   1      29.823  25.551  26.257  1.00  0.00    -0.275 OA
ATOM      7  H   UNL A   1      30.789  27.423  27.281  1.00  0.00     0.163 HD
BRANCH   5   8
ATOM      8  C   UNL A   1      31.987  24.574  25.908  1.00  0.00     0.084 C 
ATOM      9  C   UNL A   1      32.980  22.416  26.844  1.00  0.00     0.183 C 
ATOM     10  C   UNL A   1      34.360  22.798  26.282  1.00  0.00     0.065 C 
ATOM     11  C   UNL A   1      32.236  23.723  27.153  1.00  0.00     0.078 C 
ATOM     12  C   UNL A   1      34.338  23.741  25.084  1.00  0.00     0.007 C 
ATOM     13  C   UNL A   1      33.255  24.834  25.081  1.00  0.00     0.014 C 
BRANCH   9  14
ATOM     14  N   UNL A   1      32.330  21.360  26.063  1.00  0.00    -0.338 N 
ATOM     15  H   UNL A   1      32.435  20.500  26.602  1.00  0.00     0.347 HD
ATOM     16  H   UNL A   1      31.396  21.745  25.918  1.00  0.00     0.347 HD
BRANCH  14  17
ATOM     17  C   UNL A   1      32.738  21.041  24.710  1.00  0.00     0.214 C 
ATOM     18  C   UNL A   1      33.226  17.233  24.540  1.00  0.00     0.119 A 
ATOM     19  C   UNL A   1      33.032  17.067  23.169  1.00  0.00     0.047 A 
ATOM     20  C   UNL A   1      33.043  18.473  25.139  1.00  0.00     0.056 A 
ATOM     21  C   UNL A   1      32.654  18.159  22.382  1.00  0.00     0.008 A 
ATOM     22  C   UNL A   1      32.749  19.572  24.354  1.00  0.00     0.016 A 
ATOM     23  C   UNL A   1      32.501  19.400  22.988  1.00  0.00    -0.038 A 
ATOM     24  C   UNL A   1      32.107  20.706  22.367  1.00  0.00     0.042 C 
ATOM     25  C   UNL A   1      31.758  21.534  23.624  1.00  0.00     0.075 C 
BRANCH  18  26
ATOM     26  O   UNL A   1      33.573  16.164  25.321  1.00  0.00    -0.497 OA
ATOM     27  C   UNL A   1      32.412  15.443  25.740  1.00  0.00     0.278 C 
ENDBRANCH  18  26
ENDBRANCH  14  17
ENDBRANCH   9  14
ENDBRANCH   5   8
ENDBRANCH   3   4
ENDBRANCH   2   3
ENDBRANCH   1   2
BRANCH   1  28
ATOM     28  C   UNL A   1      31.455  30.702  25.862  1.00  0.00     0.002 C 
BRANCH  28  29
ATOM     29  C   UNL A   1      31.275  32.045  26.573  1.00  0.00     0.021 C 
BRANCH  29  30
ATOM     30  C   UNL A   1      32.529  32.530  27.292  1.00  0.00     0.116 C 
BRANCH  30  31
ATOM     31  N   UNL A   1      32.431  33.944  27.612  1.00  0.00    -0.352 N 
ATOM     32  C   UNL A   1      33.143  34.655  28.538  1.00  0.00     0.251 C 
ATOM     33  H   UNL A   1      31.766  34.456  27.097  1.00  0.00     0.163 HD
ATOM     34  O   UNL A   1      32.756  35.763  28.913  1.00  0.00    -0.269 OA
BRANCH  32  35
ATOM     35  C   UNL A   1      34.387  34.083  29.086  1.00  0.00     0.039 A 
ATOM     36  C   UNL A   1      34.321  33.241  30.197  1.00  0.00     0.014 A 
ATOM     37  C   UNL A   1      35.618  34.398  28.502  1.00  0.00     0.014 A 
ATOM     38  C   UNL A   1      35.494  32.685  30.706  1.00  0.00     0.010 A 
ATOM     39  C   UNL A   1      36.777  33.790  28.969  1.00  0.00     0.010 A 
ATOM     40  C   UNL A   1      36.727  32.942  30.085  1.00  0.00    -0.014 A 
BRANCH  40  41
ATOM     41  C   UNL A   1      37.983  32.355  30.607  1.00  0.00     0.031 A 
ATOM     42  C   UNL A   1      38.515  31.079  30.017  1.00  0.00     0.074 A 
ATOM     43  C   UNL A   1      38.610  32.938  31.645  1.00  0.00     0.049 A 
ATOM     44  N   UNL A   1      39.564  30.381  30.372  1.00  0.00    -0.248 NA
ATOM     45  C   UNL A   1      37.754  30.497  28.900  1.00  0.00     0.031 C 
ATOM     46  C   UNL A   1      38.166  34.157  32.328  1.00  0.00     0.029 A 
ATOM     47  N   UNL A   1      39.752  32.578  32.313  1.00  0.00    -0.354 N 
ATOM     48  C   UNL A   1      39.578  29.274  29.534  1.00  0.00     0.074 A 
ATOM     49  C   UNL A   1      38.407  29.364  28.689  1.00  0.00     0.031 C 
ATOM     50  C   UNL A   1      39.040  34.454  33.304  1.00  0.00     0.029 A 
ATOM     51  C   UNL A   1      40.082  33.432  33.337  1.00  0.00     0.049 A 
ATOM     52  H   UNL A   1      40.284  31.784  32.081  1.00  0.00     0.167 HD
ATOM     53  C   UNL A   1      40.495  28.280  29.459  1.00  0.00     0.031 A 
ATOM     54  C   UNL A   1      41.107  33.391  34.208  1.00  0.00     0.031 A 
ATOM     55  C   UNL A   1      41.663  28.198  30.292  1.00  0.00     0.049 A 
ATOM     56  C   UNL A   1      42.111  32.278  34.106  1.00  0.00     0.074 A 
ATOM     57  C   UNL A   1      42.679  27.259  30.264  1.00  0.00     0.029 A 
ATOM     58  N   UNL A   1      41.971  29.091  31.307  1.00  0.00    -0.354 N 
ATOM     59  N   UNL A   1      42.145  31.271  33.267  1.00  0.00    -0.248 NA
ATOM     60  C   UNL A   1      43.227  32.306  35.062  1.00  0.00     0.031 C 
ATOM     61  C   UNL A   1      43.581  27.560  31.290  1.00  0.00     0.029 A 
ATOM     62  C   UNL A   1      43.152  28.716  31.923  1.00  0.00     0.049 A 
ATOM     63  H   UNL A   1      41.430  29.877  31.552  1.00  0.00     0.167 HD
ATOM     64  C   UNL A   1      43.295  30.558  33.579  1.00  0.00     0.074 A 
ATOM     65  C   UNL A   1      43.939  31.258  34.671  1.00  0.00     0.031 C 
ATOM     66  C   UNL A   1      43.775  29.424  33.011  1.00  0.00     0.031 A 
BRANCH  53  67
ATOM     67  C   UNL A   1      40.262  27.202  28.438  1.00  0.00    -0.014 A 
ATOM     68  C   UNL A   1      40.789  27.305  27.141  1.00  0.00     0.009 A 
ATOM     69  C   UNL A   1      39.529  26.056  28.783  1.00  0.00     0.009 A 
ATOM     70  C   UNL A   1      40.556  26.300  26.200  1.00  0.00     0.001 A 
ATOM     71  C   UNL A   1      39.321  25.040  27.850  1.00  0.00     0.001 A 
ATOM     72  C   UNL A   1      39.825  25.167  26.556  1.00  0.00     0.000 A 
ENDBRANCH  53  67
BRANCH  54  73
ATOM     73  C   UNL A   1      41.242  34.449  35.242  1.00  0.00    -0.014 A 
ATOM     74  C   UNL A   1      41.971  35.618  34.973  1.00  0.00     0.009 A 
ATOM     75  C   UNL A   1      40.637  34.299  36.500  1.00  0.00     0.009 A 
ATOM     76  C   UNL A   1      42.111  36.605  35.952  1.00  0.00     0.001 A 
ATOM     77  C   UNL A   1      40.756  35.300  37.466  1.00  0.00     0.001 A 
ATOM     78  C   UNL A   1      41.499  36.447  37.195  1.00  0.00     0.000 A 
ENDBRANCH  54  73
BRANCH  66  79
ATOM     79  C   UNL A   1      45.074  28.890  33.543  1.00  0.00    -0.014 A 
ATOM     80  C   UNL A   1      46.304  29.319  33.024  1.00  0.00     0.009 A 
ATOM     81  C   UNL A   1      45.064  27.975  34.608  1.00  0.00     0.009 A 
ATOM     82  C   UNL A   1      47.499  28.818  33.541  1.00  0.00     0.001 A 
ATOM     83  C   UNL A   1      46.261  27.496  35.140  1.00  0.00     0.001 A 
ATOM     84  C   UNL A   1      47.477  27.912  34.601  1.00  0.00     0.000 A 
ENDBRANCH  66  79
ENDBRANCH  40  41
ENDBRANCH  32  35
ENDBRANCH  30  31
ENDBRANCH  29  30
ENDBRANCH  28  29
ENDBRANCH   1  28
TORSDOF 16
ENDMDL
MODEL 3
REMARK VINA RESULT:     -11.1      3.913      9.481
REMARK SMILES COc1ccc2c(c1)[C@H]([NH2+][C@H]1CCC[C@H](C(=O)NCCCCCCNC(=O)c3ccc(-c4c5nc(c(-c6ccccc6)c6ccc([nH]6)c(-c6ccccc6)c6nc(c(-c7ccccc7)c7ccc4[nH]7)C=C6)C=C5)cc3)C1)CC2
REMARK SMILES IDX 21 1 20 2 19 3 18 4 16 5 17 6 15 8 11 9 12 10 76 11 13 12
REMARK SMILES IDX 14 13 10 14 9 17 3 18 4 19 8 20 5 21 7 22 6 23 78 24 77 25
REMARK SMILES IDX 2 26 1 27 22 28 23 29 24 30 25 31 26 32 27 34 28 35 29 36
REMARK SMILES IDX 75 37 30 38 74 39 31 40 32 41 33 42 68 43 34 44 73 45 67 46
REMARK SMILES IDX 69 47 35 48 72 49 66 50 65 51 36 53 58 54 43 55 57 56 44 57
REMARK SMILES IDX 47 58 56 59 70 60 45 61 46 62 55 64 71 65 48 66 37 67 38 68
REMARK SMILES IDX 42 69 39 70 41 71 40 72 59 73 60 74 64 75 61 76 63 77 62 78
REMARK SMILES IDX 49 79 50 80 54 81 51 82 53 83 52 84
REMARK H PARENT 18 7 10 15 10 16 25 33 69 52 47 63
REMARK Flexibility Score: inf
ROOT
ATOM      1  C   UNL A   1      35.255  19.242  24.874  1.00  0.00     0.002 C 
ENDROOT
BRANCH   1   2
ATOM      2  C   UNL A   1      33.910  19.761  24.358  1.00  0.00     0.021 C 
BRANCH   2   3
ATOM      3  C   UNL A   1      32.812  19.763  25.428  1.00  0.00     0.116 C 
BRANCH   3   4
ATOM      4  N   UNL A   1      33.313  20.387  26.624  1.00  0.00    -0.356 N 
ATOM      5  C   UNL A   1      33.304  21.692  26.984  1.00  0.00     0.223 C 
ATOM      6  O   UNL A   1      34.006  21.998  27.954  1.00  0.00    -0.275 OA
ATOM      7  H   UNL A   1      33.723  19.774  27.276  1.00  0.00     0.163 HD
BRANCH   5   8
ATOM      8  C   UNL A   1      32.381  22.737  26.350  1.00  0.00     0.084 C 
ATOM      9  C   UNL A   1      32.417  25.113  25.418  1.00  0.00     0.183 C 
ATOM     10  C   UNL A   1      31.104  25.430  26.153  1.00  0.00     0.065 C 
ATOM     11  C   UNL A   1      33.155  24.049  26.243  1.00  0.00     0.078 C 
ATOM     12  C   UNL A   1      30.220  24.225  26.457  1.00  0.00     0.007 C 
ATOM     13  C   UNL A   1      30.935  22.918  26.838  1.00  0.00     0.014 C 
BRANCH   9  14
ATOM     14  N   UNL A   1      32.222  24.931  23.977  1.00  0.00    -0.338 N 
ATOM     15  H   UNL A   1      32.839  24.167  23.700  1.00  0.00     0.347 HD
ATOM     16  H   UNL A   1      31.212  24.802  23.912  1.00  0.00     0.347 HD
BRANCH  14  17
ATOM     17  C   UNL A   1      32.451  26.001  23.028  1.00  0.00     0.214 C 
ATOM     18  C   UNL A   1      29.287  28.182  22.991  1.00  0.00     0.119 A 
ATOM     19  C   UNL A   1      29.867  29.368  22.542  1.00  0.00     0.047 A 
ATOM     20  C   UNL A   1      30.072  27.071  23.278  1.00  0.00     0.056 A 
ATOM     21  C   UNL A   1      31.253  29.446  22.372  1.00  0.00     0.008 A 
ATOM     22  C   UNL A   1      31.432  27.116  23.033  1.00  0.00     0.016 A 
ATOM     23  C   UNL A   1      32.023  28.320  22.635  1.00  0.00    -0.038 A 
ATOM     24  C   UNL A   1      33.509  28.153  22.529  1.00  0.00     0.042 C 
ATOM     25  C   UNL A   1      33.713  26.841  23.318  1.00  0.00     0.075 C 
BRANCH  18  26
ATOM     26  O   UNL A   1      27.935  28.106  23.184  1.00  0.00    -0.497 OA
ATOM     27  C   UNL A   1      27.292  29.309  22.760  1.00  0.00     0.278 C 
ENDBRANCH  18  26
ENDBRANCH  14  17
ENDBRANCH   9  14
ENDBRANCH   5   8
ENDBRANCH   3   4
ENDBRANCH   2   3
ENDBRANCH   1   2
BRANCH   1  28
ATOM     28  C   UNL A   1      36.338  20.319  25.001  1.00  0.00     0.002 C 
BRANCH  28  29
ATOM     29  C   UNL A   1      37.746  19.848  24.629  1.00  0.00     0.021 C 
BRANCH  29  30
ATOM     30  C   UNL A   1      38.837  20.401  25.538  1.00  0.00     0.116 C 
BRANCH  30  31
ATOM     31  N   UNL A   1      39.854  19.397  25.800  1.00  0.00    -0.352 N 
ATOM     32  C   UNL A   1      41.168  19.586  26.126  1.00  0.00     0.251 C 
ATOM     33  H   UNL A   1      39.559  18.460  25.735  1.00  0.00     0.163 HD
ATOM     34  O   UNL A   1      41.979  18.664  26.028  1.00  0.00    -0.269 OA
BRANCH  32  35
ATOM     35  C   UNL A   1      41.610  20.910  26.602  1.00  0.00     0.039 A 
ATOM     36  C   UNL A   1      42.104  21.837  25.684  1.00  0.00     0.014 A 
ATOM     37  C   UNL A   1      41.545  21.221  27.965  1.00  0.00     0.014 A 
ATOM     38  C   UNL A   1      42.506  23.096  26.129  1.00  0.00     0.010 A 
ATOM     39  C   UNL A   1      41.883  22.499  28.396  1.00  0.00     0.010 A 
ATOM     40  C   UNL A   1      42.382  23.440  27.485  1.00  0.00    -0.014 A 
BRANCH  40  41
ATOM     41  C   UNL A   1      42.797  24.775  27.976  1.00  0.00     0.031 A 
ATOM     42  C   UNL A   1      41.763  25.838  28.220  1.00  0.00     0.074 A 
ATOM     43  C   UNL A   1      44.104  25.045  28.146  1.00  0.00     0.049 A 
ATOM     44  N   UNL A   1      41.930  27.081  28.595  1.00  0.00    -0.248 NA
ATOM     45  C   UNL A   1      40.358  25.463  27.987  1.00  0.00     0.031 C 
ATOM     46  C   UNL A   1      45.203  24.107  27.902  1.00  0.00     0.029 A 
ATOM     47  N   UNL A   1      44.730  26.193  28.558  1.00  0.00    -0.354 N 
ATOM     48  C   UNL A   1      40.658  27.638  28.627  1.00  0.00     0.074 A 
ATOM     49  C   UNL A   1      39.735  26.615  28.184  1.00  0.00     0.031 C 
ATOM     50  C   UNL A   1      46.367  24.712  28.190  1.00  0.00     0.029 A 
ATOM     51  C   UNL A   1      46.098  26.086  28.605  1.00  0.00     0.049 A 
ATOM     52  H   UNL A   1      44.246  27.016  28.796  1.00  0.00     0.167 HD
ATOM     53  C   UNL A   1      40.288  28.882  29.010  1.00  0.00     0.031 A 
ATOM     54  C   UNL A   1      47.032  26.996  28.939  1.00  0.00     0.031 A 
ATOM     55  C   UNL A   1      41.206  29.893  29.460  1.00  0.00     0.049 A 
ATOM     56  C   UNL A   1      46.597  28.371  29.360  1.00  0.00     0.074 A 
ATOM     57  C   UNL A   1      40.928  31.169  29.917  1.00  0.00     0.029 A 
ATOM     58  N   UNL A   1      42.583  29.740  29.509  1.00  0.00    -0.354 N 
ATOM     59  N   UNL A   1      45.385  28.864  29.444  1.00  0.00    -0.248 NA
ATOM     60  C   UNL A   1      47.659  29.310  29.747  1.00  0.00     0.031 C 
ATOM     61  C   UNL A   1      42.141  31.804  30.202  1.00  0.00     0.029 A 
ATOM     62  C   UNL A   1      43.170  30.905  29.971  1.00  0.00     0.049 A 
ATOM     63  H   UNL A   1      43.070  28.924  29.253  1.00  0.00     0.167 HD
ATOM     64  C   UNL A   1      45.537  30.161  29.914  1.00  0.00     0.074 A 
ATOM     65  C   UNL A   1      46.955  30.372  30.114  1.00  0.00     0.031 C 
ATOM     66  C   UNL A   1      44.585  31.096  30.159  1.00  0.00     0.031 A 
BRANCH  53  67
ATOM     67  C   UNL A   1      38.823  29.214  28.954  1.00  0.00    -0.014 A 
ATOM     68  C   UNL A   1      38.228  29.673  27.767  1.00  0.00     0.009 A 
ATOM     69  C   UNL A   1      38.022  29.044  30.093  1.00  0.00     0.009 A 
ATOM     70  C   UNL A   1      36.868  29.988  27.733  1.00  0.00     0.001 A 
ATOM     71  C   UNL A   1      36.657  29.332  30.048  1.00  0.00     0.001 A 
ATOM     72  C   UNL A   1      36.083  29.814  28.872  1.00  0.00     0.000 A 
ENDBRANCH  53  67
BRANCH  54  73
ATOM     73  C   UNL A   1      48.471  26.627  28.905  1.00  0.00    -0.014 A 
ATOM     74  C   UNL A   1      49.082  26.041  30.024  1.00  0.00     0.009 A 
ATOM     75  C   UNL A   1      49.238  26.853  27.751  1.00  0.00     0.009 A 
ATOM     76  C   UNL A   1      50.439  25.710  29.996  1.00  0.00     0.001 A 
ATOM     77  C   UNL A   1      50.588  26.495  27.717  1.00  0.00     0.001 A 
ATOM     78  C   UNL A   1      51.189  25.932  28.841  1.00  0.00     0.000 A 
ENDBRANCH  54  73
BRANCH  66  79
ATOM     79  C   UNL A   1      45.048  32.419  30.698  1.00  0.00    -0.014 A 
ATOM     80  C   UNL A   1      45.102  32.664  32.078  1.00  0.00     0.009 A 
ATOM     81  C   UNL A   1      45.476  33.418  29.809  1.00  0.00     0.009 A 
ATOM     82  C   UNL A   1      45.547  33.897  32.557  1.00  0.00     0.001 A 
ATOM     83  C   UNL A   1      45.945  34.640  30.293  1.00  0.00     0.001 A 
ATOM     84  C   UNL A   1      45.972  34.881  31.665  1.00  0.00     0.000 A 
ENDBRANCH  66  79
ENDBRANCH  40  41
ENDBRANCH  32  35
ENDBRANCH  30  31
ENDBRANCH  29  30
ENDBRANCH  28  29
ENDBRANCH   1  28
TORSDOF 16
ENDMDL
