MODEL 1
REMARK VINA RESULT:     -10.1      0.000      0.000
REMARK SMILES C[C@H](CC(=O)NCCCCCCNC(=O)c1ccc(-c2c3nc(c(-c4ccccc4)c4ccc([nH]4)c(-c4ccccc4)c4nc(c(-c5ccccc5)c5ccc2[nH]5)C=C4)C=C3)cc1)NC(=O)Cc1cn2ccsc2n1
REMARK SMILES IDX 8 1 7 2 6 3 4 4 5 5 3 7 2 8 1 9 64 10 65 11 66 13 67 14
REMARK SMILES IDX 68 15 69 16 75 17 70 18 74 19 71 20 73 21 72 22 9 23 10 24
REMARK SMILES IDX 11 25 12 26 13 27 14 28 15 30 16 31 17 32 63 33 18 34 62 35
REMARK SMILES IDX 19 36 20 37 21 38 56 39 22 40 61 41 55 42 57 43 23 44 60 45
REMARK SMILES IDX 54 46 53 47 24 49 46 50 31 51 45 52 32 53 35 54 44 55 58 56
REMARK SMILES IDX 33 57 34 58 43 60 59 61 36 62 25 63 26 64 30 65 27 66 29 67
REMARK SMILES IDX 28 68 47 69 48 70 52 71 49 72 51 73 50 74 37 75 38 76 42 77
REMARK SMILES IDX 39 78 41 79 40 80
REMARK H PARENT 6 6 64 12 13 29 57 48 35 59
REMARK Flexibility Score: inf
ROOT
ATOM      1  C   UNL A   1      32.360  28.581  26.883  1.00  0.00     0.021 C 
ENDROOT
BRANCH   1   2
ATOM      2  C   UNL A   1      31.394  27.574  26.254  1.00  0.00     0.116 C 
BRANCH   2   3
ATOM      3  N   UNL A   1      31.380  26.320  26.980  1.00  0.00    -0.356 N 
ATOM      4  C   UNL A   1      31.582  25.055  26.524  1.00  0.00     0.222 C 
ATOM      5  O   UNL A   1      31.478  24.115  27.314  1.00  0.00    -0.275 OA
ATOM      6  H   UNL A   1      31.196  26.395  27.944  1.00  0.00     0.163 HD
BRANCH   4   7
ATOM      7  C   UNL A   1      31.919  24.818  25.071  1.00  0.00     0.124 C 
BRANCH   7   8
ATOM      8  C   UNL A   1      33.349  25.190  24.651  1.00  0.00     0.088 C 
ATOM      9  C   UNL A   1      34.488  24.392  25.281  1.00  0.00     0.031 C 
BRANCH   8  10
ATOM     10  N   UNL A   1      33.481  25.240  23.192  1.00  0.00    -0.353 N 
ATOM     11  C   UNL A   1      33.317  26.304  22.346  1.00  0.00     0.226 C 
ATOM     12  H   UNL A   1      33.719  24.388  22.760  1.00  0.00     0.163 HD
ATOM     13  O   UNL A   1      33.438  26.094  21.136  1.00  0.00    -0.275 OA
BRANCH  11  14
ATOM     14  C   UNL A   1      33.130  27.706  22.898  1.00  0.00     0.157 C 
BRANCH  14  15
ATOM     15  C   UNL A   1      31.771  28.267  22.658  1.00  0.00     0.070 A 
ATOM     16  C   UNL A   1      31.447  29.509  22.113  1.00  0.00     0.118 A 
ATOM     17  N   UNL A   1      30.628  27.586  23.050  1.00  0.00    -0.223 NA
ATOM     18  N   UNL A   1      30.093  29.590  22.227  1.00  0.00    -0.297 N 
ATOM     19  C   UNL A   1      29.663  28.416  22.764  1.00  0.00     0.193 A 
ATOM     20  C   UNL A   1      29.118  30.526  21.979  1.00  0.00     0.104 A 
ATOM     21  S   UNL A   1      27.942  28.421  22.982  1.00  0.00    -0.105 S 
ATOM     22  C   UNL A   1      27.902  30.069  22.324  1.00  0.00     0.087 A 
ENDBRANCH  14  15
ENDBRANCH  11  14
ENDBRANCH   8  10
ENDBRANCH   7   8
ENDBRANCH   4   7
ENDBRANCH   2   3
ENDBRANCH   1   2
BRANCH   1  23
ATOM     23  C   UNL A   1      32.592  29.826  26.021  1.00  0.00     0.002 C 
BRANCH  23  24
ATOM     24  C   UNL A   1      31.315  30.622  25.740  1.00  0.00     0.002 C 
BRANCH  24  25
ATOM     25  C   UNL A   1      31.238  31.955  26.487  1.00  0.00     0.021 C 
BRANCH  25  26
ATOM     26  C   UNL A   1      32.586  32.455  26.993  1.00  0.00     0.116 C 
BRANCH  26  27
ATOM     27  N   UNL A   1      32.487  33.816  27.495  1.00  0.00    -0.352 N 
ATOM     28  C   UNL A   1      33.162  34.407  28.527  1.00  0.00     0.251 C 
ATOM     29  H   UNL A   1      31.844  34.394  27.024  1.00  0.00     0.163 HD
ATOM     30  O   UNL A   1      32.754  35.470  28.998  1.00  0.00    -0.269 OA
BRANCH  28  31
ATOM     31  C   UNL A   1      34.368  33.769  29.087  1.00  0.00     0.039 A 
ATOM     32  C   UNL A   1      35.619  34.256  28.708  1.00  0.00     0.014 A 
ATOM     33  C   UNL A   1      34.272  32.684  29.966  1.00  0.00     0.014 A 
ATOM     34  C   UNL A   1      36.770  33.681  29.242  1.00  0.00     0.010 A 
ATOM     35  C   UNL A   1      35.419  32.175  30.570  1.00  0.00     0.010 A 
ATOM     36  C   UNL A   1      36.681  32.661  30.207  1.00  0.00    -0.014 A 
BRANCH  36  37
ATOM     37  C   UNL A   1      37.911  32.135  30.849  1.00  0.00     0.031 A 
ATOM     38  C   UNL A   1      38.406  32.693  32.154  1.00  0.00     0.074 A 
ATOM     39  C   UNL A   1      38.589  31.143  30.240  1.00  0.00     0.049 A 
ATOM     40  N   UNL A   1      39.419  32.296  32.886  1.00  0.00    -0.248 NA
ATOM     41  C   UNL A   1      37.690  33.855  32.703  1.00  0.00     0.031 C 
ATOM     42  C   UNL A   1      38.241  30.553  28.945  1.00  0.00     0.029 A 
ATOM     43  N   UNL A   1      39.700  30.442  30.635  1.00  0.00    -0.354 N 
ATOM     44  C   UNL A   1      39.461  33.159  33.974  1.00  0.00     0.074 A 
ATOM     45  C   UNL A   1      38.412  34.136  33.777  1.00  0.00     0.031 C 
ATOM     46  C   UNL A   1      39.082  29.541  28.682  1.00  0.00     0.029 A 
ATOM     47  C   UNL A   1      40.061  29.448  29.758  1.00  0.00     0.049 A 
ATOM     48  H   UNL A   1      40.191  30.633  31.467  1.00  0.00     0.167 HD
ATOM     49  C   UNL A   1      40.286  33.129  35.048  1.00  0.00     0.031 A 
ATOM     50  C   UNL A   1      41.070  28.559  29.810  1.00  0.00     0.031 A 
ATOM     51  C   UNL A   1      41.340  32.165  35.231  1.00  0.00     0.049 A 
ATOM     52  C   UNL A   1      41.989  28.567  30.998  1.00  0.00     0.074 A 
ATOM     53  C   UNL A   1      42.197  32.019  36.309  1.00  0.00     0.029 A 
ATOM     54  N   UNL A   1      41.696  31.195  34.306  1.00  0.00    -0.354 N 
ATOM     55  N   UNL A   1      41.957  29.331  32.064  1.00  0.00    -0.248 NA
ATOM     56  C   UNL A   1      43.075  27.579  30.996  1.00  0.00     0.031 C 
ATOM     57  C   UNL A   1      43.123  31.018  35.999  1.00  0.00     0.029 A 
ATOM     58  C   UNL A   1      42.788  30.477  34.769  1.00  0.00     0.049 A 
ATOM     59  H   UNL A   1      41.241  31.039  33.447  1.00  0.00     0.167 HD
ATOM     60  C   UNL A   1      43.004  28.901  32.868  1.00  0.00     0.074 A 
ATOM     61  C   UNL A   1      43.627  27.786  32.181  1.00  0.00     0.031 C 
ATOM     62  C   UNL A   1      43.416  29.386  34.066  1.00  0.00     0.031 A 
BRANCH  49  63
ATOM     63  C   UNL A   1      40.098  34.191  36.101  1.00  0.00    -0.014 A 
ATOM     64  C   UNL A   1      39.284  33.977  37.225  1.00  0.00     0.009 A 
ATOM     65  C   UNL A   1      40.779  35.414  35.986  1.00  0.00     0.009 A 
ATOM     66  C   UNL A   1      39.123  34.978  38.187  1.00  0.00     0.001 A 
ATOM     67  C   UNL A   1      40.647  36.398  36.966  1.00  0.00     0.001 A 
ATOM     68  C   UNL A   1      39.810  36.185  38.059  1.00  0.00     0.000 A 
ENDBRANCH  49  63
BRANCH  50  69
ATOM     69  C   UNL A   1      41.266  27.589  28.699  1.00  0.00    -0.014 A 
ATOM     70  C   UNL A   1      40.627  26.340  28.709  1.00  0.00     0.009 A 
ATOM     71  C   UNL A   1      42.104  27.910  27.619  1.00  0.00     0.009 A 
ATOM     72  C   UNL A   1      40.851  25.421  27.680  1.00  0.00     0.001 A 
ATOM     73  C   UNL A   1      42.295  27.007  26.573  1.00  0.00     0.001 A 
ATOM     74  C   UNL A   1      41.679  25.758  26.610  1.00  0.00     0.000 A 
ENDBRANCH  50  69
BRANCH  62  75
ATOM     75  C   UNL A   1      44.583  28.692  34.718  1.00  0.00    -0.014 A 
ATOM     76  C   UNL A   1      45.906  29.109  34.497  1.00  0.00     0.009 A 
ATOM     77  C   UNL A   1      44.354  27.600  35.572  1.00  0.00     0.009 A 
ATOM     78  C   UNL A   1      46.974  28.412  35.065  1.00  0.00     0.001 A 
ATOM     79  C   UNL A   1      45.421  26.932  36.174  1.00  0.00     0.001 A 
ATOM     80  C   UNL A   1      46.731  27.327  35.905  1.00  0.00     0.000 A 
ENDBRANCH  62  75
ENDBRANCH  36  37
ENDBRANCH  28  31
ENDBRANCH  26  27
ENDBRANCH  25  26
ENDBRANCH  24  25
ENDBRANCH  23  24
ENDBRANCH   1  23
TORSDOF 17
ENDMDL
MODEL 2
REMARK VINA RESULT:     -10.0      1.967      2.616
REMARK SMILES C[C@H](CC(=O)NCCCCCCNC(=O)c1ccc(-c2c3nc(c(-c4ccccc4)c4ccc([nH]4)c(-c4ccccc4)c4nc(c(-c5ccccc5)c5ccc2[nH]5)C=C4)C=C3)cc1)NC(=O)Cc1cn2ccsc2n1
REMARK SMILES IDX 8 1 7 2 6 3 4 4 5 5 3 7 2 8 1 9 64 10 65 11 66 13 67 14
REMARK SMILES IDX 68 15 69 16 75 17 70 18 74 19 71 20 73 21 72 22 9 23 10 24
REMARK SMILES IDX 11 25 12 26 13 27 14 28 15 30 16 31 17 32 63 33 18 34 62 35
REMARK SMILES IDX 19 36 20 37 21 38 56 39 22 40 61 41 55 42 57 43 23 44 60 45
REMARK SMILES IDX 54 46 53 47 24 49 46 50 31 51 45 52 32 53 35 54 44 55 58 56
REMARK SMILES IDX 33 57 34 58 43 60 59 61 36 62 25 63 26 64 30 65 27 66 29 67
REMARK SMILES IDX 28 68 47 69 48 70 52 71 49 72 51 73 50 74 37 75 38 76 42 77
REMARK SMILES IDX 39 78 41 79 40 80
REMARK H PARENT 6 6 64 12 13 29 57 48 35 59
REMARK Flexibility Score: inf
ROOT
ATOM      1  C   UNL A   1      33.176  28.306  26.206  1.00  0.00     0.021 C 
ENDROOT
BRANCH   1   2
ATOM      2  C   UNL A   1      33.819  27.057  25.598  1.00  0.00     0.116 C 
BRANCH   2   3
ATOM      3  N   UNL A   1      33.163  25.846  26.046  1.00  0.00    -0.356 N 
ATOM      4  C   UNL A   1      33.645  24.575  26.110  1.00  0.00     0.222 C 
ATOM      5  O   UNL A   1      32.894  23.674  26.484  1.00  0.00    -0.275 OA
ATOM      6  H   UNL A   1      32.233  25.958  26.348  1.00  0.00     0.163 HD
BRANCH   4   7
ATOM      7  C   UNL A   1      35.075  24.287  25.719  1.00  0.00     0.124 C 
BRANCH   7   8
ATOM      8  C   UNL A   1      35.270  23.646  24.336  1.00  0.00     0.088 C 
ATOM      9  C   UNL A   1      36.693  23.257  23.945  1.00  0.00     0.031 C 
BRANCH   8  10
ATOM     10  N   UNL A   1      34.339  22.533  24.127  1.00  0.00    -0.353 N 
ATOM     11  C   UNL A   1      33.360  22.391  23.181  1.00  0.00     0.226 C 
ATOM     12  H   UNL A   1      34.430  21.783  24.758  1.00  0.00     0.163 HD
ATOM     13  O   UNL A   1      32.663  21.374  23.229  1.00  0.00    -0.275 OA
BRANCH  11  14
ATOM     14  C   UNL A   1      33.238  23.389  22.042  1.00  0.00     0.157 C 
BRANCH  14  15
ATOM     15  C   UNL A   1      32.313  24.520  22.334  1.00  0.00     0.070 A 
ATOM     16  C   UNL A   1      32.210  25.732  21.654  1.00  0.00     0.118 A 
ATOM     17  N   UNL A   1      31.463  24.494  23.430  1.00  0.00    -0.223 NA
ATOM     18  N   UNL A   1      31.322  26.460  22.384  1.00  0.00    -0.297 N 
ATOM     19  C   UNL A   1      30.896  25.668  23.406  1.00  0.00     0.193 A 
ATOM     20  C   UNL A   1      30.807  27.734  22.361  1.00  0.00     0.104 A 
ATOM     21  S   UNL A   1      29.773  26.511  24.424  1.00  0.00    -0.105 S 
ATOM     22  C   UNL A   1      29.958  27.937  23.383  1.00  0.00     0.087 A 
ENDBRANCH  14  15
ENDBRANCH  11  14
ENDBRANCH   8  10
ENDBRANCH   7   8
ENDBRANCH   4   7
ENDBRANCH   2   3
ENDBRANCH   1   2
BRANCH   1  23
ATOM     23  C   UNL A   1      33.969  28.893  27.378  1.00  0.00     0.002 C 
BRANCH  23  24
ATOM     24  C   UNL A   1      34.217  30.399  27.255  1.00  0.00     0.002 C 
BRANCH  24  25
ATOM     25  C   UNL A   1      33.005  31.260  27.619  1.00  0.00     0.021 C 
BRANCH  25  26
ATOM     26  C   UNL A   1      32.880  32.528  26.784  1.00  0.00     0.116 C 
BRANCH  26  27
ATOM     27  N   UNL A   1      32.524  33.670  27.613  1.00  0.00    -0.352 N 
ATOM     28  C   UNL A   1      33.126  34.132  28.751  1.00  0.00     0.251 C 
ATOM     29  H   UNL A   1      31.739  34.182  27.312  1.00  0.00     0.163 HD
ATOM     30  O   UNL A   1      32.531  34.929  29.479  1.00  0.00    -0.269 OA
BRANCH  28  31
ATOM     31  C   UNL A   1      34.479  33.669  29.115  1.00  0.00     0.039 A 
ATOM     32  C   UNL A   1      34.634  32.904  30.271  1.00  0.00     0.014 A 
ATOM     33  C   UNL A   1      35.593  34.002  28.337  1.00  0.00     0.014 A 
ATOM     34  C   UNL A   1      35.899  32.439  30.623  1.00  0.00     0.010 A 
ATOM     35  C   UNL A   1      36.838  33.457  28.637  1.00  0.00     0.010 A 
ATOM     36  C   UNL A   1      37.007  32.679  29.789  1.00  0.00    -0.014 A 
BRANCH  36  37
ATOM     37  C   UNL A   1      38.327  32.083  30.117  1.00  0.00     0.031 A 
ATOM     38  C   UNL A   1      39.286  32.781  31.040  1.00  0.00     0.074 A 
ATOM     39  C   UNL A   1      38.660  30.898  29.569  1.00  0.00     0.049 A 
ATOM     40  N   UNL A   1      40.444  32.363  31.490  1.00  0.00    -0.248 NA
ATOM     41  C   UNL A   1      38.914  34.126  31.506  1.00  0.00     0.031 C 
ATOM     42  C   UNL A   1      37.838  30.148  28.616  1.00  0.00     0.029 A 
ATOM     43  N   UNL A   1      39.766  30.108  29.746  1.00  0.00    -0.354 N 
ATOM     44  C   UNL A   1      40.936  33.390  32.284  1.00  0.00     0.074 A 
ATOM     45  C   UNL A   1      39.981  34.474  32.209  1.00  0.00     0.031 C 
ATOM     46  C   UNL A   1      38.439  28.980  28.342  1.00  0.00     0.029 A 
ATOM     47  C   UNL A   1      39.712  28.925  29.050  1.00  0.00     0.049 A 
ATOM     48  H   UNL A   1      40.527  30.364  30.317  1.00  0.00     0.167 HD
ATOM     49  C   UNL A   1      42.070  33.421  33.025  1.00  0.00     0.031 A 
ATOM     50  C   UNL A   1      40.589  27.906  28.985  1.00  0.00     0.031 A 
ATOM     51  C   UNL A   1      43.026  32.346  33.084  1.00  0.00     0.049 A 
ATOM     52  C   UNL A   1      41.853  27.980  29.793  1.00  0.00     0.074 A 
ATOM     53  C   UNL A   1      44.180  32.261  33.845  1.00  0.00     0.029 A 
ATOM     54  N   UNL A   1      42.953  31.179  32.340  1.00  0.00    -0.354 N 
ATOM     55  N   UNL A   1      42.258  28.919  30.613  1.00  0.00    -0.248 NA
ATOM     56  C   UNL A   1      42.774  26.842  29.676  1.00  0.00     0.031 C 
ATOM     57  C   UNL A   1      44.846  31.081  33.498  1.00  0.00     0.029 A 
ATOM     58  C   UNL A   1      44.063  30.387  32.589  1.00  0.00     0.049 A 
ATOM     59  H   UNL A   1      42.220  30.945  31.724  1.00  0.00     0.167 HD
ATOM     60  C   UNL A   1      43.470  28.477  31.126  1.00  0.00     0.074 A 
ATOM     61  C   UNL A   1      43.713  27.169  30.551  1.00  0.00     0.031 C 
ATOM     62  C   UNL A   1      44.308  29.098  31.993  1.00  0.00     0.031 A 
BRANCH  49  63
ATOM     63  C   UNL A   1      42.352  34.674  33.814  1.00  0.00    -0.014 A 
ATOM     64  C   UNL A   1      43.014  35.772  33.240  1.00  0.00     0.009 A 
ATOM     65  C   UNL A   1      41.912  34.774  35.144  1.00  0.00     0.009 A 
ATOM     66  C   UNL A   1      43.267  36.922  33.993  1.00  0.00     0.001 A 
ATOM     67  C   UNL A   1      42.132  35.938  35.882  1.00  0.00     0.001 A 
ATOM     68  C   UNL A   1      42.819  37.006  35.310  1.00  0.00     0.000 A 
ENDBRANCH  49  63
BRANCH  50  69
ATOM     69  C   UNL A   1      40.302  26.731  28.119  1.00  0.00    -0.014 A 
ATOM     70  C   UNL A   1      39.524  25.661  28.587  1.00  0.00     0.009 A 
ATOM     71  C   UNL A   1      40.815  26.673  26.813  1.00  0.00     0.009 A 
ATOM     72  C   UNL A   1      39.297  24.543  27.778  1.00  0.00     0.001 A 
ATOM     73  C   UNL A   1      40.553  25.574  25.993  1.00  0.00     0.001 A 
ATOM     74  C   UNL A   1      39.805  24.505  26.480  1.00  0.00     0.000 A 
ENDBRANCH  50  69
BRANCH  62  75
ATOM     75  C   UNL A   1      45.556  28.351  32.388  1.00  0.00    -0.014 A 
ATOM     76  C   UNL A   1      46.762  28.508  31.685  1.00  0.00     0.009 A 
ATOM     77  C   UNL A   1      45.523  27.476  33.487  1.00  0.00     0.009 A 
ATOM     78  C   UNL A   1      47.888  27.760  32.034  1.00  0.00     0.001 A 
ATOM     79  C   UNL A   1      46.663  26.762  33.861  1.00  0.00     0.001 A 
ATOM     80  C   UNL A   1      47.838  26.891  33.123  1.00  0.00     0.000 A 
ENDBRANCH  62  75
ENDBRANCH  36  37
ENDBRANCH  28  31
ENDBRANCH  26  27
ENDBRANCH  25  26
ENDBRANCH  24  25
ENDBRANCH  23  24
ENDBRANCH   1  23
TORSDOF 17
ENDMDL
MODEL 3
REMARK VINA RESULT:      -9.8      1.829      6.674
REMARK SMILES C[C@H](CC(=O)NCCCCCCNC(=O)c1ccc(-c2c3nc(c(-c4ccccc4)c4ccc([nH]4)c(-c4ccccc4)c4nc(c(-c5ccccc5)c5ccc2[nH]5)C=C4)C=C3)cc1)NC(=O)Cc1cn2ccsc2n1
REMARK SMILES IDX 8 1 7 2 6 3 4 4 5 5 3 7 2 8 1 9 64 10 65 11 66 13 67 14
REMARK SMILES IDX 68 15 69 16 75 17 70 18 74 19 71 20 73 21 72 22 9 23 10 24
REMARK SMILES IDX 11 25 12 26 13 27 14 28 15 30 16 31 17 32 63 33 18 34 62 35
REMARK SMILES IDX 19 36 20 37 21 38 56 39 22 40 61 41 55 42 57 43 23 44 60 45
REMARK SMILES IDX 54 46 53 47 24 49 46 50 31 51 45 52 32 53 35 54 44 55 58 56
REMARK SMILES IDX 33 57 34 58 43 60 59 61 36 62 25 63 26 64 30 65 27 66 29 67
REMARK SMILES IDX 28 68 47 69 48 70 52 71 49 72 51 73 50 74 37 75 38 76 42 77
REMARK SMILES IDX 39 78 41 79 40 80
REMARK H PARENT 6 6 64 12 13 29 57 48 35 59
REMARK Flexibility Score: inf
ROOT
ATOM      1  C   UNL A   1      33.794  29.394  26.888  1.00  0.00     0.021 C 
ENDROOT
BRANCH   1   2
ATOM      2  C   UNL A   1      33.869  28.054  26.151  1.00  0.00     0.116 C 
BRANCH   2   3
ATOM      3  N   UNL A   1      32.885  27.115  26.647  1.00  0.00    -0.356 N 
ATOM      4  C   UNL A   1      31.791  26.598  26.024  1.00  0.00     0.222 C 
ATOM      5  O   UNL A   1      31.052  25.841  26.654  1.00  0.00    -0.275 OA
ATOM      6  H   UNL A   1      33.027  26.805  27.570  1.00  0.00     0.163 HD
BRANCH   4   7
ATOM      7  C   UNL A   1      31.495  26.963  24.589  1.00  0.00     0.124 C 
BRANCH   7   8
ATOM      8  C   UNL A   1      30.854  25.855  23.739  1.00  0.00     0.088 C 
ATOM      9  C   UNL A   1      29.339  25.906  23.560  1.00  0.00     0.031 C 
BRANCH   8  10
ATOM     10  N   UNL A   1      31.537  25.708  22.451  1.00  0.00    -0.353 N 
ATOM     11  C   UNL A   1      32.865  25.497  22.196  1.00  0.00     0.226 C 
ATOM     12  H   UNL A   1      30.959  25.771  21.657  1.00  0.00     0.163 HD
ATOM     13  O   UNL A   1      33.219  25.449  21.015  1.00  0.00    -0.275 OA
BRANCH  11  14
ATOM     14  C   UNL A   1      33.830  25.199  23.331  1.00  0.00     0.157 C 
BRANCH  14  15
ATOM     15  C   UNL A   1      33.806  23.777  23.778  1.00  0.00     0.070 A 
ATOM     16  C   UNL A   1      34.786  23.095  24.498  1.00  0.00     0.118 A 
ATOM     17  N   UNL A   1      32.767  22.927  23.429  1.00  0.00    -0.223 NA
ATOM     18  N   UNL A   1      34.347  21.807  24.536  1.00  0.00    -0.297 N 
ATOM     19  C   UNL A   1      33.139  21.774  23.911  1.00  0.00     0.193 A 
ATOM     20  C   UNL A   1      34.815  20.600  24.995  1.00  0.00     0.104 A 
ATOM     21  S   UNL A   1      32.497  20.163  23.877  1.00  0.00    -0.105 S 
ATOM     22  C   UNL A   1      33.951  19.605  24.727  1.00  0.00     0.087 A 
ENDBRANCH  14  15
ENDBRANCH  11  14
ENDBRANCH   8  10
ENDBRANCH   7   8
ENDBRANCH   4   7
ENDBRANCH   2   3
ENDBRANCH   1   2
BRANCH   1  23
ATOM     23  C   UNL A   1      32.372  29.782  27.307  1.00  0.00     0.002 C 
BRANCH  23  24
ATOM     24  C   UNL A   1      31.672  30.706  26.307  1.00  0.00     0.002 C 
BRANCH  24  25
ATOM     25  C   UNL A   1      31.487  32.140  26.811  1.00  0.00     0.021 C 
BRANCH  25  26
ATOM     26  C   UNL A   1      32.795  32.844  27.153  1.00  0.00     0.116 C 
BRANCH  26  27
ATOM     27  N   UNL A   1      32.552  34.181  27.670  1.00  0.00    -0.352 N 
ATOM     28  C   UNL A   1      33.118  34.807  28.746  1.00  0.00     0.251 C 
ATOM     29  H   UNL A   1      31.887  34.711  27.175  1.00  0.00     0.163 HD
ATOM     30  O   UNL A   1      32.595  35.821  29.211  1.00  0.00    -0.269 OA
BRANCH  28  31
ATOM     31  C   UNL A   1      34.345  34.264  29.360  1.00  0.00     0.039 A 
ATOM     32  C   UNL A   1      34.229  33.500  30.521  1.00  0.00     0.014 A 
ATOM     33  C   UNL A   1      35.606  34.520  28.809  1.00  0.00     0.014 A 
ATOM     34  C   UNL A   1      35.373  32.960  31.105  1.00  0.00     0.010 A 
ATOM     35  C   UNL A   1      36.735  33.901  29.339  1.00  0.00     0.010 A 
ATOM     36  C   UNL A   1      36.632  33.123  30.498  1.00  0.00    -0.014 A 
BRANCH  36  37
ATOM     37  C   UNL A   1      37.825  32.449  31.070  1.00  0.00     0.031 A 
ATOM     38  C   UNL A   1      38.384  31.200  30.448  1.00  0.00     0.074 A 
ATOM     39  C   UNL A   1      38.405  32.974  32.167  1.00  0.00     0.049 A 
ATOM     40  N   UNL A   1      39.463  30.531  30.777  1.00  0.00    -0.248 NA
ATOM     41  C   UNL A   1      37.633  30.611  29.329  1.00  0.00     0.031 C 
ATOM     42  C   UNL A   1      37.926  34.152  32.894  1.00  0.00     0.029 A 
ATOM     43  N   UNL A   1      39.533  32.599  32.852  1.00  0.00    -0.354 N 
ATOM     44  C   UNL A   1      39.515  29.448  29.910  1.00  0.00     0.074 A 
ATOM     45  C   UNL A   1      38.331  29.514  29.081  1.00  0.00     0.031 C 
ATOM     46  C   UNL A   1      38.786  34.439  33.883  1.00  0.00     0.029 A 
ATOM     47  C   UNL A   1      39.842  33.434  33.897  1.00  0.00     0.049 A 
ATOM     48  H   UNL A   1      40.069  31.807  32.616  1.00  0.00     0.167 HD
ATOM     49  C   UNL A   1      40.473  28.494  29.800  1.00  0.00     0.031 A 
ATOM     50  C   UNL A   1      40.862  33.398  34.774  1.00  0.00     0.031 A 
ATOM     51  C   UNL A   1      41.641  28.423  30.639  1.00  0.00     0.049 A 
ATOM     52  C   UNL A   1      41.893  32.312  34.649  1.00  0.00     0.074 A 
ATOM     53  C   UNL A   1      42.694  27.526  30.574  1.00  0.00     0.029 A 
ATOM     54  N   UNL A   1      41.902  29.267  31.708  1.00  0.00    -0.354 N 
ATOM     55  N   UNL A   1      41.977  31.349  33.764  1.00  0.00    -0.248 NA
ATOM     56  C   UNL A   1      42.978  32.320  35.638  1.00  0.00     0.031 C 
ATOM     57  C   UNL A   1      43.548  27.775  31.653  1.00  0.00     0.029 A 
ATOM     58  C   UNL A   1      43.076  28.884  32.337  1.00  0.00     0.049 A 
ATOM     59  H   UNL A   1      41.338  30.026  31.980  1.00  0.00     0.167 HD
ATOM     60  C   UNL A   1      43.136  30.649  34.076  1.00  0.00     0.074 A 
ATOM     61  C   UNL A   1      43.737  31.323  35.209  1.00  0.00     0.031 C 
ATOM     62  C   UNL A   1      43.654  29.546  33.481  1.00  0.00     0.031 A 
BRANCH  49  63
ATOM     63  C   UNL A   1      40.280  27.432  28.749  1.00  0.00    -0.014 A 
ATOM     64  C   UNL A   1      39.559  26.256  29.013  1.00  0.00     0.009 A 
ATOM     65  C   UNL A   1      40.795  27.629  27.457  1.00  0.00     0.009 A 
ATOM     66  C   UNL A   1      39.396  25.284  28.023  1.00  0.00     0.001 A 
ATOM     67  C   UNL A   1      40.598  26.675  26.459  1.00  0.00     0.001 A 
ATOM     68  C   UNL A   1      39.910  25.498  26.745  1.00  0.00     0.000 A 
ENDBRANCH  49  63
BRANCH  50  69
ATOM     69  C   UNL A   1      40.956  34.421  35.851  1.00  0.00    -0.014 A 
ATOM     70  C   UNL A   1      40.310  34.236  37.082  1.00  0.00     0.009 A 
ATOM     71  C   UNL A   1      41.693  35.598  35.645  1.00  0.00     0.009 A 
ATOM     72  C   UNL A   1      40.370  35.223  38.070  1.00  0.00     0.001 A 
ATOM     73  C   UNL A   1      41.786  36.564  36.648  1.00  0.00     0.001 A 
ATOM     74  C   UNL A   1      41.114  36.382  37.854  1.00  0.00     0.000 A 
ENDBRANCH  50  69
BRANCH  62  75
ATOM     75  C   UNL A   1      44.951  29.018  34.034  1.00  0.00    -0.014 A 
ATOM     76  C   UNL A   1      44.978  28.043  35.045  1.00  0.00     0.009 A 
ATOM     77  C   UNL A   1      46.170  29.505  33.533  1.00  0.00     0.009 A 
ATOM     78  C   UNL A   1      46.193  27.613  35.584  1.00  0.00     0.001 A 
ATOM     79  C   UNL A   1      47.384  29.042  34.043  1.00  0.00     0.001 A 
ATOM     80  C   UNL A   1      47.394  28.110  35.080  1.00  0.00     0.000 A 
ENDBRANCH  62  75
ENDBRANCH  36  37
ENDBRANCH  28  31
ENDBRANCH  26  27
ENDBRANCH  25  26
ENDBRANCH  24  25
ENDBRANCH  23  24
ENDBRANCH   1  23
TORSDOF 17
ENDMDL
