MODEL 1
REMARK VINA RESULT:      -9.5      0.000      0.000
REMARK SMILES O=C(NCCCCCCNC(=O)c1ccccc1NC(=O)c1ccc(N2C(=O)[C@H]3CC=CC[C@H]3C2=O)cc1)c1ccc(-c2c3nc(c(-c4ccccc4)c4ccc([nH]4)c(-c4ccccc4)c4nc(c(-c5ccccc5)c5ccc2[nH]5)C=C4)C=C3)cc1
REMARK SMILES IDX 7 1 6 2 5 3 4 4 3 5 1 6 2 7 39 9 40 10 86 11 41 12 85 13
REMARK SMILES IDX 42 14 43 15 44 16 79 17 45 18 84 19 78 20 80 21 46 22 83 23
REMARK SMILES IDX 77 24 76 25 47 27 69 28 54 29 68 30 55 31 58 32 67 33 81 34
REMARK SMILES IDX 56 35 57 36 66 38 82 39 59 40 48 41 49 42 53 43 50 44 52 45
REMARK SMILES IDX 51 46 70 47 71 48 75 49 72 50 74 51 73 52 60 53 61 54 65 55
REMARK SMILES IDX 62 56 64 57 63 58 8 59 9 60 10 61 11 62 12 64 13 65 14 66
REMARK SMILES IDX 18 67 15 68 17 69 16 70 19 71 20 72 21 74 22 75 23 76 38 77
REMARK SMILES IDX 24 78 37 79 25 80 26 81 27 82 35 83 28 84 29 85 34 86 36 87
REMARK SMILES IDX 30 88 33 89 31 90 32 91
REMARK H PARENT 3 8 80 26 58 37 10 63 19 73
REMARK Flexibility Score: inf
ROOT
ATOM      1  C   UNL A   1      45.133  22.835  23.896  1.00  0.00     0.002 C 
ENDROOT
BRANCH   1   2
ATOM      2  C   UNL A   1      45.201  23.694  25.162  1.00  0.00     0.002 C 
BRANCH   2   3
ATOM      3  C   UNL A   1      46.440  23.498  26.032  1.00  0.00     0.021 C 
BRANCH   3   4
ATOM      4  C   UNL A   1      47.280  24.747  26.250  1.00  0.00     0.116 C 
BRANCH   4   5
ATOM      5  N   UNL A   1      47.311  25.624  25.092  1.00  0.00    -0.352 N 
ATOM      6  O   UNL A   1      46.767  27.436  23.854  1.00  0.00    -0.269 OA
ATOM      7  C   UNL A   1      46.759  26.874  24.945  1.00  0.00     0.251 C 
ATOM      8  H   UNL A   1      47.791  25.276  24.306  1.00  0.00     0.163 HD
BRANCH   7   9
ATOM      9  C   UNL A   1      46.128  27.534  26.110  1.00  0.00     0.039 A 
ATOM     10  C   UNL A   1      44.742  27.509  26.277  1.00  0.00     0.014 A 
ATOM     11  C   UNL A   1      46.937  28.186  27.045  1.00  0.00     0.014 A 
ATOM     12  C   UNL A   1      44.158  28.246  27.300  1.00  0.00     0.010 A 
ATOM     13  C   UNL A   1      46.352  28.854  28.125  1.00  0.00     0.010 A 
ATOM     14  C   UNL A   1      44.956  28.908  28.249  1.00  0.00    -0.014 A 
BRANCH  14  15
ATOM     15  C   UNL A   1      44.300  29.567  29.404  1.00  0.00     0.031 A 
ATOM     16  C   UNL A   1      44.002  28.821  30.674  1.00  0.00     0.074 A 
ATOM     17  C   UNL A   1      44.005  30.879  29.306  1.00  0.00     0.049 A 
ATOM     18  N   UNL A   1      43.474  29.271  31.785  1.00  0.00    -0.248 NA
ATOM     19  C   UNL A   1      44.333  27.388  30.704  1.00  0.00     0.031 C 
ATOM     20  C   UNL A   1      44.239  31.708  28.119  1.00  0.00     0.029 A 
ATOM     21  N   UNL A   1      43.472  31.751  30.219  1.00  0.00    -0.354 N 
ATOM     22  C   UNL A   1      43.394  28.179  32.640  1.00  0.00     0.074 A 
ATOM     23  C   UNL A   1      43.907  27.038  31.912  1.00  0.00     0.031 C 
ATOM     24  C   UNL A   1      43.906  32.976  28.395  1.00  0.00     0.029 A 
ATOM     25  C   UNL A   1      43.374  33.039  29.751  1.00  0.00     0.049 A 
ATOM     26  H   UNL A   1      43.188  31.481  31.121  1.00  0.00     0.167 HD
ATOM     27  C   UNL A   1      42.939  28.135  33.915  1.00  0.00     0.031 A 
ATOM     28  C   UNL A   1      42.896  34.150  30.339  1.00  0.00     0.031 A 
ATOM     29  C   UNL A   1      42.427  29.273  34.635  1.00  0.00     0.049 A 
ATOM     30  C   UNL A   1      42.370  34.061  31.740  1.00  0.00     0.074 A 
ATOM     31  C   UNL A   1      41.965  29.331  35.940  1.00  0.00     0.029 A 
ATOM     32  N   UNL A   1      42.303  30.550  34.112  1.00  0.00    -0.354 N 
ATOM     33  N   UNL A   1      42.335  33.026  32.544  1.00  0.00    -0.248 NA
ATOM     34  C   UNL A   1      41.819  35.295  32.315  1.00  0.00     0.031 C 
ATOM     35  C   UNL A   1      41.517  30.633  36.189  1.00  0.00     0.029 A 
ATOM     36  C   UNL A   1      41.750  31.398  35.058  1.00  0.00     0.049 A 
ATOM     37  H   UNL A   1      42.569  30.817  33.202  1.00  0.00     0.167 HD
ATOM     38  C   UNL A   1      41.767  33.486  33.723  1.00  0.00     0.074 A 
ATOM     39  C   UNL A   1      41.503  34.899  33.540  1.00  0.00     0.031 C 
ATOM     40  C   UNL A   1      41.483  32.797  34.855  1.00  0.00     0.031 A 
BRANCH  27  41
ATOM     41  C   UNL A   1      42.952  26.805  34.618  1.00  0.00    -0.014 A 
ATOM     42  C   UNL A   1      44.136  26.280  35.160  1.00  0.00     0.009 A 
ATOM     43  C   UNL A   1      41.753  26.100  34.799  1.00  0.00     0.009 A 
ATOM     44  C   UNL A   1      44.120  25.065  35.848  1.00  0.00     0.001 A 
ATOM     45  C   UNL A   1      41.735  24.897  35.508  1.00  0.00     0.001 A 
ATOM     46  C   UNL A   1      42.920  24.377  36.027  1.00  0.00     0.000 A 
ENDBRANCH  27  41
BRANCH  28  47
ATOM     47  C   UNL A   1      42.874  35.434  29.592  1.00  0.00    -0.014 A 
ATOM     48  C   UNL A   1      43.883  36.389  29.780  1.00  0.00     0.009 A 
ATOM     49  C   UNL A   1      41.840  35.706  28.683  1.00  0.00     0.009 A 
ATOM     50  C   UNL A   1      43.843  37.603  29.090  1.00  0.00     0.001 A 
ATOM     51  C   UNL A   1      41.819  36.907  27.971  1.00  0.00     0.001 A 
ATOM     52  C   UNL A   1      42.814  37.858  28.183  1.00  0.00     0.000 A 
ENDBRANCH  28  47
BRANCH  40  53
ATOM     53  C   UNL A   1      40.873  33.578  35.983  1.00  0.00    -0.014 A 
ATOM     54  C   UNL A   1      41.676  34.262  36.910  1.00  0.00     0.009 A 
ATOM     55  C   UNL A   1      39.478  33.638  36.115  1.00  0.00     0.009 A 
ATOM     56  C   UNL A   1      41.093  34.957  37.971  1.00  0.00     0.001 A 
ATOM     57  C   UNL A   1      38.896  34.357  37.160  1.00  0.00     0.001 A 
ATOM     58  C   UNL A   1      39.704  35.006  38.093  1.00  0.00     0.000 A 
ENDBRANCH  40  53
ENDBRANCH  14  15
ENDBRANCH   7   9
ENDBRANCH   4   5
ENDBRANCH   3   4
ENDBRANCH   2   3
ENDBRANCH   1   2
BRANCH   1  59
ATOM     59  C   UNL A   1      44.603  21.406  24.073  1.00  0.00     0.021 C 
BRANCH  59  60
ATOM     60  C   UNL A   1      43.935  21.115  25.415  1.00  0.00     0.116 C 
BRANCH  60  61
ATOM     61  N   UNL A   1      42.553  21.556  25.442  1.00  0.00    -0.352 N 
ATOM     62  C   UNL A   1      41.889  22.301  26.378  1.00  0.00     0.253 C 
ATOM     63  H   UNL A   1      42.010  21.277  24.669  1.00  0.00     0.163 HD
ATOM     64  O   UNL A   1      40.669  22.417  26.307  1.00  0.00    -0.269 OA
BRANCH  62  65
ATOM     65  C   UNL A   1      42.616  22.978  27.472  1.00  0.00     0.063 A 
ATOM     66  C   UNL A   1      43.202  22.131  28.428  1.00  0.00     0.016 A 
ATOM     67  C   UNL A   1      42.651  24.382  27.624  1.00  0.00     0.054 A 
ATOM     68  C   UNL A   1      43.827  22.665  29.549  1.00  0.00     0.001 A 
ATOM     69  C   UNL A   1      43.219  24.886  28.800  1.00  0.00     0.027 A 
ATOM     70  C   UNL A   1      43.818  24.041  29.744  1.00  0.00     0.002 A 
BRANCH  67  71
ATOM     71  N   UNL A   1      42.099  25.203  26.612  1.00  0.00    -0.321 N 
ATOM     72  C   UNL A   1      41.175  26.225  26.610  1.00  0.00     0.255 C 
ATOM     73  H   UNL A   1      42.450  24.999  25.715  1.00  0.00     0.170 HD
ATOM     74  O   UNL A   1      40.868  26.771  25.553  1.00  0.00    -0.269 OA
BRANCH  72  75
ATOM     75  C   UNL A   1      40.555  26.712  27.849  1.00  0.00     0.040 A 
ATOM     76  C   UNL A   1      40.878  28.000  28.271  1.00  0.00     0.016 A 
ATOM     77  C   UNL A   1      39.629  25.948  28.559  1.00  0.00     0.016 A 
ATOM     78  C   UNL A   1      40.164  28.578  29.322  1.00  0.00     0.027 A 
ATOM     79  C   UNL A   1      38.924  26.534  29.618  1.00  0.00     0.027 A 
ATOM     80  C   UNL A   1      39.136  27.879  29.977  1.00  0.00     0.052 A 
BRANCH  80  81
ATOM     81  N   UNL A   1      38.273  28.537  30.903  1.00  0.00    -0.250 N 
ATOM     82  C   UNL A   1      38.486  28.561  32.262  1.00  0.00     0.238 C 
ATOM     83  C   UNL A   1      37.178  29.284  30.546  1.00  0.00     0.238 C 
ATOM     84  O   UNL A   1      39.360  27.994  32.907  1.00  0.00    -0.274 OA
ATOM     85  C   UNL A   1      37.470  29.464  32.920  1.00  0.00     0.096 C 
ATOM     86  C   UNL A   1      36.632  29.998  31.759  1.00  0.00     0.096 C 
ATOM     87  O   UNL A   1      36.651  29.377  29.445  1.00  0.00    -0.274 OA
ATOM     88  C   UNL A   1      38.186  30.521  33.767  1.00  0.00     0.041 C 
ATOM     89  C   UNL A   1      36.682  31.510  31.519  1.00  0.00     0.041 C 
ATOM     90  C   UNL A   1      38.687  31.675  32.952  1.00  0.00    -0.030 C 
ATOM     91  C   UNL A   1      37.990  32.131  31.904  1.00  0.00    -0.030 C 
ENDBRANCH  80  81
ENDBRANCH  72  75
ENDBRANCH  67  71
ENDBRANCH  62  65
ENDBRANCH  60  61
ENDBRANCH  59  60
ENDBRANCH   1  59
TORSDOF 16
ENDMDL
MODEL 2
REMARK VINA RESULT:      -9.3      2.528     10.968
REMARK SMILES O=C(NCCCCCCNC(=O)c1ccccc1NC(=O)c1ccc(N2C(=O)[C@H]3CC=CC[C@H]3C2=O)cc1)c1ccc(-c2c3nc(c(-c4ccccc4)c4ccc([nH]4)c(-c4ccccc4)c4nc(c(-c5ccccc5)c5ccc2[nH]5)C=C4)C=C3)cc1
REMARK SMILES IDX 7 1 6 2 5 3 4 4 3 5 1 6 2 7 39 9 40 10 86 11 41 12 85 13
REMARK SMILES IDX 42 14 43 15 44 16 79 17 45 18 84 19 78 20 80 21 46 22 83 23
REMARK SMILES IDX 77 24 76 25 47 27 69 28 54 29 68 30 55 31 58 32 67 33 81 34
REMARK SMILES IDX 56 35 57 36 66 38 82 39 59 40 48 41 49 42 53 43 50 44 52 45
REMARK SMILES IDX 51 46 70 47 71 48 75 49 72 50 74 51 73 52 60 53 61 54 65 55
REMARK SMILES IDX 62 56 64 57 63 58 8 59 9 60 10 61 11 62 12 64 13 65 14 66
REMARK SMILES IDX 18 67 15 68 17 69 16 70 19 71 20 72 21 74 22 75 23 76 38 77
REMARK SMILES IDX 24 78 37 79 25 80 26 81 27 82 35 83 28 84 29 85 34 86 36 87
REMARK SMILES IDX 30 88 33 89 31 90 32 91
REMARK H PARENT 3 8 80 26 58 37 10 63 19 73
REMARK Flexibility Score: inf
ROOT
ATOM      1  C   UNL A   1      39.673  34.575  32.680  1.00  0.00     0.002 C 
ENDROOT
BRANCH   1   2
ATOM      2  C   UNL A   1      40.054  34.728  34.156  1.00  0.00     0.002 C 
BRANCH   2   3
ATOM      3  C   UNL A   1      38.897  34.680  35.149  1.00  0.00     0.021 C 
BRANCH   3   4
ATOM      4  C   UNL A   1      39.291  34.384  36.588  1.00  0.00     0.116 C 
BRANCH   4   5
ATOM      5  N   UNL A   1      38.535  33.290  37.174  1.00  0.00    -0.352 N 
ATOM      6  O   UNL A   1      37.753  31.177  37.350  1.00  0.00    -0.269 OA
ATOM      7  C   UNL A   1      38.548  31.959  36.837  1.00  0.00     0.251 C 
ATOM      8  H   UNL A   1      37.932  33.537  37.912  1.00  0.00     0.163 HD
BRANCH   7   9
ATOM      9  C   UNL A   1      39.515  31.471  35.829  1.00  0.00     0.039 A 
ATOM     10  C   UNL A   1      40.889  31.572  36.055  1.00  0.00     0.014 A 
ATOM     11  C   UNL A   1      39.038  30.904  34.644  1.00  0.00     0.014 A 
ATOM     12  C   UNL A   1      41.781  31.233  35.044  1.00  0.00     0.010 A 
ATOM     13  C   UNL A   1      39.940  30.482  33.662  1.00  0.00     0.010 A 
ATOM     14  C   UNL A   1      41.319  30.663  33.846  1.00  0.00    -0.014 A 
BRANCH  14  15
ATOM     15  C   UNL A   1      42.308  30.187  32.848  1.00  0.00     0.031 A 
ATOM     16  C   UNL A   1      42.764  31.058  31.712  1.00  0.00     0.074 A 
ATOM     17  C   UNL A   1      42.823  28.951  33.003  1.00  0.00     0.049 A 
ATOM     18  N   UNL A   1      43.655  30.798  30.787  1.00  0.00    -0.248 NA
ATOM     19  C   UNL A   1      42.145  32.386  31.593  1.00  0.00     0.031 C 
ATOM     20  C   UNL A   1      42.450  28.010  34.063  1.00  0.00     0.029 A 
ATOM     21  N   UNL A   1      43.787  28.284  32.292  1.00  0.00    -0.354 N 
ATOM     22  C   UNL A   1      43.693  31.919  29.968  1.00  0.00     0.074 A 
ATOM     23  C   UNL A   1      42.720  32.855  30.491  1.00  0.00     0.031 C 
ATOM     24  C   UNL A   1      43.214  26.912  33.967  1.00  0.00     0.029 A 
ATOM     25  C   UNL A   1      44.082  27.043  32.803  1.00  0.00     0.049 A 
ATOM     26  H   UNL A   1      44.224  28.657  31.494  1.00  0.00     0.167 HD
ATOM     27  C   UNL A   1      44.471  32.148  28.883  1.00  0.00     0.031 A 
ATOM     28  C   UNL A   1      44.945  26.104  32.378  1.00  0.00     0.031 A 
ATOM     29  C   UNL A   1      45.437  31.214  28.363  1.00  0.00     0.049 A 
ATOM     30  C   UNL A   1      45.770  26.376  31.156  1.00  0.00     0.074 A 
ATOM     31  C   UNL A   1      46.290  31.367  27.282  1.00  0.00     0.029 A 
ATOM     32  N   UNL A   1      45.675  29.951  28.883  1.00  0.00    -0.354 N 
ATOM     33  N   UNL A   1      45.816  27.456  30.415  1.00  0.00    -0.248 NA
ATOM     34  C   UNL A   1      46.662  25.297  30.711  1.00  0.00     0.031 C 
ATOM     35  C   UNL A   1      47.009  30.177  27.120  1.00  0.00     0.029 A 
ATOM     36  C   UNL A   1      46.643  29.305  28.131  1.00  0.00     0.049 A 
ATOM     37  H   UNL A   1      45.224  29.569  29.670  1.00  0.00     0.167 HD
ATOM     38  C   UNL A   1      46.748  27.192  29.422  1.00  0.00     0.074 A 
ATOM     39  C   UNL A   1      47.265  25.862  29.675  1.00  0.00     0.031 C 
ATOM     40  C   UNL A   1      47.137  27.978  28.389  1.00  0.00     0.031 A 
BRANCH  27  41
ATOM     41  C   UNL A   1      44.301  33.458  28.163  1.00  0.00    -0.014 A 
ATOM     42  C   UNL A   1      44.966  34.617  28.592  1.00  0.00     0.009 A 
ATOM     43  C   UNL A   1      43.518  33.517  26.999  1.00  0.00     0.009 A 
ATOM     44  C   UNL A   1      44.830  35.814  27.884  1.00  0.00     0.001 A 
ATOM     45  C   UNL A   1      43.403  34.708  26.279  1.00  0.00     0.001 A 
ATOM     46  C   UNL A   1      44.055  35.857  26.726  1.00  0.00     0.000 A 
ENDBRANCH  27  41
BRANCH  28  47
ATOM     47  C   UNL A   1      45.055  24.814  33.105  1.00  0.00    -0.014 A 
ATOM     48  C   UNL A   1      44.155  23.769  32.850  1.00  0.00     0.009 A 
ATOM     49  C   UNL A   1      46.067  24.621  34.058  1.00  0.00     0.009 A 
ATOM     50  C   UNL A   1      44.251  22.566  33.553  1.00  0.00     0.001 A 
ATOM     51  C   UNL A   1      46.181  23.408  34.737  1.00  0.00     0.001 A 
ATOM     52  C   UNL A   1      45.267  22.385  34.492  1.00  0.00     0.000 A 
ENDBRANCH  28  47
BRANCH  40  53
ATOM     53  C   UNL A   1      48.186  27.417  27.473  1.00  0.00    -0.014 A 
ATOM     54  C   UNL A   1      47.834  26.667  26.340  1.00  0.00     0.009 A 
ATOM     55  C   UNL A   1      49.542  27.650  27.742  1.00  0.00     0.009 A 
ATOM     56  C   UNL A   1      48.823  26.127  25.516  1.00  0.00     0.001 A 
ATOM     57  C   UNL A   1      50.529  27.133  26.901  1.00  0.00     0.001 A 
ATOM     58  C   UNL A   1      50.169  26.362  25.796  1.00  0.00     0.000 A 
ENDBRANCH  40  53
ENDBRANCH  14  15
ENDBRANCH   7   9
ENDBRANCH   4   5
ENDBRANCH   3   4
ENDBRANCH   2   3
ENDBRANCH   1   2
BRANCH   1  59
ATOM     59  C   UNL A   1      38.465  33.676  32.382  1.00  0.00     0.021 C 
BRANCH  59  60
ATOM     60  C   UNL A   1      37.206  34.402  31.915  1.00  0.00     0.116 C 
BRANCH  60  61
ATOM     61  N   UNL A   1      35.997  33.763  32.404  1.00  0.00    -0.352 N 
ATOM     62  C   UNL A   1      35.075  33.005  31.735  1.00  0.00     0.253 C 
ATOM     63  H   UNL A   1      35.812  33.897  33.361  1.00  0.00     0.163 HD
ATOM     64  O   UNL A   1      34.022  32.703  32.289  1.00  0.00    -0.269 OA
BRANCH  62  65
ATOM     65  C   UNL A   1      35.328  32.533  30.357  1.00  0.00     0.063 A 
ATOM     66  C   UNL A   1      35.023  33.448  29.336  1.00  0.00     0.016 A 
ATOM     67  C   UNL A   1      35.754  31.220  30.056  1.00  0.00     0.054 A 
ATOM     68  C   UNL A   1      35.133  33.071  28.002  1.00  0.00     0.001 A 
ATOM     69  C   UNL A   1      35.781  30.848  28.708  1.00  0.00     0.027 A 
ATOM     70  C   UNL A   1      35.493  31.766  27.690  1.00  0.00     0.002 A 
BRANCH  67  71
ATOM     71  N   UNL A   1      36.106  30.346  31.113  1.00  0.00    -0.321 N 
ATOM     72  C   UNL A   1      37.112  29.422  31.292  1.00  0.00     0.255 C 
ATOM     73  H   UNL A   1      35.501  30.412  31.887  1.00  0.00     0.170 HD
ATOM     74  O   UNL A   1      37.174  28.779  32.338  1.00  0.00    -0.269 OA
BRANCH  72  75
ATOM     75  C   UNL A   1      38.145  29.193  30.275  1.00  0.00     0.040 A 
ATOM     76  C   UNL A   1      39.163  30.137  30.161  1.00  0.00     0.016 A 
ATOM     77  C   UNL A   1      38.155  28.045  29.481  1.00  0.00     0.016 A 
ATOM     78  C   UNL A   1      40.269  29.862  29.356  1.00  0.00     0.027 A 
ATOM     79  C   UNL A   1      39.266  27.783  28.668  1.00  0.00     0.027 A 
ATOM     80  C   UNL A   1      40.370  28.657  28.640  1.00  0.00     0.052 A 
BRANCH  80  81
ATOM     81  N   UNL A   1      41.583  28.288  27.989  1.00  0.00    -0.250 N 
ATOM     82  C   UNL A   1      42.567  27.526  28.579  1.00  0.00     0.238 C 
ATOM     83  C   UNL A   1      41.880  28.578  26.680  1.00  0.00     0.238 C 
ATOM     84  O   UNL A   1      42.621  27.109  29.730  1.00  0.00    -0.274 OA
ATOM     85  C   UNL A   1      43.636  27.202  27.562  1.00  0.00     0.096 C 
ATOM     86  C   UNL A   1      43.142  27.857  26.273  1.00  0.00     0.096 C 
ATOM     87  O   UNL A   1      41.282  29.324  25.916  1.00  0.00    -0.274 OA
ATOM     88  C   UNL A   1      43.851  25.687  27.501  1.00  0.00     0.041 C 
ATOM     89  C   UNL A   1      42.829  26.916  25.105  1.00  0.00     0.041 C 
ATOM     90  C   UNL A   1      42.831  24.990  26.652  1.00  0.00    -0.030 C 
ATOM     91  C   UNL A   1      42.353  25.564  25.542  1.00  0.00    -0.030 C 
ENDBRANCH  80  81
ENDBRANCH  72  75
ENDBRANCH  67  71
ENDBRANCH  62  65
ENDBRANCH  60  61
ENDBRANCH  59  60
ENDBRANCH   1  59
TORSDOF 16
ENDMDL
MODEL 3
REMARK VINA RESULT:      -9.1      2.359     10.981
REMARK SMILES O=C(NCCCCCCNC(=O)c1ccccc1NC(=O)c1ccc(N2C(=O)[C@H]3CC=CC[C@H]3C2=O)cc1)c1ccc(-c2c3nc(c(-c4ccccc4)c4ccc([nH]4)c(-c4ccccc4)c4nc(c(-c5ccccc5)c5ccc2[nH]5)C=C4)C=C3)cc1
REMARK SMILES IDX 7 1 6 2 5 3 4 4 3 5 1 6 2 7 39 9 40 10 86 11 41 12 85 13
REMARK SMILES IDX 42 14 43 15 44 16 79 17 45 18 84 19 78 20 80 21 46 22 83 23
REMARK SMILES IDX 77 24 76 25 47 27 69 28 54 29 68 30 55 31 58 32 67 33 81 34
REMARK SMILES IDX 56 35 57 36 66 38 82 39 59 40 48 41 49 42 53 43 50 44 52 45
REMARK SMILES IDX 51 46 70 47 71 48 75 49 72 50 74 51 73 52 60 53 61 54 65 55
REMARK SMILES IDX 62 56 64 57 63 58 8 59 9 60 10 61 11 62 12 64 13 65 14 66
REMARK SMILES IDX 18 67 15 68 17 69 16 70 19 71 20 72 21 74 22 75 23 76 38 77
REMARK SMILES IDX 24 78 37 79 25 80 26 81 27 82 35 83 28 84 29 85 34 86 36 87
REMARK SMILES IDX 30 88 33 89 31 90 32 91
REMARK H PARENT 3 8 80 26 58 37 10 63 19 73
REMARK Flexibility Score: inf
ROOT
ATOM      1  C   UNL A   1      35.067  33.036  33.349  1.00  0.00     0.002 C 
ENDROOT
BRANCH   1   2
ATOM      2  C   UNL A   1      36.463  33.582  33.666  1.00  0.00     0.002 C 
BRANCH   2   3
ATOM      3  C   UNL A   1      36.671  34.087  35.091  1.00  0.00     0.021 C 
BRANCH   3   4
ATOM      4  C   UNL A   1      38.117  34.364  35.475  1.00  0.00     0.116 C 
BRANCH   4   5
ATOM      5  N   UNL A   1      38.488  33.788  36.756  1.00  0.00    -0.352 N 
ATOM      6  O   UNL A   1      39.491  32.319  38.150  1.00  0.00    -0.269 OA
ATOM      7  C   UNL A   1      39.382  32.778  37.018  1.00  0.00     0.251 C 
ATOM      8  H   UNL A   1      38.038  34.172  37.543  1.00  0.00     0.163 HD
BRANCH   7   9
ATOM      9  C   UNL A   1      40.201  32.226  35.916  1.00  0.00     0.039 A 
ATOM     10  C   UNL A   1      39.622  31.419  34.935  1.00  0.00     0.014 A 
ATOM     11  C   UNL A   1      41.567  32.521  35.867  1.00  0.00     0.014 A 
ATOM     12  C   UNL A   1      40.427  30.801  33.986  1.00  0.00     0.010 A 
ATOM     13  C   UNL A   1      42.362  31.967  34.859  1.00  0.00     0.010 A 
ATOM     14  C   UNL A   1      41.802  31.085  33.923  1.00  0.00    -0.014 A 
BRANCH  14  15
ATOM     15  C   UNL A   1      42.604  30.515  32.813  1.00  0.00     0.031 A 
ATOM     16  C   UNL A   1      43.009  31.344  31.626  1.00  0.00     0.074 A 
ATOM     17  C   UNL A   1      42.998  29.230  32.907  1.00  0.00     0.049 A 
ATOM     18  N   UNL A   1      43.745  30.998  30.599  1.00  0.00    -0.248 NA
ATOM     19  C   UNL A   1      42.526  32.732  31.580  1.00  0.00     0.031 C 
ATOM     20  C   UNL A   1      42.658  28.323  34.008  1.00  0.00     0.029 A 
ATOM     21  N   UNL A   1      43.789  28.470  32.085  1.00  0.00    -0.354 N 
ATOM     22  C   UNL A   1      43.803  32.117  29.778  1.00  0.00     0.074 A 
ATOM     23  C   UNL A   1      43.009  33.147  30.414  1.00  0.00     0.031 C 
ATOM     24  C   UNL A   1      43.282  27.151  33.822  1.00  0.00     0.029 A 
ATOM     25  C   UNL A   1      44.009  27.200  32.560  1.00  0.00     0.049 A 
ATOM     26  H   UNL A   1      44.163  28.802  31.237  1.00  0.00     0.167 HD
ATOM     27  C   UNL A   1      44.462  32.272  28.604  1.00  0.00     0.031 A 
ATOM     28  C   UNL A   1      44.707  26.178  32.034  1.00  0.00     0.031 A 
ATOM     29  C   UNL A   1      45.250  31.244  27.973  1.00  0.00     0.049 A 
ATOM     30  C   UNL A   1      45.400  26.371  30.719  1.00  0.00     0.074 A 
ATOM     31  C   UNL A   1      45.975  31.316  26.794  1.00  0.00     0.029 A 
ATOM     32  N   UNL A   1      45.413  29.959  28.463  1.00  0.00    -0.354 N 
ATOM     33  N   UNL A   1      45.470  27.448  29.974  1.00  0.00    -0.248 NA
ATOM     34  C   UNL A   1      46.109  25.207  30.171  1.00  0.00     0.031 C 
ATOM     35  C   UNL A   1      46.536  30.058  26.548  1.00  0.00     0.029 A 
ATOM     36  C   UNL A   1      46.205  29.219  27.600  1.00  0.00     0.049 A 
ATOM     37  H   UNL A   1      45.023  29.620  29.301  1.00  0.00     0.167 HD
ATOM     38  C   UNL A   1      46.240  27.095  28.875  1.00  0.00     0.074 A 
ATOM     39  C   UNL A   1      46.637  25.714  29.067  1.00  0.00     0.031 C 
ATOM     40  C   UNL A   1      46.581  27.844  27.800  1.00  0.00     0.031 A 
BRANCH  27  41
ATOM     41  C   UNL A   1      44.347  33.599  27.906  1.00  0.00    -0.014 A 
ATOM     42  C   UNL A   1      45.161  34.685  28.267  1.00  0.00     0.009 A 
ATOM     43  C   UNL A   1      43.459  33.746  26.829  1.00  0.00     0.009 A 
ATOM     44  C   UNL A   1      45.070  35.896  27.577  1.00  0.00     0.001 A 
ATOM     45  C   UNL A   1      43.388  34.950  26.125  1.00  0.00     0.001 A 
ATOM     46  C   UNL A   1      44.189  36.026  26.504  1.00  0.00     0.000 A 
ENDBRANCH  27  41
BRANCH  28  47
ATOM     47  C   UNL A   1      44.765  24.875  32.746  1.00  0.00    -0.014 A 
ATOM     48  C   UNL A   1      43.794  23.890  32.518  1.00  0.00     0.009 A 
ATOM     49  C   UNL A   1      45.800  24.612  33.658  1.00  0.00     0.009 A 
ATOM     50  C   UNL A   1      43.844  22.677  33.208  1.00  0.00     0.001 A 
ATOM     51  C   UNL A   1      45.865  23.387  34.323  1.00  0.00     0.001 A 
ATOM     52  C   UNL A   1      44.882  22.425  34.105  1.00  0.00     0.000 A 
ENDBRANCH  28  47
BRANCH  40  53
ATOM     53  C   UNL A   1      47.443  27.183  26.763  1.00  0.00    -0.014 A 
ATOM     54  C   UNL A   1      48.844  27.238  26.842  1.00  0.00     0.009 A 
ATOM     55  C   UNL A   1      46.847  26.490  25.700  1.00  0.00     0.009 A 
ATOM     56  C   UNL A   1      49.629  26.644  25.853  1.00  0.00     0.001 A 
ATOM     57  C   UNL A   1      47.635  25.873  24.727  1.00  0.00     0.001 A 
ATOM     58  C   UNL A   1      49.025  25.960  24.799  1.00  0.00     0.000 A 
ENDBRANCH  40  53
ENDBRANCH  14  15
ENDBRANCH   7   9
ENDBRANCH   4   5
ENDBRANCH   3   4
ENDBRANCH   2   3
ENDBRANCH   1   2
BRANCH   1  59
ATOM     59  C   UNL A   1      34.116  33.992  32.617  1.00  0.00     0.021 C 
BRANCH  59  60
ATOM     60  C   UNL A   1      34.371  34.154  31.120  1.00  0.00     0.116 C 
BRANCH  60  61
ATOM     61  N   UNL A   1      34.385  32.877  30.430  1.00  0.00    -0.352 N 
ATOM     62  C   UNL A   1      35.420  32.220  29.824  1.00  0.00     0.253 C 
ATOM     63  H   UNL A   1      33.516  32.414  30.391  1.00  0.00     0.163 HD
ATOM     64  O   UNL A   1      35.190  31.230  29.135  1.00  0.00    -0.269 OA
BRANCH  62  65
ATOM     65  C   UNL A   1      36.817  32.675  29.991  1.00  0.00     0.063 A 
ATOM     66  C   UNL A   1      37.191  33.784  29.213  1.00  0.00     0.016 A 
ATOM     67  C   UNL A   1      37.759  31.999  30.797  1.00  0.00     0.054 A 
ATOM     68  C   UNL A   1      38.507  34.233  29.222  1.00  0.00     0.001 A 
ATOM     69  C   UNL A   1      39.089  32.427  30.725  1.00  0.00     0.027 A 
ATOM     70  C   UNL A   1      39.458  33.543  29.962  1.00  0.00     0.002 A 
BRANCH  67  71
ATOM     71  N   UNL A   1      37.330  30.921  31.609  1.00  0.00    -0.321 N 
ATOM     72  C   UNL A   1      37.560  29.563  31.591  1.00  0.00     0.255 C 
ATOM     73  H   UNL A   1      36.739  31.203  32.344  1.00  0.00     0.170 HD
ATOM     74  O   UNL A   1      37.037  28.842  32.438  1.00  0.00    -0.269 OA
BRANCH  72  75
ATOM     75  C   UNL A   1      38.444  28.938  30.599  1.00  0.00     0.040 A 
ATOM     76  C   UNL A   1      39.591  28.299  31.064  1.00  0.00     0.016 A 
ATOM     77  C   UNL A   1      38.131  28.926  29.239  1.00  0.00     0.016 A 
ATOM     78  C   UNL A   1      40.348  27.522  30.187  1.00  0.00     0.027 A 
ATOM     79  C   UNL A   1      38.904  28.150  28.365  1.00  0.00     0.027 A 
ATOM     80  C   UNL A   1      39.989  27.385  28.836  1.00  0.00     0.052 A 
BRANCH  80  81
ATOM     81  N   UNL A   1      40.636  26.433  27.995  1.00  0.00    -0.250 N 
ATOM     82  C   UNL A   1      41.942  26.549  27.573  1.00  0.00     0.238 C 
ATOM     83  C   UNL A   1      40.066  25.259  27.570  1.00  0.00     0.238 C 
ATOM     84  O   UNL A   1      42.726  27.470  27.764  1.00  0.00    -0.274 OA
ATOM     85  C   UNL A   1      42.345  25.301  26.825  1.00  0.00     0.096 C 
ATOM     86  C   UNL A   1      41.105  24.410  26.877  1.00  0.00     0.096 C 
ATOM     87  O   UNL A   1      38.898  24.905  27.671  1.00  0.00    -0.274 OA
ATOM     88  C   UNL A   1      43.616  24.712  27.445  1.00  0.00     0.041 C 
ATOM     89  C   UNL A   1      41.249  23.081  27.626  1.00  0.00     0.041 C 
ATOM     90  C   UNL A   1      43.337  23.890  28.668  1.00  0.00    -0.030 C 
ATOM     91  C   UNL A   1      42.235  23.137  28.753  1.00  0.00    -0.030 C 
ENDBRANCH  80  81
ENDBRANCH  72  75
ENDBRANCH  67  71
ENDBRANCH  62  65
ENDBRANCH  60  61
ENDBRANCH  59  60
ENDBRANCH   1  59
TORSDOF 16
ENDMDL
