MODEL 1
REMARK VINA RESULT:     -10.8      0.000      0.000
REMARK SMILES C[C@H]([C@@H]1CCCO1)n1c(SCC(=O)NCCCCCCNC(=O)c2ccc(-c3c4nc(c(-c5ccccc5)c5ccc([nH]5)c(-c5ccccc5)c5nc(c(-c6ccccc6)c6ccc3[nH]6)C=C5)C=C4)cc2)nc2cnccc21
REMARK SMILES IDX 16 1 15 2 14 3 12 4 13 5 11 7 10 8 9 9 8 10 78 11 72 12
REMARK SMILES IDX 73 13 77 14 74 15 76 16 75 17 2 18 1 19 3 20 4 21 7 22 5 23
REMARK SMILES IDX 6 24 17 25 18 26 19 27 20 28 21 29 22 30 23 32 24 33 25 34
REMARK SMILES IDX 71 35 26 36 70 37 27 38 28 39 29 40 64 41 30 42 69 43 63 44
REMARK SMILES IDX 65 45 31 46 68 47 62 48 61 49 32 51 54 52 39 53 53 54 40 55
REMARK SMILES IDX 43 56 52 57 66 58 41 59 42 60 51 62 67 63 44 64 33 65 34 66
REMARK SMILES IDX 38 67 35 68 37 69 36 70 55 71 56 72 60 73 57 74 59 75 58 76
REMARK SMILES IDX 45 77 46 78 50 79 47 80 49 81 48 82
REMARK H PARENT 14 6 21 31 65 50 43 61
REMARK Flexibility Score: inf
ROOT
ATOM      1  C   UNL A   1      33.997  27.614  25.633  1.00  0.00     0.021 C 
ENDROOT
BRANCH   1   2
ATOM      2  C   UNL A   1      32.787  27.302  24.765  1.00  0.00     0.116 C 
BRANCH   2   3
ATOM      3  N   UNL A   1      33.187  26.588  23.581  1.00  0.00    -0.355 N 
ATOM      4  C   UNL A   1      33.326  25.252  23.437  1.00  0.00     0.230 C 
ATOM      5  O   UNL A   1      33.577  24.810  22.312  1.00  0.00    -0.274 OA
ATOM      6  H   UNL A   1      33.379  27.136  22.785  1.00  0.00     0.163 HD
BRANCH   4   7
ATOM      7  C   UNL A   1      33.035  24.331  24.586  1.00  0.00     0.178 C 
BRANCH   7   8
ATOM      8  S   UNL A   1      31.981  22.912  24.308  1.00  0.00    -0.078 SA
BRANCH   8   9
ATOM      9  C   UNL A   1      32.641  21.318  24.149  1.00  0.00     0.169 A 
ATOM     10  N   UNL A   1      33.653  20.605  24.767  1.00  0.00    -0.313 N 
ATOM     11  C   UNL A   1      33.579  19.296  24.271  1.00  0.00     0.072 A 
ATOM     12  N   UNL A   1      32.128  20.609  23.158  1.00  0.00    -0.221 NA
ATOM     13  C   UNL A   1      32.681  19.364  23.218  1.00  0.00     0.108 A 
ATOM     14  C   UNL A   1      34.206  18.090  24.611  1.00  0.00     0.049 A 
ATOM     15  C   UNL A   1      32.455  18.228  22.435  1.00  0.00     0.141 A 
ATOM     16  C   UNL A   1      33.893  17.006  23.802  1.00  0.00     0.113 A 
ATOM     17  N   UNL A   1      33.064  17.049  22.736  1.00  0.00    -0.262 NA
BRANCH  10  18
ATOM     18  C   UNL A   1      34.650  20.951  25.779  1.00  0.00     0.116 C 
ATOM     19  C   UNL A   1      34.007  21.686  26.943  1.00  0.00     0.034 C 
BRANCH  18  20
ATOM     20  C   UNL A   1      36.061  21.379  25.288  1.00  0.00     0.141 C 
ATOM     21  C   UNL A   1      36.845  22.408  26.069  1.00  0.00     0.036 C 
ATOM     22  O   UNL A   1      35.953  21.913  23.946  1.00  0.00    -0.376 OA
ATOM     23  C   UNL A   1      37.407  23.368  25.061  1.00  0.00     0.031 C 
ATOM     24  C   UNL A   1      36.372  23.284  23.968  1.00  0.00     0.160 C 
ENDBRANCH  18  20
ENDBRANCH  10  18
ENDBRANCH   8   9
ENDBRANCH   7   8
ENDBRANCH   4   7
ENDBRANCH   2   3
ENDBRANCH   1   2
BRANCH   1  25
ATOM     25  C   UNL A   1      33.634  28.286  26.959  1.00  0.00     0.002 C 
BRANCH  25  26
ATOM     26  C   UNL A   1      34.491  29.505  27.304  1.00  0.00     0.002 C 
BRANCH  26  27
ATOM     27  C   UNL A   1      33.704  30.806  27.502  1.00  0.00     0.021 C 
BRANCH  27  28
ATOM     28  C   UNL A   1      34.584  32.027  27.760  1.00  0.00     0.116 C 
BRANCH  28  29
ATOM     29  N   UNL A   1      34.501  32.483  29.125  1.00  0.00    -0.352 N 
ATOM     30  C   UNL A   1      35.256  32.260  30.234  1.00  0.00     0.251 C 
ATOM     31  H   UNL A   1      33.736  33.082  29.290  1.00  0.00     0.163 HD
ATOM     32  O   UNL A   1      34.860  32.794  31.281  1.00  0.00    -0.269 OA
BRANCH  30  33
ATOM     33  C   UNL A   1      36.470  31.400  30.284  1.00  0.00     0.039 A 
ATOM     34  C   UNL A   1      37.777  31.804  30.008  1.00  0.00     0.014 A 
ATOM     35  C   UNL A   1      36.248  30.051  30.615  1.00  0.00     0.014 A 
ATOM     36  C   UNL A   1      38.810  30.877  29.961  1.00  0.00     0.010 A 
ATOM     37  C   UNL A   1      37.285  29.125  30.610  1.00  0.00     0.010 A 
ATOM     38  C   UNL A   1      38.560  29.533  30.241  1.00  0.00    -0.014 A 
BRANCH  38  39
ATOM     39  C   UNL A   1      39.696  28.623  30.195  1.00  0.00     0.031 A 
ATOM     40  C   UNL A   1      40.403  28.403  31.488  1.00  0.00     0.074 A 
ATOM     41  C   UNL A   1      40.096  27.963  29.092  1.00  0.00     0.049 A 
ATOM     42  N   UNL A   1      41.626  28.702  31.784  1.00  0.00    -0.248 NA
ATOM     43  C   UNL A   1      39.630  27.856  32.612  1.00  0.00     0.031 C 
ATOM     44  C   UNL A   1      39.417  27.820  27.804  1.00  0.00     0.029 A 
ATOM     45  N   UNL A   1      41.207  27.190  28.944  1.00  0.00    -0.354 N 
ATOM     46  C   UNL A   1      41.829  28.281  33.095  1.00  0.00     0.074 A 
ATOM     47  C   UNL A   1      40.544  27.839  33.583  1.00  0.00     0.031 C 
ATOM     48  C   UNL A   1      40.010  26.830  27.098  1.00  0.00     0.029 A 
ATOM     49  C   UNL A   1      41.199  26.396  27.811  1.00  0.00     0.049 A 
ATOM     50  H   UNL A   1      41.952  27.196  29.589  1.00  0.00     0.167 HD
ATOM     51  C   UNL A   1      43.066  28.208  33.658  1.00  0.00     0.031 A 
ATOM     52  C   UNL A   1      42.086  25.418  27.516  1.00  0.00     0.031 A 
ATOM     53  C   UNL A   1      44.045  28.956  32.919  1.00  0.00     0.049 A 
ATOM     54  C   UNL A   1      43.326  25.685  28.280  1.00  0.00     0.074 A 
ATOM     55  C   UNL A   1      44.218  30.294  32.627  1.00  0.00     0.029 A 
ATOM     56  N   UNL A   1      44.858  28.274  32.046  1.00  0.00    -0.354 N 
ATOM     57  N   UNL A   1      44.111  26.697  28.049  1.00  0.00    -0.248 NA
ATOM     58  C   UNL A   1      43.492  25.049  29.576  1.00  0.00     0.031 C 
ATOM     59  C   UNL A   1      44.719  30.314  31.294  1.00  0.00     0.029 A 
ATOM     60  C   UNL A   1      44.874  28.990  30.876  1.00  0.00     0.049 A 
ATOM     61  H   UNL A   1      45.337  27.433  32.226  1.00  0.00     0.167 HD
ATOM     62  C   UNL A   1      44.552  27.097  29.300  1.00  0.00     0.074 A 
ATOM     63  C   UNL A   1      44.230  25.980  30.187  1.00  0.00     0.031 C 
ATOM     64  C   UNL A   1      44.885  28.397  29.556  1.00  0.00     0.031 A 
BRANCH  51  65
ATOM     65  C   UNL A   1      43.449  27.243  34.745  1.00  0.00    -0.014 A 
ATOM     66  C   UNL A   1      43.558  27.624  36.096  1.00  0.00     0.009 A 
ATOM     67  C   UNL A   1      43.465  25.863  34.471  1.00  0.00     0.009 A 
ATOM     68  C   UNL A   1      43.680  26.682  37.122  1.00  0.00     0.001 A 
ATOM     69  C   UNL A   1      43.547  24.916  35.501  1.00  0.00     0.001 A 
ATOM     70  C   UNL A   1      43.653  25.326  36.826  1.00  0.00     0.000 A 
ENDBRANCH  51  65
BRANCH  52  71
ATOM     71  C   UNL A   1      41.801  24.094  26.926  1.00  0.00    -0.014 A 
ATOM     72  C   UNL A   1      40.785  23.287  27.471  1.00  0.00     0.009 A 
ATOM     73  C   UNL A   1      42.711  23.498  26.041  1.00  0.00     0.009 A 
ATOM     74  C   UNL A   1      40.712  21.922  27.182  1.00  0.00     0.001 A 
ATOM     75  C   UNL A   1      42.638  22.130  25.753  1.00  0.00     0.001 A 
ATOM     76  C   UNL A   1      41.650  21.339  26.336  1.00  0.00     0.000 A 
ENDBRANCH  52  71
BRANCH  64  77
ATOM     77  C   UNL A   1      44.976  29.361  28.393  1.00  0.00    -0.014 A 
ATOM     78  C   UNL A   1      46.248  29.753  27.944  1.00  0.00     0.009 A 
ATOM     79  C   UNL A   1      43.856  30.029  27.864  1.00  0.00     0.009 A 
ATOM     80  C   UNL A   1      46.398  30.782  27.011  1.00  0.00     0.001 A 
ATOM     81  C   UNL A   1      44.004  31.040  26.907  1.00  0.00     0.001 A 
ATOM     82  C   UNL A   1      45.276  31.424  26.490  1.00  0.00     0.000 A 
ENDBRANCH  64  77
ENDBRANCH  38  39
ENDBRANCH  30  33
ENDBRANCH  28  29
ENDBRANCH  27  28
ENDBRANCH  26  27
ENDBRANCH  25  26
ENDBRANCH   1  25
TORSDOF 17
ENDMDL
MODEL 2
REMARK VINA RESULT:     -10.6      2.762      8.415
REMARK SMILES C[C@H]([C@@H]1CCCO1)n1c(SCC(=O)NCCCCCCNC(=O)c2ccc(-c3c4nc(c(-c5ccccc5)c5ccc([nH]5)c(-c5ccccc5)c5nc(c(-c6ccccc6)c6ccc3[nH]6)C=C5)C=C4)cc2)nc2cnccc21
REMARK SMILES IDX 16 1 15 2 14 3 12 4 13 5 11 7 10 8 9 9 8 10 78 11 72 12
REMARK SMILES IDX 73 13 77 14 74 15 76 16 75 17 2 18 1 19 3 20 4 21 7 22 5 23
REMARK SMILES IDX 6 24 17 25 18 26 19 27 20 28 21 29 22 30 23 32 24 33 25 34
REMARK SMILES IDX 71 35 26 36 70 37 27 38 28 39 29 40 64 41 30 42 69 43 63 44
REMARK SMILES IDX 65 45 31 46 68 47 62 48 61 49 32 51 54 52 39 53 53 54 40 55
REMARK SMILES IDX 43 56 52 57 66 58 41 59 42 60 51 62 67 63 44 64 33 65 34 66
REMARK SMILES IDX 38 67 35 68 37 69 36 70 55 71 56 72 60 73 57 74 59 75 58 76
REMARK SMILES IDX 45 77 46 78 50 79 47 80 49 81 48 82
REMARK H PARENT 14 6 21 31 65 50 43 61
REMARK Flexibility Score: inf
ROOT
ATOM      1  C   UNL A   1      40.417  21.552  27.239  1.00  0.00     0.021 C 
ENDROOT
BRANCH   1   2
ATOM      2  C   UNL A   1      39.387  22.351  26.454  1.00  0.00     0.116 C 
BRANCH   2   3
ATOM      3  N   UNL A   1      38.310  21.499  26.023  1.00  0.00    -0.355 N 
ATOM      4  C   UNL A   1      37.219  21.855  25.309  1.00  0.00     0.230 C 
ATOM      5  O   UNL A   1      36.449  20.963  24.939  1.00  0.00    -0.274 OA
ATOM      6  H   UNL A   1      38.377  20.549  26.275  1.00  0.00     0.163 HD
BRANCH   4   7
ATOM      7  C   UNL A   1      37.037  23.275  24.859  1.00  0.00     0.178 C 
BRANCH   7   8
ATOM      8  S   UNL A   1      35.590  23.695  23.895  1.00  0.00    -0.078 SA
BRANCH   8   9
ATOM      9  C   UNL A   1      34.081  24.077  24.655  1.00  0.00     0.169 A 
ATOM     10  N   UNL A   1      33.193  25.137  24.607  1.00  0.00    -0.313 N 
ATOM     11  C   UNL A   1      32.074  24.755  25.360  1.00  0.00     0.072 A 
ATOM     12  N   UNL A   1      33.689  23.200  25.565  1.00  0.00    -0.221 NA
ATOM     13  C   UNL A   1      32.458  23.590  26.004  1.00  0.00     0.108 A 
ATOM     14  C   UNL A   1      30.802  25.307  25.559  1.00  0.00     0.049 A 
ATOM     15  C   UNL A   1      31.590  22.998  26.926  1.00  0.00     0.141 A 
ATOM     16  C   UNL A   1      29.993  24.630  26.462  1.00  0.00     0.113 A 
ATOM     17  N   UNL A   1      30.354  23.523  27.147  1.00  0.00    -0.262 NA
BRANCH  10  18
ATOM     18  C   UNL A   1      33.214  26.432  23.929  1.00  0.00     0.116 C 
ATOM     19  C   UNL A   1      33.325  26.254  22.424  1.00  0.00     0.034 C 
BRANCH  18  20
ATOM     20  C   UNL A   1      33.975  27.598  24.621  1.00  0.00     0.141 C 
ATOM     21  C   UNL A   1      33.986  27.693  26.129  1.00  0.00     0.036 C 
ATOM     22  O   UNL A   1      33.429  28.858  24.159  1.00  0.00    -0.376 OA
ATOM     23  C   UNL A   1      33.712  29.130  26.466  1.00  0.00     0.031 C 
ATOM     24  C   UNL A   1      32.876  29.552  25.284  1.00  0.00     0.160 C 
ENDBRANCH  18  20
ENDBRANCH  10  18
ENDBRANCH   8   9
ENDBRANCH   7   8
ENDBRANCH   4   7
ENDBRANCH   2   3
ENDBRANCH   1   2
BRANCH   1  25
ATOM     25  C   UNL A   1      40.690  20.169  26.645  1.00  0.00     0.002 C 
BRANCH  25  26
ATOM     26  C   UNL A   1      41.962  19.498  27.167  1.00  0.00     0.002 C 
BRANCH  26  27
ATOM     27  C   UNL A   1      42.631  18.535  26.178  1.00  0.00     0.021 C 
BRANCH  27  28
ATOM     28  C   UNL A   1      44.147  18.697  26.088  1.00  0.00     0.116 C 
BRANCH  28  29
ATOM     29  N   UNL A   1      44.564  19.248  24.822  1.00  0.00    -0.352 N 
ATOM     30  C   UNL A   1      44.620  20.513  24.325  1.00  0.00     0.251 C 
ATOM     31  H   UNL A   1      44.873  18.566  24.184  1.00  0.00     0.163 HD
ATOM     32  O   UNL A   1      45.002  20.621  23.150  1.00  0.00    -0.269 OA
BRANCH  30  33
ATOM     33  C   UNL A   1      44.217  21.741  25.062  1.00  0.00     0.039 A 
ATOM     34  C   UNL A   1      43.052  22.482  24.852  1.00  0.00     0.014 A 
ATOM     35  C   UNL A   1      45.124  22.194  26.036  1.00  0.00     0.014 A 
ATOM     36  C   UNL A   1      42.849  23.685  25.515  1.00  0.00     0.010 A 
ATOM     37  C   UNL A   1      44.908  23.377  26.734  1.00  0.00     0.010 A 
ATOM     38  C   UNL A   1      43.788  24.145  26.440  1.00  0.00    -0.014 A 
BRANCH  38  39
ATOM     39  C   UNL A   1      43.497  25.402  27.113  1.00  0.00     0.031 A 
ATOM     40  C   UNL A   1      44.485  26.497  26.899  1.00  0.00     0.074 A 
ATOM     41  C   UNL A   1      42.397  25.628  27.856  1.00  0.00     0.049 A 
ATOM     42  N   UNL A   1      45.232  27.074  27.783  1.00  0.00    -0.248 NA
ATOM     43  C   UNL A   1      44.727  26.947  25.522  1.00  0.00     0.031 C 
ATOM     44  C   UNL A   1      41.189  24.813  27.990  1.00  0.00     0.029 A 
ATOM     45  N   UNL A   1      42.112  26.730  28.604  1.00  0.00    -0.354 N 
ATOM     46  C   UNL A   1      45.964  28.046  27.107  1.00  0.00     0.074 A 
ATOM     47  C   UNL A   1      45.671  27.871  25.704  1.00  0.00     0.031 C 
ATOM     48  C   UNL A   1      40.219  25.552  28.578  1.00  0.00     0.029 A 
ATOM     49  C   UNL A   1      40.791  26.817  29.005  1.00  0.00     0.049 A 
ATOM     50  H   UNL A   1      42.789  27.407  28.838  1.00  0.00     0.167 HD
ATOM     51  C   UNL A   1      46.670  29.014  27.754  1.00  0.00     0.031 A 
ATOM     52  C   UNL A   1      40.207  27.882  29.601  1.00  0.00     0.031 A 
ATOM     53  C   UNL A   1      46.890  28.694  29.137  1.00  0.00     0.049 A 
ATOM     54  C   UNL A   1      41.274  28.691  30.231  1.00  0.00     0.074 A 
ATOM     55  C   UNL A   1      47.580  27.698  29.798  1.00  0.00     0.029 A 
ATOM     56  N   UNL A   1      46.058  29.259  30.072  1.00  0.00    -0.354 N 
ATOM     57  N   UNL A   1      41.973  28.290  31.254  1.00  0.00    -0.248 NA
ATOM     58  C   UNL A   1      41.848  29.792  29.476  1.00  0.00     0.031 C 
ATOM     59  C   UNL A   1      46.776  27.391  30.933  1.00  0.00     0.029 A 
ATOM     60  C   UNL A   1      45.678  28.253  30.925  1.00  0.00     0.049 A 
ATOM     61  H   UNL A   1      45.788  30.204  30.122  1.00  0.00     0.167 HD
ATOM     62  C   UNL A   1      43.251  28.774  31.022  1.00  0.00     0.074 A 
ATOM     63  C   UNL A   1      43.086  29.782  29.975  1.00  0.00     0.031 C 
ATOM     64  C   UNL A   1      44.355  28.127  31.499  1.00  0.00     0.031 A 
BRANCH  51  65
ATOM     65  C   UNL A   1      46.945  30.382  27.194  1.00  0.00    -0.014 A 
ATOM     66  C   UNL A   1      45.927  31.218  26.698  1.00  0.00     0.009 A 
ATOM     67  C   UNL A   1      48.211  30.966  27.384  1.00  0.00     0.009 A 
ATOM     68  C   UNL A   1      46.157  32.565  26.402  1.00  0.00     0.001 A 
ATOM     69  C   UNL A   1      48.433  32.325  27.126  1.00  0.00     0.001 A 
ATOM     70  C   UNL A   1      47.405  33.124  26.637  1.00  0.00     0.000 A 
ENDBRANCH  51  65
BRANCH  52  71
ATOM     71  C   UNL A   1      38.860  28.432  29.340  1.00  0.00    -0.014 A 
ATOM     72  C   UNL A   1      38.543  28.937  28.066  1.00  0.00     0.009 A 
ATOM     73  C   UNL A   1      37.998  28.740  30.403  1.00  0.00     0.009 A 
ATOM     74  C   UNL A   1      37.434  29.763  27.870  1.00  0.00     0.001 A 
ATOM     75  C   UNL A   1      36.888  29.569  30.206  1.00  0.00     0.001 A 
ATOM     76  C   UNL A   1      36.616  30.095  28.945  1.00  0.00     0.000 A 
ENDBRANCH  52  71
BRANCH  64  77
ATOM     77  C   UNL A   1      44.158  26.985  32.473  1.00  0.00    -0.014 A 
ATOM     78  C   UNL A   1      44.011  27.286  33.837  1.00  0.00     0.009 A 
ATOM     79  C   UNL A   1      44.304  25.634  32.109  1.00  0.00     0.009 A 
ATOM     80  C   UNL A   1      44.021  26.278  34.803  1.00  0.00     0.001 A 
ATOM     81  C   UNL A   1      44.286  24.620  33.073  1.00  0.00     0.001 A 
ATOM     82  C   UNL A   1      44.156  24.944  34.422  1.00  0.00     0.000 A 
ENDBRANCH  64  77
ENDBRANCH  38  39
ENDBRANCH  30  33
ENDBRANCH  28  29
ENDBRANCH  27  28
ENDBRANCH  26  27
ENDBRANCH  25  26
ENDBRANCH   1  25
TORSDOF 17
ENDMDL
MODEL 3
REMARK VINA RESULT:     -10.5      4.998      9.816
REMARK SMILES C[C@H]([C@@H]1CCCO1)n1c(SCC(=O)NCCCCCCNC(=O)c2ccc(-c3c4nc(c(-c5ccccc5)c5ccc([nH]5)c(-c5ccccc5)c5nc(c(-c6ccccc6)c6ccc3[nH]6)C=C5)C=C4)cc2)nc2cnccc21
REMARK SMILES IDX 16 1 15 2 14 3 12 4 13 5 11 7 10 8 9 9 8 10 78 11 72 12
REMARK SMILES IDX 73 13 77 14 74 15 76 16 75 17 2 18 1 19 3 20 4 21 7 22 5 23
REMARK SMILES IDX 6 24 17 25 18 26 19 27 20 28 21 29 22 30 23 32 24 33 25 34
REMARK SMILES IDX 71 35 26 36 70 37 27 38 28 39 29 40 64 41 30 42 69 43 63 44
REMARK SMILES IDX 65 45 31 46 68 47 62 48 61 49 32 51 54 52 39 53 53 54 40 55
REMARK SMILES IDX 43 56 52 57 66 58 41 59 42 60 51 62 67 63 44 64 33 65 34 66
REMARK SMILES IDX 38 67 35 68 37 69 36 70 55 71 56 72 60 73 57 74 59 75 58 76
REMARK SMILES IDX 45 77 46 78 50 79 47 80 49 81 48 82
REMARK H PARENT 14 6 21 31 65 50 43 61
REMARK Flexibility Score: inf
ROOT
ATOM      1  C   UNL A   1      45.400  28.680  26.619  1.00  0.00     0.021 C 
ENDROOT
BRANCH   1   2
ATOM      2  C   UNL A   1      45.082  27.576  25.620  1.00  0.00     0.116 C 
BRANCH   2   3
ATOM      3  N   UNL A   1      46.230  27.295  24.799  1.00  0.00    -0.355 N 
ATOM      4  C   UNL A   1      46.896  26.123  24.695  1.00  0.00     0.230 C 
ATOM      5  O   UNL A   1      47.798  26.039  23.856  1.00  0.00    -0.274 OA
ATOM      6  H   UNL A   1      46.567  28.040  24.249  1.00  0.00     0.163 HD
BRANCH   4   7
ATOM      7  C   UNL A   1      46.445  24.923  25.476  1.00  0.00     0.178 C 
BRANCH   7   8
ATOM      8  S   UNL A   1      46.211  23.373  24.615  1.00  0.00    -0.078 SA
BRANCH   8   9
ATOM      9  C   UNL A   1      45.056  22.204  25.163  1.00  0.00     0.169 A 
ATOM     10  N   UNL A   1      43.931  22.233  25.969  1.00  0.00    -0.313 N 
ATOM     11  C   UNL A   1      43.351  20.960  25.891  1.00  0.00     0.072 A 
ATOM     12  N   UNL A   1      45.323  20.959  24.804  1.00  0.00    -0.221 NA
ATOM     13  C   UNL A   1      44.288  20.181  25.231  1.00  0.00     0.108 A 
ATOM     14  C   UNL A   1      42.141  20.414  26.337  1.00  0.00     0.049 A 
ATOM     15  C   UNL A   1      44.054  18.811  25.077  1.00  0.00     0.141 A 
ATOM     16  C   UNL A   1      41.978  19.054  26.107  1.00  0.00     0.113 A 
ATOM     17  N   UNL A   1      42.893  18.255  25.516  1.00  0.00    -0.262 NA
BRANCH  10  18
ATOM     18  C   UNL A   1      43.297  23.281  26.766  1.00  0.00     0.116 C 
ATOM     19  C   UNL A   1      43.388  22.964  28.249  1.00  0.00     0.034 C 
BRANCH  18  20
ATOM     20  C   UNL A   1      42.005  23.939  26.201  1.00  0.00     0.141 C 
ATOM     21  C   UNL A   1      41.954  25.435  26.000  1.00  0.00     0.036 C 
ATOM     22  O   UNL A   1      40.895  23.629  27.078  1.00  0.00    -0.376 OA
ATOM     23  C   UNL A   1      40.632  25.891  26.544  1.00  0.00     0.031 C 
ATOM     24  C   UNL A   1      40.382  24.856  27.611  1.00  0.00     0.160 C 
ENDBRANCH  18  20
ENDBRANCH  10  18
ENDBRANCH   8   9
ENDBRANCH   7   8
ENDBRANCH   4   7
ENDBRANCH   2   3
ENDBRANCH   1   2
BRANCH   1  25
ATOM     25  C   UNL A   1      45.693  28.155  28.026  1.00  0.00     0.002 C 
BRANCH  25  26
ATOM     26  C   UNL A   1      47.130  27.675  28.234  1.00  0.00     0.002 C 
BRANCH  26  27
ATOM     27  C   UNL A   1      47.256  26.278  28.853  1.00  0.00     0.021 C 
BRANCH  27  28
ATOM     28  C   UNL A   1      47.141  26.265  30.376  1.00  0.00     0.116 C 
BRANCH  28  29
ATOM     29  N   UNL A   1      46.290  25.201  30.851  1.00  0.00    -0.352 N 
ATOM     30  C   UNL A   1      44.947  25.091  31.043  1.00  0.00     0.251 C 
ATOM     31  H   UNL A   1      46.784  24.382  31.084  1.00  0.00     0.163 HD
ATOM     32  O   UNL A   1      44.550  24.016  31.515  1.00  0.00    -0.269 OA
BRANCH  30  33
ATOM     33  C   UNL A   1      43.954  26.167  30.776  1.00  0.00     0.039 A 
ATOM     34  C   UNL A   1      43.189  26.311  29.617  1.00  0.00     0.014 A 
ATOM     35  C   UNL A   1      43.812  27.132  31.789  1.00  0.00     0.014 A 
ATOM     36  C   UNL A   1      42.390  27.431  29.431  1.00  0.00     0.010 A 
ATOM     37  C   UNL A   1      42.982  28.235  31.627  1.00  0.00     0.010 A 
ATOM     38  C   UNL A   1      42.303  28.405  30.427  1.00  0.00    -0.014 A 
BRANCH  38  39
ATOM     39  C   UNL A   1      41.427  29.540  30.172  1.00  0.00     0.031 A 
ATOM     40  C   UNL A   1      42.108  30.830  29.867  1.00  0.00     0.074 A 
ATOM     41  C   UNL A   1      40.083  29.472  30.156  1.00  0.00     0.049 A 
ATOM     42  N   UNL A   1      42.070  31.927  30.551  1.00  0.00    -0.248 NA
ATOM     43  C   UNL A   1      43.003  30.878  28.702  1.00  0.00     0.031 C 
ATOM     44  C   UNL A   1      39.217  28.292  30.166  1.00  0.00     0.029 A 
ATOM     45  N   UNL A   1      39.201  30.503  30.039  1.00  0.00    -0.354 N 
ATOM     46  C   UNL A   1      42.841  32.853  29.853  1.00  0.00     0.074 A 
ATOM     47  C   UNL A   1      43.456  32.131  28.764  1.00  0.00     0.031 C 
ATOM     48  C   UNL A   1      37.960  28.662  29.827  1.00  0.00     0.029 A 
ATOM     49  C   UNL A   1      37.907  30.111  29.744  1.00  0.00     0.049 A 
ATOM     50  H   UNL A   1      39.462  31.445  30.153  1.00  0.00     0.167 HD
ATOM     51  C   UNL A   1      42.828  34.183  30.143  1.00  0.00     0.031 A 
ATOM     52  C   UNL A   1      36.883  30.929  29.405  1.00  0.00     0.031 A 
ATOM     53  C   UNL A   1      42.268  34.452  31.438  1.00  0.00     0.049 A 
ATOM     54  C   UNL A   1      37.198  32.283  29.914  1.00  0.00     0.074 A 
ATOM     55  C   UNL A   1      42.635  34.137  32.732  1.00  0.00     0.029 A 
ATOM     56  N   UNL A   1      40.955  34.849  31.507  1.00  0.00    -0.354 N 
ATOM     57  N   UNL A   1      37.241  32.585  31.180  1.00  0.00    -0.248 NA
ATOM     58  C   UNL A   1      37.863  33.221  29.025  1.00  0.00     0.031 C 
ATOM     59  C   UNL A   1      41.407  33.880  33.405  1.00  0.00     0.029 A 
ATOM     60  C   UNL A   1      40.367  34.107  32.500  1.00  0.00     0.049 A 
ATOM     61  H   UNL A   1      40.519  35.534  30.950  1.00  0.00     0.167 HD
ATOM     62  C   UNL A   1      38.286  33.488  31.293  1.00  0.00     0.074 A 
ATOM     63  C   UNL A   1      38.555  33.925  29.925  1.00  0.00     0.031 C 
ATOM     64  C   UNL A   1      39.016  33.591  32.444  1.00  0.00     0.031 A 
BRANCH  51  65
ATOM     65  C   UNL A   1      43.089  35.273  29.141  1.00  0.00    -0.014 A 
ATOM     66  C   UNL A   1      44.369  35.817  28.926  1.00  0.00     0.009 A 
ATOM     67  C   UNL A   1      42.093  35.605  28.205  1.00  0.00     0.009 A 
ATOM     68  C   UNL A   1      44.644  36.652  27.840  1.00  0.00     0.001 A 
ATOM     69  C   UNL A   1      42.376  36.409  27.092  1.00  0.00     0.001 A 
ATOM     70  C   UNL A   1      43.652  36.931  26.910  1.00  0.00     0.000 A 
ENDBRANCH  51  65
BRANCH  52  71
ATOM     71  C   UNL A   1      35.858  30.703  28.366  1.00  0.00    -0.014 A 
ATOM     72  C   UNL A   1      34.728  31.539  28.301  1.00  0.00     0.009 A 
ATOM     73  C   UNL A   1      35.829  29.501  27.643  1.00  0.00     0.009 A 
ATOM     74  C   UNL A   1      33.590  31.165  27.583  1.00  0.00     0.001 A 
ATOM     75  C   UNL A   1      34.687  29.126  26.925  1.00  0.00     0.001 A 
ATOM     76  C   UNL A   1      33.563  29.948  26.909  1.00  0.00     0.000 A 
ENDBRANCH  52  71
BRANCH  64  77
ATOM     77  C   UNL A   1      38.531  32.857  33.675  1.00  0.00    -0.014 A 
ATOM     78  C   UNL A   1      37.912  33.597  34.696  1.00  0.00     0.009 A 
ATOM     79  C   UNL A   1      38.837  31.509  33.932  1.00  0.00     0.009 A 
ATOM     80  C   UNL A   1      37.620  33.016  35.932  1.00  0.00     0.001 A 
ATOM     81  C   UNL A   1      38.518  30.917  35.160  1.00  0.00     0.001 A 
ATOM     82  C   UNL A   1      37.920  31.675  36.164  1.00  0.00     0.000 A 
ENDBRANCH  64  77
ENDBRANCH  38  39
ENDBRANCH  30  33
ENDBRANCH  28  29
ENDBRANCH  27  28
ENDBRANCH  26  27
ENDBRANCH  25  26
ENDBRANCH   1  25
TORSDOF 17
ENDMDL
