MODEL 1
REMARK VINA RESULT:     -12.2      0.000      0.000
REMARK SMILES C[C@H]1c2ccc(O)cc2OC(=O)[C@@H]1CC(=O)N[C@@H](CC1=c2ccccc2=NC1)C(=O)NCCCCCCNC(=O)c1ccc(-c2c3nc(c(-c4ccccc4)c4ccc([nH]4)c(-c4ccccc4)c4nc(c(-c5ccccc5)c5ccc2[nH]5)C=C4)C=C3)cc1
REMARK SMILES IDX 33 1 32 2 31 3 29 4 30 5 18 7 17 8 15 9 16 10 14 12 13 13
REMARK SMILES IDX 1 14 2 15 3 16 4 17 9 18 11 19 5 20 8 21 10 22 12 23 6 24
REMARK SMILES IDX 7 25 19 27 20 28 21 29 28 30 22 31 26 32 27 33 23 34 25 35
REMARK SMILES IDX 24 36 34 37 35 38 36 39 37 40 38 41 39 42 40 44 41 45 42 46
REMARK SMILES IDX 88 47 43 48 87 49 44 50 45 51 46 52 81 53 47 54 86 55 80 56
REMARK SMILES IDX 82 57 48 58 85 59 79 60 78 61 49 63 71 64 56 65 70 66 57 67
REMARK SMILES IDX 60 68 69 69 83 70 58 71 59 72 68 74 84 75 61 76 50 77 51 78
REMARK SMILES IDX 55 79 52 80 54 81 53 82 72 83 73 84 77 85 74 86 76 87 75 88
REMARK SMILES IDX 62 89 63 90 67 91 64 92 66 93 65 94
REMARK H PARENT 31 6 17 11 7 26 38 43 82 62 60 73
REMARK Flexibility Score: inf
ROOT
ATOM      1  C   UNL A   1      35.398  29.861  27.467  1.00  0.00     0.021 C 
ENDROOT
BRANCH   1   2
ATOM      2  C   UNL A   1      34.284  28.851  27.242  1.00  0.00     0.116 C 
BRANCH   2   3
ATOM      3  N   UNL A   1      32.899  29.167  27.427  1.00  0.00    -0.354 N 
ATOM      4  C   UNL A   1      31.919  28.200  27.305  1.00  0.00     0.242 C 
ATOM      5  O   UNL A   1      31.046  28.184  28.181  1.00  0.00    -0.273 OA
ATOM      6  H   UNL A   1      32.639  30.092  27.644  1.00  0.00     0.163 HD
BRANCH   4   7
ATOM      7  C   UNL A   1      31.883  27.118  26.155  1.00  0.00     0.175 C 
BRANCH   7   8
ATOM      8  N   UNL A   1      31.183  25.848  26.376  1.00  0.00    -0.344 N 
ATOM      9  C   UNL A   1      31.380  24.638  25.774  1.00  0.00     0.221 C 
ATOM     10  O   UNL A   1      30.530  23.761  25.944  1.00  0.00    -0.275 OA
ATOM     11  H   UNL A   1      30.471  25.872  27.055  1.00  0.00     0.164 HD
BRANCH   9  12
ATOM     12  C   UNL A   1      32.644  24.348  24.972  1.00  0.00     0.116 C 
BRANCH  12  13
ATOM     13  C   UNL A   1      32.452  23.586  23.638  1.00  0.00     0.116 C 
ATOM     14  C   UNL A   1      32.432  21.304  22.466  1.00  0.00     0.014 C 
ATOM     15  C   UNL A   1      32.799  22.079  23.744  1.00  0.00     0.034 C 
ATOM     16  C   UNL A   1      34.277  21.951  24.045  1.00  0.00    -0.001 A 
ATOM     17  C   UNL A   1      34.803  20.866  24.751  1.00  0.00     0.011 A 
ATOM     18  C   UNL A   1      35.147  22.968  23.637  1.00  0.00     0.138 A 
ATOM     19  C   UNL A   1      33.350  24.089  22.533  1.00  0.00     0.315 C 
ATOM     20  C   UNL A   1      36.160  20.849  25.095  1.00  0.00     0.047 A 
ATOM     21  C   UNL A   1      36.486  22.988  24.012  1.00  0.00     0.093 A 
ATOM     22  O   UNL A   1      34.707  23.999  22.793  1.00  0.00    -0.426 OA
ATOM     23  O   UNL A   1      32.923  24.560  21.487  1.00  0.00    -0.251 OA
ATOM     24  C   UNL A   1      36.981  21.923  24.748  1.00  0.00     0.119 A 
BRANCH  24  25
ATOM     25  O   UNL A   1      38.295  21.959  25.108  1.00  0.00    -0.508 OA
ATOM     26  H   UNL A   1      38.726  22.781  25.226  1.00  0.00     0.293 HD
ENDBRANCH  24  25
ENDBRANCH  12  13
ENDBRANCH   9  12
ENDBRANCH   7   8
BRANCH   7  27
ATOM     27  C   UNL A   1      31.840  27.548  24.633  1.00  0.00     0.068 C 
BRANCH  27  28
ATOM     28  C   UNL A   1      30.606  27.393  23.737  1.00  0.00    -0.037 C 
ATOM     29  C   UNL A   1      29.450  28.059  23.967  1.00  0.00     0.001 A 
ATOM     30  C   UNL A   1      30.920  27.451  22.286  1.00  0.00     0.174 C 
ATOM     31  C   UNL A   1      28.085  27.656  23.559  1.00  0.00     0.010 A 
ATOM     32  C   UNL A   1      29.764  29.144  22.993  1.00  0.00     0.065 A 
ATOM     33  N   UNL A   1      30.493  28.825  21.975  1.00  0.00    -0.280 NA
ATOM     34  C   UNL A   1      27.231  28.618  23.135  1.00  0.00     0.001 A 
ATOM     35  C   UNL A   1      28.941  30.349  23.123  1.00  0.00     0.028 A 
ATOM     36  C   UNL A   1      27.638  30.027  23.161  1.00  0.00     0.002 A 
ENDBRANCH  27  28
ENDBRANCH   7  27
ENDBRANCH   4   7
ENDBRANCH   2   3
ENDBRANCH   1   2
BRANCH   1  37
ATOM     37  C   UNL A   1      35.125  30.999  28.468  1.00  0.00     0.002 C 
BRANCH  37  38
ATOM     38  C   UNL A   1      34.907  32.441  27.973  1.00  0.00     0.002 C 
BRANCH  38  39
ATOM     39  C   UNL A   1      33.643  33.204  28.371  1.00  0.00     0.021 C 
BRANCH  39  40
ATOM     40  C   UNL A   1      33.782  34.654  28.795  1.00  0.00     0.116 C 
BRANCH  40  41
ATOM     41  N   UNL A   1      33.346  34.890  30.158  1.00  0.00    -0.352 N 
ATOM     42  C   UNL A   1      33.858  34.436  31.353  1.00  0.00     0.251 C 
ATOM     43  H   UNL A   1      32.555  35.469  30.242  1.00  0.00     0.163 HD
ATOM     44  O   UNL A   1      33.265  34.662  32.393  1.00  0.00    -0.269 OA
BRANCH  42  45
ATOM     45  C   UNL A   1      35.110  33.637  31.380  1.00  0.00     0.039 A 
ATOM     46  C   UNL A   1      35.138  32.334  31.876  1.00  0.00     0.014 A 
ATOM     47  C   UNL A   1      36.283  34.212  30.879  1.00  0.00     0.014 A 
ATOM     48  C   UNL A   1      36.356  31.677  32.031  1.00  0.00     0.010 A 
ATOM     49  C   UNL A   1      37.495  33.514  30.949  1.00  0.00     0.010 A 
ATOM     50  C   UNL A   1      37.550  32.259  31.573  1.00  0.00    -0.014 A 
BRANCH  50  51
ATOM     51  C   UNL A   1      38.833  31.528  31.752  1.00  0.00     0.031 A 
ATOM     52  C   UNL A   1      39.734  31.817  32.925  1.00  0.00     0.074 A 
ATOM     53  C   UNL A   1      39.157  30.548  30.885  1.00  0.00     0.049 A 
ATOM     54  N   UNL A   1      40.847  31.219  33.273  1.00  0.00    -0.248 NA
ATOM     55  C   UNL A   1      39.342  32.915  33.824  1.00  0.00     0.031 C 
ATOM     56  C   UNL A   1      38.363  30.168  29.716  1.00  0.00     0.029 A 
ATOM     57  N   UNL A   1      40.213  29.671  30.870  1.00  0.00    -0.354 N 
ATOM     58  C   UNL A   1      41.291  31.871  34.416  1.00  0.00     0.074 A 
ATOM     59  C   UNL A   1      40.349  32.935  34.686  1.00  0.00     0.031 C 
ATOM     60  C   UNL A   1      38.920  29.094  29.138  1.00  0.00     0.029 A 
ATOM     61  C   UNL A   1      40.146  28.752  29.851  1.00  0.00     0.049 A 
ATOM     62  H   UNL A   1      40.946  29.697  31.526  1.00  0.00     0.167 HD
ATOM     63  C   UNL A   1      42.375  31.598  35.180  1.00  0.00     0.031 A 
ATOM     64  C   UNL A   1      40.976  27.744  29.516  1.00  0.00     0.031 A 
ATOM     65  C   UNL A   1      43.308  30.533  34.911  1.00  0.00     0.049 A 
ATOM     66  C   UNL A   1      42.197  27.492  30.353  1.00  0.00     0.074 A 
ATOM     67  C   UNL A   1      44.422  30.166  35.647  1.00  0.00     0.029 A 
ATOM     68  N   UNL A   1      43.242  29.671  33.828  1.00  0.00    -0.354 N 
ATOM     69  N   UNL A   1      42.582  28.100  31.449  1.00  0.00    -0.248 NA
ATOM     70  C   UNL A   1      43.094  26.415  29.913  1.00  0.00     0.031 C 
ATOM     71  C   UNL A   1      45.070  29.130  34.971  1.00  0.00     0.029 A 
ATOM     72  C   UNL A   1      44.314  28.795  33.858  1.00  0.00     0.049 A 
ATOM     73  H   UNL A   1      42.538  29.681  33.140  1.00  0.00     0.167 HD
ATOM     74  C   UNL A   1      43.760  27.474  31.837  1.00  0.00     0.074 A 
ATOM     75  C   UNL A   1      44.008  26.419  30.875  1.00  0.00     0.031 C 
ATOM     76  C   UNL A   1      44.563  27.755  32.891  1.00  0.00     0.031 A 
BRANCH  63  77
ATOM     77  C   UNL A   1      42.633  32.462  36.387  1.00  0.00    -0.014 A 
ATOM     78  C   UNL A   1      42.036  32.137  37.617  1.00  0.00     0.009 A 
ATOM     79  C   UNL A   1      43.370  33.652  36.286  1.00  0.00     0.009 A 
ATOM     80  C   UNL A   1      42.155  32.995  38.713  1.00  0.00     0.001 A 
ATOM     81  C   UNL A   1      43.514  34.492  37.393  1.00  0.00     0.001 A 
ATOM     82  C   UNL A   1      42.897  34.169  38.601  1.00  0.00     0.000 A 
ENDBRANCH  63  77
BRANCH  64  83
ATOM     83  C   UNL A   1      40.654  26.897  28.336  1.00  0.00    -0.014 A 
ATOM     84  C   UNL A   1      39.796  25.790  28.465  1.00  0.00     0.009 A 
ATOM     85  C   UNL A   1      41.250  27.147  27.092  1.00  0.00     0.009 A 
ATOM     86  C   UNL A   1      39.573  24.934  27.386  1.00  0.00     0.001 A 
ATOM     87  C   UNL A   1      40.996  26.308  26.003  1.00  0.00     0.001 A 
ATOM     88  C   UNL A   1      40.170  25.196  26.154  1.00  0.00     0.000 A 
ENDBRANCH  64  83
BRANCH  76  89
ATOM     89  C   UNL A   1      45.797  26.914  33.079  1.00  0.00    -0.014 A 
ATOM     90  C   UNL A   1      46.981  27.249  32.402  1.00  0.00     0.009 A 
ATOM     91  C   UNL A   1      45.766  25.740  33.848  1.00  0.00     0.009 A 
ATOM     92  C   UNL A   1      48.101  26.419  32.476  1.00  0.00     0.001 A 
ATOM     93  C   UNL A   1      46.899  24.931  33.950  1.00  0.00     0.001 A 
ATOM     94  C   UNL A   1      48.061  25.265  33.255  1.00  0.00     0.000 A 
ENDBRANCH  76  89
ENDBRANCH  50  51
ENDBRANCH  42  45
ENDBRANCH  40  41
ENDBRANCH  39  40
ENDBRANCH  38  39
ENDBRANCH  37  38
ENDBRANCH   1  37
TORSDOF 19
ENDMDL
MODEL 2
REMARK VINA RESULT:     -12.1      0.381      5.485
REMARK SMILES C[C@H]1c2ccc(O)cc2OC(=O)[C@@H]1CC(=O)N[C@@H](CC1=c2ccccc2=NC1)C(=O)NCCCCCCNC(=O)c1ccc(-c2c3nc(c(-c4ccccc4)c4ccc([nH]4)c(-c4ccccc4)c4nc(c(-c5ccccc5)c5ccc2[nH]5)C=C4)C=C3)cc1
REMARK SMILES IDX 33 1 32 2 31 3 29 4 30 5 18 7 17 8 15 9 16 10 14 12 13 13
REMARK SMILES IDX 1 14 2 15 3 16 4 17 9 18 11 19 5 20 8 21 10 22 12 23 6 24
REMARK SMILES IDX 7 25 19 27 20 28 21 29 28 30 22 31 26 32 27 33 23 34 25 35
REMARK SMILES IDX 24 36 34 37 35 38 36 39 37 40 38 41 39 42 40 44 41 45 42 46
REMARK SMILES IDX 88 47 43 48 87 49 44 50 45 51 46 52 81 53 47 54 86 55 80 56
REMARK SMILES IDX 82 57 48 58 85 59 79 60 78 61 49 63 71 64 56 65 70 66 57 67
REMARK SMILES IDX 60 68 69 69 83 70 58 71 59 72 68 74 84 75 61 76 50 77 51 78
REMARK SMILES IDX 55 79 52 80 54 81 53 82 72 83 73 84 77 85 74 86 76 87 75 88
REMARK SMILES IDX 62 89 63 90 67 91 64 92 66 93 65 94
REMARK H PARENT 31 6 17 11 7 26 38 43 82 62 60 73
REMARK Flexibility Score: inf
ROOT
ATOM      1  C   UNL A   1      35.304  29.708  27.489  1.00  0.00     0.021 C 
ENDROOT
BRANCH   1   2
ATOM      2  C   UNL A   1      34.177  28.931  26.828  1.00  0.00     0.116 C 
BRANCH   2   3
ATOM      3  N   UNL A   1      32.794  29.188  27.097  1.00  0.00    -0.354 N 
ATOM      4  C   UNL A   1      31.867  28.162  27.137  1.00  0.00     0.242 C 
ATOM      5  O   UNL A   1      31.066  28.176  28.079  1.00  0.00    -0.273 OA
ATOM      6  H   UNL A   1      32.496  30.113  27.256  1.00  0.00     0.163 HD
BRANCH   4   7
ATOM      7  C   UNL A   1      31.810  26.982  26.088  1.00  0.00     0.175 C 
BRANCH   7   8
ATOM      8  N   UNL A   1      31.079  25.754  26.419  1.00  0.00    -0.344 N 
ATOM      9  C   UNL A   1      31.257  24.488  25.938  1.00  0.00     0.221 C 
ATOM     10  O   UNL A   1      30.385  23.650  26.177  1.00  0.00    -0.275 OA
ATOM     11  H   UNL A   1      30.358  25.858  27.081  1.00  0.00     0.164 HD
BRANCH   9  12
ATOM     12  C   UNL A   1      32.524  24.096  25.188  1.00  0.00     0.116 C 
BRANCH  12  13
ATOM     13  C   UNL A   1      32.326  23.348  23.847  1.00  0.00     0.116 C 
ATOM     14  C   UNL A   1      32.387  21.090  22.631  1.00  0.00     0.014 C 
ATOM     15  C   UNL A   1      32.758  21.861  23.911  1.00  0.00     0.034 C 
ATOM     16  C   UNL A   1      34.250  21.808  24.157  1.00  0.00    -0.001 A 
ATOM     17  C   UNL A   1      34.859  20.741  24.823  1.00  0.00     0.011 A 
ATOM     18  C   UNL A   1      35.050  22.879  23.740  1.00  0.00     0.138 A 
ATOM     19  C   UNL A   1      33.156  23.919  22.721  1.00  0.00     0.315 C 
ATOM     20  C   UNL A   1      36.226  20.793  25.120  1.00  0.00     0.047 A 
ATOM     21  C   UNL A   1      36.397  22.965  24.068  1.00  0.00     0.093 A 
ATOM     22  O   UNL A   1      34.525  23.899  22.931  1.00  0.00    -0.426 OA
ATOM     23  O   UNL A   1      32.667  24.385  21.700  1.00  0.00    -0.251 OA
ATOM     24  C   UNL A   1      36.975  21.916  24.766  1.00  0.00     0.119 A 
BRANCH  24  25
ATOM     25  O   UNL A   1      38.298  22.017  25.080  1.00  0.00    -0.508 OA
ATOM     26  H   UNL A   1      38.588  22.674  25.680  1.00  0.00     0.293 HD
ENDBRANCH  24  25
ENDBRANCH  12  13
ENDBRANCH   9  12
ENDBRANCH   7   8
BRANCH   7  27
ATOM     27  C   UNL A   1      31.784  27.274  24.534  1.00  0.00     0.068 C 
BRANCH  27  28
ATOM     28  C   UNL A   1      30.516  27.208  23.675  1.00  0.00    -0.037 C 
ATOM     29  C   UNL A   1      29.407  27.934  23.954  1.00  0.00     0.001 A 
ATOM     30  C   UNL A   1      30.789  27.278  22.216  1.00  0.00     0.174 C 
ATOM     31  C   UNL A   1      28.010  27.617  23.582  1.00  0.00     0.010 A 
ATOM     32  C   UNL A   1      29.753  29.020  22.992  1.00  0.00     0.065 A 
ATOM     33  N   UNL A   1      30.432  28.681  21.945  1.00  0.00    -0.280 NA
ATOM     34  C   UNL A   1      27.200  28.635  23.204  1.00  0.00     0.001 A 
ATOM     35  C   UNL A   1      29.005  30.266  23.171  1.00  0.00     0.028 A 
ATOM     36  C   UNL A   1      27.687  30.017  23.244  1.00  0.00     0.002 A 
ENDBRANCH  27  28
ENDBRANCH   7  27
ENDBRANCH   4   7
ENDBRANCH   2   3
ENDBRANCH   1   2
BRANCH   1  37
ATOM     37  C   UNL A   1      34.907  30.868  28.422  1.00  0.00     0.002 C 
BRANCH  37  38
ATOM     38  C   UNL A   1      34.817  32.308  27.883  1.00  0.00     0.002 C 
BRANCH  38  39
ATOM     39  C   UNL A   1      33.569  33.149  28.156  1.00  0.00     0.021 C 
BRANCH  39  40
ATOM     40  C   UNL A   1      33.751  34.619  28.487  1.00  0.00     0.116 C 
BRANCH  40  41
ATOM     41  N   UNL A   1      33.254  34.969  29.803  1.00  0.00    -0.352 N 
ATOM     42  C   UNL A   1      33.674  34.571  31.054  1.00  0.00     0.251 C 
ATOM     43  H   UNL A   1      32.493  35.592  29.804  1.00  0.00     0.163 HD
ATOM     44  O   UNL A   1      33.038  34.897  32.040  1.00  0.00    -0.269 OA
BRANCH  42  45
ATOM     45  C   UNL A   1      34.877  33.712  31.205  1.00  0.00     0.039 A 
ATOM     46  C   UNL A   1      34.805  32.446  31.784  1.00  0.00     0.014 A 
ATOM     47  C   UNL A   1      36.106  34.192  30.738  1.00  0.00     0.014 A 
ATOM     48  C   UNL A   1      35.974  31.738  32.052  1.00  0.00     0.010 A 
ATOM     49  C   UNL A   1      37.271  33.438  30.924  1.00  0.00     0.010 A 
ATOM     50  C   UNL A   1      37.222  32.226  31.629  1.00  0.00    -0.014 A 
BRANCH  50  51
ATOM     51  C   UNL A   1      38.452  31.444  31.929  1.00  0.00     0.031 A 
ATOM     52  C   UNL A   1      38.909  30.337  31.016  1.00  0.00     0.074 A 
ATOM     53  C   UNL A   1      39.198  31.780  33.000  1.00  0.00     0.049 A 
ATOM     54  N   UNL A   1      39.997  29.609  31.088  1.00  0.00    -0.248 NA
ATOM     55  C   UNL A   1      38.040  29.997  29.877  1.00  0.00     0.031 C 
ATOM     56  C   UNL A   1      38.866  32.839  33.954  1.00  0.00     0.029 A 
ATOM     57  N   UNL A   1      40.403  31.296  33.446  1.00  0.00    -0.354 N 
ATOM     58  C   UNL A   1      39.937  28.724  30.019  1.00  0.00     0.074 A 
ATOM     59  C   UNL A   1      38.690  28.978  29.332  1.00  0.00     0.031 C 
ATOM     60  C   UNL A   1      39.872  32.972  34.830  1.00  0.00     0.029 A 
ATOM     61  C   UNL A   1      40.888  31.965  34.545  1.00  0.00     0.049 A 
ATOM     62  H   UNL A   1      40.874  30.545  33.020  1.00  0.00     0.167 HD
ATOM     63  C   UNL A   1      40.847  27.797  29.635  1.00  0.00     0.031 A 
ATOM     64  C   UNL A   1      42.021  31.791  35.253  1.00  0.00     0.031 A 
ATOM     65  C   UNL A   1      42.091  27.551  30.319  1.00  0.00     0.049 A 
ATOM     66  C   UNL A   1      42.991  30.723  34.834  1.00  0.00     0.074 A 
ATOM     67  C   UNL A   1      43.086  26.648  29.985  1.00  0.00     0.029 A 
ATOM     68  N   UNL A   1      42.509  28.202  31.469  1.00  0.00    -0.354 N 
ATOM     69  N   UNL A   1      42.931  29.918  33.801  1.00  0.00    -0.248 NA
ATOM     70  C   UNL A   1      44.183  30.542  35.672  1.00  0.00     0.031 C 
ATOM     71  C   UNL A   1      44.072  26.701  30.973  1.00  0.00     0.029 A 
ATOM     72  C   UNL A   1      43.733  27.696  31.876  1.00  0.00     0.049 A 
ATOM     73  H   UNL A   1      42.012  28.916  31.927  1.00  0.00     0.167 HD
ATOM     74  C   UNL A   1      44.082  29.142  33.857  1.00  0.00     0.074 A 
ATOM     75  C   UNL A   1      44.835  29.595  35.009  1.00  0.00     0.031 C 
ATOM     76  C   UNL A   1      44.472  28.142  33.031  1.00  0.00     0.031 A 
BRANCH  63  77
ATOM     77  C   UNL A   1      40.542  26.960  28.420  1.00  0.00    -0.014 A 
ATOM     78  C   UNL A   1      39.782  25.786  28.554  1.00  0.00     0.009 A 
ATOM     79  C   UNL A   1      41.097  27.267  27.167  1.00  0.00     0.009 A 
ATOM     80  C   UNL A   1      39.599  24.929  27.467  1.00  0.00     0.001 A 
ATOM     81  C   UNL A   1      40.886  26.424  26.074  1.00  0.00     0.001 A 
ATOM     82  C   UNL A   1      40.148  25.251  26.227  1.00  0.00     0.000 A 
ENDBRANCH  63  77
BRANCH  64  83
ATOM     83  C   UNL A   1      42.291  32.669  36.422  1.00  0.00    -0.014 A 
ATOM     84  C   UNL A   1      43.024  33.859  36.266  1.00  0.00     0.009 A 
ATOM     85  C   UNL A   1      41.877  32.296  37.709  1.00  0.00     0.009 A 
ATOM     86  C   UNL A   1      43.367  34.634  37.376  1.00  0.00     0.001 A 
ATOM     87  C   UNL A   1      42.191  33.094  38.814  1.00  0.00     0.001 A 
ATOM     88  C   UNL A   1      42.947  34.253  38.648  1.00  0.00     0.000 A 
ENDBRANCH  64  83
BRANCH  76  89
ATOM     89  C   UNL A   1      45.778  27.454  33.327  1.00  0.00    -0.014 A 
ATOM     90  C   UNL A   1      45.794  26.302  34.130  1.00  0.00     0.009 A 
ATOM     91  C   UNL A   1      46.998  27.994  32.894  1.00  0.00     0.009 A 
ATOM     92  C   UNL A   1      47.004  25.715  34.507  1.00  0.00     0.001 A 
ATOM     93  C   UNL A   1      48.205  27.385  33.242  1.00  0.00     0.001 A 
ATOM     94  C   UNL A   1      48.207  26.253  34.057  1.00  0.00     0.000 A 
ENDBRANCH  76  89
ENDBRANCH  50  51
ENDBRANCH  42  45
ENDBRANCH  40  41
ENDBRANCH  39  40
ENDBRANCH  38  39
ENDBRANCH  37  38
ENDBRANCH   1  37
TORSDOF 19
ENDMDL
MODEL 3
REMARK VINA RESULT:     -12.1      4.011      9.393
REMARK SMILES C[C@H]1c2ccc(O)cc2OC(=O)[C@@H]1CC(=O)N[C@@H](CC1=c2ccccc2=NC1)C(=O)NCCCCCCNC(=O)c1ccc(-c2c3nc(c(-c4ccccc4)c4ccc([nH]4)c(-c4ccccc4)c4nc(c(-c5ccccc5)c5ccc2[nH]5)C=C4)C=C3)cc1
REMARK SMILES IDX 33 1 32 2 31 3 29 4 30 5 18 7 17 8 15 9 16 10 14 12 13 13
REMARK SMILES IDX 1 14 2 15 3 16 4 17 9 18 11 19 5 20 8 21 10 22 12 23 6 24
REMARK SMILES IDX 7 25 19 27 20 28 21 29 28 30 22 31 26 32 27 33 23 34 25 35
REMARK SMILES IDX 24 36 34 37 35 38 36 39 37 40 38 41 39 42 40 44 41 45 42 46
REMARK SMILES IDX 88 47 43 48 87 49 44 50 45 51 46 52 81 53 47 54 86 55 80 56
REMARK SMILES IDX 82 57 48 58 85 59 79 60 78 61 49 63 71 64 56 65 70 66 57 67
REMARK SMILES IDX 60 68 69 69 83 70 58 71 59 72 68 74 84 75 61 76 50 77 51 78
REMARK SMILES IDX 55 79 52 80 54 81 53 82 72 83 73 84 77 85 74 86 76 87 75 88
REMARK SMILES IDX 62 89 63 90 67 91 64 92 66 93 65 94
REMARK H PARENT 31 6 17 11 7 26 38 43 82 62 60 73
REMARK Flexibility Score: inf
ROOT
ATOM      1  C   UNL A   1      35.458  22.673  23.777  1.00  0.00     0.021 C 
ENDROOT
BRANCH   1   2
ATOM      2  C   UNL A   1      34.599  23.509  24.713  1.00  0.00     0.116 C 
BRANCH   2   3
ATOM      3  N   UNL A   1      34.483  23.235  26.114  1.00  0.00    -0.354 N 
ATOM      4  C   UNL A   1      33.821  22.112  26.574  1.00  0.00     0.242 C 
ATOM      5  O   UNL A   1      34.381  21.468  27.469  1.00  0.00    -0.273 OA
ATOM      6  H   UNL A   1      34.881  23.860  26.763  1.00  0.00     0.163 HD
BRANCH   4   7
ATOM      7  C   UNL A   1      32.441  21.602  26.000  1.00  0.00     0.175 C 
BRANCH   7   8
ATOM      8  N   UNL A   1      31.189  22.175  26.505  1.00  0.00    -0.344 N 
ATOM      9  C   UNL A   1      30.809  23.485  26.582  1.00  0.00     0.221 C 
ATOM     10  O   UNL A   1      29.811  23.761  27.251  1.00  0.00    -0.275 OA
ATOM     11  H   UNL A   1      30.530  21.524  26.836  1.00  0.00     0.164 HD
BRANCH   9  12
ATOM     12  C   UNL A   1      31.548  24.572  25.809  1.00  0.00     0.116 C 
BRANCH  12  13
ATOM     13  C   UNL A   1      30.963  24.954  24.428  1.00  0.00     0.116 C 
ATOM     14  C   UNL A   1      31.462  25.793  22.056  1.00  0.00     0.014 C 
ATOM     15  C   UNL A   1      32.012  25.587  23.479  1.00  0.00     0.034 C 
ATOM     16  C   UNL A   1      32.463  26.903  24.076  1.00  0.00    -0.001 A 
ATOM     17  C   UNL A   1      33.734  27.433  23.841  1.00  0.00     0.011 A 
ATOM     18  C   UNL A   1      31.595  27.600  24.925  1.00  0.00     0.138 A 
ATOM     19  C   UNL A   1      29.874  25.996  24.513  1.00  0.00     0.315 C 
ATOM     20  C   UNL A   1      34.138  28.597  24.504  1.00  0.00     0.047 A 
ATOM     21  C   UNL A   1      31.999  28.730  25.625  1.00  0.00     0.093 A 
ATOM     22  O   UNL A   1      30.257  27.203  25.073  1.00  0.00    -0.426 OA
ATOM     23  O   UNL A   1      28.727  25.796  24.134  1.00  0.00    -0.251 OA
ATOM     24  C   UNL A   1      33.278  29.218  25.411  1.00  0.00     0.119 A 
BRANCH  24  25
ATOM     25  O   UNL A   1      33.658  30.327  26.106  1.00  0.00    -0.508 OA
ATOM     26  H   UNL A   1      34.441  30.782  25.871  1.00  0.00     0.293 HD
ENDBRANCH  24  25
ENDBRANCH  12  13
ENDBRANCH   9  12
ENDBRANCH   7   8
BRANCH   7  27
ATOM     27  C   UNL A   1      32.304  21.150  24.490  1.00  0.00     0.068 C 
BRANCH  27  28
ATOM     28  C   UNL A   1      33.089  19.985  23.874  1.00  0.00    -0.037 C 
ATOM     29  C   UNL A   1      33.657  19.012  24.624  1.00  0.00     0.001 A 
ATOM     30  C   UNL A   1      32.406  19.366  22.709  1.00  0.00     0.174 C 
ATOM     31  C   UNL A   1      34.821  18.170  24.269  1.00  0.00     0.010 A 
ATOM     32  C   UNL A   1      32.516  18.067  24.443  1.00  0.00     0.065 A 
ATOM     33  N   UNL A   1      31.854  18.154  23.336  1.00  0.00    -0.280 NA
ATOM     34  C   UNL A   1      34.803  16.864  24.629  1.00  0.00     0.001 A 
ATOM     35  C   UNL A   1      32.490  16.942  25.380  1.00  0.00     0.028 A 
ATOM     36  C   UNL A   1      33.687  16.333  25.417  1.00  0.00     0.002 A 
ENDBRANCH  27  28
ENDBRANCH   7  27
ENDBRANCH   4   7
ENDBRANCH   2   3
ENDBRANCH   1   2
BRANCH   1  37
ATOM     37  C   UNL A   1      36.798  22.152  24.329  1.00  0.00     0.002 C 
BRANCH  37  38
ATOM     38  C   UNL A   1      36.875  20.786  25.035  1.00  0.00     0.002 C 
BRANCH  38  39
ATOM     39  C   UNL A   1      38.155  19.953  24.954  1.00  0.00     0.021 C 
BRANCH  39  40
ATOM     40  C   UNL A   1      39.170  20.083  26.074  1.00  0.00     0.116 C 
BRANCH  40  41
ATOM     41  N   UNL A   1      40.311  19.203  25.908  1.00  0.00    -0.352 N 
ATOM     42  C   UNL A   1      41.659  19.446  26.062  1.00  0.00     0.251 C 
ATOM     43  H   UNL A   1      40.086  18.283  25.643  1.00  0.00     0.163 HD
ATOM     44  O   UNL A   1      42.468  18.588  25.759  1.00  0.00    -0.269 OA
BRANCH  42  45
ATOM     45  C   UNL A   1      42.134  20.763  26.559  1.00  0.00     0.039 A 
ATOM     46  C   UNL A   1      42.297  21.016  27.920  1.00  0.00     0.014 A 
ATOM     47  C   UNL A   1      42.436  21.762  25.627  1.00  0.00     0.014 A 
ATOM     48  C   UNL A   1      42.590  22.306  28.355  1.00  0.00     0.010 A 
ATOM     49  C   UNL A   1      42.822  23.035  26.063  1.00  0.00     0.010 A 
ATOM     50  C   UNL A   1      42.853  23.333  27.433  1.00  0.00    -0.014 A 
BRANCH  50  51
ATOM     51  C   UNL A   1      43.166  24.699  27.931  1.00  0.00     0.031 A 
ATOM     52  C   UNL A   1      44.591  25.173  28.054  1.00  0.00     0.074 A 
ATOM     53  C   UNL A   1      42.153  25.543  28.211  1.00  0.00     0.049 A 
ATOM     54  N   UNL A   1      45.036  26.358  28.396  1.00  0.00    -0.248 NA
ATOM     55  C   UNL A   1      45.654  24.199  27.759  1.00  0.00     0.031 C 
ATOM     56  C   UNL A   1      40.732  25.206  28.123  1.00  0.00     0.029 A 
ATOM     57  N   UNL A   1      42.159  26.864  28.590  1.00  0.00    -0.354 N 
ATOM     58  C   UNL A   1      46.422  26.268  28.368  1.00  0.00     0.074 A 
ATOM     59  C   UNL A   1      46.749  24.905  28.013  1.00  0.00     0.031 C 
ATOM     60  C   UNL A   1      40.004  26.304  28.370  1.00  0.00     0.029 A 
ATOM     61  C   UNL A   1      40.901  27.405  28.703  1.00  0.00     0.049 A 
ATOM     62  H   UNL A   1      42.983  27.372  28.764  1.00  0.00     0.167 HD
ATOM     63  C   UNL A   1      47.338  27.238  28.602  1.00  0.00     0.031 A 
ATOM     64  C   UNL A   1      40.503  28.648  29.039  1.00  0.00     0.031 A 
ATOM     65  C   UNL A   1      47.009  28.596  28.951  1.00  0.00     0.049 A 
ATOM     66  C   UNL A   1      41.540  29.693  29.339  1.00  0.00     0.074 A 
ATOM     67  C   UNL A   1      47.872  29.654  29.181  1.00  0.00     0.029 A 
ATOM     68  N   UNL A   1      45.723  29.084  29.124  1.00  0.00    -0.354 N 
ATOM     69  N   UNL A   1      42.846  29.597  29.277  1.00  0.00    -0.248 NA
ATOM     70  C   UNL A   1      41.051  31.015  29.752  1.00  0.00     0.031 C 
ATOM     71  C   UNL A   1      47.113  30.762  29.563  1.00  0.00     0.029 A 
ATOM     72  C   UNL A   1      45.773  30.420  29.490  1.00  0.00     0.049 A 
ATOM     73  H   UNL A   1      44.898  28.561  29.004  1.00  0.00     0.167 HD
ATOM     74  C   UNL A   1      43.336  30.847  29.631  1.00  0.00     0.074 A 
ATOM     75  C   UNL A   1      42.185  31.693  29.877  1.00  0.00     0.031 C 
ATOM     76  C   UNL A   1      44.624  31.253  29.746  1.00  0.00     0.031 A 
BRANCH  63  77
ATOM     77  C   UNL A   1      48.797  26.880  28.499  1.00  0.00    -0.014 A 
ATOM     78  C   UNL A   1      49.440  26.924  27.250  1.00  0.00     0.009 A 
ATOM     79  C   UNL A   1      49.508  26.392  29.608  1.00  0.00     0.009 A 
ATOM     80  C   UNL A   1      50.753  26.472  27.110  1.00  0.00     0.001 A 
ATOM     81  C   UNL A   1      50.832  25.970  29.470  1.00  0.00     0.001 A 
ATOM     82  C   UNL A   1      51.450  25.999  28.220  1.00  0.00     0.000 A 
ENDBRANCH  63  77
BRANCH  64  83
ATOM     83  C   UNL A   1      39.050  28.960  29.089  1.00  0.00    -0.014 A 
ATOM     84  C   UNL A   1      38.376  29.408  27.940  1.00  0.00     0.009 A 
ATOM     85  C   UNL A   1      38.341  28.874  30.296  1.00  0.00     0.009 A 
ATOM     86  C   UNL A   1      37.037  29.798  28.006  1.00  0.00     0.001 A 
ATOM     87  C   UNL A   1      36.990  29.231  30.352  1.00  0.00     0.001 A 
ATOM     88  C   UNL A   1      36.344  29.705  29.211  1.00  0.00     0.000 A 
ENDBRANCH  64  83
BRANCH  76  89
ATOM     89  C   UNL A   1      44.878  32.679  30.156  1.00  0.00    -0.014 A 
ATOM     90  C   UNL A   1      45.166  33.646  29.180  1.00  0.00     0.009 A 
ATOM     91  C   UNL A   1      44.926  33.047  31.509  1.00  0.00     0.009 A 
ATOM     92  C   UNL A   1      45.513  34.947  29.550  1.00  0.00     0.001 A 
ATOM     93  C   UNL A   1      45.238  34.358  31.875  1.00  0.00     0.001 A 
ATOM     94  C   UNL A   1      45.543  35.303  30.896  1.00  0.00     0.000 A 
ENDBRANCH  76  89
ENDBRANCH  50  51
ENDBRANCH  42  45
ENDBRANCH  40  41
ENDBRANCH  39  40
ENDBRANCH  38  39
ENDBRANCH  37  38
ENDBRANCH   1  37
TORSDOF 19
ENDMDL
