MODEL 1
REMARK VINA RESULT:     -10.0      0.000      0.000
REMARK SMILES CC[NH2+][C@]1(C(=O)NCCCCCCNC(=O)c2ccc(-c3c4nc(c(-c5ccccc5)c5ccc([nH]5)c(-c5ccccc5)c5nc(c(-c6ccccc6)c6ccc3[nH]6)C=C5)C=C4)cc2)CC[C@@H](Sc2ccc(OC)cc2)C1
REMARK SMILES IDX 10 1 9 2 8 3 7 4 5 5 6 6 4 8 65 9 77 10 66 11 67 12 3 13
REMARK SMILES IDX 2 16 1 17 68 18 69 19 70 20 76 21 71 22 75 23 72 24 73 25
REMARK SMILES IDX 74 26 11 27 12 28 13 29 14 30 15 31 16 33 17 34 18 35 64 36
REMARK SMILES IDX 19 37 63 38 20 39 21 40 22 41 57 42 23 43 62 44 56 45 58 46
REMARK SMILES IDX 24 47 61 48 55 49 54 50 25 52 47 53 32 54 46 55 33 56 36 57
REMARK SMILES IDX 45 58 59 59 34 60 35 61 44 63 60 64 37 65 26 66 27 67 31 68
REMARK SMILES IDX 28 69 30 70 29 71 48 72 49 73 53 74 50 75 52 76 51 77 38 78
REMARK SMILES IDX 39 79 43 80 40 81 42 82 41 83
REMARK H PARENT 7 7 3 14 3 15 14 32 58 51 36 62
REMARK Flexibility Score: inf
ROOT
ATOM      1  C   UNL A   1      32.268  29.987  26.907  1.00  0.00     0.002 C 
ENDROOT
BRANCH   1   2
ATOM      2  C   UNL A   1      33.548  29.562  26.188  1.00  0.00     0.021 C 
BRANCH   2   3
ATOM      3  C   UNL A   1      34.011  28.136  26.455  1.00  0.00     0.116 C 
BRANCH   3   4
ATOM      4  N   UNL A   1      32.942  27.257  26.873  1.00  0.00    -0.351 N 
ATOM      5  C   UNL A   1      32.146  26.419  26.140  1.00  0.00     0.281 C 
ATOM      6  O   UNL A   1      31.378  25.696  26.782  1.00  0.00    -0.268 OA
ATOM      7  H   UNL A   1      32.755  27.264  27.840  1.00  0.00     0.163 HD
BRANCH   5   8
ATOM      8  C   UNL A   1      32.153  26.478  24.566  1.00  0.00     0.176 C 
ATOM      9  C   UNL A   1      33.591  26.500  24.007  1.00  0.00     0.080 C 
ATOM     10  C   UNL A   1      31.605  25.134  24.010  1.00  0.00     0.094 C 
ATOM     11  C   UNL A   1      33.567  25.780  22.670  1.00  0.00     0.022 C 
ATOM     12  C   UNL A   1      32.433  24.771  22.773  1.00  0.00     0.058 C 
BRANCH   8  13
ATOM     13  N   UNL A   1      31.218  27.567  24.192  1.00  0.00    -0.334 N 
ATOM     14  H   UNL A   1      31.162  28.201  24.989  1.00  0.00     0.347 HD
ATOM     15  H   UNL A   1      31.616  27.948  23.334  1.00  0.00     0.347 HD
BRANCH  13  16
ATOM     16  C   UNL A   1      29.856  27.226  23.824  1.00  0.00     0.257 C 
ATOM     17  C   UNL A   1      29.306  28.292  22.882  1.00  0.00     0.071 C 
ENDBRANCH  13  16
ENDBRANCH   8  13
BRANCH  12  18
ATOM     18  S   UNL A   1      32.980  23.013  22.705  1.00  0.00    -0.122 SA
BRANCH  18  19
ATOM     19  C   UNL A   1      34.449  22.994  23.718  1.00  0.00     0.008 A 
ATOM     20  C   UNL A   1      35.710  22.964  23.114  1.00  0.00     0.019 A 
ATOM     21  C   UNL A   1      34.369  22.899  25.109  1.00  0.00     0.019 A 
ATOM     22  C   UNL A   1      36.867  22.864  23.895  1.00  0.00     0.047 A 
ATOM     23  C   UNL A   1      35.527  22.809  25.891  1.00  0.00     0.047 A 
ATOM     24  C   UNL A   1      36.783  22.786  25.287  1.00  0.00     0.118 A 
BRANCH  24  25
ATOM     25  O   UNL A   1      37.982  22.674  25.933  1.00  0.00    -0.497 OA
ATOM     26  C   UNL A   1      38.710  21.468  25.727  1.00  0.00     0.278 C 
ENDBRANCH  24  25
ENDBRANCH  18  19
ENDBRANCH  12  18
ENDBRANCH   5   8
ENDBRANCH   3   4
ENDBRANCH   2   3
ENDBRANCH   1   2
BRANCH   1  27
ATOM     27  C   UNL A   1      31.338  30.917  26.121  1.00  0.00     0.002 C 
BRANCH  27  28
ATOM     28  C   UNL A   1      31.220  32.347  26.655  1.00  0.00     0.021 C 
BRANCH  28  29
ATOM     29  C   UNL A   1      32.544  33.062  26.899  1.00  0.00     0.116 C 
BRANCH  29  30
ATOM     30  N   UNL A   1      32.380  34.293  27.654  1.00  0.00    -0.352 N 
ATOM     31  C   UNL A   1      33.086  34.754  28.735  1.00  0.00     0.251 C 
ATOM     32  H   UNL A   1      31.656  34.882  27.343  1.00  0.00     0.163 HD
ATOM     33  O   UNL A   1      32.688  35.737  29.357  1.00  0.00    -0.269 OA
BRANCH  31  34
ATOM     34  C   UNL A   1      34.315  34.058  29.172  1.00  0.00     0.039 A 
ATOM     35  C   UNL A   1      35.537  34.437  28.613  1.00  0.00     0.014 A 
ATOM     36  C   UNL A   1      34.264  33.034  30.122  1.00  0.00     0.014 A 
ATOM     37  C   UNL A   1      36.716  33.832  29.052  1.00  0.00     0.010 A 
ATOM     38  C   UNL A   1      35.445  32.486  30.615  1.00  0.00     0.010 A 
ATOM     39  C   UNL A   1      36.683  32.878  30.083  1.00  0.00    -0.014 A 
BRANCH  39  40
ATOM     40  C   UNL A   1      37.937  32.302  30.631  1.00  0.00     0.031 A 
ATOM     41  C   UNL A   1      38.533  31.059  30.033  1.00  0.00     0.074 A 
ATOM     42  C   UNL A   1      38.503  32.862  31.717  1.00  0.00     0.049 A 
ATOM     43  N   UNL A   1      39.600  30.396  30.401  1.00  0.00    -0.248 NA
ATOM     44  C   UNL A   1      37.822  30.467  28.889  1.00  0.00     0.031 C 
ATOM     45  C   UNL A   1      37.994  34.040  32.423  1.00  0.00     0.029 A 
ATOM     46  N   UNL A   1      39.627  32.511  32.422  1.00  0.00    -0.354 N 
ATOM     47  C   UNL A   1      39.677  29.301  29.549  1.00  0.00     0.074 A 
ATOM     48  C   UNL A   1      38.521  29.362  28.681  1.00  0.00     0.031 C 
ATOM     49  C   UNL A   1      38.816  34.328  33.443  1.00  0.00     0.029 A 
ATOM     50  C   UNL A   1      39.882  33.333  33.491  1.00  0.00     0.049 A 
ATOM     51  H   UNL A   1      40.195  31.743  32.183  1.00  0.00     0.167 HD
ATOM     52  C   UNL A   1      40.631  28.341  29.485  1.00  0.00     0.031 A 
ATOM     53  C   UNL A   1      40.859  33.288  34.417  1.00  0.00     0.031 A 
ATOM     54  C   UNL A   1      41.777  28.281  30.353  1.00  0.00     0.049 A 
ATOM     55  C   UNL A   1      41.902  32.211  34.335  1.00  0.00     0.074 A 
ATOM     56  C   UNL A   1      42.838  27.392  30.322  1.00  0.00     0.029 A 
ATOM     57  N   UNL A   1      42.005  29.137  31.423  1.00  0.00    -0.354 N 
ATOM     58  N   UNL A   1      42.012  31.235  33.467  1.00  0.00    -0.248 NA
ATOM     59  C   UNL A   1      42.960  32.235  35.353  1.00  0.00     0.031 C 
ATOM     60  C   UNL A   1      43.668  27.664  31.415  1.00  0.00     0.029 A 
ATOM     61  C   UNL A   1      43.165  28.769  32.085  1.00  0.00     0.049 A 
ATOM     62  H   UNL A   1      41.427  29.893  31.673  1.00  0.00     0.167 HD
ATOM     63  C   UNL A   1      43.161  30.539  33.821  1.00  0.00     0.074 A 
ATOM     64  C   UNL A   1      43.721  31.220  34.972  1.00  0.00     0.031 C 
ATOM     65  C   UNL A   1      43.702  29.439  33.243  1.00  0.00     0.031 A 
BRANCH  52  66
ATOM     66  C   UNL A   1      40.449  27.258  28.454  1.00  0.00    -0.014 A 
ATOM     67  C   UNL A   1      39.730  26.085  28.737  1.00  0.00     0.009 A 
ATOM     68  C   UNL A   1      41.002  27.419  27.173  1.00  0.00     0.009 A 
ATOM     69  C   UNL A   1      39.618  25.073  27.781  1.00  0.00     0.001 A 
ATOM     70  C   UNL A   1      40.858  26.421  26.206  1.00  0.00     0.001 A 
ATOM     71  C   UNL A   1      40.180  25.243  26.515  1.00  0.00     0.000 A 
ENDBRANCH  52  66
BRANCH  53  72
ATOM     72  C   UNL A   1      40.891  34.312  35.495  1.00  0.00    -0.014 A 
ATOM     73  C   UNL A   1      41.582  35.518  35.316  1.00  0.00     0.009 A 
ATOM     74  C   UNL A   1      40.194  34.100  36.695  1.00  0.00     0.009 A 
ATOM     75  C   UNL A   1      41.585  36.487  36.321  1.00  0.00     0.001 A 
ATOM     76  C   UNL A   1      40.173  35.083  37.686  1.00  0.00     0.001 A 
ATOM     77  C   UNL A   1      40.874  36.273  37.502  1.00  0.00     0.000 A 
ENDBRANCH  53  72
BRANCH  65  78
ATOM     78  C   UNL A   1      44.978  28.907  33.838  1.00  0.00    -0.014 A 
ATOM     79  C   UNL A   1      44.962  27.913  34.831  1.00  0.00     0.009 A 
ATOM     80  C   UNL A   1      46.214  29.378  33.370  1.00  0.00     0.009 A 
ATOM     81  C   UNL A   1      46.158  27.431  35.366  1.00  0.00     0.001 A 
ATOM     82  C   UNL A   1      47.408  28.871  33.884  1.00  0.00     0.001 A 
ATOM     83  C   UNL A   1      47.379  27.905  34.887  1.00  0.00     0.000 A 
ENDBRANCH  65  78
ENDBRANCH  39  40
ENDBRANCH  31  34
ENDBRANCH  29  30
ENDBRANCH  28  29
ENDBRANCH  27  28
ENDBRANCH   1  27
TORSDOF 18
ENDMDL
MODEL 2
REMARK VINA RESULT:     -10.0      3.053      7.746
REMARK SMILES CC[NH2+][C@]1(C(=O)NCCCCCCNC(=O)c2ccc(-c3c4nc(c(-c5ccccc5)c5ccc([nH]5)c(-c5ccccc5)c5nc(c(-c6ccccc6)c6ccc3[nH]6)C=C5)C=C4)cc2)CC[C@@H](Sc2ccc(OC)cc2)C1
REMARK SMILES IDX 10 1 9 2 8 3 7 4 5 5 6 6 4 8 65 9 77 10 66 11 67 12 3 13
REMARK SMILES IDX 2 16 1 17 68 18 69 19 70 20 76 21 71 22 75 23 72 24 73 25
REMARK SMILES IDX 74 26 11 27 12 28 13 29 14 30 15 31 16 33 17 34 18 35 64 36
REMARK SMILES IDX 19 37 63 38 20 39 21 40 22 41 57 42 23 43 62 44 56 45 58 46
REMARK SMILES IDX 24 47 61 48 55 49 54 50 25 52 47 53 32 54 46 55 33 56 36 57
REMARK SMILES IDX 45 58 59 59 34 60 35 61 44 63 60 64 37 65 26 66 27 67 31 68
REMARK SMILES IDX 28 69 30 70 29 71 48 72 49 73 53 74 50 75 52 76 51 77 38 78
REMARK SMILES IDX 39 79 43 80 40 81 42 82 41 83
REMARK H PARENT 7 7 3 14 3 15 14 32 58 51 36 62
REMARK Flexibility Score: inf
ROOT
ATOM      1  C   UNL A   1      33.817  28.476  24.127  1.00  0.00     0.002 C 
ENDROOT
BRANCH   1   2
ATOM      2  C   UNL A   1      33.528  27.248  23.265  1.00  0.00     0.021 C 
BRANCH   2   3
ATOM      3  C   UNL A   1      33.771  25.901  23.934  1.00  0.00     0.116 C 
BRANCH   3   4
ATOM      4  N   UNL A   1      34.521  24.981  23.108  1.00  0.00    -0.351 N 
ATOM      5  C   UNL A   1      34.958  23.711  23.369  1.00  0.00     0.281 C 
ATOM      6  O   UNL A   1      35.487  23.112  22.429  1.00  0.00    -0.268 OA
ATOM      7  H   UNL A   1      34.756  25.324  22.216  1.00  0.00     0.163 HD
BRANCH   5   8
ATOM      8  C   UNL A   1      34.877  23.118  24.826  1.00  0.00     0.176 C 
ATOM      9  C   UNL A   1      34.396  24.175  25.841  1.00  0.00     0.080 C 
ATOM     10  C   UNL A   1      33.734  22.066  24.879  1.00  0.00     0.094 C 
ATOM     11  C   UNL A   1      33.609  23.444  26.915  1.00  0.00     0.022 C 
ATOM     12  C   UNL A   1      33.023  22.220  26.228  1.00  0.00     0.058 C 
BRANCH   8  13
ATOM     13  N   UNL A   1      36.170  22.430  25.061  1.00  0.00    -0.334 N 
ATOM     14  H   UNL A   1      36.026  21.778  25.834  1.00  0.00     0.347 HD
ATOM     15  H   UNL A   1      36.399  22.019  24.157  1.00  0.00     0.347 HD
BRANCH  13  16
ATOM     16  C   UNL A   1      37.339  23.226  25.389  1.00  0.00     0.257 C 
ATOM     17  C   UNL A   1      38.374  22.342  26.077  1.00  0.00     0.071 C 
ENDBRANCH  13  16
ENDBRANCH   8  13
BRANCH  12  18
ATOM     18  S   UNL A   1      31.183  22.219  26.130  1.00  0.00    -0.122 SA
BRANCH  18  19
ATOM     19  C   UNL A   1      30.811  23.730  25.256  1.00  0.00     0.008 A 
ATOM     20  C   UNL A   1      30.424  24.868  25.970  1.00  0.00     0.019 A 
ATOM     21  C   UNL A   1      30.792  23.774  23.861  1.00  0.00     0.019 A 
ATOM     22  C   UNL A   1      30.048  26.035  25.293  1.00  0.00     0.047 A 
ATOM     23  C   UNL A   1      30.425  24.944  23.184  1.00  0.00     0.047 A 
ATOM     24  C   UNL A   1      30.046  26.079  23.897  1.00  0.00     0.118 A 
BRANCH  24  25
ATOM     25  O   UNL A   1      29.642  27.269  23.358  1.00  0.00    -0.497 OA
ATOM     26  C   UNL A   1      28.255  27.572  23.444  1.00  0.00     0.278 C 
ENDBRANCH  24  25
ENDBRANCH  18  19
ENDBRANCH  12  18
ENDBRANCH   5   8
ENDBRANCH   3   4
ENDBRANCH   2   3
ENDBRANCH   1   2
BRANCH   1  27
ATOM     27  C   UNL A   1      32.643  28.999  24.959  1.00  0.00     0.002 C 
BRANCH  27  28
ATOM     28  C   UNL A   1      32.493  28.392  26.356  1.00  0.00     0.021 C 
BRANCH  28  29
ATOM     29  C   UNL A   1      33.627  28.703  27.326  1.00  0.00     0.116 C 
BRANCH  29  30
ATOM     30  N   UNL A   1      33.660  30.103  27.713  1.00  0.00    -0.352 N 
ATOM     31  C   UNL A   1      34.655  30.815  28.333  1.00  0.00     0.251 C 
ATOM     32  H   UNL A   1      32.847  30.616  27.500  1.00  0.00     0.163 HD
ATOM     33  O   UNL A   1      34.434  31.951  28.746  1.00  0.00    -0.269 OA
BRANCH  31  34
ATOM     34  C   UNL A   1      35.989  30.210  28.528  1.00  0.00     0.039 A 
ATOM     35  C   UNL A   1      36.903  30.241  27.472  1.00  0.00     0.014 A 
ATOM     36  C   UNL A   1      36.339  29.609  29.742  1.00  0.00     0.014 A 
ATOM     37  C   UNL A   1      38.188  29.726  27.653  1.00  0.00     0.010 A 
ATOM     38  C   UNL A   1      37.643  29.167  29.946  1.00  0.00     0.010 A 
ATOM     39  C   UNL A   1      38.580  29.219  28.903  1.00  0.00    -0.014 A 
BRANCH  39  40
ATOM     40  C   UNL A   1      39.973  28.763  29.140  1.00  0.00     0.031 A 
ATOM     41  C   UNL A   1      40.991  29.692  29.740  1.00  0.00     0.074 A 
ATOM     42  C   UNL A   1      40.341  27.529  28.747  1.00  0.00     0.049 A 
ATOM     43  N   UNL A   1      42.259  29.479  29.985  1.00  0.00    -0.248 NA
ATOM     44  C   UNL A   1      40.530  31.046  30.083  1.00  0.00     0.031 C 
ATOM     45  C   UNL A   1      39.461  26.549  28.104  1.00  0.00     0.029 A 
ATOM     46  N   UNL A   1      41.551  26.889  28.823  1.00  0.00    -0.354 N 
ATOM     47  C   UNL A   1      42.751  30.674  30.493  1.00  0.00     0.074 A 
ATOM     48  C   UNL A   1      41.659  31.622  30.470  1.00  0.00     0.031 C 
ATOM     49  C   UNL A   1      40.155  25.426  27.869  1.00  0.00     0.029 A 
ATOM     50  C   UNL A   1      41.535  25.619  28.301  1.00  0.00     0.049 A 
ATOM     51  H   UNL A   1      42.356  27.301  29.215  1.00  0.00     0.167 HD
ATOM     52  C   UNL A   1      43.995  30.954  30.949  1.00  0.00     0.031 A 
ATOM     53  C   UNL A   1      42.521  24.711  28.173  1.00  0.00     0.031 A 
ATOM     54  C   UNL A   1      45.082  30.009  30.966  1.00  0.00     0.049 A 
ATOM     55  C   UNL A   1      43.896  25.043  28.677  1.00  0.00     0.074 A 
ATOM     56  C   UNL A   1      46.359  30.172  31.475  1.00  0.00     0.029 A 
ATOM     57  N   UNL A   1      45.024  28.729  30.433  1.00  0.00    -0.354 N 
ATOM     58  N   UNL A   1      44.324  26.148  29.238  1.00  0.00    -0.248 NA
ATOM     59  C   UNL A   1      44.921  24.000  28.539  1.00  0.00     0.031 C 
ATOM     60  C   UNL A   1      47.094  29.017  31.186  1.00  0.00     0.029 A 
ATOM     61  C   UNL A   1      46.256  28.107  30.562  1.00  0.00     0.049 A 
ATOM     62  H   UNL A   1      44.227  28.323  30.025  1.00  0.00     0.167 HD
ATOM     63  C   UNL A   1      45.662  25.927  29.538  1.00  0.00     0.074 A 
ATOM     64  C   UNL A   1      45.967  24.575  29.114  1.00  0.00     0.031 C 
ATOM     65  C   UNL A   1      46.555  26.769  30.116  1.00  0.00     0.031 A 
BRANCH  52  66
ATOM     66  C   UNL A   1      44.250  32.355  31.440  1.00  0.00    -0.014 A 
ATOM     67  C   UNL A   1      44.047  32.713  32.783  1.00  0.00     0.009 A 
ATOM     68  C   UNL A   1      44.708  33.333  30.542  1.00  0.00     0.009 A 
ATOM     69  C   UNL A   1      44.242  34.031  33.203  1.00  0.00     0.001 A 
ATOM     70  C   UNL A   1      44.937  34.642  30.972  1.00  0.00     0.001 A 
ATOM     71  C   UNL A   1      44.689  34.994  32.298  1.00  0.00     0.000 A 
ENDBRANCH  52  66
BRANCH  53  72
ATOM     72  C   UNL A   1      42.226  23.397  27.545  1.00  0.00    -0.014 A 
ATOM     73  C   UNL A   1      42.487  23.180  26.184  1.00  0.00     0.009 A 
ATOM     74  C   UNL A   1      41.718  22.340  28.316  1.00  0.00     0.009 A 
ATOM     75  C   UNL A   1      42.233  21.934  25.606  1.00  0.00     0.001 A 
ATOM     76  C   UNL A   1      41.494  21.087  27.742  1.00  0.00     0.001 A 
ATOM     77  C   UNL A   1      41.746  20.886  26.387  1.00  0.00     0.000 A 
ENDBRANCH  53  72
BRANCH  65  78
ATOM     78  C   UNL A   1      47.949  26.246  30.337  1.00  0.00    -0.014 A 
ATOM     79  C   UNL A   1      48.913  26.283  29.316  1.00  0.00     0.009 A 
ATOM     80  C   UNL A   1      48.313  25.746  31.596  1.00  0.00     0.009 A 
ATOM     81  C   UNL A   1      50.202  25.796  29.545  1.00  0.00     0.001 A 
ATOM     82  C   UNL A   1      49.611  25.291  31.832  1.00  0.00     0.001 A 
ATOM     83  C   UNL A   1      50.551  25.307  30.804  1.00  0.00     0.000 A 
ENDBRANCH  65  78
ENDBRANCH  39  40
ENDBRANCH  31  34
ENDBRANCH  29  30
ENDBRANCH  28  29
ENDBRANCH  27  28
ENDBRANCH   1  27
TORSDOF 18
ENDMDL
MODEL 3
REMARK VINA RESULT:      -9.7      5.671     10.470
REMARK SMILES CC[NH2+][C@]1(C(=O)NCCCCCCNC(=O)c2ccc(-c3c4nc(c(-c5ccccc5)c5ccc([nH]5)c(-c5ccccc5)c5nc(c(-c6ccccc6)c6ccc3[nH]6)C=C5)C=C4)cc2)CC[C@@H](Sc2ccc(OC)cc2)C1
REMARK SMILES IDX 10 1 9 2 8 3 7 4 5 5 6 6 4 8 65 9 77 10 66 11 67 12 3 13
REMARK SMILES IDX 2 16 1 17 68 18 69 19 70 20 76 21 71 22 75 23 72 24 73 25
REMARK SMILES IDX 74 26 11 27 12 28 13 29 14 30 15 31 16 33 17 34 18 35 64 36
REMARK SMILES IDX 19 37 63 38 20 39 21 40 22 41 57 42 23 43 62 44 56 45 58 46
REMARK SMILES IDX 24 47 61 48 55 49 54 50 25 52 47 53 32 54 46 55 33 56 36 57
REMARK SMILES IDX 45 58 59 59 34 60 35 61 44 63 60 64 37 65 26 66 27 67 31 68
REMARK SMILES IDX 28 69 30 70 29 71 48 72 49 73 53 74 50 75 52 76 51 77 38 78
REMARK SMILES IDX 39 79 43 80 40 81 42 82 41 83
REMARK H PARENT 7 7 3 14 3 15 14 32 58 51 36 62
REMARK Flexibility Score: inf
ROOT
ATOM      1  C   UNL A   1      40.036  22.188  27.007  1.00  0.00     0.002 C 
ENDROOT
BRANCH   1   2
ATOM      2  C   UNL A   1      39.240  23.390  26.502  1.00  0.00     0.021 C 
BRANCH   2   3
ATOM      3  C   UNL A   1      37.832  23.087  26.006  1.00  0.00     0.116 C 
BRANCH   3   4
ATOM      4  N   UNL A   1      37.625  21.691  25.693  1.00  0.00    -0.351 N 
ATOM      5  C   UNL A   1      36.503  21.037  25.260  1.00  0.00     0.281 C 
ATOM      6  O   UNL A   1      36.646  19.847  24.963  1.00  0.00    -0.268 OA
ATOM      7  H   UNL A   1      38.418  21.119  25.810  1.00  0.00     0.163 HD
BRANCH   5   8
ATOM      8  C   UNL A   1      35.103  21.758  25.259  1.00  0.00     0.176 C 
ATOM      9  C   UNL A   1      34.907  22.612  23.989  1.00  0.00     0.080 C 
ATOM     10  C   UNL A   1      33.985  20.688  25.112  1.00  0.00     0.094 C 
ATOM     11  C   UNL A   1      33.425  22.593  23.657  1.00  0.00     0.022 C 
ATOM     12  C   UNL A   1      32.906  21.268  24.192  1.00  0.00     0.058 C 
BRANCH   8  13
ATOM     13  N   UNL A   1      34.973  22.404  26.588  1.00  0.00    -0.334 N 
ATOM     14  H   UNL A   1      35.918  22.525  26.956  1.00  0.00     0.347 HD
ATOM     15  H   UNL A   1      34.448  23.257  26.397  1.00  0.00     0.347 HD
BRANCH  13  16
ATOM     16  C   UNL A   1      34.197  21.739  27.619  1.00  0.00     0.257 C 
ATOM     17  C   UNL A   1      32.900  22.508  27.847  1.00  0.00     0.071 C 
ENDBRANCH  13  16
ENDBRANCH   8  13
BRANCH  12  18
ATOM     18  S   UNL A   1      32.305  20.112  22.889  1.00  0.00    -0.122 SA
BRANCH  18  19
ATOM     19  C   UNL A   1      32.706  18.501  23.545  1.00  0.00     0.008 A 
ATOM     20  C   UNL A   1      32.146  18.085  24.756  1.00  0.00     0.019 A 
ATOM     21  C   UNL A   1      33.655  17.683  22.928  1.00  0.00     0.019 A 
ATOM     22  C   UNL A   1      32.516  16.860  25.324  1.00  0.00     0.047 A 
ATOM     23  C   UNL A   1      34.018  16.453  23.492  1.00  0.00     0.047 A 
ATOM     24  C   UNL A   1      33.453  16.038  24.696  1.00  0.00     0.118 A 
BRANCH  24  25
ATOM     25  O   UNL A   1      33.742  14.879  25.360  1.00  0.00    -0.497 OA
ATOM     26  C   UNL A   1      32.637  14.066  25.739  1.00  0.00     0.278 C 
ENDBRANCH  24  25
ENDBRANCH  18  19
ENDBRANCH  12  18
ENDBRANCH   5   8
ENDBRANCH   3   4
ENDBRANCH   2   3
ENDBRANCH   1   2
BRANCH   1  27
ATOM     27  C   UNL A   1      40.968  21.527  25.988  1.00  0.00     0.002 C 
BRANCH  27  28
ATOM     28  C   UNL A   1      41.163  20.017  26.144  1.00  0.00     0.021 C 
BRANCH  28  29
ATOM     29  C   UNL A   1      42.591  19.571  26.434  1.00  0.00     0.116 C 
BRANCH  29  30
ATOM     30  N   UNL A   1      43.320  19.218  25.227  1.00  0.00    -0.352 N 
ATOM     31  C   UNL A   1      44.130  19.993  24.438  1.00  0.00     0.251 C 
ATOM     32  H   UNL A   1      43.214  18.285  24.932  1.00  0.00     0.163 HD
ATOM     33  O   UNL A   1      44.520  19.570  23.351  1.00  0.00    -0.269 OA
BRANCH  31  34
ATOM     34  C   UNL A   1      44.521  21.348  24.880  1.00  0.00     0.039 A 
ATOM     35  C   UNL A   1      44.066  22.450  24.152  1.00  0.00     0.014 A 
ATOM     36  C   UNL A   1      45.336  21.534  26.001  1.00  0.00     0.014 A 
ATOM     37  C   UNL A   1      44.376  23.741  24.584  1.00  0.00     0.010 A 
ATOM     38  C   UNL A   1      45.579  22.821  26.474  1.00  0.00     0.010 A 
ATOM     39  C   UNL A   1      45.104  23.937  25.770  1.00  0.00    -0.014 A 
BRANCH  39  40
ATOM     40  C   UNL A   1      45.353  25.303  26.296  1.00  0.00     0.031 A 
ATOM     41  C   UNL A   1      44.230  26.117  26.875  1.00  0.00     0.074 A 
ATOM     42  C   UNL A   1      46.584  25.839  26.189  1.00  0.00     0.049 A 
ATOM     43  N   UNL A   1      44.254  27.337  27.348  1.00  0.00    -0.248 NA
ATOM     44  C   UNL A   1      42.900  25.488  26.899  1.00  0.00     0.031 C 
ATOM     45  C   UNL A   1      47.747  25.172  25.599  1.00  0.00     0.029 A 
ATOM     46  N   UNL A   1      47.060  27.070  26.563  1.00  0.00    -0.354 N 
ATOM     47  C   UNL A   1      42.944  27.628  27.708  1.00  0.00     0.074 A 
ATOM     48  C   UNL A   1      42.144  26.478  27.349  1.00  0.00     0.031 C 
ATOM     49  C   UNL A   1      48.807  25.992  25.676  1.00  0.00     0.029 A 
ATOM     50  C   UNL A   1      48.390  27.254  26.277  1.00  0.00     0.049 A 
ATOM     51  H   UNL A   1      46.500  27.755  26.997  1.00  0.00     0.167 HD
ATOM     52  C   UNL A   1      42.455  28.746  28.296  1.00  0.00     0.031 A 
ATOM     53  C   UNL A   1      49.186  28.323  26.465  1.00  0.00     0.031 A 
ATOM     54  C   UNL A   1      43.253  29.892  28.647  1.00  0.00     0.049 A 
ATOM     55  C   UNL A   1      48.622  29.557  27.110  1.00  0.00     0.074 A 
ATOM     56  C   UNL A   1      42.866  31.042  29.311  1.00  0.00     0.029 A 
ATOM     57  N   UNL A   1      44.600  30.039  28.345  1.00  0.00    -0.354 N 
ATOM     58  N   UNL A   1      47.401  29.783  27.528  1.00  0.00    -0.248 NA
ATOM     59  C   UNL A   1      49.550  30.676  27.318  1.00  0.00     0.031 C 
ATOM     60  C   UNL A   1      43.959  31.914  29.347  1.00  0.00     0.029 A 
ATOM     61  C   UNL A   1      45.048  31.279  28.771  1.00  0.00     0.049 A 
ATOM     62  H   UNL A   1      45.154  29.362  27.895  1.00  0.00     0.167 HD
ATOM     63  C   UNL A   1      47.416  31.063  28.066  1.00  0.00     0.074 A 
ATOM     64  C   UNL A   1      48.773  31.554  27.939  1.00  0.00     0.031 C 
ATOM     65  C   UNL A   1      46.396  31.766  28.618  1.00  0.00     0.031 A 
BRANCH  52  66
ATOM     66  C   UNL A   1      40.973  28.789  28.565  1.00  0.00    -0.014 A 
ATOM     67  C   UNL A   1      40.441  28.416  29.811  1.00  0.00     0.009 A 
ATOM     68  C   UNL A   1      40.095  29.217  27.556  1.00  0.00     0.009 A 
ATOM     69  C   UNL A   1      39.060  28.417  30.021  1.00  0.00     0.001 A 
ATOM     70  C   UNL A   1      38.717  29.250  27.780  1.00  0.00     0.001 A 
ATOM     71  C   UNL A   1      38.199  28.836  29.006  1.00  0.00     0.000 A 
ENDBRANCH  52  66
BRANCH  53  72
ATOM     72  C   UNL A   1      50.609  28.257  26.039  1.00  0.00    -0.014 A 
ATOM     73  C   UNL A   1      50.983  28.612  24.735  1.00  0.00     0.009 A 
ATOM     74  C   UNL A   1      51.606  27.875  26.951  1.00  0.00     0.009 A 
ATOM     75  C   UNL A   1      52.325  28.574  24.350  1.00  0.00     0.001 A 
ATOM     76  C   UNL A   1      52.949  27.867  26.572  1.00  0.00     0.001 A 
ATOM     77  C   UNL A   1      53.308  28.210  25.270  1.00  0.00     0.000 A 
ENDBRANCH  53  72
BRANCH  65  78
ATOM     78  C   UNL A   1      46.713  33.141  29.141  1.00  0.00    -0.014 A 
ATOM     79  C   UNL A   1      46.566  34.282  28.335  1.00  0.00     0.009 A 
ATOM     80  C   UNL A   1      47.126  33.301  30.473  1.00  0.00     0.009 A 
ATOM     81  C   UNL A   1      46.862  35.548  28.843  1.00  0.00     0.001 A 
ATOM     82  C   UNL A   1      47.390  34.571  30.987  1.00  0.00     0.001 A 
ATOM     83  C   UNL A   1      47.267  35.692  30.169  1.00  0.00     0.000 A 
ENDBRANCH  65  78
ENDBRANCH  39  40
ENDBRANCH  31  34
ENDBRANCH  29  30
ENDBRANCH  28  29
ENDBRANCH  27  28
ENDBRANCH   1  27
TORSDOF 18
ENDMDL
