MODEL 1
REMARK VINA RESULT:     -10.8      0.000      0.000
REMARK SMILES N#C/C(=C\c1cn(CC(=O)NCCCCCCNC(=O)c2ccc(-c3c4nc(c(-c5ccccc5)c5ccc([nH]5)c(-c5ccccc5)c5nc(c(-c6ccccc6)c6ccc3[nH]6)C=C5)C=C4)cc2)c2ccccc12)C(=O)N1CCCC[C@@H]1C#N
REMARK SMILES IDX 13 1 12 2 11 3 9 4 10 5 8 7 7 8 5 9 6 10 74 11 69 12 73 13
REMARK SMILES IDX 70 14 72 15 71 16 4 17 3 18 2 19 1 20 75 21 76 22 77 23
REMARK SMILES IDX 78 24 82 25 79 26 81 27 80 28 83 29 84 30 14 31 15 32 16 33
REMARK SMILES IDX 17 34 18 35 19 36 20 38 21 39 22 40 68 41 23 42 67 43 24 44
REMARK SMILES IDX 25 45 26 46 61 47 27 48 66 49 60 50 62 51 28 52 65 53 59 54
REMARK SMILES IDX 58 55 29 57 51 58 36 59 50 60 37 61 40 62 49 63 63 64 38 65
REMARK SMILES IDX 39 66 48 68 64 69 41 70 30 71 31 72 35 73 32 74 34 75 33 76
REMARK SMILES IDX 52 77 53 78 57 79 54 80 56 81 55 82 42 83 43 84 47 85 44 86
REMARK SMILES IDX 46 87 45 88
REMARK H PARENT 11 6 18 37 62 56 40 67
REMARK Flexibility Score: inf
ROOT
ATOM      1  C   UNL A   1      40.321  23.901  27.214  1.00  0.00     0.021 C 
ENDROOT
BRANCH   1   2
ATOM      2  C   UNL A   1      38.832  23.814  26.888  1.00  0.00     0.116 C 
BRANCH   2   3
ATOM      3  N   UNL A   1      38.611  23.029  25.689  1.00  0.00    -0.355 N 
ATOM      4  C   UNL A   1      37.526  22.285  25.335  1.00  0.00     0.239 C 
ATOM      5  O   UNL A   1      37.591  21.619  24.299  1.00  0.00    -0.273 OA
ATOM      6  H   UNL A   1      39.351  23.035  25.040  1.00  0.00     0.163 HD
BRANCH   4   7
ATOM      7  C   UNL A   1      36.247  22.353  26.144  1.00  0.00     0.222 C 
BRANCH   7   8
ATOM      8  N   UNL A   1      35.042  22.502  25.338  1.00  0.00    -0.337 N 
ATOM      9  C   UNL A   1      33.295  23.476  24.365  1.00  0.00     0.002 A 
ATOM     10  C   UNL A   1      34.510  23.715  24.968  1.00  0.00     0.095 A 
ATOM     11  C   UNL A   1      33.201  22.064  24.152  1.00  0.00     0.007 A 
ATOM     12  C   UNL A   1      34.270  21.475  24.839  1.00  0.00     0.049 A 
ATOM     13  C   UNL A   1      32.290  21.213  23.485  1.00  0.00     0.011 A 
ATOM     14  C   UNL A   1      34.404  20.082  24.955  1.00  0.00     0.027 A 
ATOM     15  C   UNL A   1      32.406  19.826  23.612  1.00  0.00     0.001 A 
ATOM     16  C   UNL A   1      33.441  19.271  24.350  1.00  0.00     0.002 A 
BRANCH   9  17
ATOM     17  C   UNL A   1      32.382  24.537  24.051  1.00  0.00     0.035 C 
ATOM     18  C   UNL A   1      31.248  24.890  24.702  1.00  0.00     0.118 C 
BRANCH  18  19
ATOM     19  C   UNL A   1      31.043  24.206  26.043  1.00  0.00     0.105 C 
ATOM     20  N   UNL A   1      30.873  23.638  27.157  1.00  0.00    -0.192 NA
ENDBRANCH  18  19
BRANCH  18  21
ATOM     21  C   UNL A   1      30.417  26.060  24.293  1.00  0.00     0.265 C 
ATOM     22  O   UNL A   1      29.241  25.852  23.996  1.00  0.00    -0.268 OA
BRANCH  21  23
ATOM     23  N   UNL A   1      30.930  27.359  24.349  1.00  0.00    -0.322 N 
ATOM     24  C   UNL A   1      31.387  27.847  25.653  1.00  0.00     0.121 C 
ATOM     25  C   UNL A   1      31.038  28.360  23.251  1.00  0.00     0.189 C 
ATOM     26  C   UNL A   1      32.860  28.244  25.560  1.00  0.00     0.022 C 
ATOM     27  C   UNL A   1      32.504  28.836  23.123  1.00  0.00     0.041 C 
ATOM     28  C   UNL A   1      33.099  29.282  24.463  1.00  0.00     0.005 C 
BRANCH  25  29
ATOM     29  C   UNL A   1      30.153  29.532  23.458  1.00  0.00     0.087 C 
ATOM     30  N   UNL A   1      29.485  30.470  23.653  1.00  0.00    -0.196 NA
ENDBRANCH  25  29
ENDBRANCH  21  23
ENDBRANCH  18  21
ENDBRANCH   9  17
ENDBRANCH   7   8
ENDBRANCH   4   7
ENDBRANCH   2   3
ENDBRANCH   1   2
BRANCH   1  31
ATOM     31  C   UNL A   1      41.149  22.832  26.490  1.00  0.00     0.002 C 
BRANCH  31  32
ATOM     32  C   UNL A   1      42.481  22.494  27.174  1.00  0.00     0.002 C 
BRANCH  32  33
ATOM     33  C   UNL A   1      43.575  22.007  26.217  1.00  0.00     0.021 C 
BRANCH  33  34
ATOM     34  C   UNL A   1      43.478  22.641  24.829  1.00  0.00     0.116 C 
BRANCH  34  35
ATOM     35  N   UNL A   1      44.507  23.628  24.579  1.00  0.00    -0.352 N 
ATOM     36  C   UNL A   1      44.784  24.865  25.084  1.00  0.00     0.251 C 
ATOM     37  H   UNL A   1      45.152  23.344  23.891  1.00  0.00     0.163 HD
ATOM     38  O   UNL A   1      45.830  25.401  24.714  1.00  0.00    -0.269 OA
BRANCH  36  39
ATOM     39  C   UNL A   1      43.837  25.648  25.915  1.00  0.00     0.039 A 
ATOM     40  C   UNL A   1      42.703  26.310  25.444  1.00  0.00     0.014 A 
ATOM     41  C   UNL A   1      44.231  25.837  27.250  1.00  0.00     0.014 A 
ATOM     42  C   UNL A   1      42.169  27.355  26.172  1.00  0.00     0.010 A 
ATOM     43  C   UNL A   1      43.647  26.822  28.016  1.00  0.00     0.010 A 
ATOM     44  C   UNL A   1      42.716  27.659  27.417  1.00  0.00    -0.014 A 
BRANCH  44  45
ATOM     45  C   UNL A   1      42.186  28.786  28.159  1.00  0.00     0.031 A 
ATOM     46  C   UNL A   1      43.008  30.012  27.971  1.00  0.00     0.074 A 
ATOM     47  C   UNL A   1      41.009  28.700  28.819  1.00  0.00     0.049 A 
ATOM     48  N   UNL A   1      43.666  30.663  28.869  1.00  0.00    -0.248 NA
ATOM     49  C   UNL A   1      43.311  30.436  26.588  1.00  0.00     0.031 C 
ATOM     50  C   UNL A   1      40.058  27.581  28.853  1.00  0.00     0.029 A 
ATOM     51  N   UNL A   1      40.349  29.650  29.530  1.00  0.00    -0.354 N 
ATOM     52  C   UNL A   1      44.286  31.713  28.197  1.00  0.00     0.074 A 
ATOM     53  C   UNL A   1      44.199  31.408  26.796  1.00  0.00     0.031 C 
ATOM     54  C   UNL A   1      38.856  28.020  29.299  1.00  0.00     0.029 A 
ATOM     55  C   UNL A   1      38.991  29.401  29.723  1.00  0.00     0.049 A 
ATOM     56  H   UNL A   1      40.796  30.451  29.884  1.00  0.00     0.167 HD
ATOM     57  C   UNL A   1      44.578  32.878  28.837  1.00  0.00     0.031 A 
ATOM     58  C   UNL A   1      38.055  30.302  30.135  1.00  0.00     0.031 A 
ATOM     59  C   UNL A   1      44.573  32.697  30.263  1.00  0.00     0.049 A 
ATOM     60  C   UNL A   1      38.794  31.424  30.768  1.00  0.00     0.074 A 
ATOM     61  C   UNL A   1      45.340  31.962  31.142  1.00  0.00     0.029 A 
ATOM     62  N   UNL A   1      43.400  32.991  30.917  1.00  0.00    -0.354 N 
ATOM     63  N   UNL A   1      39.476  31.287  31.871  1.00  0.00    -0.248 NA
ATOM     64  C   UNL A   1      39.208  32.515  29.896  1.00  0.00     0.031 C 
ATOM     65  C   UNL A   1      44.409  31.444  32.085  1.00  0.00     0.029 A 
ATOM     66  C   UNL A   1      43.149  31.984  31.811  1.00  0.00     0.049 A 
ATOM     67  H   UNL A   1      42.838  33.786  30.769  1.00  0.00     0.167 HD
ATOM     68  C   UNL A   1      40.662  31.965  31.631  1.00  0.00     0.074 A 
ATOM     69  C   UNL A   1      40.423  32.734  30.407  1.00  0.00     0.031 C 
ATOM     70  C   UNL A   1      41.824  31.600  32.248  1.00  0.00     0.031 A 
BRANCH  57  71
ATOM     71  C   UNL A   1      44.422  34.236  28.198  1.00  0.00    -0.014 A 
ATOM     72  C   UNL A   1      43.197  34.747  27.729  1.00  0.00     0.009 A 
ATOM     73  C   UNL A   1      45.480  35.156  28.319  1.00  0.00     0.009 A 
ATOM     74  C   UNL A   1      43.022  36.101  27.432  1.00  0.00     0.001 A 
ATOM     75  C   UNL A   1      45.299  36.518  28.057  1.00  0.00     0.001 A 
ATOM     76  C   UNL A   1      44.066  36.992  27.620  1.00  0.00     0.000 A 
ENDBRANCH  57  71
BRANCH  58  77
ATOM     77  C   UNL A   1      36.686  30.504  29.583  1.00  0.00    -0.014 A 
ATOM     78  C   UNL A   1      36.272  29.778  28.451  1.00  0.00     0.009 A 
ATOM     79  C   UNL A   1      35.905  31.614  29.955  1.00  0.00     0.009 A 
ATOM     80  C   UNL A   1      35.158  30.167  27.694  1.00  0.00     0.001 A 
ATOM     81  C   UNL A   1      34.784  32.002  29.200  1.00  0.00     0.001 A 
ATOM     82  C   UNL A   1      34.422  31.289  28.060  1.00  0.00     0.000 A 
ENDBRANCH  58  77
BRANCH  70  83
ATOM     83  C   UNL A   1      41.784  30.554  33.340  1.00  0.00    -0.014 A 
ATOM     84  C   UNL A   1      41.745  29.213  32.931  1.00  0.00     0.009 A 
ATOM     85  C   UNL A   1      41.524  30.845  34.693  1.00  0.00     0.009 A 
ATOM     86  C   UNL A   1      41.408  28.195  33.822  1.00  0.00     0.001 A 
ATOM     87  C   UNL A   1      41.215  29.816  35.596  1.00  0.00     0.001 A 
ATOM     88  C   UNL A   1      41.139  28.496  35.154  1.00  0.00     0.000 A 
ENDBRANCH  70  83
ENDBRANCH  44  45
ENDBRANCH  36  39
ENDBRANCH  34  35
ENDBRANCH  33  34
ENDBRANCH  32  33
ENDBRANCH  31  32
ENDBRANCH   1  31
TORSDOF 19
ENDMDL
MODEL 2
REMARK VINA RESULT:     -10.8      2.153      3.009
REMARK SMILES N#C/C(=C\c1cn(CC(=O)NCCCCCCNC(=O)c2ccc(-c3c4nc(c(-c5ccccc5)c5ccc([nH]5)c(-c5ccccc5)c5nc(c(-c6ccccc6)c6ccc3[nH]6)C=C5)C=C4)cc2)c2ccccc12)C(=O)N1CCCC[C@@H]1C#N
REMARK SMILES IDX 13 1 12 2 11 3 9 4 10 5 8 7 7 8 5 9 6 10 74 11 69 12 73 13
REMARK SMILES IDX 70 14 72 15 71 16 4 17 3 18 2 19 1 20 75 21 76 22 77 23
REMARK SMILES IDX 78 24 82 25 79 26 81 27 80 28 83 29 84 30 14 31 15 32 16 33
REMARK SMILES IDX 17 34 18 35 19 36 20 38 21 39 22 40 68 41 23 42 67 43 24 44
REMARK SMILES IDX 25 45 26 46 61 47 27 48 66 49 60 50 62 51 28 52 65 53 59 54
REMARK SMILES IDX 58 55 29 57 51 58 36 59 50 60 37 61 40 62 49 63 63 64 38 65
REMARK SMILES IDX 39 66 48 68 64 69 41 70 30 71 31 72 35 73 32 74 34 75 33 76
REMARK SMILES IDX 52 77 53 78 57 79 54 80 56 81 55 82 42 83 43 84 47 85 44 86
REMARK SMILES IDX 46 87 45 88
REMARK H PARENT 11 6 18 37 62 56 40 67
REMARK Flexibility Score: inf
ROOT
ATOM      1  C   UNL A   1      40.399  21.240  26.945  1.00  0.00     0.021 C 
ENDROOT
BRANCH   1   2
ATOM      2  C   UNL A   1      39.490  22.423  26.620  1.00  0.00     0.116 C 
BRANCH   2   3
ATOM      3  N   UNL A   1      38.781  22.203  25.375  1.00  0.00    -0.355 N 
ATOM      4  C   UNL A   1      37.445  22.284  25.119  1.00  0.00     0.239 C 
ATOM      5  O   UNL A   1      37.048  21.964  23.996  1.00  0.00    -0.273 OA
ATOM      6  H   UNL A   1      39.346  21.960  24.607  1.00  0.00     0.163 HD
BRANCH   4   7
ATOM      7  C   UNL A   1      36.493  22.842  26.157  1.00  0.00     0.222 C 
BRANCH   7   8
ATOM      8  N   UNL A   1      35.307  23.476  25.595  1.00  0.00    -0.337 N 
ATOM      9  C   UNL A   1      33.940  25.084  24.895  1.00  0.00     0.002 A 
ATOM     10  C   UNL A   1      35.247  24.798  25.218  1.00  0.00     0.095 A 
ATOM     11  C   UNL A   1      33.234  23.840  24.848  1.00  0.00     0.007 A 
ATOM     12  C   UNL A   1      34.095  22.863  25.365  1.00  0.00     0.049 A 
ATOM     13  C   UNL A   1      31.933  23.443  24.464  1.00  0.00     0.011 A 
ATOM     14  C   UNL A   1      33.672  21.542  25.591  1.00  0.00     0.027 A 
ATOM     15  C   UNL A   1      31.500  22.136  24.704  1.00  0.00     0.001 A 
ATOM     16  C   UNL A   1      32.355  21.205  25.274  1.00  0.00     0.002 A 
BRANCH   9  17
ATOM     17  C   UNL A   1      33.492  26.427  24.663  1.00  0.00     0.035 C 
ATOM     18  C   UNL A   1      33.273  27.047  23.478  1.00  0.00     0.118 C 
BRANCH  18  19
ATOM     19  C   UNL A   1      33.309  26.133  22.264  1.00  0.00     0.105 C 
ATOM     20  N   UNL A   1      33.338  25.376  21.256  1.00  0.00    -0.192 NA
ENDBRANCH  18  19
BRANCH  18  21
ATOM     21  C   UNL A   1      32.750  28.441  23.384  1.00  0.00     0.265 C 
ATOM     22  O   UNL A   1      33.544  29.331  23.076  1.00  0.00    -0.268 OA
BRANCH  21  23
ATOM     23  N   UNL A   1      31.387  28.708  23.538  1.00  0.00    -0.322 N 
ATOM     24  C   UNL A   1      30.979  29.464  24.726  1.00  0.00     0.121 C 
ATOM     25  C   UNL A   1      30.256  28.281  22.668  1.00  0.00     0.189 C 
ATOM     26  C   UNL A   1      30.250  30.735  24.292  1.00  0.00     0.022 C 
ATOM     27  C   UNL A   1      29.448  29.521  22.220  1.00  0.00     0.041 C 
ATOM     28  C   UNL A   1      29.053  30.424  23.393  1.00  0.00     0.005 C 
BRANCH  25  29
ATOM     29  C   UNL A   1      29.352  27.316  23.340  1.00  0.00     0.087 C 
ATOM     30  N   UNL A   1      28.673  26.527  23.869  1.00  0.00    -0.196 NA
ENDBRANCH  25  29
ENDBRANCH  21  23
ENDBRANCH  18  21
ENDBRANCH   9  17
ENDBRANCH   7   8
ENDBRANCH   4   7
ENDBRANCH   2   3
ENDBRANCH   1   2
BRANCH   1  31
ATOM     31  C   UNL A   1      41.735  21.672  27.562  1.00  0.00     0.002 C 
BRANCH  31  32
ATOM     32  C   UNL A   1      42.164  23.101  27.201  1.00  0.00     0.002 C 
BRANCH  32  33
ATOM     33  C   UNL A   1      43.658  23.382  27.407  1.00  0.00     0.021 C 
BRANCH  33  34
ATOM     34  C   UNL A   1      44.090  23.259  28.869  1.00  0.00     0.116 C 
BRANCH  34  35
ATOM     35  N   UNL A   1      45.102  24.222  29.248  1.00  0.00    -0.352 N 
ATOM     36  C   UNL A   1      45.070  25.464  29.812  1.00  0.00     0.251 C 
ATOM     37  H   UNL A   1      46.016  23.913  29.057  1.00  0.00     0.163 HD
ATOM     38  O   UNL A   1      46.153  25.975  30.106  1.00  0.00    -0.269 OA
BRANCH  36  39
ATOM     39  C   UNL A   1      43.838  26.280  29.944  1.00  0.00     0.039 A 
ATOM     40  C   UNL A   1      42.902  26.499  28.934  1.00  0.00     0.014 A 
ATOM     41  C   UNL A   1      43.720  26.992  31.149  1.00  0.00     0.014 A 
ATOM     42  C   UNL A   1      42.073  27.602  28.996  1.00  0.00     0.010 A 
ATOM     43  C   UNL A   1      42.836  28.043  31.253  1.00  0.00     0.010 A 
ATOM     44  C   UNL A   1      42.121  28.419  30.124  1.00  0.00    -0.014 A 
BRANCH  44  45
ATOM     45  C   UNL A   1      41.285  29.603  30.168  1.00  0.00     0.031 A 
ATOM     46  C   UNL A   1      42.076  30.849  29.981  1.00  0.00     0.074 A 
ATOM     47  C   UNL A   1      39.939  29.509  30.243  1.00  0.00     0.049 A 
ATOM     48  N   UNL A   1      42.231  31.816  30.821  1.00  0.00    -0.248 NA
ATOM     49  C   UNL A   1      42.975  30.929  28.811  1.00  0.00     0.031 C 
ATOM     50  C   UNL A   1      39.103  28.302  30.211  1.00  0.00     0.029 A 
ATOM     51  N   UNL A   1      39.006  30.494  30.261  1.00  0.00    -0.354 N 
ATOM     52  C   UNL A   1      43.071  32.732  30.192  1.00  0.00     0.074 A 
ATOM     53  C   UNL A   1      43.647  32.051  29.066  1.00  0.00     0.031 C 
ATOM     54  C   UNL A   1      37.821  28.643  29.930  1.00  0.00     0.029 A 
ATOM     55  C   UNL A   1      37.718  30.091  29.913  1.00  0.00     0.049 A 
ATOM     56  H   UNL A   1      39.222  31.423  30.502  1.00  0.00     0.167 HD
ATOM     57  C   UNL A   1      43.011  34.058  30.495  1.00  0.00     0.031 A 
ATOM     58  C   UNL A   1      36.680  30.905  29.574  1.00  0.00     0.031 A 
ATOM     59  C   UNL A   1      42.351  34.269  31.754  1.00  0.00     0.049 A 
ATOM     60  C   UNL A   1      37.019  32.261  30.077  1.00  0.00     0.074 A 
ATOM     61  C   UNL A   1      42.640  33.932  33.059  1.00  0.00     0.029 A 
ATOM     62  N   UNL A   1      41.003  34.534  31.707  1.00  0.00    -0.354 N 
ATOM     63  N   UNL A   1      37.117  32.538  31.348  1.00  0.00    -0.248 NA
ATOM     64  C   UNL A   1      37.767  33.128  29.178  1.00  0.00     0.031 C 
ATOM     65  C   UNL A   1      41.389  33.543  33.615  1.00  0.00     0.029 A 
ATOM     66  C   UNL A   1      40.388  33.778  32.669  1.00  0.00     0.049 A 
ATOM     67  H   UNL A   1      40.557  35.158  31.089  1.00  0.00     0.167 HD
ATOM     68  C   UNL A   1      38.266  33.308  31.446  1.00  0.00     0.074 A 
ATOM     69  C   UNL A   1      38.604  33.671  30.067  1.00  0.00     0.031 C 
ATOM     70  C   UNL A   1      39.019  33.317  32.585  1.00  0.00     0.031 A 
BRANCH  57  71
ATOM     71  C   UNL A   1      43.140  35.150  29.461  1.00  0.00    -0.014 A 
ATOM     72  C   UNL A   1      42.302  35.270  28.336  1.00  0.00     0.009 A 
ATOM     73  C   UNL A   1      43.946  36.263  29.764  1.00  0.00     0.009 A 
ATOM     74  C   UNL A   1      42.241  36.441  27.577  1.00  0.00     0.001 A 
ATOM     75  C   UNL A   1      43.862  37.449  29.028  1.00  0.00     0.001 A 
ATOM     76  C   UNL A   1      43.003  37.540  27.937  1.00  0.00     0.000 A 
ENDBRANCH  57  71
BRANCH  58  77
ATOM     77  C   UNL A   1      35.716  30.726  28.451  1.00  0.00    -0.014 A 
ATOM     78  C   UNL A   1      34.597  31.573  28.345  1.00  0.00     0.009 A 
ATOM     79  C   UNL A   1      35.708  29.551  27.677  1.00  0.00     0.009 A 
ATOM     80  C   UNL A   1      33.498  31.243  27.540  1.00  0.00     0.001 A 
ATOM     81  C   UNL A   1      34.609  29.222  26.865  1.00  0.00     0.001 A 
ATOM     82  C   UNL A   1      33.497  30.059  26.810  1.00  0.00     0.000 A 
ENDBRANCH  58  77
BRANCH  70  83
ATOM     83  C   UNL A   1      38.500  32.611  33.818  1.00  0.00    -0.014 A 
ATOM     84  C   UNL A   1      37.971  33.420  34.834  1.00  0.00     0.009 A 
ATOM     85  C   UNL A   1      38.750  31.256  34.108  1.00  0.00     0.009 A 
ATOM     86  C   UNL A   1      37.745  32.916  36.115  1.00  0.00     0.001 A 
ATOM     87  C   UNL A   1      38.493  30.743  35.389  1.00  0.00     0.001 A 
ATOM     88  C   UNL A   1      38.010  31.579  36.394  1.00  0.00     0.000 A 
ENDBRANCH  70  83
ENDBRANCH  44  45
ENDBRANCH  36  39
ENDBRANCH  34  35
ENDBRANCH  33  34
ENDBRANCH  32  33
ENDBRANCH  31  32
ENDBRANCH   1  31
TORSDOF 19
ENDMDL
MODEL 3
REMARK VINA RESULT:     -10.6      3.020      8.914
REMARK SMILES N#C/C(=C\c1cn(CC(=O)NCCCCCCNC(=O)c2ccc(-c3c4nc(c(-c5ccccc5)c5ccc([nH]5)c(-c5ccccc5)c5nc(c(-c6ccccc6)c6ccc3[nH]6)C=C5)C=C4)cc2)c2ccccc12)C(=O)N1CCCC[C@@H]1C#N
REMARK SMILES IDX 13 1 12 2 11 3 9 4 10 5 8 7 7 8 5 9 6 10 74 11 69 12 73 13
REMARK SMILES IDX 70 14 72 15 71 16 4 17 3 18 2 19 1 20 75 21 76 22 77 23
REMARK SMILES IDX 78 24 82 25 79 26 81 27 80 28 83 29 84 30 14 31 15 32 16 33
REMARK SMILES IDX 17 34 18 35 19 36 20 38 21 39 22 40 68 41 23 42 67 43 24 44
REMARK SMILES IDX 25 45 26 46 61 47 27 48 66 49 60 50 62 51 28 52 65 53 59 54
REMARK SMILES IDX 58 55 29 57 51 58 36 59 50 60 37 61 40 62 49 63 63 64 38 65
REMARK SMILES IDX 39 66 48 68 64 69 41 70 30 71 31 72 35 73 32 74 34 75 33 76
REMARK SMILES IDX 52 77 53 78 57 79 54 80 56 81 55 82 42 83 43 84 47 85 44 86
REMARK SMILES IDX 46 87 45 88
REMARK H PARENT 11 6 18 37 62 56 40 67
REMARK Flexibility Score: inf
ROOT
ATOM      1  C   UNL A   1      34.824  32.833  28.206  1.00  0.00     0.021 C 
ENDROOT
BRANCH   1   2
ATOM      2  C   UNL A   1      34.845  31.466  27.525  1.00  0.00     0.116 C 
BRANCH   2   3
ATOM      3  N   UNL A   1      33.662  30.701  27.867  1.00  0.00    -0.355 N 
ATOM      4  C   UNL A   1      32.780  30.067  27.044  1.00  0.00     0.239 C 
ATOM      5  O   UNL A   1      31.783  29.547  27.550  1.00  0.00    -0.273 OA
ATOM      6  H   UNL A   1      33.468  30.631  28.829  1.00  0.00     0.163 HD
BRANCH   4   7
ATOM      7  C   UNL A   1      33.070  29.926  25.564  1.00  0.00     0.222 C 
BRANCH   7   8
ATOM      8  N   UNL A   1      32.381  28.811  24.927  1.00  0.00    -0.337 N 
ATOM      9  C   UNL A   1      32.046  26.788  24.066  1.00  0.00     0.002 A 
ATOM     10  C   UNL A   1      32.872  27.527  24.884  1.00  0.00     0.095 A 
ATOM     11  C   UNL A   1      30.891  27.589  23.798  1.00  0.00     0.007 A 
ATOM     12  C   UNL A   1      31.164  28.874  24.284  1.00  0.00     0.049 A 
ATOM     13  C   UNL A   1      29.654  27.372  23.149  1.00  0.00     0.011 A 
ATOM     14  C   UNL A   1      30.292  29.953  24.065  1.00  0.00     0.027 A 
ATOM     15  C   UNL A   1      28.790  28.445  22.911  1.00  0.00     0.001 A 
ATOM     16  C   UNL A   1      29.115  29.720  23.350  1.00  0.00     0.002 A 
BRANCH   9  17
ATOM     17  C   UNL A   1      32.391  25.463  23.638  1.00  0.00     0.035 C 
ATOM     18  C   UNL A   1      32.142  24.287  24.261  1.00  0.00     0.118 C 
BRANCH  18  19
ATOM     19  C   UNL A   1      31.200  24.382  25.451  1.00  0.00     0.105 C 
ATOM     20  N   UNL A   1      30.419  24.461  26.438  1.00  0.00    -0.192 NA
ENDBRANCH  18  19
BRANCH  18  21
ATOM     21  C   UNL A   1      32.511  22.968  23.669  1.00  0.00     0.265 C 
ATOM     22  O   UNL A   1      32.480  22.861  22.443  1.00  0.00    -0.268 OA
BRANCH  21  23
ATOM     23  N   UNL A   1      32.977  21.925  24.475  1.00  0.00    -0.322 N 
ATOM     24  C   UNL A   1      32.081  20.785  24.685  1.00  0.00     0.121 C 
ATOM     25  C   UNL A   1      34.271  21.828  25.208  1.00  0.00     0.189 C 
ATOM     26  C   UNL A   1      32.767  19.506  24.206  1.00  0.00     0.022 C 
ATOM     27  C   UNL A   1      35.005  20.531  24.797  1.00  0.00     0.041 C 
ATOM     28  C   UNL A   1      34.112  19.289  24.898  1.00  0.00     0.005 C 
BRANCH  25  29
ATOM     29  C   UNL A   1      34.095  21.853  26.681  1.00  0.00     0.087 C 
ATOM     30  N   UNL A   1      34.001  21.872  27.845  1.00  0.00    -0.196 NA
ENDBRANCH  25  29
ENDBRANCH  21  23
ENDBRANCH  18  21
ENDBRANCH   9  17
ENDBRANCH   7   8
ENDBRANCH   4   7
ENDBRANCH   2   3
ENDBRANCH   1   2
BRANCH   1  31
ATOM     31  C   UNL A   1      33.462  33.160  28.833  1.00  0.00     0.002 C 
BRANCH  31  32
ATOM     32  C   UNL A   1      32.967  34.586  28.556  1.00  0.00     0.002 C 
BRANCH  32  33
ATOM     33  C   UNL A   1      33.960  35.686  28.951  1.00  0.00     0.021 C 
BRANCH  33  34
ATOM     34  C   UNL A   1      33.428  36.600  30.056  1.00  0.00     0.116 C 
BRANCH  34  35
ATOM     35  N   UNL A   1      32.587  35.910  31.012  1.00  0.00    -0.352 N 
ATOM     36  C   UNL A   1      32.828  35.160  32.126  1.00  0.00     0.251 C 
ATOM     37  H   UNL A   1      31.627  36.001  30.814  1.00  0.00     0.163 HD
ATOM     38  O   UNL A   1      31.850  34.803  32.784  1.00  0.00    -0.269 OA
BRANCH  36  39
ATOM     39  C   UNL A   1      34.165  34.633  32.493  1.00  0.00     0.039 A 
ATOM     40  C   UNL A   1      35.271  35.407  32.843  1.00  0.00     0.014 A 
ATOM     41  C   UNL A   1      34.330  33.250  32.315  1.00  0.00     0.014 A 
ATOM     42  C   UNL A   1      36.543  34.882  32.713  1.00  0.00     0.010 A 
ATOM     43  C   UNL A   1      35.592  32.699  32.269  1.00  0.00     0.010 A 
ATOM     44  C   UNL A   1      36.687  33.550  32.332  1.00  0.00    -0.014 A 
BRANCH  44  45
ATOM     45  C   UNL A   1      38.021  33.014  32.151  1.00  0.00     0.031 A 
ATOM     46  C   UNL A   1      38.810  33.049  33.412  1.00  0.00     0.074 A 
ATOM     47  C   UNL A   1      38.398  32.447  30.983  1.00  0.00     0.049 A 
ATOM     48  N   UNL A   1      39.894  33.708  33.644  1.00  0.00    -0.248 NA
ATOM     49  C   UNL A   1      38.205  32.455  34.623  1.00  0.00     0.031 C 
ATOM     50  C   UNL A   1      37.587  32.196  29.784  1.00  0.00     0.029 A 
ATOM     51  N   UNL A   1      39.580  31.871  30.646  1.00  0.00    -0.354 N 
ATOM     52  C   UNL A   1      40.229  33.432  34.968  1.00  0.00     0.074 A 
ATOM     53  C   UNL A   1      39.068  32.833  35.565  1.00  0.00     0.031 C 
ATOM     54  C   UNL A   1      38.211  31.288  28.994  1.00  0.00     0.029 A 
ATOM     55  C   UNL A   1      39.524  31.012  29.549  1.00  0.00     0.049 A 
ATOM     56  H   UNL A   1      40.413  32.048  31.137  1.00  0.00     0.167 HD
ATOM     57  C   UNL A   1      41.524  33.470  35.384  1.00  0.00     0.031 A 
ATOM     58  C   UNL A   1      40.470  30.101  29.187  1.00  0.00     0.031 A 
ATOM     59  C   UNL A   1      42.340  34.213  34.462  1.00  0.00     0.049 A 
ATOM     60  C   UNL A   1      41.729  30.501  29.866  1.00  0.00     0.074 A 
ATOM     61  C   UNL A   1      42.377  35.530  34.057  1.00  0.00     0.029 A 
ATOM     62  N   UNL A   1      42.994  33.487  33.497  1.00  0.00    -0.354 N 
ATOM     63  N   UNL A   1      42.361  31.607  29.588  1.00  0.00    -0.248 NA
ATOM     64  C   UNL A   1      41.961  29.954  31.196  1.00  0.00     0.031 C 
ATOM     65  C   UNL A   1      42.619  35.469  32.657  1.00  0.00     0.029 A 
ATOM     66  C   UNL A   1      42.839  34.136  32.300  1.00  0.00     0.049 A 
ATOM     67  H   UNL A   1      43.488  32.647  33.639  1.00  0.00     0.167 HD
ATOM     68  C   UNL A   1      42.706  32.130  30.825  1.00  0.00     0.074 A 
ATOM     69  C   UNL A   1      42.464  31.045  31.781  1.00  0.00     0.031 C 
ATOM     70  C   UNL A   1      42.845  33.475  31.013  1.00  0.00     0.031 A 
BRANCH  57  71
ATOM     71  C   UNL A   1      42.111  32.478  36.358  1.00  0.00    -0.014 A 
ATOM     72  C   UNL A   1      42.218  31.097  36.103  1.00  0.00     0.009 A 
ATOM     73  C   UNL A   1      42.840  32.972  37.455  1.00  0.00     0.009 A 
ATOM     74  C   UNL A   1      43.031  30.261  36.872  1.00  0.00     0.001 A 
ATOM     75  C   UNL A   1      43.683  32.145  38.205  1.00  0.00     0.001 A 
ATOM     76  C   UNL A   1      43.783  30.789  37.909  1.00  0.00     0.000 A 
ENDBRANCH  57  71
BRANCH  58  77
ATOM     77  C   UNL A   1      40.253  28.695  28.746  1.00  0.00    -0.014 A 
ATOM     78  C   UNL A   1      39.408  27.849  29.490  1.00  0.00     0.009 A 
ATOM     79  C   UNL A   1      41.100  28.086  27.802  1.00  0.00     0.009 A 
ATOM     80  C   UNL A   1      39.439  26.456  29.333  1.00  0.00     0.001 A 
ATOM     81  C   UNL A   1      41.128  26.690  27.640  1.00  0.00     0.001 A 
ATOM     82  C   UNL A   1      40.310  25.874  28.419  1.00  0.00     0.000 A 
ENDBRANCH  58  77
BRANCH  70  83
ATOM     83  C   UNL A   1      42.792  34.397  29.815  1.00  0.00    -0.014 A 
ATOM     84  C   UNL A   1      41.537  34.920  29.474  1.00  0.00     0.009 A 
ATOM     85  C   UNL A   1      43.848  34.545  28.895  1.00  0.00     0.009 A 
ATOM     86  C   UNL A   1      41.318  35.526  28.237  1.00  0.00     0.001 A 
ATOM     87  C   UNL A   1      43.634  35.182  27.662  1.00  0.00     0.001 A 
ATOM     88  C   UNL A   1      42.366  35.654  27.329  1.00  0.00     0.000 A 
ENDBRANCH  70  83
ENDBRANCH  44  45
ENDBRANCH  36  39
ENDBRANCH  34  35
ENDBRANCH  33  34
ENDBRANCH  32  33
ENDBRANCH  31  32
ENDBRANCH   1  31
TORSDOF 19
ENDMDL
