MODEL 1
REMARK VINA RESULT:     -11.6      0.000      0.000
REMARK SMILES CC(C)[NH2+][C@]1(C(=O)NCCCCCCNC(=O)c2ccc(-c3c4nc(c(-c5ccccc5)c5ccc([nH]5)c(-c5ccccc5)c5nc(c(-c6ccccc6)c6ccc3[nH]6)C=C5)C=C4)cc2)CC[C@@H](Oc2cc(F)ccc2F)C1
REMARK SMILES IDX 11 1 10 2 9 3 8 4 6 5 7 6 5 8 66 9 78 10 67 11 68 12 4 13
REMARK SMILES IDX 2 16 1 17 3 18 69 19 70 20 71 21 76 22 72 23 75 24 77 25
REMARK SMILES IDX 73 26 74 27 12 28 13 29 14 30 15 31 16 32 17 34 18 35 19 36
REMARK SMILES IDX 65 37 20 38 64 39 21 40 22 41 23 42 58 43 24 44 63 45 57 46
REMARK SMILES IDX 59 47 25 48 62 49 56 50 55 51 26 53 48 54 33 55 47 56 34 57
REMARK SMILES IDX 37 58 46 59 60 60 35 61 36 62 45 64 61 65 38 66 27 67 28 68
REMARK SMILES IDX 32 69 29 70 31 71 30 72 49 73 50 74 54 75 51 76 53 77 52 78
REMARK SMILES IDX 39 79 40 80 44 81 41 82 43 83 42 84
REMARK H PARENT 8 7 4 14 4 15 15 33 59 52 37 63
REMARK Flexibility Score: inf
ROOT
ATOM      1  C   UNL A   1      31.522  29.146  25.229  1.00  0.00     0.002 C 
ENDROOT
BRANCH   1   2
ATOM      2  C   UNL A   1      31.082  27.678  25.296  1.00  0.00     0.021 C 
BRANCH   2   3
ATOM      3  C   UNL A   1      31.933  26.792  26.226  1.00  0.00     0.116 C 
BRANCH   3   4
ATOM      4  N   UNL A   1      31.259  25.549  26.573  1.00  0.00    -0.351 N 
ATOM      5  C   UNL A   1      31.436  24.217  26.540  1.00  0.00     0.281 C 
ATOM      6  O   UNL A   1      30.571  23.662  27.254  1.00  0.00    -0.268 OA
ATOM      7  H   UNL A   1      30.378  25.753  26.962  1.00  0.00     0.163 HD
BRANCH   5   8
ATOM      8  C   UNL A   1      32.436  23.277  25.778  1.00  0.00     0.179 C 
ATOM      9  C   UNL A   1      33.295  22.564  26.883  1.00  0.00     0.083 C 
ATOM     10  C   UNL A   1      31.636  22.050  25.259  1.00  0.00     0.124 C 
ATOM     11  C   UNL A   1      33.617  21.151  26.387  1.00  0.00     0.052 C 
ATOM     12  C   UNL A   1      32.571  20.840  25.317  1.00  0.00     0.180 C 
BRANCH   8  13
ATOM     13  N   UNL A   1      33.431  23.787  24.810  1.00  0.00    -0.332 N 
ATOM     14  H   UNL A   1      33.805  24.645  25.216  1.00  0.00     0.347 HD
ATOM     15  H   UNL A   1      34.035  22.974  24.691  1.00  0.00     0.347 HD
BRANCH  13  16
ATOM     16  C   UNL A   1      33.103  24.107  23.434  1.00  0.00     0.176 C 
ATOM     17  C   UNL A   1      33.619  25.517  23.110  1.00  0.00     0.075 C 
ATOM     18  C   UNL A   1      33.525  23.125  22.352  1.00  0.00     0.075 C 
ENDBRANCH  13  16
ENDBRANCH   8  13
BRANCH  12  19
ATOM     19  O   UNL A   1      31.950  19.545  25.371  1.00  0.00    -0.487 OA
BRANCH  19  20
ATOM     20  C   UNL A   1      32.589  18.514  24.740  1.00  0.00     0.158 A 
ATOM     21  C   UNL A   1      33.300  17.596  25.513  1.00  0.00     0.088 A 
ATOM     22  C   UNL A   1      32.687  18.448  23.348  1.00  0.00     0.165 A 
ATOM     23  C   UNL A   1      34.003  16.570  24.885  1.00  0.00     0.127 A 
ATOM     24  C   UNL A   1      33.370  17.406  22.723  1.00  0.00     0.046 A 
ATOM     25  F   UNL A   1      32.151  19.408  22.581  1.00  0.00    -0.203 F 
ATOM     26  F   UNL A   1      34.678  15.684  25.629  1.00  0.00    -0.207 F 
ATOM     27  C   UNL A   1      34.026  16.452  23.498  1.00  0.00     0.042 A 
ENDBRANCH  19  20
ENDBRANCH  12  19
ENDBRANCH   5   8
ENDBRANCH   3   4
ENDBRANCH   2   3
ENDBRANCH   1   2
BRANCH   1  28
ATOM     28  C   UNL A   1      31.748  29.823  26.585  1.00  0.00     0.002 C 
BRANCH  28  29
ATOM     29  C   UNL A   1      31.588  31.348  26.606  1.00  0.00     0.021 C 
BRANCH  29  30
ATOM     30  C   UNL A   1      32.851  32.135  26.955  1.00  0.00     0.116 C 
BRANCH  30  31
ATOM     31  N   UNL A   1      32.554  33.486  27.414  1.00  0.00    -0.352 N 
ATOM     32  C   UNL A   1      33.138  34.231  28.403  1.00  0.00     0.251 C 
ATOM     33  H   UNL A   1      31.817  33.932  26.938  1.00  0.00     0.163 HD
ATOM     34  O   UNL A   1      32.600  35.268  28.796  1.00  0.00    -0.269 OA
BRANCH  32  35
ATOM     35  C   UNL A   1      34.410  33.799  29.013  1.00  0.00     0.039 A 
ATOM     36  C   UNL A   1      34.379  32.999  30.159  1.00  0.00     0.014 A 
ATOM     37  C   UNL A   1      35.633  34.204  28.470  1.00  0.00     0.014 A 
ATOM     38  C   UNL A   1      35.574  32.541  30.716  1.00  0.00     0.010 A 
ATOM     39  C   UNL A   1      36.821  33.699  28.991  1.00  0.00     0.010 A 
ATOM     40  C   UNL A   1      36.802  32.856  30.112  1.00  0.00    -0.014 A 
BRANCH  40  41
ATOM     41  C   UNL A   1      38.075  32.275  30.605  1.00  0.00     0.031 A 
ATOM     42  C   UNL A   1      38.622  31.013  30.006  1.00  0.00     0.074 A 
ATOM     43  C   UNL A   1      38.691  32.846  31.658  1.00  0.00     0.049 A 
ATOM     44  N   UNL A   1      39.681  30.325  30.354  1.00  0.00    -0.248 NA
ATOM     45  C   UNL A   1      37.870  30.434  28.881  1.00  0.00     0.031 C 
ATOM     46  C   UNL A   1      38.240  34.056  32.348  1.00  0.00     0.029 A 
ATOM     47  N   UNL A   1      39.824  32.477  32.338  1.00  0.00    -0.354 N 
ATOM     48  C   UNL A   1      39.713  29.227  29.506  1.00  0.00     0.074 A 
ATOM     49  C   UNL A   1      38.545  29.318  28.654  1.00  0.00     0.031 C 
ATOM     50  C   UNL A   1      39.103  34.345  33.334  1.00  0.00     0.029 A 
ATOM     51  C   UNL A   1      40.139  33.318  33.376  1.00  0.00     0.049 A 
ATOM     52  H   UNL A   1      40.359  31.684  32.104  1.00  0.00     0.167 HD
ATOM     53  C   UNL A   1      40.636  28.238  29.434  1.00  0.00     0.031 A 
ATOM     54  C   UNL A   1      41.144  33.266  34.270  1.00  0.00     0.031 A 
ATOM     55  C   UNL A   1      41.794  28.150  30.286  1.00  0.00     0.049 A 
ATOM     56  C   UNL A   1      42.127  32.134  34.203  1.00  0.00     0.074 A 
ATOM     57  C   UNL A   1      42.829  27.231  30.244  1.00  0.00     0.029 A 
ATOM     58  N   UNL A   1      42.059  29.004  31.346  1.00  0.00    -0.354 N 
ATOM     59  N   UNL A   1      42.189  31.146  33.344  1.00  0.00    -0.248 NA
ATOM     60  C   UNL A   1      43.176  32.109  35.231  1.00  0.00     0.031 C 
ATOM     61  C   UNL A   1      43.687  27.492  31.319  1.00  0.00     0.029 A 
ATOM     62  C   UNL A   1      43.216  28.606  31.995  1.00  0.00     0.049 A 
ATOM     63  H   UNL A   1      41.507  29.778  31.598  1.00  0.00     0.167 HD
ATOM     64  C   UNL A   1      43.291  30.388  33.718  1.00  0.00     0.074 A 
ATOM     65  C   UNL A   1      43.877  31.043  34.871  1.00  0.00     0.031 C 
ATOM     66  C   UNL A   1      43.772  29.253  33.157  1.00  0.00     0.031 A 
BRANCH  53  67
ATOM     67  C   UNL A   1      40.411  27.158  28.412  1.00  0.00    -0.014 A 
ATOM     68  C   UNL A   1      39.626  26.029  28.700  1.00  0.00     0.009 A 
ATOM     69  C   UNL A   1      40.982  27.275  27.136  1.00  0.00     0.009 A 
ATOM     70  C   UNL A   1      39.460  25.020  27.750  1.00  0.00     0.001 A 
ATOM     71  C   UNL A   1      40.791  26.278  26.177  1.00  0.00     0.001 A 
ATOM     72  C   UNL A   1      40.041  25.146  26.489  1.00  0.00     0.000 A 
ENDBRANCH  53  67
BRANCH  54  73
ATOM     73  C   UNL A   1      41.272  34.332  35.297  1.00  0.00    -0.014 A 
ATOM     74  C   UNL A   1      42.034  35.479  35.030  1.00  0.00     0.009 A 
ATOM     75  C   UNL A   1      40.614  34.225  36.532  1.00  0.00     0.009 A 
ATOM     76  C   UNL A   1      42.142  36.494  35.983  1.00  0.00     0.001 A 
ATOM     77  C   UNL A   1      40.704  35.251  37.473  1.00  0.00     0.001 A 
ATOM     78  C   UNL A   1      41.472  36.382  37.200  1.00  0.00     0.000 A 
ENDBRANCH  54  73
BRANCH  66  79
ATOM     79  C   UNL A   1      44.994  28.645  33.785  1.00  0.00    -0.014 A 
ATOM     80  C   UNL A   1      44.881  27.663  34.781  1.00  0.00     0.009 A 
ATOM     81  C   UNL A   1      46.270  29.028  33.347  1.00  0.00     0.009 A 
ATOM     82  C   UNL A   1      46.025  27.096  35.346  1.00  0.00     0.001 A 
ATOM     83  C   UNL A   1      47.413  28.439  33.894  1.00  0.00     0.001 A 
ATOM     84  C   UNL A   1      47.289  27.480  34.898  1.00  0.00     0.000 A 
ENDBRANCH  66  79
ENDBRANCH  40  41
ENDBRANCH  32  35
ENDBRANCH  30  31
ENDBRANCH  29  30
ENDBRANCH  28  29
ENDBRANCH   1  28
TORSDOF 17
ENDMDL
MODEL 2
REMARK VINA RESULT:     -11.3      0.638      5.785
REMARK SMILES CC(C)[NH2+][C@]1(C(=O)NCCCCCCNC(=O)c2ccc(-c3c4nc(c(-c5ccccc5)c5ccc([nH]5)c(-c5ccccc5)c5nc(c(-c6ccccc6)c6ccc3[nH]6)C=C5)C=C4)cc2)CC[C@@H](Oc2cc(F)ccc2F)C1
REMARK SMILES IDX 11 1 10 2 9 3 8 4 6 5 7 6 5 8 66 9 78 10 67 11 68 12 4 13
REMARK SMILES IDX 2 16 1 17 3 18 69 19 70 20 71 21 76 22 72 23 75 24 77 25
REMARK SMILES IDX 73 26 74 27 12 28 13 29 14 30 15 31 16 32 17 34 18 35 19 36
REMARK SMILES IDX 65 37 20 38 64 39 21 40 22 41 23 42 58 43 24 44 63 45 57 46
REMARK SMILES IDX 59 47 25 48 62 49 56 50 55 51 26 53 48 54 33 55 47 56 34 57
REMARK SMILES IDX 37 58 46 59 60 60 35 61 36 62 45 64 61 65 38 66 27 67 28 68
REMARK SMILES IDX 32 69 29 70 31 71 30 72 49 73 50 74 54 75 51 76 53 77 52 78
REMARK SMILES IDX 39 79 40 80 44 81 41 82 43 83 42 84
REMARK H PARENT 8 7 4 14 4 15 15 33 59 52 37 63
REMARK Flexibility Score: inf
ROOT
ATOM      1  C   UNL A   1      32.198  29.306  25.931  1.00  0.00     0.002 C 
ENDROOT
BRANCH   1   2
ATOM      2  C   UNL A   1      31.614  27.898  25.762  1.00  0.00     0.021 C 
BRANCH   2   3
ATOM      3  C   UNL A   1      32.338  26.800  26.566  1.00  0.00     0.116 C 
BRANCH   3   4
ATOM      4  N   UNL A   1      31.519  25.608  26.730  1.00  0.00    -0.351 N 
ATOM      5  C   UNL A   1      31.569  24.274  26.573  1.00  0.00     0.281 C 
ATOM      6  O   UNL A   1      30.596  23.747  27.158  1.00  0.00    -0.268 OA
ATOM      7  H   UNL A   1      30.632  25.865  27.070  1.00  0.00     0.163 HD
BRANCH   5   8
ATOM      8  C   UNL A   1      32.537  23.311  25.797  1.00  0.00     0.179 C 
ATOM      9  C   UNL A   1      33.430  22.616  26.886  1.00  0.00     0.083 C 
ATOM     10  C   UNL A   1      31.711  22.078  25.334  1.00  0.00     0.124 C 
ATOM     11  C   UNL A   1      33.726  21.190  26.411  1.00  0.00     0.052 C 
ATOM     12  C   UNL A   1      32.640  20.863  25.385  1.00  0.00     0.180 C 
BRANCH   8  13
ATOM     13  N   UNL A   1      33.500  23.792  24.784  1.00  0.00    -0.332 N 
ATOM     14  H   UNL A   1      33.979  24.587  25.208  1.00  0.00     0.347 HD
ATOM     15  H   UNL A   1      34.015  22.939  24.571  1.00  0.00     0.347 HD
BRANCH  13  16
ATOM     16  C   UNL A   1      33.101  24.228  23.459  1.00  0.00     0.176 C 
ATOM     17  C   UNL A   1      33.648  25.641  23.209  1.00  0.00     0.075 C 
ATOM     18  C   UNL A   1      33.420  23.318  22.282  1.00  0.00     0.075 C 
ENDBRANCH  13  16
ENDBRANCH   8  13
BRANCH  12  19
ATOM     19  O   UNL A   1      32.014  19.574  25.490  1.00  0.00    -0.487 OA
BRANCH  19  20
ATOM     20  C   UNL A   1      32.582  18.541  24.798  1.00  0.00     0.158 A 
ATOM     21  C   UNL A   1      33.305  17.581  25.506  1.00  0.00     0.088 A 
ATOM     22  C   UNL A   1      32.600  18.508  23.401  1.00  0.00     0.165 A 
ATOM     23  C   UNL A   1      33.937  16.550  24.815  1.00  0.00     0.127 A 
ATOM     24  C   UNL A   1      33.212  17.462  22.712  1.00  0.00     0.046 A 
ATOM     25  F   UNL A   1      32.053  19.504  22.689  1.00  0.00    -0.203 F 
ATOM     26  F   UNL A   1      34.624  15.624  25.497  1.00  0.00    -0.207 F 
ATOM     27  C   UNL A   1      33.879  16.468  23.426  1.00  0.00     0.042 A 
ENDBRANCH  19  20
ENDBRANCH  12  19
ENDBRANCH   5   8
ENDBRANCH   3   4
ENDBRANCH   2   3
ENDBRANCH   1   2
BRANCH   1  28
ATOM     28  C   UNL A   1      31.477  30.196  26.949  1.00  0.00     0.002 C 
BRANCH  28  29
ATOM     29  C   UNL A   1      31.511  31.702  26.665  1.00  0.00     0.021 C 
BRANCH  29  30
ATOM     30  C   UNL A   1      32.815  32.409  27.030  1.00  0.00     0.116 C 
BRANCH  30  31
ATOM     31  N   UNL A   1      32.591  33.738  27.584  1.00  0.00    -0.352 N 
ATOM     32  C   UNL A   1      33.230  34.391  28.603  1.00  0.00     0.251 C 
ATOM     33  H   UNL A   1      31.863  34.246  27.158  1.00  0.00     0.163 HD
ATOM     34  O   UNL A   1      32.748  35.422  29.077  1.00  0.00    -0.269 OA
BRANCH  32  35
ATOM     35  C   UNL A   1      34.496  33.865  29.150  1.00  0.00     0.039 A 
ATOM     36  C   UNL A   1      34.464  33.079  30.305  1.00  0.00     0.014 A 
ATOM     37  C   UNL A   1      35.715  34.169  28.539  1.00  0.00     0.014 A 
ATOM     38  C   UNL A   1      35.648  32.533  30.804  1.00  0.00     0.010 A 
ATOM     39  C   UNL A   1      36.887  33.577  29.001  1.00  0.00     0.010 A 
ATOM     40  C   UNL A   1      36.863  32.746  30.131  1.00  0.00    -0.014 A 
BRANCH  40  41
ATOM     41  C   UNL A   1      38.111  32.071  30.564  1.00  0.00     0.031 A 
ATOM     42  C   UNL A   1      39.015  32.711  31.577  1.00  0.00     0.074 A 
ATOM     43  C   UNL A   1      38.470  30.916  29.973  1.00  0.00     0.049 A 
ATOM     44  N   UNL A   1      40.177  32.303  32.021  1.00  0.00    -0.248 NA
ATOM     45  C   UNL A   1      38.565  33.990  32.149  1.00  0.00     0.031 C 
ATOM     46  C   UNL A   1      37.693  30.210  28.952  1.00  0.00     0.029 A 
ATOM     47  N   UNL A   1      39.586  30.136  30.139  1.00  0.00    -0.354 N 
ATOM     48  C   UNL A   1      40.604  33.279  32.911  1.00  0.00     0.074 A 
ATOM     49  C   UNL A   1      39.598  34.320  32.910  1.00  0.00     0.031 C 
ATOM     50  C   UNL A   1      38.341  29.088  28.604  1.00  0.00     0.029 A 
ATOM     51  C   UNL A   1      39.599  29.019  29.341  1.00  0.00     0.049 A 
ATOM     52  H   UNL A   1      40.309  30.356  30.770  1.00  0.00     0.167 HD
ATOM     53  C   UNL A   1      41.728  33.302  33.668  1.00  0.00     0.031 A 
ATOM     54  C   UNL A   1      40.524  28.050  29.208  1.00  0.00     0.031 A 
ATOM     55  C   UNL A   1      42.727  32.266  33.662  1.00  0.00     0.049 A 
ATOM     56  C   UNL A   1      41.784  28.122  30.021  1.00  0.00     0.074 A 
ATOM     57  C   UNL A   1      43.863  32.157  34.446  1.00  0.00     0.029 A 
ATOM     58  N   UNL A   1      42.719  31.167  32.816  1.00  0.00    -0.354 N 
ATOM     59  N   UNL A   1      42.138  29.011  30.916  1.00  0.00    -0.248 NA
ATOM     60  C   UNL A   1      42.773  27.058  29.800  1.00  0.00     0.031 C 
ATOM     61  C   UNL A   1      44.574  31.026  34.030  1.00  0.00     0.029 A 
ATOM     62  C   UNL A   1      43.854  30.401  33.025  1.00  0.00     0.049 A 
ATOM     63  H   UNL A   1      42.012  30.963  32.163  1.00  0.00     0.167 HD
ATOM     64  C   UNL A   1      43.383  28.608  31.377  1.00  0.00     0.074 A 
ATOM     65  C   UNL A   1      43.714  27.384  30.674  1.00  0.00     0.031 C 
ATOM     66  C   UNL A   1      44.181  29.200  32.300  1.00  0.00     0.031 A 
BRANCH  53  67
ATOM     67  C   UNL A   1      41.942  34.504  34.545  1.00  0.00    -0.014 A 
ATOM     68  C   UNL A   1      41.652  34.470  35.919  1.00  0.00     0.009 A 
ATOM     69  C   UNL A   1      42.454  35.688  33.992  1.00  0.00     0.009 A 
ATOM     70  C   UNL A   1      41.822  35.609  36.708  1.00  0.00     0.001 A 
ATOM     71  C   UNL A   1      42.652  36.817  34.790  1.00  0.00     0.001 A 
ATOM     72  C   UNL A   1      42.324  36.781  36.144  1.00  0.00     0.000 A 
ENDBRANCH  53  67
BRANCH  54  73
ATOM     73  C   UNL A   1      40.279  26.921  28.273  1.00  0.00    -0.014 A 
ATOM     74  C   UNL A   1      40.726  26.997  26.946  1.00  0.00     0.009 A 
ATOM     75  C   UNL A   1      39.628  25.756  28.707  1.00  0.00     0.009 A 
ATOM     76  C   UNL A   1      40.517  25.931  26.068  1.00  0.00     0.001 A 
ATOM     77  C   UNL A   1      39.442  24.682  27.834  1.00  0.00     0.001 A 
ATOM     78  C   UNL A   1      39.882  24.773  26.514  1.00  0.00     0.000 A 
ENDBRANCH  54  73
BRANCH  66  79
ATOM     79  C   UNL A   1      45.492  28.529  32.600  1.00  0.00    -0.014 A 
ATOM     80  C   UNL A   1      45.579  27.517  33.568  1.00  0.00     0.009 A 
ATOM     81  C   UNL A   1      46.641  28.884  31.879  1.00  0.00     0.009 A 
ATOM     82  C   UNL A   1      46.801  26.892  33.827  1.00  0.00     0.001 A 
ATOM     83  C   UNL A   1      47.856  28.238  32.120  1.00  0.00     0.001 A 
ATOM     84  C   UNL A   1      47.935  27.249  33.099  1.00  0.00     0.000 A 
ENDBRANCH  66  79
ENDBRANCH  40  41
ENDBRANCH  32  35
ENDBRANCH  30  31
ENDBRANCH  29  30
ENDBRANCH  28  29
ENDBRANCH   1  28
TORSDOF 17
ENDMDL
MODEL 3
REMARK VINA RESULT:     -11.3      3.828      8.034
REMARK SMILES CC(C)[NH2+][C@]1(C(=O)NCCCCCCNC(=O)c2ccc(-c3c4nc(c(-c5ccccc5)c5ccc([nH]5)c(-c5ccccc5)c5nc(c(-c6ccccc6)c6ccc3[nH]6)C=C5)C=C4)cc2)CC[C@@H](Oc2cc(F)ccc2F)C1
REMARK SMILES IDX 11 1 10 2 9 3 8 4 6 5 7 6 5 8 66 9 78 10 67 11 68 12 4 13
REMARK SMILES IDX 2 16 1 17 3 18 69 19 70 20 71 21 76 22 72 23 75 24 77 25
REMARK SMILES IDX 73 26 74 27 12 28 13 29 14 30 15 31 16 32 17 34 18 35 19 36
REMARK SMILES IDX 65 37 20 38 64 39 21 40 22 41 23 42 58 43 24 44 63 45 57 46
REMARK SMILES IDX 59 47 25 48 62 49 56 50 55 51 26 53 48 54 33 55 47 56 34 57
REMARK SMILES IDX 37 58 46 59 60 60 35 61 36 62 45 64 61 65 38 66 27 67 28 68
REMARK SMILES IDX 32 69 29 70 31 71 30 72 49 73 50 74 54 75 51 76 53 77 52 78
REMARK SMILES IDX 39 79 40 80 44 81 41 82 43 83 42 84
REMARK H PARENT 8 7 4 14 4 15 15 33 59 52 37 63
REMARK Flexibility Score: inf
ROOT
ATOM      1  C   UNL A   1      32.432  29.525  26.884  1.00  0.00     0.002 C 
ENDROOT
BRANCH   1   2
ATOM      2  C   UNL A   1      32.059  28.040  26.784  1.00  0.00     0.021 C 
BRANCH   2   3
ATOM      3  C   UNL A   1      33.113  27.157  26.088  1.00  0.00     0.116 C 
BRANCH   3   4
ATOM      4  N   UNL A   1      33.470  27.660  24.769  1.00  0.00    -0.351 N 
ATOM      5  C   UNL A   1      32.928  27.927  23.569  1.00  0.00     0.281 C 
ATOM      6  O   UNL A   1      33.723  28.618  22.894  1.00  0.00    -0.268 OA
ATOM      7  H   UNL A   1      34.429  27.878  24.751  1.00  0.00     0.163 HD
BRANCH   5   8
ATOM      8  C   UNL A   1      31.580  27.516  22.874  1.00  0.00     0.179 C 
ATOM      9  C   UNL A   1      30.766  26.705  23.943  1.00  0.00     0.083 C 
ATOM     10  C   UNL A   1      30.683  28.782  22.790  1.00  0.00     0.124 C 
ATOM     11  C   UNL A   1      29.279  27.006  23.728  1.00  0.00     0.052 C 
ATOM     12  C   UNL A   1      29.232  28.323  22.953  1.00  0.00     0.180 C 
BRANCH   8  13
ATOM     13  N   UNL A   1      31.533  26.676  21.659  1.00  0.00    -0.332 N 
ATOM     14  H   UNL A   1      30.794  25.991  21.820  1.00  0.00     0.347 HD
ATOM     15  H   UNL A   1      31.427  27.379  20.928  1.00  0.00     0.347 HD
BRANCH  13  16
ATOM     16  C   UNL A   1      32.674  25.924  21.172  1.00  0.00     0.176 C 
ATOM     17  C   UNL A   1      32.898  24.706  22.081  1.00  0.00     0.075 C 
ATOM     18  C   UNL A   1      32.684  25.505  19.710  1.00  0.00     0.075 C 
ENDBRANCH  13  16
ENDBRANCH   8  13
BRANCH  12  19
ATOM     19  O   UNL A   1      28.288  29.308  23.403  1.00  0.00    -0.487 OA
BRANCH  19  20
ATOM     20  C   UNL A   1      28.195  30.466  22.680  1.00  0.00     0.158 A 
ATOM     21  C   UNL A   1      27.868  30.382  21.327  1.00  0.00     0.088 A 
ATOM     22  C   UNL A   1      28.574  31.701  23.211  1.00  0.00     0.165 A 
ATOM     23  C   UNL A   1      27.820  31.545  20.560  1.00  0.00     0.127 A 
ATOM     24  C   UNL A   1      28.502  32.865  22.449  1.00  0.00     0.046 A 
ATOM     25  F   UNL A   1      29.049  31.788  24.462  1.00  0.00    -0.203 F 
ATOM     26  F   UNL A   1      27.498  31.465  19.262  1.00  0.00    -0.207 F 
ATOM     27  C   UNL A   1      28.112  32.789  21.114  1.00  0.00     0.042 A 
ENDBRANCH  19  20
ENDBRANCH  12  19
ENDBRANCH   5   8
ENDBRANCH   3   4
ENDBRANCH   2   3
ENDBRANCH   1   2
BRANCH   1  28
ATOM     28  C   UNL A   1      31.579  30.473  26.034  1.00  0.00     0.002 C 
BRANCH  28  29
ATOM     29  C   UNL A   1      31.488  31.920  26.532  1.00  0.00     0.021 C 
BRANCH  29  30
ATOM     30  C   UNL A   1      32.748  32.462  27.207  1.00  0.00     0.116 C 
BRANCH  30  31
ATOM     31  N   UNL A   1      32.578  33.826  27.688  1.00  0.00    -0.352 N 
ATOM     32  C   UNL A   1      33.261  34.515  28.655  1.00  0.00     0.251 C 
ATOM     33  H   UNL A   1      31.857  34.333  27.248  1.00  0.00     0.163 HD
ATOM     34  O   UNL A   1      32.822  35.586  29.078  1.00  0.00    -0.269 OA
BRANCH  32  35
ATOM     35  C   UNL A   1      34.522  33.980  29.204  1.00  0.00     0.039 A 
ATOM     36  C   UNL A   1      34.490  33.256  30.399  1.00  0.00     0.014 A 
ATOM     37  C   UNL A   1      35.737  34.214  28.555  1.00  0.00     0.014 A 
ATOM     38  C   UNL A   1      35.667  32.700  30.903  1.00  0.00     0.010 A 
ATOM     39  C   UNL A   1      36.899  33.611  29.026  1.00  0.00     0.010 A 
ATOM     40  C   UNL A   1      36.874  32.841  30.198  1.00  0.00    -0.014 A 
BRANCH  40  41
ATOM     41  C   UNL A   1      38.110  32.152  30.642  1.00  0.00     0.031 A 
ATOM     42  C   UNL A   1      39.005  32.775  31.672  1.00  0.00     0.074 A 
ATOM     43  C   UNL A   1      38.467  30.998  30.046  1.00  0.00     0.049 A 
ATOM     44  N   UNL A   1      40.158  32.353  32.129  1.00  0.00    -0.248 NA
ATOM     45  C   UNL A   1      38.559  34.053  32.249  1.00  0.00     0.031 C 
ATOM     46  C   UNL A   1      37.698  30.308  29.008  1.00  0.00     0.029 A 
ATOM     47  N   UNL A   1      39.575  30.207  30.221  1.00  0.00    -0.354 N 
ATOM     48  C   UNL A   1      40.581  33.318  33.033  1.00  0.00     0.074 A 
ATOM     49  C   UNL A   1      39.584  34.367  33.028  1.00  0.00     0.031 C 
ATOM     50  C   UNL A   1      38.342  29.184  28.659  1.00  0.00     0.029 A 
ATOM     51  C   UNL A   1      39.589  29.097  29.413  1.00  0.00     0.049 A 
ATOM     52  H   UNL A   1      40.291  30.416  30.863  1.00  0.00     0.167 HD
ATOM     53  C   UNL A   1      41.694  33.325  33.806  1.00  0.00     0.031 A 
ATOM     54  C   UNL A   1      40.507  28.121  29.284  1.00  0.00     0.031 A 
ATOM     55  C   UNL A   1      42.685  32.280  33.804  1.00  0.00     0.049 A 
ATOM     56  C   UNL A   1      41.756  28.176  30.115  1.00  0.00     0.074 A 
ATOM     57  C   UNL A   1      43.809  32.155  34.603  1.00  0.00     0.029 A 
ATOM     58  N   UNL A   1      42.679  31.189  32.949  1.00  0.00    -0.354 N 
ATOM     59  N   UNL A   1      42.105  29.054  31.023  1.00  0.00    -0.248 NA
ATOM     60  C   UNL A   1      42.739  27.105  29.899  1.00  0.00     0.031 C 
ATOM     61  C   UNL A   1      44.516  31.021  34.187  1.00  0.00     0.029 A 
ATOM     62  C   UNL A   1      43.804  30.411  33.167  1.00  0.00     0.049 A 
ATOM     63  H   UNL A   1      41.979  30.996  32.285  1.00  0.00     0.167 HD
ATOM     64  C   UNL A   1      43.341  28.636  31.497  1.00  0.00     0.074 A 
ATOM     65  C   UNL A   1      43.671  27.416  30.788  1.00  0.00     0.031 C 
ATOM     66  C   UNL A   1      44.131  29.213  32.436  1.00  0.00     0.031 A 
BRANCH  53  67
ATOM     67  C   UNL A   1      41.907  34.518  34.696  1.00  0.00    -0.014 A 
ATOM     68  C   UNL A   1      41.469  34.523  36.031  1.00  0.00     0.009 A 
ATOM     69  C   UNL A   1      42.567  35.651  34.197  1.00  0.00     0.009 A 
ATOM     70  C   UNL A   1      41.642  35.655  36.829  1.00  0.00     0.001 A 
ATOM     71  C   UNL A   1      42.765  36.771  35.007  1.00  0.00     0.001 A 
ATOM     72  C   UNL A   1      42.292  36.777  36.318  1.00  0.00     0.000 A 
ENDBRANCH  53  67
BRANCH  54  73
ATOM     73  C   UNL A   1      40.266  27.003  28.337  1.00  0.00    -0.014 A 
ATOM     74  C   UNL A   1      40.777  27.063  27.032  1.00  0.00     0.009 A 
ATOM     75  C   UNL A   1      39.553  25.862  28.736  1.00  0.00     0.009 A 
ATOM     76  C   UNL A   1      40.571  26.006  26.143  1.00  0.00     0.001 A 
ATOM     77  C   UNL A   1      39.370  24.796  27.853  1.00  0.00     0.001 A 
ATOM     78  C   UNL A   1      39.874  24.872  26.556  1.00  0.00     0.000 A 
ENDBRANCH  54  73
BRANCH  66  79
ATOM     79  C   UNL A   1      45.432  28.529  32.748  1.00  0.00    -0.014 A 
ATOM     80  C   UNL A   1      45.504  27.529  33.731  1.00  0.00     0.009 A 
ATOM     81  C   UNL A   1      46.587  28.857  32.025  1.00  0.00     0.009 A 
ATOM     82  C   UNL A   1      46.715  26.891  34.001  1.00  0.00     0.001 A 
ATOM     83  C   UNL A   1      47.792  28.197  32.277  1.00  0.00     0.001 A 
ATOM     84  C   UNL A   1      47.856  27.221  33.270  1.00  0.00     0.000 A 
ENDBRANCH  66  79
ENDBRANCH  40  41
ENDBRANCH  32  35
ENDBRANCH  30  31
ENDBRANCH  29  30
ENDBRANCH  28  29
ENDBRANCH   1  28
TORSDOF 17
ENDMDL
