MODEL 1
REMARK VINA RESULT:     -12.0      0.000      0.000
REMARK SMILES CC(=O)NS(=O)(=O)c1cc(-c2ccn(C(F)F)c(=O)c2)ccc1C(=O)NCCCCCCNC(=O)c1ccc(-c2c3nc(c(-c4ccccc4)c4ccc([nH]4)c(-c4ccccc4)c4nc(c(-c5ccccc5)c5ccc2[nH]5)C=C4)C=C3)cc1
REMARK SMILES IDX 29 1 28 2 27 3 26 4 24 5 25 6 23 8 8 9 9 10 10 11 22 12
REMARK SMILES IDX 21 13 5 14 6 15 7 16 4 17 1 18 2 19 3 20 11 22 12 23 20 24
REMARK SMILES IDX 13 25 18 26 14 27 19 28 15 29 16 30 17 31 30 32 31 33 32 34
REMARK SMILES IDX 33 35 34 36 35 38 36 39 37 40 83 41 38 42 82 43 39 44 40 45
REMARK SMILES IDX 41 46 76 47 42 48 81 49 75 50 77 51 43 52 80 53 74 54 73 55
REMARK SMILES IDX 44 57 66 58 51 59 65 60 52 61 55 62 64 63 78 64 53 65 54 66
REMARK SMILES IDX 63 68 79 69 56 70 45 71 46 72 50 73 47 74 49 75 48 76 67 77
REMARK SMILES IDX 68 78 72 79 69 80 71 81 70 82 57 83 58 84 62 85 59 86 61 87
REMARK SMILES IDX 60 88
REMARK H PARENT 26 7 4 21 33 37 77 56 55 67
REMARK Flexibility Score: inf
ROOT
ATOM      1  C   UNL A   1      31.706  28.441  23.912  1.00  0.00     0.002 C 
ENDROOT
BRANCH   1   2
ATOM      2  C   UNL A   1      30.945  27.225  24.445  1.00  0.00     0.021 C 
BRANCH   2   3
ATOM      3  C   UNL A   1      30.931  26.046  23.488  1.00  0.00     0.116 C 
BRANCH   3   4
ATOM      4  N   UNL A   1      32.199  25.768  22.876  1.00  0.00    -0.352 N 
ATOM      5  C   UNL A   1      32.807  24.627  22.441  1.00  0.00     0.252 C 
ATOM      6  O   UNL A   1      33.408  24.794  21.369  1.00  0.00    -0.269 OA
ATOM      7  H   UNL A   1      32.748  26.575  22.740  1.00  0.00     0.163 HD
BRANCH   5   8
ATOM      8  C   UNL A   1      33.019  23.309  23.151  1.00  0.00     0.060 A 
ATOM      9  C   UNL A   1      33.802  22.856  24.222  1.00  0.00     0.101 A 
ATOM     10  C   UNL A   1      33.811  21.467  24.555  1.00  0.00     0.031 A 
ATOM     11  C   UNL A   1      32.995  20.521  23.937  1.00  0.00    -0.017 A 
ATOM     12  C   UNL A   1      32.191  22.306  22.547  1.00  0.00     0.016 A 
ATOM     13  C   UNL A   1      32.156  20.959  22.932  1.00  0.00     0.009 A 
BRANCH   9  14
ATOM     14  S   UNL A   1      34.726  23.783  25.417  1.00  0.00     0.264 S 
ATOM     15  O   UNL A   1      34.475  25.172  25.158  1.00  0.00    -0.201 OA
ATOM     16  O   UNL A   1      36.096  23.285  25.398  1.00  0.00    -0.201 OA
BRANCH  14  17
ATOM     17  N   UNL A   1      34.177  23.419  26.931  1.00  0.00    -0.249 N 
ATOM     18  C   UNL A   1      31.729  23.825  26.699  1.00  0.00     0.115 C 
ATOM     19  C   UNL A   1      32.881  23.156  27.385  1.00  0.00     0.230 C 
ATOM     20  O   UNL A   1      32.748  22.501  28.399  1.00  0.00    -0.274 OA
ATOM     21  H   UNL A   1      34.875  23.380  27.625  1.00  0.00     0.183 HD
ENDBRANCH  14  17
ENDBRANCH   9  14
BRANCH  11  22
ATOM     22  C   UNL A   1      33.067  19.102  24.327  1.00  0.00    -0.011 A 
ATOM     23  C   UNL A   1      32.490  18.612  25.564  1.00  0.00     0.027 A 
ATOM     24  C   UNL A   1      33.632  18.223  23.479  1.00  0.00     0.080 A 
ATOM     25  C   UNL A   1      32.470  17.301  25.833  1.00  0.00     0.095 A 
ATOM     26  C   UNL A   1      33.633  16.762  23.773  1.00  0.00     0.255 A 
ATOM     27  N   UNL A   1      33.015  16.384  24.954  1.00  0.00    -0.258 N 
ATOM     28  O   UNL A   1      34.151  16.003  22.962  1.00  0.00    -0.269 OA
BRANCH  27  29
ATOM     29  C   UNL A   1      32.949  14.973  25.235  1.00  0.00     0.451 C 
ATOM     30  F   UNL A   1      34.188  14.459  25.429  1.00  0.00    -0.185 F 
ATOM     31  F   UNL A   1      32.212  14.729  26.345  1.00  0.00    -0.185 F 
ENDBRANCH  27  29
ENDBRANCH  11  22
ENDBRANCH   5   8
ENDBRANCH   3   4
ENDBRANCH   2   3
ENDBRANCH   1   2
BRANCH   1  32
ATOM     32  C   UNL A   1      32.554  29.218  24.929  1.00  0.00     0.002 C 
BRANCH  32  33
ATOM     33  C   UNL A   1      33.675  28.436  25.615  1.00  0.00     0.021 C 
BRANCH  33  34
ATOM     34  C   UNL A   1      33.748  28.598  27.130  1.00  0.00     0.116 C 
BRANCH  34  35
ATOM     35  N   UNL A   1      33.691  29.992  27.538  1.00  0.00    -0.352 N 
ATOM     36  C   UNL A   1      34.601  30.758  28.216  1.00  0.00     0.251 C 
ATOM     37  H   UNL A   1      32.864  30.463  27.285  1.00  0.00     0.163 HD
ATOM     38  O   UNL A   1      34.277  31.869  28.627  1.00  0.00    -0.269 OA
BRANCH  36  39
ATOM     39  C   UNL A   1      35.969  30.259  28.464  1.00  0.00     0.039 A 
ATOM     40  C   UNL A   1      36.897  30.303  27.419  1.00  0.00     0.014 A 
ATOM     41  C   UNL A   1      36.323  29.699  29.695  1.00  0.00     0.014 A 
ATOM     42  C   UNL A   1      38.193  29.826  27.622  1.00  0.00     0.010 A 
ATOM     43  C   UNL A   1      37.634  29.283  29.916  1.00  0.00     0.010 A 
ATOM     44  C   UNL A   1      38.576  29.332  28.877  1.00  0.00    -0.014 A 
BRANCH  44  45
ATOM     45  C   UNL A   1      39.954  28.842  29.118  1.00  0.00     0.031 A 
ATOM     46  C   UNL A   1      40.980  29.750  29.737  1.00  0.00     0.074 A 
ATOM     47  C   UNL A   1      40.297  27.600  28.727  1.00  0.00     0.049 A 
ATOM     48  N   UNL A   1      42.246  29.521  29.979  1.00  0.00    -0.248 NA
ATOM     49  C   UNL A   1      40.531  31.099  30.116  1.00  0.00     0.031 C 
ATOM     50  C   UNL A   1      39.402  26.637  28.082  1.00  0.00     0.029 A 
ATOM     51  N   UNL A   1      41.494  26.938  28.812  1.00  0.00    -0.354 N 
ATOM     52  C   UNL A   1      42.747  30.700  30.516  1.00  0.00     0.074 A 
ATOM     53  C   UNL A   1      41.660  31.654  30.527  1.00  0.00     0.031 C 
ATOM     54  C   UNL A   1      40.076  25.499  27.850  1.00  0.00     0.029 A 
ATOM     55  C   UNL A   1      41.454  25.665  28.297  1.00  0.00     0.049 A 
ATOM     56  H   UNL A   1      42.305  27.336  29.204  1.00  0.00     0.167 HD
ATOM     57  C   UNL A   1      43.994  30.959  30.974  1.00  0.00     0.031 A 
ATOM     58  C   UNL A   1      42.422  24.736  28.196  1.00  0.00     0.031 A 
ATOM     59  C   UNL A   1      45.070  30.006  30.977  1.00  0.00     0.049 A 
ATOM     60  C   UNL A   1      43.798  25.048  28.713  1.00  0.00     0.074 A 
ATOM     61  C   UNL A   1      46.355  30.155  31.471  1.00  0.00     0.029 A 
ATOM     62  N   UNL A   1      44.986  28.723  30.460  1.00  0.00    -0.354 N 
ATOM     63  N   UNL A   1      44.239  26.148  29.275  1.00  0.00    -0.248 NA
ATOM     64  C   UNL A   1      44.806  23.985  28.592  1.00  0.00     0.031 C 
ATOM     65  C   UNL A   1      47.060  28.973  31.217  1.00  0.00     0.029 A 
ATOM     66  C   UNL A   1      46.200  28.074  30.607  1.00  0.00     0.049 A 
ATOM     67  H   UNL A   1      44.181  28.330  30.051  1.00  0.00     0.167 HD
ATOM     68  C   UNL A   1      45.567  25.900  29.597  1.00  0.00     0.074 A 
ATOM     69  C   UNL A   1      45.854  24.543  29.181  1.00  0.00     0.031 C 
ATOM     70  C   UNL A   1      46.467  26.724  30.186  1.00  0.00     0.031 A 
BRANCH  57  71
ATOM     71  C   UNL A   1      44.260  32.341  31.504  1.00  0.00    -0.014 A 
ATOM     72  C   UNL A   1      44.074  32.645  32.863  1.00  0.00     0.009 A 
ATOM     73  C   UNL A   1      44.730  33.343  30.642  1.00  0.00     0.009 A 
ATOM     74  C   UNL A   1      44.318  33.935  33.338  1.00  0.00     0.001 A 
ATOM     75  C   UNL A   1      44.997  34.625  31.125  1.00  0.00     0.001 A 
ATOM     76  C   UNL A   1      44.783  34.922  32.470  1.00  0.00     0.000 A 
ENDBRANCH  57  71
BRANCH  58  77
ATOM     77  C   UNL A   1      42.119  23.411  27.599  1.00  0.00    -0.014 A 
ATOM     78  C   UNL A   1      41.536  22.399  28.376  1.00  0.00     0.009 A 
ATOM     79  C   UNL A   1      42.409  23.151  26.250  1.00  0.00     0.009 A 
ATOM     80  C   UNL A   1      41.271  21.145  27.821  1.00  0.00     0.001 A 
ATOM     81  C   UNL A   1      42.119  21.905  25.692  1.00  0.00     0.001 A 
ATOM     82  C   UNL A   1      41.558  20.901  26.479  1.00  0.00     0.000 A 
ENDBRANCH  58  77
BRANCH  70  83
ATOM     83  C   UNL A   1      47.837  26.165  30.444  1.00  0.00    -0.014 A 
ATOM     84  C   UNL A   1      48.808  26.123  29.432  1.00  0.00     0.009 A 
ATOM     85  C   UNL A   1      48.170  25.709  31.730  1.00  0.00     0.009 A 
ATOM     86  C   UNL A   1      50.077  25.604  29.695  1.00  0.00     0.001 A 
ATOM     87  C   UNL A   1      49.446  25.216  31.996  1.00  0.00     0.001 A 
ATOM     88  C   UNL A   1      50.397  25.155  30.977  1.00  0.00     0.000 A 
ENDBRANCH  70  83
ENDBRANCH  44  45
ENDBRANCH  36  39
ENDBRANCH  34  35
ENDBRANCH  33  34
ENDBRANCH  32  33
ENDBRANCH   1  32
TORSDOF 17
ENDMDL
MODEL 2
REMARK VINA RESULT:     -11.9      3.727      8.466
REMARK SMILES CC(=O)NS(=O)(=O)c1cc(-c2ccn(C(F)F)c(=O)c2)ccc1C(=O)NCCCCCCNC(=O)c1ccc(-c2c3nc(c(-c4ccccc4)c4ccc([nH]4)c(-c4ccccc4)c4nc(c(-c5ccccc5)c5ccc2[nH]5)C=C4)C=C3)cc1
REMARK SMILES IDX 29 1 28 2 27 3 26 4 24 5 25 6 23 8 8 9 9 10 10 11 22 12
REMARK SMILES IDX 21 13 5 14 6 15 7 16 4 17 1 18 2 19 3 20 11 22 12 23 20 24
REMARK SMILES IDX 13 25 18 26 14 27 19 28 15 29 16 30 17 31 30 32 31 33 32 34
REMARK SMILES IDX 33 35 34 36 35 38 36 39 37 40 83 41 38 42 82 43 39 44 40 45
REMARK SMILES IDX 41 46 76 47 42 48 81 49 75 50 77 51 43 52 80 53 74 54 73 55
REMARK SMILES IDX 44 57 66 58 51 59 65 60 52 61 55 62 64 63 78 64 53 65 54 66
REMARK SMILES IDX 63 68 79 69 56 70 45 71 46 72 50 73 47 74 49 75 48 76 67 77
REMARK SMILES IDX 68 78 72 79 69 80 71 81 70 82 57 83 58 84 62 85 59 86 61 87
REMARK SMILES IDX 60 88
REMARK H PARENT 26 7 4 21 33 37 77 56 55 67
REMARK Flexibility Score: inf
ROOT
ATOM      1  C   UNL A   1      37.233  22.904  25.111  1.00  0.00     0.002 C 
ENDROOT
BRANCH   1   2
ATOM      2  C   UNL A   1      36.721  22.282  23.809  1.00  0.00     0.021 C 
BRANCH   2   3
ATOM      3  C   UNL A   1      35.451  22.926  23.283  1.00  0.00     0.116 C 
BRANCH   3   4
ATOM      4  N   UNL A   1      34.253  22.188  23.568  1.00  0.00    -0.352 N 
ATOM      5  C   UNL A   1      32.927  22.421  23.347  1.00  0.00     0.252 C 
ATOM      6  O   UNL A   1      32.325  21.399  22.985  1.00  0.00    -0.269 OA
ATOM      7  H   UNL A   1      34.426  21.329  24.018  1.00  0.00     0.163 HD
BRANCH   5   8
ATOM      8  C   UNL A   1      32.089  23.636  23.671  1.00  0.00     0.060 A 
ATOM      9  C   UNL A   1      31.234  24.022  24.714  1.00  0.00     0.101 A 
ATOM     10  C   UNL A   1      30.513  25.252  24.619  1.00  0.00     0.031 A 
ATOM     11  C   UNL A   1      30.683  26.168  23.582  1.00  0.00    -0.017 A 
ATOM     12  C   UNL A   1      32.240  24.608  22.628  1.00  0.00     0.016 A 
ATOM     13  C   UNL A   1      31.581  25.845  22.585  1.00  0.00     0.009 A 
BRANCH   9  14
ATOM     14  S   UNL A   1      30.987  23.283  26.305  1.00  0.00     0.264 S 
ATOM     15  O   UNL A   1      29.809  22.468  26.212  1.00  0.00    -0.201 OA
ATOM     16  O   UNL A   1      31.048  24.346  27.300  1.00  0.00    -0.201 OA
BRANCH  14  17
ATOM     17  N   UNL A   1      32.275  22.314  26.660  1.00  0.00    -0.249 N 
ATOM     18  C   UNL A   1      34.166  23.938  26.611  1.00  0.00     0.115 C 
ATOM     19  C   UNL A   1      33.570  22.644  27.076  1.00  0.00     0.230 C 
ATOM     20  O   UNL A   1      34.208  21.811  27.687  1.00  0.00    -0.274 OA
ATOM     21  H   UNL A   1      32.105  21.349  26.564  1.00  0.00     0.183 HD
ENDBRANCH  14  17
ENDBRANCH   9  14
BRANCH  11  22
ATOM     22  C   UNL A   1      29.896  27.413  23.547  1.00  0.00    -0.011 A 
ATOM     23  C   UNL A   1      30.522  28.720  23.490  1.00  0.00     0.027 A 
ATOM     24  C   UNL A   1      28.553  27.332  23.505  1.00  0.00     0.080 A 
ATOM     25  C   UNL A   1      29.780  29.824  23.341  1.00  0.00     0.095 A 
ATOM     26  C   UNL A   1      27.713  28.553  23.357  1.00  0.00     0.255 A 
ATOM     27  N   UNL A   1      28.402  29.751  23.261  1.00  0.00    -0.258 N 
ATOM     28  O   UNL A   1      26.495  28.422  23.312  1.00  0.00    -0.269 OA
BRANCH  27  29
ATOM     29  C   UNL A   1      27.617  30.941  23.058  1.00  0.00     0.451 C 
ATOM     30  F   UNL A   1      27.121  31.402  24.233  1.00  0.00    -0.185 F 
ATOM     31  F   UNL A   1      28.359  31.928  22.498  1.00  0.00    -0.185 F 
ENDBRANCH  27  29
ENDBRANCH  11  22
ENDBRANCH   5   8
ENDBRANCH   3   4
ENDBRANCH   2   3
ENDBRANCH   1   2
BRANCH   1  32
ATOM     32  C   UNL A   1      38.377  22.166  25.820  1.00  0.00     0.002 C 
BRANCH  32  33
ATOM     33  C   UNL A   1      38.807  20.833  25.205  1.00  0.00     0.021 C 
BRANCH  33  34
ATOM     34  C   UNL A   1      39.148  19.735  26.207  1.00  0.00     0.116 C 
BRANCH  34  35
ATOM     35  N   UNL A   1      40.425  19.102  25.917  1.00  0.00    -0.352 N 
ATOM     36  C   UNL A   1      41.693  19.618  25.913  1.00  0.00     0.251 C 
ATOM     37  H   UNL A   1      40.368  18.146  25.687  1.00  0.00     0.163 HD
ATOM     38  O   UNL A   1      42.619  18.955  25.453  1.00  0.00    -0.269 OA
BRANCH  36  39
ATOM     39  C   UNL A   1      41.957  20.969  26.450  1.00  0.00     0.039 A 
ATOM     40  C   UNL A   1      41.811  21.183  27.823  1.00  0.00     0.014 A 
ATOM     41  C   UNL A   1      42.292  22.031  25.604  1.00  0.00     0.014 A 
ATOM     42  C   UNL A   1      42.041  22.452  28.355  1.00  0.00     0.010 A 
ATOM     43  C   UNL A   1      42.585  23.280  26.145  1.00  0.00     0.010 A 
ATOM     44  C   UNL A   1      42.450  23.505  27.523  1.00  0.00    -0.014 A 
BRANCH  44  45
ATOM     45  C   UNL A   1      42.722  24.853  28.074  1.00  0.00     0.031 A 
ATOM     46  C   UNL A   1      44.110  25.220  28.521  1.00  0.00     0.074 A 
ATOM     47  C   UNL A   1      41.710  25.728  28.223  1.00  0.00     0.049 A 
ATOM     48  N   UNL A   1      44.533  26.328  29.075  1.00  0.00    -0.248 NA
ATOM     49  C   UNL A   1      45.156  24.199  28.344  1.00  0.00     0.031 C 
ATOM     50  C   UNL A   1      40.313  25.478  27.860  1.00  0.00     0.029 A 
ATOM     51  N   UNL A   1      41.701  27.004  28.725  1.00  0.00    -0.354 N 
ATOM     52  C   UNL A   1      45.884  26.131  29.330  1.00  0.00     0.074 A 
ATOM     53  C   UNL A   1      46.201  24.783  28.909  1.00  0.00     0.031 C 
ATOM     54  C   UNL A   1      39.587  26.574  28.131  1.00  0.00     0.029 A 
ATOM     55  C   UNL A   1      40.458  27.588  28.716  1.00  0.00     0.049 A 
ATOM     56  H   UNL A   1      42.508  27.457  29.060  1.00  0.00     0.167 HD
ATOM     57  C   UNL A   1      46.783  26.998  29.851  1.00  0.00     0.031 A 
ATOM     58  C   UNL A   1      40.064  28.805  29.135  1.00  0.00     0.031 A 
ATOM     59  C   UNL A   1      46.472  28.342  30.255  1.00  0.00     0.049 A 
ATOM     60  C   UNL A   1      41.082  29.750  29.709  1.00  0.00     0.074 A 
ATOM     61  C   UNL A   1      47.325  29.317  30.742  1.00  0.00     0.029 A 
ATOM     62  N   UNL A   1      45.204  28.901  30.217  1.00  0.00    -0.354 N 
ATOM     63  N   UNL A   1      42.369  29.569  29.886  1.00  0.00    -0.248 NA
ATOM     64  C   UNL A   1      40.594  31.070  30.129  1.00  0.00     0.031 C 
ATOM     65  C   UNL A   1      46.564  30.454  31.036  1.00  0.00     0.029 A 
ATOM     66  C   UNL A   1      45.248  30.202  30.688  1.00  0.00     0.049 A 
ATOM     67  H   UNL A   1      44.393  28.441  29.900  1.00  0.00     0.167 HD
ATOM     68  C   UNL A   1      42.847  30.761  30.414  1.00  0.00     0.074 A 
ATOM     69  C   UNL A   1      41.717  31.660  30.514  1.00  0.00     0.031 C 
ATOM     70  C   UNL A   1      44.112  31.081  30.781  1.00  0.00     0.031 A 
BRANCH  57  71
ATOM     71  C   UNL A   1      48.195  26.508  30.021  1.00  0.00    -0.014 A 
ATOM     72  C   UNL A   1      48.608  25.881  31.208  1.00  0.00     0.009 A 
ATOM     73  C   UNL A   1      49.114  26.650  28.971  1.00  0.00     0.009 A 
ATOM     74  C   UNL A   1      49.924  25.439  31.352  1.00  0.00     0.001 A 
ATOM     75  C   UNL A   1      50.423  26.183  29.109  1.00  0.00     0.001 A 
ATOM     76  C   UNL A   1      50.830  25.588  30.301  1.00  0.00     0.000 A 
ENDBRANCH  57  71
BRANCH  58  77
ATOM     77  C   UNL A   1      38.642  29.209  29.006  1.00  0.00    -0.014 A 
ATOM     78  C   UNL A   1      37.767  29.082  30.097  1.00  0.00     0.009 A 
ATOM     79  C   UNL A   1      38.150  29.723  27.797  1.00  0.00     0.009 A 
ATOM     80  C   UNL A   1      36.423  29.441  29.970  1.00  0.00     0.001 A 
ATOM     81  C   UNL A   1      36.813  30.105  27.681  1.00  0.00     0.001 A 
ATOM     82  C   UNL A   1      35.949  29.956  28.765  1.00  0.00     0.000 A 
ENDBRANCH  58  77
BRANCH  70  83
ATOM     83  C   UNL A   1      44.341  32.473  31.295  1.00  0.00    -0.014 A 
ATOM     84  C   UNL A   1      44.146  32.791  32.647  1.00  0.00     0.009 A 
ATOM     85  C   UNL A   1      44.794  33.471  30.417  1.00  0.00     0.009 A 
ATOM     86  C   UNL A   1      44.370  34.091  33.105  1.00  0.00     0.001 A 
ATOM     87  C   UNL A   1      45.043  34.762  30.882  1.00  0.00     0.001 A 
ATOM     88  C   UNL A   1      44.822  35.074  32.223  1.00  0.00     0.000 A 
ENDBRANCH  70  83
ENDBRANCH  44  45
ENDBRANCH  36  39
ENDBRANCH  34  35
ENDBRANCH  33  34
ENDBRANCH  32  33
ENDBRANCH   1  32
TORSDOF 17
ENDMDL
MODEL 3
REMARK VINA RESULT:     -11.7      3.570      7.053
REMARK SMILES CC(=O)NS(=O)(=O)c1cc(-c2ccn(C(F)F)c(=O)c2)ccc1C(=O)NCCCCCCNC(=O)c1ccc(-c2c3nc(c(-c4ccccc4)c4ccc([nH]4)c(-c4ccccc4)c4nc(c(-c5ccccc5)c5ccc2[nH]5)C=C4)C=C3)cc1
REMARK SMILES IDX 29 1 28 2 27 3 26 4 24 5 25 6 23 8 8 9 9 10 10 11 22 12
REMARK SMILES IDX 21 13 5 14 6 15 7 16 4 17 1 18 2 19 3 20 11 22 12 23 20 24
REMARK SMILES IDX 13 25 18 26 14 27 19 28 15 29 16 30 17 31 30 32 31 33 32 34
REMARK SMILES IDX 33 35 34 36 35 38 36 39 37 40 83 41 38 42 82 43 39 44 40 45
REMARK SMILES IDX 41 46 76 47 42 48 81 49 75 50 77 51 43 52 80 53 74 54 73 55
REMARK SMILES IDX 44 57 66 58 51 59 65 60 52 61 55 62 64 63 78 64 53 65 54 66
REMARK SMILES IDX 63 68 79 69 56 70 45 71 46 72 50 73 47 74 49 75 48 76 67 77
REMARK SMILES IDX 68 78 72 79 69 80 71 81 70 82 57 83 58 84 62 85 59 86 61 87
REMARK SMILES IDX 60 88
REMARK H PARENT 26 7 4 21 33 37 77 56 55 67
REMARK Flexibility Score: inf
ROOT
ATOM      1  C   UNL A   1      33.021  25.497  25.717  1.00  0.00     0.002 C 
ENDROOT
BRANCH   1   2
ATOM      2  C   UNL A   1      32.208  24.343  26.308  1.00  0.00     0.021 C 
BRANCH   2   3
ATOM      3  C   UNL A   1      31.075  23.872  25.413  1.00  0.00     0.116 C 
BRANCH   3   4
ATOM      4  N   UNL A   1      31.492  23.455  24.104  1.00  0.00    -0.352 N 
ATOM      5  C   UNL A   1      32.206  22.391  23.636  1.00  0.00     0.252 C 
ATOM      6  O   UNL A   1      31.735  21.935  22.583  1.00  0.00    -0.269 OA
ATOM      7  H   UNL A   1      31.198  24.068  23.391  1.00  0.00     0.163 HD
BRANCH   5   8
ATOM      8  C   UNL A   1      33.544  21.849  24.083  1.00  0.00     0.060 A 
ATOM      9  C   UNL A   1      34.023  20.628  24.578  1.00  0.00     0.101 A 
ATOM     10  C   UNL A   1      35.384  20.520  25.001  1.00  0.00     0.031 A 
ATOM     11  C   UNL A   1      36.320  21.542  24.855  1.00  0.00    -0.017 A 
ATOM     12  C   UNL A   1      34.540  22.872  23.943  1.00  0.00     0.016 A 
ATOM     13  C   UNL A   1      35.889  22.727  24.295  1.00  0.00     0.009 A 
BRANCH   9  14
ATOM     14  S   UNL A   1      33.232  19.043  24.636  1.00  0.00     0.264 S 
ATOM     15  O   UNL A   1      32.737  18.772  23.316  1.00  0.00    -0.201 OA
ATOM     16  O   UNL A   1      32.306  19.053  25.761  1.00  0.00    -0.201 OA
BRANCH  14  17
ATOM     17  N   UNL A   1      34.347  17.893  25.031  1.00  0.00    -0.249 N 
ATOM     18  C   UNL A   1      32.912  15.881  25.363  1.00  0.00     0.115 C 
ATOM     19  C   UNL A   1      34.242  16.497  25.050  1.00  0.00     0.230 C 
ATOM     20  O   UNL A   1      35.259  15.842  24.944  1.00  0.00    -0.274 OA
ATOM     21  H   UNL A   1      35.228  18.245  25.296  1.00  0.00     0.183 HD
ENDBRANCH  14  17
ENDBRANCH   9  14
BRANCH  11  22
ATOM     22  C   UNL A   1      37.705  21.361  25.324  1.00  0.00    -0.011 A 
ATOM     23  C   UNL A   1      38.435  22.416  26.001  1.00  0.00     0.027 A 
ATOM     24  C   UNL A   1      38.289  20.158  25.175  1.00  0.00     0.080 A 
ATOM     25  C   UNL A   1      39.647  22.181  26.518  1.00  0.00     0.095 A 
ATOM     26  C   UNL A   1      39.645  19.887  25.729  1.00  0.00     0.255 A 
ATOM     27  N   UNL A   1      40.243  20.940  26.403  1.00  0.00    -0.258 N 
ATOM     28  O   UNL A   1      40.126  18.769  25.575  1.00  0.00    -0.269 OA
BRANCH  27  29
ATOM     29  C   UNL A   1      41.529  20.687  27.000  1.00  0.00     0.451 C 
ATOM     30  F   UNL A   1      42.514  20.742  26.070  1.00  0.00    -0.185 F 
ATOM     31  F   UNL A   1      41.808  21.597  27.964  1.00  0.00    -0.185 F 
ENDBRANCH  27  29
ENDBRANCH  11  22
ENDBRANCH   5   8
ENDBRANCH   3   4
ENDBRANCH   2   3
ENDBRANCH   1   2
BRANCH   1  32
ATOM     32  C   UNL A   1      32.364  26.884  25.747  1.00  0.00     0.002 C 
BRANCH  32  33
ATOM     33  C   UNL A   1      32.598  27.770  24.522  1.00  0.00     0.021 C 
BRANCH  33  34
ATOM     34  C   UNL A   1      33.457  29.006  24.769  1.00  0.00     0.116 C 
BRANCH  34  35
ATOM     35  N   UNL A   1      32.698  30.093  25.367  1.00  0.00    -0.352 N 
ATOM     36  C   UNL A   1      32.892  30.773  26.540  1.00  0.00     0.251 C 
ATOM     37  H   UNL A   1      31.919  30.389  24.844  1.00  0.00     0.163 HD
ATOM     38  O   UNL A   1      32.022  31.534  26.954  1.00  0.00    -0.269 OA
BRANCH  36  39
ATOM     39  C   UNL A   1      34.136  30.594  27.316  1.00  0.00     0.039 A 
ATOM     40  C   UNL A   1      34.441  29.322  27.809  1.00  0.00     0.014 A 
ATOM     41  C   UNL A   1      34.970  31.678  27.606  1.00  0.00     0.014 A 
ATOM     42  C   UNL A   1      35.603  29.127  28.556  1.00  0.00     0.010 A 
ATOM     43  C   UNL A   1      36.162  31.470  28.297  1.00  0.00     0.010 A 
ATOM     44  C   UNL A   1      36.482  30.195  28.788  1.00  0.00    -0.014 A 
BRANCH  44  45
ATOM     45  C   UNL A   1      37.733  30.002  29.560  1.00  0.00     0.031 A 
ATOM     46  C   UNL A   1      38.861  29.195  28.979  1.00  0.00     0.074 A 
ATOM     47  C   UNL A   1      37.831  30.507  30.804  1.00  0.00     0.049 A 
ATOM     48  N   UNL A   1      40.008  28.874  29.520  1.00  0.00    -0.248 NA
ATOM     49  C   UNL A   1      38.665  28.661  27.622  1.00  0.00     0.031 C 
ATOM     50  C   UNL A   1      36.792  31.276  31.492  1.00  0.00     0.029 A 
ATOM     51  N   UNL A   1      38.855  30.440  31.714  1.00  0.00    -0.354 N 
ATOM     52  C   UNL A   1      40.660  28.085  28.581  1.00  0.00     0.074 A 
ATOM     53  C   UNL A   1      39.764  27.943  27.454  1.00  0.00     0.031 C 
ATOM     54  C   UNL A   1      37.240  31.631  32.707  1.00  0.00     0.029 A 
ATOM     55  C   UNL A   1      38.581  31.085  32.895  1.00  0.00     0.049 A 
ATOM     56  H   UNL A   1      39.704  29.976  31.537  1.00  0.00     0.167 HD
ATOM     57  C   UNL A   1      41.899  27.542  28.643  1.00  0.00     0.031 A 
ATOM     58  C   UNL A   1      39.326  31.220  34.007  1.00  0.00     0.031 A 
ATOM     59  C   UNL A   1      42.795  27.697  29.756  1.00  0.00     0.049 A 
ATOM     60  C   UNL A   1      40.698  30.609  34.051  1.00  0.00     0.074 A 
ATOM     61  C   UNL A   1      44.092  27.232  29.891  1.00  0.00     0.029 A 
ATOM     62  N   UNL A   1      42.486  28.369  30.928  1.00  0.00    -0.354 N 
ATOM     63  N   UNL A   1      41.324  29.918  33.129  1.00  0.00    -0.248 NA
ATOM     64  C   UNL A   1      41.470  30.809  35.285  1.00  0.00     0.031 C 
ATOM     65  C   UNL A   1      44.553  27.591  31.163  1.00  0.00     0.029 A 
ATOM     66  C   UNL A   1      43.561  28.318  31.799  1.00  0.00     0.049 A 
ATOM     67  H   UNL A   1      41.629  28.818  31.113  1.00  0.00     0.167 HD
ATOM     68  C   UNL A   1      42.572  29.622  33.662  1.00  0.00     0.074 A 
ATOM     69  C   UNL A   1      42.619  30.221  34.980  1.00  0.00     0.031 C 
ATOM     70  C   UNL A   1      43.588  28.918  33.107  1.00  0.00     0.031 A 
BRANCH  57  71
ATOM     71  C   UNL A   1      42.351  26.721  27.468  1.00  0.00    -0.014 A 
ATOM     72  C   UNL A   1      42.085  25.343  27.399  1.00  0.00     0.009 A 
ATOM     73  C   UNL A   1      43.027  27.336  26.403  1.00  0.00     0.009 A 
ATOM     74  C   UNL A   1      42.518  24.593  26.304  1.00  0.00     0.001 A 
ATOM     75  C   UNL A   1      43.436  26.588  25.298  1.00  0.00     0.001 A 
ATOM     76  C   UNL A   1      43.191  25.217  25.254  1.00  0.00     0.000 A 
ENDBRANCH  57  71
BRANCH  58  77
ATOM     77  C   UNL A   1      38.799  31.984  35.165  1.00  0.00    -0.014 A 
ATOM     78  C   UNL A   1      38.883  33.385  35.188  1.00  0.00     0.009 A 
ATOM     79  C   UNL A   1      38.209  31.321  36.252  1.00  0.00     0.009 A 
ATOM     80  C   UNL A   1      38.407  34.104  36.287  1.00  0.00     0.001 A 
ATOM     81  C   UNL A   1      37.711  32.044  37.338  1.00  0.00     0.001 A 
ATOM     82  C   UNL A   1      37.818  33.433  37.358  1.00  0.00     0.000 A 
ENDBRANCH  58  77
BRANCH  70  83
ATOM     83  C   UNL A   1      44.848  28.787  33.914  1.00  0.00    -0.014 A 
ATOM     84  C   UNL A   1      45.045  27.704  34.783  1.00  0.00     0.009 A 
ATOM     85  C   UNL A   1      45.865  29.744  33.772  1.00  0.00     0.009 A 
ATOM     86  C   UNL A   1      46.226  27.599  35.520  1.00  0.00     0.001 A 
ATOM     87  C   UNL A   1      47.055  29.622  34.490  1.00  0.00     0.001 A 
ATOM     88  C   UNL A   1      47.231  28.554  35.370  1.00  0.00     0.000 A 
ENDBRANCH  70  83
ENDBRANCH  44  45
ENDBRANCH  36  39
ENDBRANCH  34  35
ENDBRANCH  33  34
ENDBRANCH  32  33
ENDBRANCH   1  32
TORSDOF 17
ENDMDL
