MODEL 1
REMARK VINA RESULT:     -11.8      0.000      0.000
REMARK SMILES Cc1ccc(Nc2c(F)cccc2Cl)c(CC(=O)NCCCCCCNC(=O)c2ccc(-c3c4nc(c(-c5ccccc5)c5ccc([nH]5)c(-c5ccccc5)c5nc(c(-c6ccccc6)c6ccc3[nH]6)C=C5)C=C4)cc2)c1
REMARK SMILES IDX 22 1 21 2 20 3 19 4 17 5 18 6 16 8 15 9 1 10 2 11 3 12 77 13
REMARK SMILES IDX 4 14 5 15 6 16 7 18 8 19 13 20 9 21 10 22 12 23 14 24 11 25
REMARK SMILES IDX 23 26 24 27 25 28 26 29 27 30 28 32 29 33 30 34 76 35 31 36
REMARK SMILES IDX 75 37 32 38 33 39 34 40 69 41 35 42 74 43 68 44 70 45 36 46
REMARK SMILES IDX 73 47 67 48 66 49 37 51 59 52 44 53 58 54 45 55 48 56 57 57
REMARK SMILES IDX 71 58 46 59 47 60 56 62 72 63 49 64 38 65 39 66 43 67 40 68
REMARK SMILES IDX 42 69 41 70 60 71 61 72 65 73 62 74 64 75 63 76 50 77 51 78
REMARK SMILES IDX 55 79 52 80 54 81 53 82
REMARK H PARENT 19 7 6 17 26 31 70 50 48 61
REMARK Flexibility Score: inf
ROOT
ATOM      1  C   UNL A   1      32.781  27.514  26.671  1.00  0.00     0.002 C 
ENDROOT
BRANCH   1   2
ATOM      2  C   UNL A   1      31.804  27.442  25.486  1.00  0.00     0.021 C 
BRANCH   2   3
ATOM      3  C   UNL A   1      30.640  26.463  25.662  1.00  0.00     0.116 C 
BRANCH   3   4
ATOM      4  N   UNL A   1      30.904  25.489  26.700  1.00  0.00    -0.356 N 
ATOM      5  C   UNL A   1      31.509  24.274  26.597  1.00  0.00     0.224 C 
ATOM      6  O   UNL A   1      31.503  23.529  27.579  1.00  0.00    -0.275 OA
ATOM      7  H   UNL A   1      30.603  25.740  27.604  1.00  0.00     0.163 HD
BRANCH   5   8
ATOM      8  C   UNL A   1      32.163  23.837  25.299  1.00  0.00     0.137 C 
BRANCH   8   9
ATOM      9  C   UNL A   1      33.501  23.151  25.483  1.00  0.00    -0.015 A 
ATOM     10  C   UNL A   1      37.093  24.315  26.125  1.00  0.00     0.044 C 
ATOM     11  C   UNL A   1      35.904  23.436  25.888  1.00  0.00    -0.051 A 
ATOM     12  C   UNL A   1      36.065  22.058  25.773  1.00  0.00     0.005 A 
ATOM     13  C   UNL A   1      34.618  23.968  25.772  1.00  0.00     0.009 A 
ATOM     14  C   UNL A   1      34.961  21.235  25.531  1.00  0.00     0.026 A 
ATOM     15  C   UNL A   1      33.667  21.755  25.364  1.00  0.00     0.042 A 
BRANCH  15  16
ATOM     16  N   UNL A   1      32.567  20.903  25.126  1.00  0.00    -0.352 N 
ATOM     17  H   UNL A   1      31.702  21.227  25.466  1.00  0.00     0.167 HD
BRANCH  16  18
ATOM     18  C   UNL A   1      32.528  19.652  24.466  1.00  0.00     0.094 A 
ATOM     19  C   UNL A   1      32.784  18.448  25.140  1.00  0.00     0.148 A 
ATOM     20  C   UNL A   1      32.322  19.583  23.076  1.00  0.00     0.067 A 
ATOM     21  F   UNL A   1      32.971  18.441  26.469  1.00  0.00    -0.205 F 
ATOM     22  C   UNL A   1      32.837  17.227  24.470  1.00  0.00     0.041 A 
ATOM     23  C   UNL A   1      32.383  18.362  22.395  1.00  0.00     0.023 A 
ATOM     24  Cl  UNL A   1      32.036  21.016  22.147  1.00  0.00    -0.082 Cl
ATOM     25  C   UNL A   1      32.642  17.183  23.092  1.00  0.00     0.005 A 
ENDBRANCH  16  18
ENDBRANCH  15  16
ENDBRANCH   8   9
ENDBRANCH   5   8
ENDBRANCH   3   4
ENDBRANCH   2   3
ENDBRANCH   1   2
BRANCH   1  26
ATOM     26  C   UNL A   1      34.108  28.247  26.420  1.00  0.00     0.002 C 
BRANCH  26  27
ATOM     27  C   UNL A   1      34.026  29.773  26.342  1.00  0.00     0.021 C 
BRANCH  27  28
ATOM     28  C   UNL A   1      33.683  30.453  27.659  1.00  0.00     0.116 C 
BRANCH  28  29
ATOM     29  N   UNL A   1      34.571  31.557  27.998  1.00  0.00    -0.352 N 
ATOM     30  C   UNL A   1      35.895  31.550  28.404  1.00  0.00     0.251 C 
ATOM     31  H   UNL A   1      34.164  32.451  27.927  1.00  0.00     0.163 HD
ATOM     32  O   UNL A   1      36.434  32.599  28.717  1.00  0.00    -0.269 OA
BRANCH  30  33
ATOM     33  C   UNL A   1      36.700  30.305  28.304  1.00  0.00     0.039 A 
ATOM     34  C   UNL A   1      36.750  29.487  29.442  1.00  0.00     0.014 A 
ATOM     35  C   UNL A   1      37.566  30.066  27.242  1.00  0.00     0.014 A 
ATOM     36  C   UNL A   1      37.839  28.643  29.630  1.00  0.00     0.010 A 
ATOM     37  C   UNL A   1      38.698  29.310  27.467  1.00  0.00     0.010 A 
ATOM     38  C   UNL A   1      38.870  28.673  28.698  1.00  0.00    -0.014 A 
BRANCH  38  39
ATOM     39  C   UNL A   1      40.227  28.236  28.994  1.00  0.00     0.031 A 
ATOM     40  C   UNL A   1      40.735  26.948  28.502  1.00  0.00     0.074 A 
ATOM     41  C   UNL A   1      41.063  29.101  29.613  1.00  0.00     0.049 A 
ATOM     42  N   UNL A   1      41.807  26.387  28.947  1.00  0.00    -0.248 NA
ATOM     43  C   UNL A   1      40.027  26.136  27.515  1.00  0.00     0.031 C 
ATOM     44  C   UNL A   1      42.520  29.048  29.685  1.00  0.00     0.029 A 
ATOM     45  N   UNL A   1      40.710  30.110  30.510  1.00  0.00    -0.354 N 
ATOM     46  C   UNL A   1      42.106  25.352  28.098  1.00  0.00     0.074 A 
ATOM     47  C   UNL A   1      40.902  25.141  27.332  1.00  0.00     0.031 C 
ATOM     48  C   UNL A   1      42.929  29.782  30.732  1.00  0.00     0.029 A 
ATOM     49  C   UNL A   1      41.741  30.181  31.468  1.00  0.00     0.049 A 
ATOM     50  H   UNL A   1      39.896  30.664  30.480  1.00  0.00     0.167 HD
ATOM     51  C   UNL A   1      43.390  24.902  28.043  1.00  0.00     0.031 A 
ATOM     52  C   UNL A   1      41.491  29.864  32.773  1.00  0.00     0.031 A 
ATOM     53  C   UNL A   1      44.207  25.435  29.140  1.00  0.00     0.049 A 
ATOM     54  C   UNL A   1      42.262  28.663  33.293  1.00  0.00     0.074 A 
ATOM     55  C   UNL A   1      45.268  26.318  29.234  1.00  0.00     0.029 A 
ATOM     56  N   UNL A   1      43.777  25.220  30.441  1.00  0.00    -0.354 N 
ATOM     57  N   UNL A   1      43.052  27.916  32.570  1.00  0.00    -0.248 NA
ATOM     58  C   UNL A   1      42.113  28.148  34.655  1.00  0.00     0.031 C 
ATOM     59  C   UNL A   1      45.457  26.640  30.612  1.00  0.00     0.029 A 
ATOM     60  C   UNL A   1      44.530  25.931  31.352  1.00  0.00     0.049 A 
ATOM     61  H   UNL A   1      43.026  24.632  30.685  1.00  0.00     0.167 HD
ATOM     62  C   UNL A   1      43.449  26.827  33.300  1.00  0.00     0.074 A 
ATOM     63  C   UNL A   1      42.842  27.020  34.604  1.00  0.00     0.031 C 
ATOM     64  C   UNL A   1      44.199  25.820  32.764  1.00  0.00     0.031 A 
BRANCH  51  65
ATOM     65  C   UNL A   1      43.969  24.124  26.880  1.00  0.00    -0.014 A 
ATOM     66  C   UNL A   1      44.908  23.106  27.129  1.00  0.00     0.009 A 
ATOM     67  C   UNL A   1      43.720  24.399  25.522  1.00  0.00     0.009 A 
ATOM     68  C   UNL A   1      45.576  22.437  26.091  1.00  0.00     0.001 A 
ATOM     69  C   UNL A   1      44.367  23.722  24.480  1.00  0.00     0.001 A 
ATOM     70  C   UNL A   1      45.307  22.747  24.765  1.00  0.00     0.000 A 
ENDBRANCH  51  65
BRANCH  52  71
ATOM     71  C   UNL A   1      40.115  30.236  33.212  1.00  0.00    -0.014 A 
ATOM     72  C   UNL A   1      39.811  31.604  33.380  1.00  0.00     0.009 A 
ATOM     73  C   UNL A   1      39.056  29.323  33.112  1.00  0.00     0.009 A 
ATOM     74  C   UNL A   1      38.489  32.054  33.327  1.00  0.00     0.001 A 
ATOM     75  C   UNL A   1      37.732  29.778  33.077  1.00  0.00     0.001 A 
ATOM     76  C   UNL A   1      37.453  31.143  33.147  1.00  0.00     0.000 A 
ENDBRANCH  52  71
BRANCH  64  77
ATOM     77  C   UNL A   1      44.641  24.597  33.524  1.00  0.00    -0.014 A 
ATOM     78  C   UNL A   1      45.987  24.292  33.767  1.00  0.00     0.009 A 
ATOM     79  C   UNL A   1      43.689  23.636  33.926  1.00  0.00     0.009 A 
ATOM     80  C   UNL A   1      46.356  23.116  34.438  1.00  0.00     0.001 A 
ATOM     81  C   UNL A   1      44.053  22.452  34.573  1.00  0.00     0.001 A 
ATOM     82  C   UNL A   1      45.389  22.199  34.842  1.00  0.00     0.000 A 
ENDBRANCH  64  77
ENDBRANCH  38  39
ENDBRANCH  30  33
ENDBRANCH  28  29
ENDBRANCH  27  28
ENDBRANCH  26  27
ENDBRANCH   1  26
TORSDOF 16
ENDMDL
MODEL 2
REMARK VINA RESULT:     -11.6      2.140      3.404
REMARK SMILES Cc1ccc(Nc2c(F)cccc2Cl)c(CC(=O)NCCCCCCNC(=O)c2ccc(-c3c4nc(c(-c5ccccc5)c5ccc([nH]5)c(-c5ccccc5)c5nc(c(-c6ccccc6)c6ccc3[nH]6)C=C5)C=C4)cc2)c1
REMARK SMILES IDX 22 1 21 2 20 3 19 4 17 5 18 6 16 8 15 9 1 10 2 11 3 12 77 13
REMARK SMILES IDX 4 14 5 15 6 16 7 18 8 19 13 20 9 21 10 22 12 23 14 24 11 25
REMARK SMILES IDX 23 26 24 27 25 28 26 29 27 30 28 32 29 33 30 34 76 35 31 36
REMARK SMILES IDX 75 37 32 38 33 39 34 40 69 41 35 42 74 43 68 44 70 45 36 46
REMARK SMILES IDX 73 47 67 48 66 49 37 51 59 52 44 53 58 54 45 55 48 56 57 57
REMARK SMILES IDX 71 58 46 59 47 60 56 62 72 63 49 64 38 65 39 66 43 67 40 68
REMARK SMILES IDX 42 69 41 70 60 71 61 72 65 73 62 74 64 75 63 76 50 77 51 78
REMARK SMILES IDX 55 79 52 80 54 81 53 82
REMARK H PARENT 19 7 6 17 26 31 70 50 48 61
REMARK Flexibility Score: inf
ROOT
ATOM      1  C   UNL A   1      31.790  28.312  25.900  1.00  0.00     0.002 C 
ENDROOT
BRANCH   1   2
ATOM      2  C   UNL A   1      33.015  27.432  26.198  1.00  0.00     0.021 C 
BRANCH   2   3
ATOM      3  C   UNL A   1      33.437  26.497  25.061  1.00  0.00     0.116 C 
BRANCH   3   4
ATOM      4  N   UNL A   1      33.853  27.230  23.884  1.00  0.00    -0.356 N 
ATOM      5  C   UNL A   1      33.429  27.091  22.598  1.00  0.00     0.224 C 
ATOM      6  O   UNL A   1      34.019  27.714  21.713  1.00  0.00    -0.275 OA
ATOM      7  H   UNL A   1      34.536  27.923  24.034  1.00  0.00     0.163 HD
BRANCH   5   8
ATOM      8  C   UNL A   1      32.265  26.177  22.255  1.00  0.00     0.137 C 
BRANCH   8   9
ATOM      9  C   UNL A   1      30.917  26.701  22.702  1.00  0.00    -0.015 A 
ATOM     10  C   UNL A   1      29.150  30.098  22.626  1.00  0.00     0.044 C 
ATOM     11  C   UNL A   1      29.430  28.645  22.861  1.00  0.00    -0.051 A 
ATOM     12  C   UNL A   1      28.501  27.854  23.530  1.00  0.00     0.005 A 
ATOM     13  C   UNL A   1      30.617  28.054  22.425  1.00  0.00     0.009 A 
ATOM     14  C   UNL A   1      28.766  26.503  23.771  1.00  0.00     0.026 A 
ATOM     15  C   UNL A   1      29.974  25.901  23.383  1.00  0.00     0.042 A 
BRANCH  15  16
ATOM     16  N   UNL A   1      30.217  24.533  23.633  1.00  0.00    -0.352 N 
ATOM     17  H   UNL A   1      29.783  23.907  23.007  1.00  0.00     0.167 HD
BRANCH  16  18
ATOM     18  C   UNL A   1      30.994  23.931  24.649  1.00  0.00     0.094 A 
ATOM     19  C   UNL A   1      30.836  24.264  26.003  1.00  0.00     0.148 A 
ATOM     20  C   UNL A   1      32.031  23.037  24.322  1.00  0.00     0.067 A 
ATOM     21  F   UNL A   1      29.855  25.096  26.386  1.00  0.00    -0.205 F 
ATOM     22  C   UNL A   1      31.666  23.738  26.992  1.00  0.00     0.041 A 
ATOM     23  C   UNL A   1      32.874  22.512  25.308  1.00  0.00     0.023 A 
ATOM     24  Cl  UNL A   1      32.334  22.590  22.676  1.00  0.00    -0.082 Cl
ATOM     25  C   UNL A   1      32.693  22.866  26.644  1.00  0.00     0.005 A 
ENDBRANCH  16  18
ENDBRANCH  15  16
ENDBRANCH   8   9
ENDBRANCH   5   8
ENDBRANCH   3   4
ENDBRANCH   2   3
ENDBRANCH   1   2
BRANCH   1  26
ATOM     26  C   UNL A   1      32.069  29.791  25.587  1.00  0.00     0.002 C 
BRANCH  26  27
ATOM     27  C   UNL A   1      32.697  30.607  26.718  1.00  0.00     0.021 C 
BRANCH  27  28
ATOM     28  C   UNL A   1      34.142  30.248  27.027  1.00  0.00     0.116 C 
BRANCH  28  29
ATOM     29  N   UNL A   1      34.842  31.253  27.814  1.00  0.00    -0.352 N 
ATOM     30  C   UNL A   1      36.045  31.180  28.498  1.00  0.00     0.251 C 
ATOM     31  H   UNL A   1      34.387  32.125  27.870  1.00  0.00     0.163 HD
ATOM     32  O   UNL A   1      36.415  32.129  29.168  1.00  0.00    -0.269 OA
BRANCH  30  33
ATOM     33  C   UNL A   1      36.953  30.022  28.287  1.00  0.00     0.039 A 
ATOM     34  C   UNL A   1      36.955  29.028  29.276  1.00  0.00     0.014 A 
ATOM     35  C   UNL A   1      37.936  30.022  27.303  1.00  0.00     0.014 A 
ATOM     36  C   UNL A   1      38.085  28.234  29.444  1.00  0.00     0.010 A 
ATOM     37  C   UNL A   1      39.097  29.311  27.527  1.00  0.00     0.010 A 
ATOM     38  C   UNL A   1      39.198  28.487  28.650  1.00  0.00    -0.014 A 
BRANCH  38  39
ATOM     39  C   UNL A   1      40.549  28.092  29.020  1.00  0.00     0.031 A 
ATOM     40  C   UNL A   1      41.143  26.848  28.510  1.00  0.00     0.074 A 
ATOM     41  C   UNL A   1      41.304  28.961  29.730  1.00  0.00     0.049 A 
ATOM     42  N   UNL A   1      42.206  26.311  29.005  1.00  0.00    -0.248 NA
ATOM     43  C   UNL A   1      40.539  26.053  27.445  1.00  0.00     0.031 C 
ATOM     44  C   UNL A   1      42.754  28.963  29.900  1.00  0.00     0.029 A 
ATOM     45  N   UNL A   1      40.848  29.914  30.642  1.00  0.00    -0.354 N 
ATOM     46  C   UNL A   1      42.606  25.328  28.136  1.00  0.00     0.074 A 
ATOM     47  C   UNL A   1      41.466  25.103  27.281  1.00  0.00     0.031 C 
ATOM     48  C   UNL A   1      43.059  29.666  31.002  1.00  0.00     0.029 A 
ATOM     49  C   UNL A   1      41.809  29.984  31.671  1.00  0.00     0.049 A 
ATOM     50  H   UNL A   1      40.016  30.436  30.580  1.00  0.00     0.167 HD
ATOM     51  C   UNL A   1      43.909  24.932  28.150  1.00  0.00     0.031 A 
ATOM     52  C   UNL A   1      41.487  29.599  32.941  1.00  0.00     0.031 A 
ATOM     53  C   UNL A   1      44.627  25.448  29.322  1.00  0.00     0.049 A 
ATOM     54  C   UNL A   1      42.272  28.409  33.462  1.00  0.00     0.074 A 
ATOM     55  C   UNL A   1      45.641  26.369  29.525  1.00  0.00     0.029 A 
ATOM     56  N   UNL A   1      44.120  25.159  30.581  1.00  0.00    -0.354 N 
ATOM     57  N   UNL A   1      43.140  27.727  32.765  1.00  0.00    -0.248 NA
ATOM     58  C   UNL A   1      42.054  27.828  34.789  1.00  0.00     0.031 C 
ATOM     59  C   UNL A   1      45.723  26.636  30.925  1.00  0.00     0.029 A 
ATOM     60  C   UNL A   1      44.780  25.858  31.569  1.00  0.00     0.049 A 
ATOM     61  H   UNL A   1      43.381  24.531  30.748  1.00  0.00     0.167 HD
ATOM     62  C   UNL A   1      43.534  26.623  33.475  1.00  0.00     0.074 A 
ATOM     63  C   UNL A   1      42.833  26.733  34.741  1.00  0.00     0.031 C 
ATOM     64  C   UNL A   1      44.361  25.672  32.950  1.00  0.00     0.031 A 
BRANCH  51  65
ATOM     65  C   UNL A   1      44.597  24.231  26.998  1.00  0.00    -0.014 A 
ATOM     66  C   UNL A   1      44.123  22.977  26.569  1.00  0.00     0.009 A 
ATOM     67  C   UNL A   1      45.765  24.686  26.359  1.00  0.00     0.009 A 
ATOM     68  C   UNL A   1      44.792  22.219  25.597  1.00  0.00     0.001 A 
ATOM     69  C   UNL A   1      46.429  23.946  25.372  1.00  0.00     0.001 A 
ATOM     70  C   UNL A   1      45.948  22.703  24.999  1.00  0.00     0.000 A 
ENDBRANCH  51  65
BRANCH  52  71
ATOM     71  C   UNL A   1      40.070  29.896  33.300  1.00  0.00    -0.014 A 
ATOM     72  C   UNL A   1      39.732  31.217  33.662  1.00  0.00     0.009 A 
ATOM     73  C   UNL A   1      39.038  29.015  32.947  1.00  0.00     0.009 A 
ATOM     74  C   UNL A   1      38.415  31.674  33.555  1.00  0.00     0.001 A 
ATOM     75  C   UNL A   1      37.717  29.472  32.859  1.00  0.00     0.001 A 
ATOM     76  C   UNL A   1      37.413  30.807  33.127  1.00  0.00     0.000 A 
ENDBRANCH  52  71
BRANCH  64  77
ATOM     77  C   UNL A   1      44.803  24.435  33.687  1.00  0.00    -0.014 A 
ATOM     78  C   UNL A   1      46.110  24.250  34.157  1.00  0.00     0.009 A 
ATOM     79  C   UNL A   1      43.917  23.345  33.829  1.00  0.00     0.009 A 
ATOM     80  C   UNL A   1      46.491  23.061  34.797  1.00  0.00     0.001 A 
ATOM     81  C   UNL A   1      44.298  22.150  34.443  1.00  0.00     0.001 A 
ATOM     82  C   UNL A   1      45.585  22.013  34.940  1.00  0.00     0.000 A 
ENDBRANCH  64  77
ENDBRANCH  38  39
ENDBRANCH  30  33
ENDBRANCH  28  29
ENDBRANCH  27  28
ENDBRANCH  26  27
ENDBRANCH   1  26
TORSDOF 16
ENDMDL
MODEL 3
REMARK VINA RESULT:     -11.6      2.867      4.674
REMARK SMILES Cc1ccc(Nc2c(F)cccc2Cl)c(CC(=O)NCCCCCCNC(=O)c2ccc(-c3c4nc(c(-c5ccccc5)c5ccc([nH]5)c(-c5ccccc5)c5nc(c(-c6ccccc6)c6ccc3[nH]6)C=C5)C=C4)cc2)c1
REMARK SMILES IDX 22 1 21 2 20 3 19 4 17 5 18 6 16 8 15 9 1 10 2 11 3 12 77 13
REMARK SMILES IDX 4 14 5 15 6 16 7 18 8 19 13 20 9 21 10 22 12 23 14 24 11 25
REMARK SMILES IDX 23 26 24 27 25 28 26 29 27 30 28 32 29 33 30 34 76 35 31 36
REMARK SMILES IDX 75 37 32 38 33 39 34 40 69 41 35 42 74 43 68 44 70 45 36 46
REMARK SMILES IDX 73 47 67 48 66 49 37 51 59 52 44 53 58 54 45 55 48 56 57 57
REMARK SMILES IDX 71 58 46 59 47 60 56 62 72 63 49 64 38 65 39 66 43 67 40 68
REMARK SMILES IDX 42 69 41 70 60 71 61 72 65 73 62 74 64 75 63 76 50 77 51 78
REMARK SMILES IDX 55 79 52 80 54 81 53 82
REMARK H PARENT 19 7 6 17 26 31 70 50 48 61
REMARK Flexibility Score: inf
ROOT
ATOM      1  C   UNL A   1      32.238  27.696  26.456  1.00  0.00     0.002 C 
ENDROOT
BRANCH   1   2
ATOM      2  C   UNL A   1      33.595  27.015  26.214  1.00  0.00     0.021 C 
BRANCH   2   3
ATOM      3  C   UNL A   1      33.664  26.127  24.969  1.00  0.00     0.116 C 
BRANCH   3   4
ATOM      4  N   UNL A   1      33.993  26.885  23.780  1.00  0.00    -0.356 N 
ATOM      5  C   UNL A   1      33.461  26.787  22.531  1.00  0.00     0.224 C 
ATOM      6  O   UNL A   1      33.987  27.426  21.617  1.00  0.00    -0.275 OA
ATOM      7  H   UNL A   1      34.697  27.564  23.891  1.00  0.00     0.163 HD
BRANCH   5   8
ATOM      8  C   UNL A   1      32.259  25.900  22.262  1.00  0.00     0.137 C 
BRANCH   8   9
ATOM      9  C   UNL A   1      30.943  26.484  22.730  1.00  0.00    -0.015 A 
ATOM     10  C   UNL A   1      29.311  29.948  22.629  1.00  0.00     0.044 C 
ATOM     11  C   UNL A   1      29.538  28.489  22.886  1.00  0.00    -0.051 A 
ATOM     12  C   UNL A   1      28.595  27.748  23.591  1.00  0.00     0.005 A 
ATOM     13  C   UNL A   1      30.691  27.844  22.434  1.00  0.00     0.009 A 
ATOM     14  C   UNL A   1      28.812  26.392  23.852  1.00  0.00     0.026 A 
ATOM     15  C   UNL A   1      29.986  25.735  23.448  1.00  0.00     0.042 A 
BRANCH  15  16
ATOM     16  N   UNL A   1      30.180  24.364  23.718  1.00  0.00    -0.352 N 
ATOM     17  H   UNL A   1      29.691  23.745  23.127  1.00  0.00     0.167 HD
BRANCH  16  18
ATOM     18  C   UNL A   1      30.977  23.749  24.712  1.00  0.00     0.094 A 
ATOM     19  C   UNL A   1      30.897  24.119  26.064  1.00  0.00     0.148 A 
ATOM     20  C   UNL A   1      31.956  22.802  24.359  1.00  0.00     0.067 A 
ATOM     21  F   UNL A   1      29.972  25.004  26.470  1.00  0.00    -0.205 F 
ATOM     22  C   UNL A   1      31.748  23.579  27.026  1.00  0.00     0.041 A 
ATOM     23  C   UNL A   1      32.820  22.262  25.319  1.00  0.00     0.023 A 
ATOM     24  Cl  UNL A   1      32.161  22.306  22.713  1.00  0.00    -0.082 Cl
ATOM     25  C   UNL A   1      32.717  22.652  26.653  1.00  0.00     0.005 A 
ENDBRANCH  16  18
ENDBRANCH  15  16
ENDBRANCH   8   9
ENDBRANCH   5   8
ENDBRANCH   3   4
ENDBRANCH   2   3
ENDBRANCH   1   2
BRANCH   1  26
ATOM     26  C   UNL A   1      32.279  29.169  26.892  1.00  0.00     0.002 C 
BRANCH  26  27
ATOM     27  C   UNL A   1      33.543  29.944  26.514  1.00  0.00     0.021 C 
BRANCH  27  28
ATOM     28  C   UNL A   1      34.057  30.877  27.599  1.00  0.00     0.116 C 
BRANCH  28  29
ATOM     29  N   UNL A   1      33.365  32.158  27.648  1.00  0.00    -0.352 N 
ATOM     30  C   UNL A   1      33.582  33.264  28.454  1.00  0.00     0.251 C 
ATOM     31  H   UNL A   1      32.625  32.253  27.006  1.00  0.00     0.163 HD
ATOM     32  O   UNL A   1      32.825  34.218  28.383  1.00  0.00    -0.269 OA
BRANCH  30  33
ATOM     33  C   UNL A   1      34.815  33.357  29.278  1.00  0.00     0.039 A 
ATOM     34  C   UNL A   1      35.916  34.008  28.704  1.00  0.00     0.014 A 
ATOM     35  C   UNL A   1      34.976  32.631  30.454  1.00  0.00     0.014 A 
ATOM     36  C   UNL A   1      37.199  33.691  29.136  1.00  0.00     0.010 A 
ATOM     37  C   UNL A   1      36.245  32.234  30.819  1.00  0.00     0.010 A 
ATOM     38  C   UNL A   1      37.349  32.698  30.099  1.00  0.00    -0.014 A 
BRANCH  38  39
ATOM     39  C   UNL A   1      38.582  31.948  30.287  1.00  0.00     0.031 A 
ATOM     40  C   UNL A   1      38.782  30.642  29.645  1.00  0.00     0.074 A 
ATOM     41  C   UNL A   1      39.602  32.540  30.950  1.00  0.00     0.049 A 
ATOM     42  N   UNL A   1      39.714  29.817  29.983  1.00  0.00    -0.248 NA
ATOM     43  C   UNL A   1      37.891  30.113  28.616  1.00  0.00     0.031 C 
ATOM     44  C   UNL A   1      41.013  32.165  30.950  1.00  0.00     0.029 A 
ATOM     45  N   UNL A   1      39.500  33.498  31.960  1.00  0.00    -0.354 N 
ATOM     46  C   UNL A   1      39.760  28.840  29.021  1.00  0.00     0.074 A 
ATOM     47  C   UNL A   1      38.521  28.978  28.294  1.00  0.00     0.031 C 
ATOM     48  C   UNL A   1      41.597  32.676  32.045  1.00  0.00     0.029 A 
ATOM     49  C   UNL A   1      40.543  33.241  32.871  1.00  0.00     0.049 A 
ATOM     50  H   UNL A   1      38.828  34.215  32.022  1.00  0.00     0.167 HD
ATOM     51  C   UNL A   1      40.911  28.130  28.862  1.00  0.00     0.031 A 
ATOM     52  C   UNL A   1      40.259  32.847  34.148  1.00  0.00     0.031 A 
ATOM     53  C   UNL A   1      41.850  28.353  29.969  1.00  0.00     0.049 A 
ATOM     54  C   UNL A   1      40.759  31.459  34.509  1.00  0.00     0.074 A 
ATOM     55  C   UNL A   1      43.082  28.970  30.102  1.00  0.00     0.029 A 
ATOM     56  N   UNL A   1      41.413  28.097  31.261  1.00  0.00    -0.354 N 
ATOM     57  N   UNL A   1      41.348  30.641  33.680  1.00  0.00    -0.248 NA
ATOM     58  C   UNL A   1      40.531  30.845  35.818  1.00  0.00     0.031 C 
ATOM     59  C   UNL A   1      43.368  29.093  31.495  1.00  0.00     0.029 A 
ATOM     60  C   UNL A   1      42.325  28.526  32.202  1.00  0.00     0.049 A 
ATOM     61  H   UNL A   1      40.557  27.663  31.479  1.00  0.00     0.167 HD
ATOM     62  C   UNL A   1      41.512  29.419  34.278  1.00  0.00     0.074 A 
ATOM     63  C   UNL A   1      40.992  29.597  35.622  1.00  0.00     0.031 C 
ATOM     64  C   UNL A   1      42.010  28.338  33.610  1.00  0.00     0.031 A 
BRANCH  51  65
ATOM     65  C   UNL A   1      41.278  27.376  27.602  1.00  0.00    -0.014 A 
ATOM     66  C   UNL A   1      42.027  28.023  26.602  1.00  0.00     0.009 A 
ATOM     67  C   UNL A   1      40.844  26.075  27.286  1.00  0.00     0.009 A 
ATOM     68  C   UNL A   1      42.289  27.425  25.360  1.00  0.00     0.001 A 
ATOM     69  C   UNL A   1      41.118  25.461  26.057  1.00  0.00     0.001 A 
ATOM     70  C   UNL A   1      41.832  26.142  25.086  1.00  0.00     0.000 A 
ENDBRANCH  51  65
BRANCH  52  71
ATOM     71  C   UNL A   1      39.009  33.458  34.685  1.00  0.00    -0.014 A 
ATOM     72  C   UNL A   1      37.786  33.146  34.056  1.00  0.00     0.009 A 
ATOM     73  C   UNL A   1      38.977  34.020  35.969  1.00  0.00     0.009 A 
ATOM     74  C   UNL A   1      36.574  33.280  34.740  1.00  0.00     0.001 A 
ATOM     75  C   UNL A   1      37.758  34.168  36.644  1.00  0.00     0.001 A 
ATOM     76  C   UNL A   1      36.566  33.765  36.045  1.00  0.00     0.000 A 
ENDBRANCH  52  71
BRANCH  64  77
ATOM     77  C   UNL A   1      42.189  26.973  34.223  1.00  0.00    -0.014 A 
ATOM     78  C   UNL A   1      41.255  26.396  35.092  1.00  0.00     0.009 A 
ATOM     79  C   UNL A   1      43.393  26.264  34.021  1.00  0.00     0.009 A 
ATOM     80  C   UNL A   1      41.485  25.141  35.677  1.00  0.00     0.001 A 
ATOM     81  C   UNL A   1      43.637  25.026  34.621  1.00  0.00     0.001 A 
ATOM     82  C   UNL A   1      42.674  24.457  35.440  1.00  0.00     0.000 A 
ENDBRANCH  64  77
ENDBRANCH  38  39
ENDBRANCH  30  33
ENDBRANCH  28  29
ENDBRANCH  27  28
ENDBRANCH  26  27
ENDBRANCH   1  26
TORSDOF 16
ENDMDL
