MODEL 1
REMARK VINA RESULT:     -10.5      0.000      0.000
REMARK SMILES O=C(Cc1ccc(=O)n(C(F)F)c1)NCCCCCCNC(=O)c1ccc(-c2c3nc(c(-c4ccccc4)c4ccc([nH]4)c(-c4ccccc4)c4nc(c(-c5ccccc5)c5ccc2[nH]5)C=C4)C=C3)cc1
REMARK SMILES IDX 17 1 16 2 15 3 14 4 1 5 2 6 3 8 4 9 5 10 13 11 6 12 9 13
REMARK SMILES IDX 7 14 8 15 10 16 11 17 12 18 18 19 19 20 20 21 21 22 22 23
REMARK SMILES IDX 23 25 24 26 25 27 71 28 26 29 70 30 27 31 28 32 29 33 64 34
REMARK SMILES IDX 30 35 69 36 63 37 65 38 31 39 68 40 62 41 61 42 32 44 54 45
REMARK SMILES IDX 39 46 53 47 40 48 43 49 52 50 66 51 41 52 42 53 51 55 67 56
REMARK SMILES IDX 44 57 33 58 34 59 38 60 35 61 37 62 36 63 55 64 56 65 60 66
REMARK SMILES IDX 57 67 59 68 58 69 45 70 46 71 50 72 47 73 49 74 48 75
REMARK H PARENT 14 7 21 24 65 43 43 54
REMARK Flexibility Score: inf
ROOT
ATOM      1  C   UNL A   1      36.268  21.928  23.906  1.00  0.00     0.002 C 
ENDROOT
BRANCH   1   2
ATOM      2  C   UNL A   1      35.806  23.356  23.587  1.00  0.00     0.021 C 
BRANCH   2   3
ATOM      3  C   UNL A   1      34.339  23.653  23.886  1.00  0.00     0.116 C 
BRANCH   3   4
ATOM      4  N   UNL A   1      33.697  22.580  24.615  1.00  0.00    -0.356 N 
ATOM      5  O   UNL A   1      31.706  22.666  23.468  1.00  0.00    -0.275 OA
ATOM      6  C   UNL A   1      32.422  22.145  24.316  1.00  0.00     0.224 C 
ATOM      7  H   UNL A   1      34.188  22.144  25.349  1.00  0.00     0.163 HD
BRANCH   6   8
ATOM      8  C   UNL A   1      32.004  20.901  25.093  1.00  0.00     0.137 C 
BRANCH   8   9
ATOM      9  C   UNL A   1      32.591  19.619  24.543  1.00  0.00    -0.022 A 
ATOM     10  C   UNL A   1      32.364  19.363  23.132  1.00  0.00     0.011 A 
ATOM     11  C   UNL A   1      33.277  18.704  25.252  1.00  0.00     0.099 A 
ATOM     12  C   UNL A   1      32.786  18.229  22.559  1.00  0.00     0.072 A 
ATOM     13  N   UNL A   1      33.720  17.521  24.687  1.00  0.00    -0.258 N 
ATOM     14  C   UNL A   1      33.498  17.196  23.359  1.00  0.00     0.254 A 
ATOM     15  O   UNL A   1      33.829  16.151  22.810  1.00  0.00    -0.269 OA
BRANCH  13  16
ATOM     16  C   UNL A   1      34.384  16.534  25.499  1.00  0.00     0.451 C 
ATOM     17  F   UNL A   1      33.696  15.365  25.491  1.00  0.00    -0.185 F 
ATOM     18  F   UNL A   1      35.639  16.287  25.056  1.00  0.00    -0.185 F 
ENDBRANCH  13  16
ENDBRANCH   8   9
ENDBRANCH   6   8
ENDBRANCH   3   4
ENDBRANCH   2   3
ENDBRANCH   1   2
BRANCH   1  19
ATOM     19  C   UNL A   1      37.252  21.783  25.070  1.00  0.00     0.002 C 
BRANCH  19  20
ATOM     20  C   UNL A   1      38.140  20.539  25.039  1.00  0.00     0.021 C 
BRANCH  20  21
ATOM     21  C   UNL A   1      39.250  20.498  26.082  1.00  0.00     0.116 C 
BRANCH  21  22
ATOM     22  N   UNL A   1      40.146  19.359  25.940  1.00  0.00    -0.352 N 
ATOM     23  C   UNL A   1      41.513  19.320  26.100  1.00  0.00     0.251 C 
ATOM     24  H   UNL A   1      39.719  18.506  25.698  1.00  0.00     0.163 HD
ATOM     25  O   UNL A   1      42.144  18.295  25.862  1.00  0.00    -0.269 OA
BRANCH  23  26
ATOM     26  C   UNL A   1      42.226  20.549  26.512  1.00  0.00     0.039 A 
ATOM     27  C   UNL A   1      42.260  20.933  27.854  1.00  0.00     0.014 A 
ATOM     28  C   UNL A   1      42.801  21.362  25.531  1.00  0.00     0.014 A 
ATOM     29  C   UNL A   1      42.704  22.207  28.191  1.00  0.00     0.010 A 
ATOM     30  C   UNL A   1      43.317  22.613  25.883  1.00  0.00     0.010 A 
ATOM     31  C   UNL A   1      43.216  23.070  27.207  1.00  0.00    -0.014 A 
BRANCH  31  32
ATOM     32  C   UNL A   1      43.601  24.455  27.581  1.00  0.00     0.031 A 
ATOM     33  C   UNL A   1      45.025  24.924  27.428  1.00  0.00     0.074 A 
ATOM     34  C   UNL A   1      42.651  25.321  27.985  1.00  0.00     0.049 A 
ATOM     35  N   UNL A   1      45.527  26.113  27.654  1.00  0.00    -0.248 NA
ATOM     36  C   UNL A   1      46.012  23.937  26.962  1.00  0.00     0.031 C 
ATOM     37  C   UNL A   1      41.233  24.998  28.147  1.00  0.00     0.029 A 
ATOM     38  N   UNL A   1      42.730  26.654  28.300  1.00  0.00    -0.354 N 
ATOM     39  C   UNL A   1      46.885  26.011  27.377  1.00  0.00     0.074 A 
ATOM     40  C   UNL A   1      47.136  24.641  26.988  1.00  0.00     0.031 C 
ATOM     41  C   UNL A   1      40.565  26.115  28.471  1.00  0.00     0.029 A 
ATOM     42  C   UNL A   1      41.513  27.217  28.598  1.00  0.00     0.049 A 
ATOM     43  H   UNL A   1      43.575  27.157  28.311  1.00  0.00     0.167 HD
ATOM     44  C   UNL A   1      47.835  26.975  27.429  1.00  0.00     0.031 A 
ATOM     45  C   UNL A   1      41.190  28.480  28.939  1.00  0.00     0.031 A 
ATOM     46  C   UNL A   1      47.588  28.343  27.800  1.00  0.00     0.049 A 
ATOM     47  C   UNL A   1      42.269  29.518  29.032  1.00  0.00     0.074 A 
ATOM     48  C   UNL A   1      48.490  29.390  27.865  1.00  0.00     0.029 A 
ATOM     49  N   UNL A   1      46.353  28.853  28.165  1.00  0.00    -0.354 N 
ATOM     50  N   UNL A   1      43.547  29.402  28.766  1.00  0.00    -0.248 NA
ATOM     51  C   UNL A   1      41.863  30.859  29.478  1.00  0.00     0.031 C 
ATOM     52  C   UNL A   1      47.809  30.526  28.314  1.00  0.00     0.029 A 
ATOM     53  C   UNL A   1      46.474  30.196  28.477  1.00  0.00     0.049 A 
ATOM     54  H   UNL A   1      45.514  28.337  28.197  1.00  0.00     0.167 HD
ATOM     55  C   UNL A   1      44.098  30.655  29.006  1.00  0.00     0.074 A 
ATOM     56  C   UNL A   1      43.013  31.520  29.419  1.00  0.00     0.031 C 
ATOM     57  C   UNL A   1      45.390  31.046  28.895  1.00  0.00     0.031 A 
BRANCH  44  58
ATOM     58  C   UNL A   1      49.247  26.591  27.088  1.00  0.00    -0.014 A 
ATOM     59  C   UNL A   1      49.701  26.711  25.765  1.00  0.00     0.009 A 
ATOM     60  C   UNL A   1      50.099  26.029  28.052  1.00  0.00     0.009 A 
ATOM     61  C   UNL A   1      50.976  26.269  25.410  1.00  0.00     0.001 A 
ATOM     62  C   UNL A   1      51.383  25.608  27.698  1.00  0.00     0.001 A 
ATOM     63  C   UNL A   1      51.818  25.721  26.377  1.00  0.00     0.000 A 
ENDBRANCH  44  58
BRANCH  45  64
ATOM     64  C   UNL A   1      39.770  28.818  29.208  1.00  0.00    -0.014 A 
ATOM     65  C   UNL A   1      39.223  28.626  30.487  1.00  0.00     0.009 A 
ATOM     66  C   UNL A   1      38.941  29.283  28.177  1.00  0.00     0.009 A 
ATOM     67  C   UNL A   1      37.868  28.867  30.721  1.00  0.00     0.001 A 
ATOM     68  C   UNL A   1      37.592  29.548  28.421  1.00  0.00     0.001 A 
ATOM     69  C   UNL A   1      37.055  29.331  29.689  1.00  0.00     0.000 A 
ENDBRANCH  45  64
BRANCH  57  70
ATOM     70  C   UNL A   1      45.717  32.474  29.219  1.00  0.00    -0.014 A 
ATOM     71  C   UNL A   1      45.704  33.441  28.201  1.00  0.00     0.009 A 
ATOM     72  C   UNL A   1      46.132  32.844  30.507  1.00  0.00     0.009 A 
ATOM     73  C   UNL A   1      46.111  34.750  28.465  1.00  0.00     0.001 A 
ATOM     74  C   UNL A   1      46.516  34.159  30.773  1.00  0.00     0.001 A 
ATOM     75  C   UNL A   1      46.514  35.108  29.751  1.00  0.00     0.000 A 
ENDBRANCH  57  70
ENDBRANCH  31  32
ENDBRANCH  23  26
ENDBRANCH  21  22
ENDBRANCH  20  21
ENDBRANCH  19  20
ENDBRANCH   1  19
TORSDOF 15
ENDMDL
MODEL 2
REMARK VINA RESULT:     -10.4      7.220     11.710
REMARK SMILES O=C(Cc1ccc(=O)n(C(F)F)c1)NCCCCCCNC(=O)c1ccc(-c2c3nc(c(-c4ccccc4)c4ccc([nH]4)c(-c4ccccc4)c4nc(c(-c5ccccc5)c5ccc2[nH]5)C=C4)C=C3)cc1
REMARK SMILES IDX 17 1 16 2 15 3 14 4 1 5 2 6 3 8 4 9 5 10 13 11 6 12 9 13
REMARK SMILES IDX 7 14 8 15 10 16 11 17 12 18 18 19 19 20 20 21 21 22 22 23
REMARK SMILES IDX 23 25 24 26 25 27 71 28 26 29 70 30 27 31 28 32 29 33 64 34
REMARK SMILES IDX 30 35 69 36 63 37 65 38 31 39 68 40 62 41 61 42 32 44 54 45
REMARK SMILES IDX 39 46 53 47 40 48 43 49 52 50 66 51 41 52 42 53 51 55 67 56
REMARK SMILES IDX 44 57 33 58 34 59 38 60 35 61 37 62 36 63 55 64 56 65 60 66
REMARK SMILES IDX 57 67 59 68 58 69 45 70 46 71 50 72 47 73 49 74 48 75
REMARK H PARENT 14 7 21 24 65 43 43 54
REMARK Flexibility Score: inf
ROOT
ATOM      1  C   UNL A   1      35.768  32.288  27.996  1.00  0.00     0.002 C 
ENDROOT
BRANCH   1   2
ATOM      2  C   UNL A   1      36.027  30.792  27.770  1.00  0.00     0.021 C 
BRANCH   2   3
ATOM      3  C   UNL A   1      34.797  29.893  27.862  1.00  0.00     0.116 C 
BRANCH   3   4
ATOM      4  N   UNL A   1      34.342  29.447  26.562  1.00  0.00    -0.356 N 
ATOM      5  O   UNL A   1      32.289  30.479  26.659  1.00  0.00    -0.275 OA
ATOM      6  C   UNL A   1      33.116  29.813  26.045  1.00  0.00     0.224 C 
ATOM      7  H   UNL A   1      34.928  28.863  26.028  1.00  0.00     0.163 HD
BRANCH   6   8
ATOM      8  C   UNL A   1      32.907  29.372  24.601  1.00  0.00     0.137 C 
BRANCH   8   9
ATOM      9  C   UNL A   1      31.600  28.643  24.375  1.00  0.00    -0.022 A 
ATOM     10  C   UNL A   1      31.528  27.283  24.879  1.00  0.00     0.011 A 
ATOM     11  C   UNL A   1      30.526  29.140  23.734  1.00  0.00     0.099 A 
ATOM     12  C   UNL A   1      30.441  26.528  24.678  1.00  0.00     0.072 A 
ATOM     13  N   UNL A   1      29.392  28.381  23.507  1.00  0.00    -0.258 N 
ATOM     14  C   UNL A   1      29.276  27.064  23.923  1.00  0.00     0.254 A 
ATOM     15  O   UNL A   1      28.317  26.328  23.720  1.00  0.00    -0.269 OA
BRANCH  13  16
ATOM     16  C   UNL A   1      28.293  28.926  22.752  1.00  0.00     0.451 C 
ATOM     17  F   UNL A   1      27.595  29.818  23.497  1.00  0.00    -0.185 F 
ATOM     18  F   UNL A   1      28.722  29.555  21.633  1.00  0.00    -0.185 F 
ENDBRANCH  13  16
ENDBRANCH   8   9
ENDBRANCH   6   8
ENDBRANCH   3   4
ENDBRANCH   2   3
ENDBRANCH   1   2
BRANCH   1  19
ATOM     19  C   UNL A   1      34.819  32.639  29.147  1.00  0.00     0.002 C 
BRANCH  19  20
ATOM     20  C   UNL A   1      33.665  33.575  28.792  1.00  0.00     0.021 C 
BRANCH  20  21
ATOM     21  C   UNL A   1      33.806  35.010  29.287  1.00  0.00     0.116 C 
BRANCH  21  22
ATOM     22  N   UNL A   1      32.811  35.390  30.279  1.00  0.00    -0.352 N 
ATOM     23  C   UNL A   1      32.865  35.240  31.646  1.00  0.00     0.251 C 
ATOM     24  H   UNL A   1      31.993  35.809  29.925  1.00  0.00     0.163 HD
ATOM     25  O   UNL A   1      31.902  35.535  32.348  1.00  0.00    -0.269 OA
BRANCH  23  26
ATOM     26  C   UNL A   1      34.081  34.664  32.261  1.00  0.00     0.039 A 
ATOM     27  C   UNL A   1      35.285  35.370  32.246  1.00  0.00     0.014 A 
ATOM     28  C   UNL A   1      34.027  33.371  32.791  1.00  0.00     0.014 A 
ATOM     29  C   UNL A   1      36.465  34.720  32.591  1.00  0.00     0.010 A 
ATOM     30  C   UNL A   1      35.205  32.746  33.209  1.00  0.00     0.010 A 
ATOM     31  C   UNL A   1      36.442  33.393  33.054  1.00  0.00    -0.014 A 
BRANCH  31  32
ATOM     32  C   UNL A   1      37.723  32.695  33.331  1.00  0.00     0.031 A 
ATOM     33  C   UNL A   1      38.467  32.938  34.618  1.00  0.00     0.074 A 
ATOM     34  C   UNL A   1      38.181  31.778  32.456  1.00  0.00     0.049 A 
ATOM     35  N   UNL A   1      39.570  32.376  35.049  1.00  0.00    -0.248 NA
ATOM     36  C   UNL A   1      37.905  33.936  35.543  1.00  0.00     0.031 C 
ATOM     37  C   UNL A   1      37.538  31.432  31.188  1.00  0.00     0.029 A 
ATOM     38  N   UNL A   1      39.273  30.949  32.517  1.00  0.00    -0.354 N 
ATOM     39  C   UNL A   1      39.841  32.963  36.279  1.00  0.00     0.074 A 
ATOM     40  C   UNL A   1      38.803  33.941  36.519  1.00  0.00     0.031 C 
ATOM     41  C   UNL A   1      38.212  30.421  30.619  1.00  0.00     0.029 A 
ATOM     42  C   UNL A   1      39.364  30.087  31.451  1.00  0.00     0.049 A 
ATOM     43  H   UNL A   1      39.926  30.970  33.252  1.00  0.00     0.167 HD
ATOM     44  C   UNL A   1      40.855  32.703  37.137  1.00  0.00     0.031 A 
ATOM     45  C   UNL A   1      40.273  29.136  31.167  1.00  0.00     0.031 A 
ATOM     46  C   UNL A   1      41.881  31.720  36.911  1.00  0.00     0.049 A 
ATOM     47  C   UNL A   1      41.413  28.898  32.114  1.00  0.00     0.074 A 
ATOM     48  C   UNL A   1      42.940  31.379  37.734  1.00  0.00     0.029 A 
ATOM     49  N   UNL A   1      41.977  30.921  35.783  1.00  0.00    -0.354 N 
ATOM     50  N   UNL A   1      41.652  29.463  33.271  1.00  0.00    -0.248 NA
ATOM     51  C   UNL A   1      42.411  27.895  31.713  1.00  0.00     0.031 C 
ATOM     52  C   UNL A   1      43.703  30.405  37.084  1.00  0.00     0.029 A 
ATOM     53  C   UNL A   1      43.088  30.103  35.881  1.00  0.00     0.049 A 
ATOM     54  H   UNL A   1      41.347  30.933  35.026  1.00  0.00     0.167 HD
ATOM     55  C   UNL A   1      42.823  28.883  33.741  1.00  0.00     0.074 A 
ATOM     56  C   UNL A   1      43.235  27.907  32.754  1.00  0.00     0.031 C 
ATOM     57  C   UNL A   1      43.494  29.141  34.889  1.00  0.00     0.031 A 
BRANCH  44  58
ATOM     58  C   UNL A   1      40.925  33.501  38.409  1.00  0.00    -0.014 A 
ATOM     59  C   UNL A   1      41.720  34.657  38.463  1.00  0.00     0.009 A 
ATOM     60  C   UNL A   1      40.278  33.063  39.575  1.00  0.00     0.009 A 
ATOM     61  C   UNL A   1      41.873  35.355  39.661  1.00  0.00     0.001 A 
ATOM     62  C   UNL A   1      40.416  33.778  40.767  1.00  0.00     0.001 A 
ATOM     63  C   UNL A   1      41.219  34.918  40.811  1.00  0.00     0.000 A 
ENDBRANCH  44  58
BRANCH  45  64
ATOM     64  C   UNL A   1      40.124  28.336  29.925  1.00  0.00    -0.014 A 
ATOM     65  C   UNL A   1      39.415  27.124  29.940  1.00  0.00     0.009 A 
ATOM     66  C   UNL A   1      40.735  28.753  28.733  1.00  0.00     0.009 A 
ATOM     67  C   UNL A   1      39.343  26.333  28.792  1.00  0.00     0.001 A 
ATOM     68  C   UNL A   1      40.639  27.970  27.580  1.00  0.00     0.001 A 
ATOM     69  C   UNL A   1      39.952  26.758  27.613  1.00  0.00     0.000 A 
ENDBRANCH  45  64
BRANCH  57  70
ATOM     70  C   UNL A   1      44.748  28.361  35.156  1.00  0.00    -0.014 A 
ATOM     71  C   UNL A   1      45.979  28.831  34.671  1.00  0.00     0.009 A 
ATOM     72  C   UNL A   1      44.698  27.116  35.801  1.00  0.00     0.009 A 
ATOM     73  C   UNL A   1      47.135  28.063  34.817  1.00  0.00     0.001 A 
ATOM     74  C   UNL A   1      45.861  26.361  35.966  1.00  0.00     0.001 A 
ATOM     75  C   UNL A   1      47.075  26.830  35.467  1.00  0.00     0.000 A 
ENDBRANCH  57  70
ENDBRANCH  31  32
ENDBRANCH  23  26
ENDBRANCH  21  22
ENDBRANCH  20  21
ENDBRANCH  19  20
ENDBRANCH   1  19
TORSDOF 15
ENDMDL
MODEL 3
REMARK VINA RESULT:     -10.4      5.468      9.945
REMARK SMILES O=C(Cc1ccc(=O)n(C(F)F)c1)NCCCCCCNC(=O)c1ccc(-c2c3nc(c(-c4ccccc4)c4ccc([nH]4)c(-c4ccccc4)c4nc(c(-c5ccccc5)c5ccc2[nH]5)C=C4)C=C3)cc1
REMARK SMILES IDX 17 1 16 2 15 3 14 4 1 5 2 6 3 8 4 9 5 10 13 11 6 12 9 13
REMARK SMILES IDX 7 14 8 15 10 16 11 17 12 18 18 19 19 20 20 21 21 22 22 23
REMARK SMILES IDX 23 25 24 26 25 27 71 28 26 29 70 30 27 31 28 32 29 33 64 34
REMARK SMILES IDX 30 35 69 36 63 37 65 38 31 39 68 40 62 41 61 42 32 44 54 45
REMARK SMILES IDX 39 46 53 47 40 48 43 49 52 50 66 51 41 52 42 53 51 55 67 56
REMARK SMILES IDX 44 57 33 58 34 59 38 60 35 61 37 62 36 63 55 64 56 65 60 66
REMARK SMILES IDX 57 67 59 68 58 69 45 70 46 71 50 72 47 73 49 74 48 75
REMARK H PARENT 14 7 21 24 65 43 43 54
REMARK Flexibility Score: inf
ROOT
ATOM      1  C   UNL A   1      35.069  33.441  28.034  1.00  0.00     0.002 C 
ENDROOT
BRANCH   1   2
ATOM      2  C   UNL A   1      35.076  31.920  27.832  1.00  0.00     0.021 C 
BRANCH   2   3
ATOM      3  C   UNL A   1      33.704  31.274  27.661  1.00  0.00     0.116 C 
BRANCH   3   4
ATOM      4  N   UNL A   1      33.549  30.642  26.369  1.00  0.00    -0.356 N 
ATOM      5  O   UNL A   1      31.917  29.159  27.019  1.00  0.00    -0.275 OA
ATOM      6  C   UNL A   1      32.626  29.641  26.143  1.00  0.00     0.224 C 
ATOM      7  H   UNL A   1      34.122  30.937  25.624  1.00  0.00     0.163 HD
BRANCH   6   8
ATOM      8  C   UNL A   1      32.515  29.233  24.679  1.00  0.00     0.137 C 
BRANCH   8   9
ATOM      9  C   UNL A   1      31.090  29.178  24.172  1.00  0.00    -0.022 A 
ATOM     10  C   UNL A   1      30.592  27.867  23.798  1.00  0.00     0.011 A 
ATOM     11  C   UNL A   1      30.271  30.235  24.023  1.00  0.00     0.099 A 
ATOM     12  C   UNL A   1      29.366  27.715  23.280  1.00  0.00     0.072 A 
ATOM     13  N   UNL A   1      29.002  30.109  23.485  1.00  0.00    -0.258 N 
ATOM     14  C   UNL A   1      28.483  28.894  23.068  1.00  0.00     0.254 A 
ATOM     15  O   UNL A   1      27.386  28.721  22.549  1.00  0.00    -0.269 OA
BRANCH  13  16
ATOM     16  C   UNL A   1      28.185  31.276  23.272  1.00  0.00     0.451 C 
ATOM     17  F   UNL A   1      27.230  31.373  24.230  1.00  0.00    -0.185 F 
ATOM     18  F   UNL A   1      28.922  32.411  23.294  1.00  0.00    -0.185 F 
ENDBRANCH  13  16
ENDBRANCH   8   9
ENDBRANCH   6   8
ENDBRANCH   3   4
ENDBRANCH   2   3
ENDBRANCH   1   2
BRANCH   1  19
ATOM     19  C   UNL A   1      35.443  33.934  29.435  1.00  0.00     0.002 C 
BRANCH  19  20
ATOM     20  C   UNL A   1      34.430  33.629  30.538  1.00  0.00     0.021 C 
BRANCH  20  21
ATOM     21  C   UNL A   1      34.684  32.351  31.328  1.00  0.00     0.116 C 
BRANCH  21  22
ATOM     22  N   UNL A   1      35.215  32.581  32.663  1.00  0.00    -0.352 N 
ATOM     23  C   UNL A   1      36.420  32.170  33.188  1.00  0.00     0.251 C 
ATOM     24  H   UNL A   1      34.638  33.099  33.270  1.00  0.00     0.163 HD
ATOM     25  O   UNL A   1      36.692  32.371  34.367  1.00  0.00    -0.269 OA
BRANCH  23  26
ATOM     26  C   UNL A   1      37.366  31.428  32.325  1.00  0.00     0.039 A 
ATOM     27  C   UNL A   1      38.263  30.514  32.880  1.00  0.00     0.014 A 
ATOM     28  C   UNL A   1      37.402  31.710  30.956  1.00  0.00     0.014 A 
ATOM     29  C   UNL A   1      39.307  30.022  32.105  1.00  0.00     0.010 A 
ATOM     30  C   UNL A   1      38.408  31.154  30.161  1.00  0.00     0.010 A 
ATOM     31  C   UNL A   1      39.406  30.355  30.742  1.00  0.00    -0.014 A 
BRANCH  31  32
ATOM     32  C   UNL A   1      40.579  29.888  29.960  1.00  0.00     0.031 A 
ATOM     33  C   UNL A   1      40.584  28.522  29.326  1.00  0.00     0.074 A 
ATOM     34  C   UNL A   1      41.613  30.726  29.753  1.00  0.00     0.049 A 
ATOM     35  N   UNL A   1      41.499  27.971  28.566  1.00  0.00    -0.248 NA
ATOM     36  C   UNL A   1      39.416  27.661  29.573  1.00  0.00     0.031 C 
ATOM     37  C   UNL A   1      41.716  32.084  30.289  1.00  0.00     0.029 A 
ATOM     38  N   UNL A   1      42.756  30.571  29.009  1.00  0.00    -0.354 N 
ATOM     39  C   UNL A   1      41.027  26.701  28.261  1.00  0.00     0.074 A 
ATOM     40  C   UNL A   1      39.756  26.549  28.934  1.00  0.00     0.031 C 
ATOM     41  C   UNL A   1      42.828  32.660  29.808  1.00  0.00     0.029 A 
ATOM     42  C   UNL A   1      43.545  31.695  28.980  1.00  0.00     0.049 A 
ATOM     43  H   UNL A   1      42.988  29.737  28.543  1.00  0.00     0.167 HD
ATOM     44  C   UNL A   1      41.594  25.751  27.480  1.00  0.00     0.031 A 
ATOM     45  C   UNL A   1      44.717  31.929  28.360  1.00  0.00     0.031 A 
ATOM     46  C   UNL A   1      42.850  25.903  26.795  1.00  0.00     0.049 A 
ATOM     47  C   UNL A   1      45.346  30.844  27.536  1.00  0.00     0.074 A 
ATOM     48  C   UNL A   1      43.492  24.997  25.970  1.00  0.00     0.029 A 
ATOM     49  N   UNL A   1      43.651  27.032  26.852  1.00  0.00    -0.354 N 
ATOM     50  N   UNL A   1      44.884  29.649  27.260  1.00  0.00    -0.248 NA
ATOM     51  C   UNL A   1      46.660  31.136  26.944  1.00  0.00     0.031 C 
ATOM     52  C   UNL A   1      44.706  25.560  25.564  1.00  0.00     0.029 A 
ATOM     53  C   UNL A   1      44.792  26.836  26.094  1.00  0.00     0.049 A 
ATOM     54  H   UNL A   1      43.439  27.851  27.357  1.00  0.00     0.167 HD
ATOM     55  C   UNL A   1      45.846  29.048  26.458  1.00  0.00     0.074 A 
ATOM     56  C   UNL A   1      46.907  30.016  26.275  1.00  0.00     0.031 C 
ATOM     57  C   UNL A   1      45.845  27.803  25.925  1.00  0.00     0.031 A 
BRANCH  44  58
ATOM     58  C   UNL A   1      40.871  24.442  27.325  1.00  0.00    -0.014 A 
ATOM     59  C   UNL A   1      41.394  23.283  27.920  1.00  0.00     0.009 A 
ATOM     60  C   UNL A   1      39.726  24.338  26.521  1.00  0.00     0.009 A 
ATOM     61  C   UNL A   1      40.791  22.043  27.707  1.00  0.00     0.001 A 
ATOM     62  C   UNL A   1      39.111  23.099  26.328  1.00  0.00     0.001 A 
ATOM     63  C   UNL A   1      39.647  21.952  26.914  1.00  0.00     0.000 A 
ENDBRANCH  44  58
BRANCH  45  64
ATOM     64  C   UNL A   1      45.360  33.260  28.499  1.00  0.00    -0.014 A 
ATOM     65  C   UNL A   1      46.138  33.560  29.629  1.00  0.00     0.009 A 
ATOM     66  C   UNL A   1      45.154  34.254  27.532  1.00  0.00     0.009 A 
ATOM     67  C   UNL A   1      46.676  34.837  29.800  1.00  0.00     0.001 A 
ATOM     68  C   UNL A   1      45.715  35.523  27.694  1.00  0.00     0.001 A 
ATOM     69  C   UNL A   1      46.466  35.816  28.831  1.00  0.00     0.000 A 
ENDBRANCH  45  64
BRANCH  57  70
ATOM     70  C   UNL A   1      47.023  27.402  25.086  1.00  0.00    -0.014 A 
ATOM     71  C   UNL A   1      48.092  26.706  25.671  1.00  0.00     0.009 A 
ATOM     72  C   UNL A   1      47.118  27.796  23.742  1.00  0.00     0.009 A 
ATOM     73  C   UNL A   1      49.240  26.422  24.930  1.00  0.00     0.001 A 
ATOM     74  C   UNL A   1      48.257  27.489  22.998  1.00  0.00     0.001 A 
ATOM     75  C   UNL A   1      49.320  26.811  23.594  1.00  0.00     0.000 A 
ENDBRANCH  57  70
ENDBRANCH  31  32
ENDBRANCH  23  26
ENDBRANCH  21  22
ENDBRANCH  20  21
ENDBRANCH  19  20
ENDBRANCH   1  19
TORSDOF 15
ENDMDL
