MODEL 1
REMARK VINA RESULT:     -11.6      0.000      0.000
REMARK SMILES CCCc1cc2c(cc1Cl)C=C(C(=O)NCCCCCCNC(=O)c1ccc(-c3c4nc(c(-c5ccccc5)c5ccc([nH]5)c(-c5ccccc5)c5nc(c(-c6ccccc6)c6ccc3[nH]6)C=C5)C=C4)cc1)[C@H](C(F)(F)F)O2
REMARK SMILES IDX 18 1 17 2 16 3 15 4 13 5 14 6 12 8 4 9 5 10 9 11 6 12 8 13
REMARK SMILES IDX 10 14 7 15 78 16 11 17 73 18 3 19 2 20 1 21 74 22 75 23
REMARK SMILES IDX 76 24 77 25 19 26 20 27 21 28 22 29 23 30 24 32 25 33 26 34
REMARK SMILES IDX 72 35 27 36 71 37 28 38 29 39 30 40 65 41 31 42 70 43 64 44
REMARK SMILES IDX 66 45 32 46 69 47 63 48 62 49 33 51 55 52 40 53 54 54 41 55
REMARK SMILES IDX 44 56 53 57 67 58 42 59 43 60 52 62 68 63 45 64 34 65 35 66
REMARK SMILES IDX 39 67 36 68 38 69 37 70 56 71 57 72 61 73 58 74 60 75 59 76
REMARK SMILES IDX 46 77 47 78 51 79 48 80 50 81 49 82
REMARK H PARENT 15 7 22 31 66 50 44 61
REMARK Flexibility Score: inf
ROOT
ATOM      1  C   UNL A   1      37.301  22.030  24.242  1.00  0.00     0.002 C 
ENDROOT
BRANCH   1   2
ATOM      2  C   UNL A   1      36.393  23.221  24.570  1.00  0.00     0.021 C 
BRANCH   2   3
ATOM      3  C   UNL A   1      36.402  23.633  26.042  1.00  0.00     0.116 C 
BRANCH   3   4
ATOM      4  N   UNL A   1      35.509  22.797  26.820  1.00  0.00    -0.352 N 
ATOM      5  C   UNL A   1      34.175  22.612  26.937  1.00  0.00     0.251 C 
ATOM      6  O   UNL A   1      33.839  21.755  27.762  1.00  0.00    -0.270 OA
ATOM      7  H   UNL A   1      36.009  22.204  27.426  1.00  0.00     0.163 HD
BRANCH   5   8
ATOM      8  C   UNL A   1      33.124  23.336  26.158  1.00  0.00     0.067 C 
ATOM      9  C   UNL A   1      30.334  27.074  24.131  1.00  0.00    -0.026 A 
ATOM     10  C   UNL A   1      30.320  25.661  24.074  1.00  0.00     0.052 A 
ATOM     11  C   UNL A   1      31.274  27.667  24.991  1.00  0.00     0.045 A 
ATOM     12  C   UNL A   1      31.229  24.882  24.792  1.00  0.00     0.128 A 
ATOM     13  C   UNL A   1      32.209  26.879  25.684  1.00  0.00     0.032 A 
ATOM     14  Cl  UNL A   1      31.350  29.356  25.332  1.00  0.00    -0.084 Cl
ATOM     15  C   UNL A   1      32.191  25.487  25.583  1.00  0.00     0.019 A 
ATOM     16  O   UNL A   1      31.077  23.532  24.699  1.00  0.00    -0.475 OA
ATOM     17  C   UNL A   1      33.139  24.671  26.321  1.00  0.00     0.025 C 
ATOM     18  C   UNL A   1      32.142  22.685  25.219  1.00  0.00     0.314 C 
BRANCH   9  19
ATOM     19  C   UNL A   1      29.258  27.762  23.313  1.00  0.00     0.037 C 
BRANCH  19  20
ATOM     20  C   UNL A   1      29.550  28.981  22.434  1.00  0.00     0.001 C 
ATOM     21  C   UNL A   1      28.829  30.249  22.868  1.00  0.00     0.004 C 
ENDBRANCH  19  20
ENDBRANCH   9  19
BRANCH  18  22
ATOM     22  C   UNL A   1      32.796  21.959  24.031  1.00  0.00     0.429 C 
ATOM     23  F   UNL A   1      33.678  21.010  24.421  1.00  0.00    -0.167 F 
ATOM     24  F   UNL A   1      31.904  21.350  23.219  1.00  0.00    -0.167 F 
ATOM     25  F   UNL A   1      33.479  22.846  23.261  1.00  0.00    -0.167 F 
ENDBRANCH  18  22
ENDBRANCH   5   8
ENDBRANCH   3   4
ENDBRANCH   2   3
ENDBRANCH   1   2
BRANCH   1  26
ATOM     26  C   UNL A   1      36.959  20.720  24.961  1.00  0.00     0.002 C 
BRANCH  26  27
ATOM     27  C   UNL A   1      38.069  19.668  24.972  1.00  0.00     0.021 C 
BRANCH  27  28
ATOM     28  C   UNL A   1      39.322  20.068  25.742  1.00  0.00     0.116 C 
BRANCH  28  29
ATOM     29  N   UNL A   1      40.276  18.978  25.862  1.00  0.00    -0.352 N 
ATOM     30  C   UNL A   1      41.628  19.034  26.110  1.00  0.00     0.251 C 
ATOM     31  H   UNL A   1      39.902  18.074  25.748  1.00  0.00     0.163 HD
ATOM     32  O   UNL A   1      42.322  18.030  26.027  1.00  0.00    -0.269 OA
BRANCH  30  33
ATOM     33  C   UNL A   1      42.242  20.336  26.445  1.00  0.00     0.039 A 
ATOM     34  C   UNL A   1      42.183  20.832  27.749  1.00  0.00     0.014 A 
ATOM     35  C   UNL A   1      42.845  21.082  25.429  1.00  0.00     0.014 A 
ATOM     36  C   UNL A   1      42.580  22.139  28.003  1.00  0.00     0.010 A 
ATOM     37  C   UNL A   1      43.314  22.370  25.706  1.00  0.00     0.010 A 
ATOM     38  C   UNL A   1      43.141  22.925  26.983  1.00  0.00    -0.014 A 
BRANCH  38  39
ATOM     39  C   UNL A   1      43.534  24.327  27.270  1.00  0.00     0.031 A 
ATOM     40  C   UNL A   1      42.516  25.327  27.750  1.00  0.00     0.074 A 
ATOM     41  C   UNL A   1      44.826  24.687  27.149  1.00  0.00     0.049 A 
ATOM     42  N   UNL A   1      42.687  26.587  28.065  1.00  0.00    -0.248 NA
ATOM     43  C   UNL A   1      41.130  24.857  27.902  1.00  0.00     0.031 C 
ATOM     44  C   UNL A   1      45.909  23.799  26.720  1.00  0.00     0.029 A 
ATOM     45  N   UNL A   1      45.453  25.881  27.400  1.00  0.00    -0.354 N 
ATOM     46  C   UNL A   1      41.434  27.062  28.430  1.00  0.00     0.074 A 
ATOM     47  C   UNL A   1      40.505  25.964  28.279  1.00  0.00     0.031 C 
ATOM     48  C   UNL A   1      47.072  24.462  26.791  1.00  0.00     0.029 A 
ATOM     49  C   UNL A   1      46.812  25.837  27.206  1.00  0.00     0.049 A 
ATOM     50  H   UNL A   1      44.974  26.691  27.692  1.00  0.00     0.167 HD
ATOM     51  C   UNL A   1      41.093  28.298  28.862  1.00  0.00     0.031 A 
ATOM     52  C   UNL A   1      47.747  26.797  27.332  1.00  0.00     0.031 A 
ATOM     53  C   UNL A   1      42.021  29.386  29.023  1.00  0.00     0.049 A 
ATOM     54  C   UNL A   1      47.332  28.176  27.756  1.00  0.00     0.074 A 
ATOM     55  C   UNL A   1      41.767  30.670  29.473  1.00  0.00     0.029 A 
ATOM     56  N   UNL A   1      43.376  29.320  28.743  1.00  0.00    -0.354 N 
ATOM     57  N   UNL A   1      46.143  28.606  28.098  1.00  0.00    -0.248 NA
ATOM     58  C   UNL A   1      48.384  29.201  27.804  1.00  0.00     0.031 C 
ATOM     59  C   UNL A   1      42.959  31.396  29.416  1.00  0.00     0.029 A 
ATOM     60  C   UNL A   1      43.966  30.548  28.985  1.00  0.00     0.049 A 
ATOM     61  H   UNL A   1      43.849  28.518  28.420  1.00  0.00     0.167 HD
ATOM     62  C   UNL A   1      46.301  29.949  28.408  1.00  0.00     0.074 A 
ATOM     63  C   UNL A   1      47.706  30.258  28.235  1.00  0.00     0.031 C 
ATOM     64  C   UNL A   1      45.364  30.844  28.800  1.00  0.00     0.031 A 
BRANCH  51  65
ATOM     65  C   UNL A   1      39.648  28.562  29.182  1.00  0.00    -0.014 A 
ATOM     66  C   UNL A   1      38.804  29.102  28.198  1.00  0.00     0.009 A 
ATOM     67  C   UNL A   1      39.145  28.368  30.478  1.00  0.00     0.009 A 
ATOM     68  C   UNL A   1      37.488  29.452  28.506  1.00  0.00     0.001 A 
ATOM     69  C   UNL A   1      37.820  28.697  30.777  1.00  0.00     0.001 A 
ATOM     70  C   UNL A   1      36.997  29.246  29.793  1.00  0.00     0.000 A 
ENDBRANCH  51  65
BRANCH  52  71
ATOM     71  C   UNL A   1      49.168  26.468  27.047  1.00  0.00    -0.014 A 
ATOM     72  C   UNL A   1      49.666  26.542  25.736  1.00  0.00     0.009 A 
ATOM     73  C   UNL A   1      50.014  26.020  28.072  1.00  0.00     0.009 A 
ATOM     74  C   UNL A   1      50.975  26.145  25.452  1.00  0.00     0.001 A 
ATOM     75  C   UNL A   1      51.331  25.651  27.788  1.00  0.00     0.001 A 
ATOM     76  C   UNL A   1      51.806  25.703  26.479  1.00  0.00     0.000 A 
ENDBRANCH  52  71
BRANCH  64  77
ATOM     77  C   UNL A   1      45.810  32.250  29.076  1.00  0.00    -0.014 A 
ATOM     78  C   UNL A   1      45.841  33.191  28.034  1.00  0.00     0.009 A 
ATOM     79  C   UNL A   1      46.300  32.614  30.339  1.00  0.00     0.009 A 
ATOM     80  C   UNL A   1      46.369  34.465  28.247  1.00  0.00     0.001 A 
ATOM     81  C   UNL A   1      46.806  33.898  30.555  1.00  0.00     0.001 A 
ATOM     82  C   UNL A   1      46.848  34.818  29.507  1.00  0.00     0.000 A 
ENDBRANCH  64  77
ENDBRANCH  38  39
ENDBRANCH  30  33
ENDBRANCH  28  29
ENDBRANCH  27  28
ENDBRANCH  26  27
ENDBRANCH   1  26
TORSDOF 16
ENDMDL
MODEL 2
REMARK VINA RESULT:     -11.6      0.461      5.801
REMARK SMILES CCCc1cc2c(cc1Cl)C=C(C(=O)NCCCCCCNC(=O)c1ccc(-c3c4nc(c(-c5ccccc5)c5ccc([nH]5)c(-c5ccccc5)c5nc(c(-c6ccccc6)c6ccc3[nH]6)C=C5)C=C4)cc1)[C@H](C(F)(F)F)O2
REMARK SMILES IDX 18 1 17 2 16 3 15 4 13 5 14 6 12 8 4 9 5 10 9 11 6 12 8 13
REMARK SMILES IDX 10 14 7 15 78 16 11 17 73 18 3 19 2 20 1 21 74 22 75 23
REMARK SMILES IDX 76 24 77 25 19 26 20 27 21 28 22 29 23 30 24 32 25 33 26 34
REMARK SMILES IDX 72 35 27 36 71 37 28 38 29 39 30 40 65 41 31 42 70 43 64 44
REMARK SMILES IDX 66 45 32 46 69 47 63 48 62 49 33 51 55 52 40 53 54 54 41 55
REMARK SMILES IDX 44 56 53 57 67 58 42 59 43 60 52 62 68 63 45 64 34 65 35 66
REMARK SMILES IDX 39 67 36 68 38 69 37 70 56 71 57 72 61 73 58 74 60 75 59 76
REMARK SMILES IDX 46 77 47 78 51 79 48 80 50 81 49 82
REMARK H PARENT 15 7 22 31 66 50 44 61
REMARK Flexibility Score: inf
ROOT
ATOM      1  C   UNL A   1      37.339  22.100  24.426  1.00  0.00     0.002 C 
ENDROOT
BRANCH   1   2
ATOM      2  C   UNL A   1      36.327  23.228  24.655  1.00  0.00     0.021 C 
BRANCH   2   3
ATOM      3  C   UNL A   1      36.202  23.675  26.112  1.00  0.00     0.116 C 
BRANCH   3   4
ATOM      4  N   UNL A   1      35.184  22.911  26.805  1.00  0.00    -0.352 N 
ATOM      5  C   UNL A   1      33.836  22.808  26.781  1.00  0.00     0.251 C 
ATOM      6  O   UNL A   1      33.364  21.991  27.581  1.00  0.00    -0.270 OA
ATOM      7  H   UNL A   1      35.580  22.305  27.471  1.00  0.00     0.163 HD
BRANCH   5   8
ATOM      8  C   UNL A   1      32.919  23.573  25.882  1.00  0.00     0.067 C 
ATOM      9  C   UNL A   1      30.490  27.418  23.606  1.00  0.00    -0.026 A 
ATOM     10  C   UNL A   1      30.475  26.008  23.493  1.00  0.00     0.052 A 
ATOM     11  C   UNL A   1      31.293  27.966  24.620  1.00  0.00     0.045 A 
ATOM     12  C   UNL A   1      31.261  25.192  24.308  1.00  0.00     0.128 A 
ATOM     13  C   UNL A   1      32.107  27.141  25.414  1.00  0.00     0.032 A 
ATOM     14  Cl  UNL A   1      31.326  29.640  25.034  1.00  0.00    -0.084 Cl
ATOM     15  C   UNL A   1      32.096  25.755  25.257  1.00  0.00     0.019 A 
ATOM     16  O   UNL A   1      31.117  23.848  24.141  1.00  0.00    -0.475 OA
ATOM     17  C   UNL A   1      32.917  24.900  26.098  1.00  0.00     0.025 C 
ATOM     18  C   UNL A   1      32.086  22.969  24.782  1.00  0.00     0.314 C 
BRANCH   9  19
ATOM     19  C   UNL A   1      29.553  28.148  22.663  1.00  0.00     0.037 C 
BRANCH  19  20
ATOM     20  C   UNL A   1      28.243  28.782  23.138  1.00  0.00     0.001 C 
ATOM     21  C   UNL A   1      28.287  30.300  23.240  1.00  0.00     0.004 C 
ENDBRANCH  19  20
ENDBRANCH   9  19
BRANCH  18  22
ATOM     22  C   UNL A   1      32.907  22.280  23.678  1.00  0.00     0.429 C 
ATOM     23  F   UNL A   1      33.704  21.298  24.157  1.00  0.00    -0.167 F 
ATOM     24  F   UNL A   1      32.144  21.726  22.711  1.00  0.00    -0.167 F 
ATOM     25  F   UNL A   1      33.715  23.185  23.064  1.00  0.00    -0.167 F 
ENDBRANCH  18  22
ENDBRANCH   5   8
ENDBRANCH   3   4
ENDBRANCH   2   3
ENDBRANCH   1   2
BRANCH   1  26
ATOM     26  C   UNL A   1      36.935  20.726  24.973  1.00  0.00     0.002 C 
BRANCH  26  27
ATOM     27  C   UNL A   1      38.042  19.670  24.979  1.00  0.00     0.021 C 
BRANCH  27  28
ATOM     28  C   UNL A   1      39.282  20.047  25.779  1.00  0.00     0.116 C 
BRANCH  28  29
ATOM     29  N   UNL A   1      40.259  18.972  25.834  1.00  0.00    -0.352 N 
ATOM     30  C   UNL A   1      41.611  19.042  26.082  1.00  0.00     0.251 C 
ATOM     31  H   UNL A   1      39.904  18.068  25.670  1.00  0.00     0.163 HD
ATOM     32  O   UNL A   1      42.326  18.059  25.940  1.00  0.00    -0.269 OA
BRANCH  30  33
ATOM     33  C   UNL A   1      42.199  20.336  26.489  1.00  0.00     0.039 A 
ATOM     34  C   UNL A   1      42.162  20.742  27.825  1.00  0.00     0.014 A 
ATOM     35  C   UNL A   1      42.754  21.166  25.511  1.00  0.00     0.014 A 
ATOM     36  C   UNL A   1      42.530  22.039  28.157  1.00  0.00     0.010 A 
ATOM     37  C   UNL A   1      43.196  22.444  25.863  1.00  0.00     0.010 A 
ATOM     38  C   UNL A   1      43.043  22.907  27.179  1.00  0.00    -0.014 A 
BRANCH  38  39
ATOM     39  C   UNL A   1      43.406  24.298  27.551  1.00  0.00     0.031 A 
ATOM     40  C   UNL A   1      44.833  24.767  27.466  1.00  0.00     0.074 A 
ATOM     41  C   UNL A   1      42.435  25.156  27.915  1.00  0.00     0.049 A 
ATOM     42  N   UNL A   1      45.326  25.951  27.736  1.00  0.00    -0.248 NA
ATOM     43  C   UNL A   1      45.839  23.790  27.019  1.00  0.00     0.031 C 
ATOM     44  C   UNL A   1      41.011  24.826  28.008  1.00  0.00     0.029 A 
ATOM     45  N   UNL A   1      42.491  26.485  28.250  1.00  0.00    -0.354 N 
ATOM     46  C   UNL A   1      46.694  25.854  27.511  1.00  0.00     0.074 A 
ATOM     47  C   UNL A   1      46.960  24.492  27.104  1.00  0.00     0.031 C 
ATOM     48  C   UNL A   1      40.324  25.934  28.320  1.00  0.00     0.029 A 
ATOM     49  C   UNL A   1      41.261  27.036  28.514  1.00  0.00     0.049 A 
ATOM     50  H   UNL A   1      43.333  26.995  28.296  1.00  0.00     0.167 HD
ATOM     51  C   UNL A   1      47.638  26.817  27.625  1.00  0.00     0.031 A 
ATOM     52  C   UNL A   1      40.920  28.285  28.886  1.00  0.00     0.031 A 
ATOM     53  C   UNL A   1      47.369  28.175  28.018  1.00  0.00     0.049 A 
ATOM     54  C   UNL A   1      41.995  29.318  29.060  1.00  0.00     0.074 A 
ATOM     55  C   UNL A   1      48.263  29.224  28.143  1.00  0.00     0.029 A 
ATOM     56  N   UNL A   1      46.119  28.671  28.349  1.00  0.00    -0.354 N 
ATOM     57  N   UNL A   1      43.282  29.208  28.843  1.00  0.00    -0.248 NA
ATOM     58  C   UNL A   1      41.572  30.641  29.539  1.00  0.00     0.031 C 
ATOM     59  C   UNL A   1      47.561  30.342  28.599  1.00  0.00     0.029 A 
ATOM     60  C   UNL A   1      46.221  30.005  28.704  1.00  0.00     0.049 A 
ATOM     61  H   UNL A   1      45.281  28.151  28.334  1.00  0.00     0.167 HD
ATOM     62  C   UNL A   1      43.824  30.448  29.151  1.00  0.00     0.074 A 
ATOM     63  C   UNL A   1      42.724  31.301  29.550  1.00  0.00     0.031 C 
ATOM     64  C   UNL A   1      45.120  30.840  29.107  1.00  0.00     0.031 A 
BRANCH  51  65
ATOM     65  C   UNL A   1      49.065  26.445  27.335  1.00  0.00    -0.014 A 
ATOM     66  C   UNL A   1      49.545  26.498  26.017  1.00  0.00     0.009 A 
ATOM     67  C   UNL A   1      49.905  25.950  28.345  1.00  0.00     0.009 A 
ATOM     68  C   UNL A   1      50.834  26.056  25.712  1.00  0.00     0.001 A 
ATOM     69  C   UNL A   1      51.203  25.530  28.041  1.00  0.00     0.001 A 
ATOM     70  C   UNL A   1      51.662  25.576  26.725  1.00  0.00     0.000 A 
ENDBRANCH  51  65
BRANCH  52  71
ATOM     71  C   UNL A   1      39.488  28.609  29.113  1.00  0.00    -0.014 A 
ATOM     72  C   UNL A   1      38.701  29.126  28.071  1.00  0.00     0.009 A 
ATOM     73  C   UNL A   1      38.919  28.461  30.386  1.00  0.00     0.009 A 
ATOM     74  C   UNL A   1      37.382  29.517  28.306  1.00  0.00     0.001 A 
ATOM     75  C   UNL A   1      37.589  28.828  30.611  1.00  0.00     0.001 A 
ATOM     76  C   UNL A   1      36.826  29.365  29.575  1.00  0.00     0.000 A 
ENDBRANCH  52  71
BRANCH  64  77
ATOM     77  C   UNL A   1      45.436  32.255  29.496  1.00  0.00    -0.014 A 
ATOM     78  C   UNL A   1      45.695  32.569  30.840  1.00  0.00     0.009 A 
ATOM     79  C   UNL A   1      45.374  33.291  28.552  1.00  0.00     0.009 A 
ATOM     80  C   UNL A   1      45.869  33.896  31.234  1.00  0.00     0.001 A 
ATOM     81  C   UNL A   1      45.572  34.616  28.948  1.00  0.00     0.001 A 
ATOM     82  C   UNL A   1      45.811  34.917  30.288  1.00  0.00     0.000 A 
ENDBRANCH  64  77
ENDBRANCH  38  39
ENDBRANCH  30  33
ENDBRANCH  28  29
ENDBRANCH  27  28
ENDBRANCH  26  27
ENDBRANCH   1  26
TORSDOF 16
ENDMDL
MODEL 3
REMARK VINA RESULT:     -11.5      1.599      6.153
REMARK SMILES CCCc1cc2c(cc1Cl)C=C(C(=O)NCCCCCCNC(=O)c1ccc(-c3c4nc(c(-c5ccccc5)c5ccc([nH]5)c(-c5ccccc5)c5nc(c(-c6ccccc6)c6ccc3[nH]6)C=C5)C=C4)cc1)[C@H](C(F)(F)F)O2
REMARK SMILES IDX 18 1 17 2 16 3 15 4 13 5 14 6 12 8 4 9 5 10 9 11 6 12 8 13
REMARK SMILES IDX 10 14 7 15 78 16 11 17 73 18 3 19 2 20 1 21 74 22 75 23
REMARK SMILES IDX 76 24 77 25 19 26 20 27 21 28 22 29 23 30 24 32 25 33 26 34
REMARK SMILES IDX 72 35 27 36 71 37 28 38 29 39 30 40 65 41 31 42 70 43 64 44
REMARK SMILES IDX 66 45 32 46 69 47 63 48 62 49 33 51 55 52 40 53 54 54 41 55
REMARK SMILES IDX 44 56 53 57 67 58 42 59 43 60 52 62 68 63 45 64 34 65 35 66
REMARK SMILES IDX 39 67 36 68 38 69 37 70 56 71 57 72 61 73 58 74 60 75 59 76
REMARK SMILES IDX 46 77 47 78 51 79 48 80 50 81 49 82
REMARK H PARENT 15 7 22 31 66 50 44 61
REMARK Flexibility Score: inf
ROOT
ATOM      1  C   UNL A   1      36.560  22.186  24.139  1.00  0.00     0.002 C 
ENDROOT
BRANCH   1   2
ATOM      2  C   UNL A   1      35.505  23.225  24.536  1.00  0.00     0.021 C 
BRANCH   2   3
ATOM      3  C   UNL A   1      34.111  22.954  23.971  1.00  0.00     0.116 C 
BRANCH   3   4
ATOM      4  N   UNL A   1      33.111  22.985  25.020  1.00  0.00    -0.352 N 
ATOM      5  C   UNL A   1      32.135  23.824  25.434  1.00  0.00     0.251 C 
ATOM      6  O   UNL A   1      31.494  23.431  26.415  1.00  0.00    -0.270 OA
ATOM      7  H   UNL A   1      33.153  22.177  25.580  1.00  0.00     0.163 HD
BRANCH   5   8
ATOM      8  C   UNL A   1      31.787  25.134  24.803  1.00  0.00     0.067 C 
ATOM      9  C   UNL A   1      29.111  29.074  23.020  1.00  0.00    -0.026 A 
ATOM     10  C   UNL A   1      30.484  28.743  23.103  1.00  0.00     0.052 A 
ATOM     11  C   UNL A   1      28.195  28.100  23.449  1.00  0.00     0.045 A 
ATOM     12  C   UNL A   1      30.921  27.530  23.637  1.00  0.00     0.128 A 
ATOM     13  C   UNL A   1      28.642  26.895  24.017  1.00  0.00     0.032 A 
ATOM     14  Cl  UNL A   1      26.483  28.234  23.280  1.00  0.00    -0.084 Cl
ATOM     15  C   UNL A   1      30.004  26.609  24.116  1.00  0.00     0.019 A 
ATOM     16  O   UNL A   1      32.264  27.304  23.611  1.00  0.00    -0.475 OA
ATOM     17  C   UNL A   1      30.467  25.352  24.677  1.00  0.00     0.025 C 
ATOM     18  C   UNL A   1      32.785  26.178  24.375  1.00  0.00     0.314 C 
BRANCH   9  19
ATOM     19  C   UNL A   1      28.812  30.419  22.386  1.00  0.00     0.037 C 
BRANCH  19  20
ATOM     20  C   UNL A   1      28.137  31.556  23.157  1.00  0.00     0.001 C 
ATOM     21  C   UNL A   1      28.818  32.907  22.996  1.00  0.00     0.004 C 
ENDBRANCH  19  20
ENDBRANCH   9  19
BRANCH  18  22
ATOM     22  C   UNL A   1      33.641  26.739  25.525  1.00  0.00     0.429 C 
ATOM     23  F   UNL A   1      34.152  27.961  25.246  1.00  0.00    -0.167 F 
ATOM     24  F   UNL A   1      32.964  26.856  26.687  1.00  0.00    -0.167 F 
ATOM     25  F   UNL A   1      34.692  25.913  25.769  1.00  0.00    -0.167 F 
ENDBRANCH  18  22
ENDBRANCH   5   8
ENDBRANCH   3   4
ENDBRANCH   2   3
ENDBRANCH   1   2
BRANCH   1  26
ATOM     26  C   UNL A   1      36.598  20.918  25.000  1.00  0.00     0.002 C 
BRANCH  26  27
ATOM     27  C   UNL A   1      37.838  20.041  24.824  1.00  0.00     0.021 C 
BRANCH  27  28
ATOM     28  C   UNL A   1      38.960  20.311  25.818  1.00  0.00     0.116 C 
BRANCH  28  29
ATOM     29  N   UNL A   1      39.945  19.242  25.854  1.00  0.00    -0.352 N 
ATOM     30  C   UNL A   1      41.295  19.316  26.109  1.00  0.00     0.251 C 
ATOM     31  H   UNL A   1      39.596  18.340  25.669  1.00  0.00     0.163 HD
ATOM     32  O   UNL A   1      42.017  18.341  25.948  1.00  0.00    -0.269 OA
BRANCH  30  33
ATOM     33  C   UNL A   1      41.872  20.604  26.546  1.00  0.00     0.039 A 
ATOM     34  C   UNL A   1      41.928  20.931  27.903  1.00  0.00     0.014 A 
ATOM     35  C   UNL A   1      42.323  21.508  25.580  1.00  0.00     0.014 A 
ATOM     36  C   UNL A   1      42.281  22.220  28.282  1.00  0.00     0.010 A 
ATOM     37  C   UNL A   1      42.751  22.779  25.972  1.00  0.00     0.010 A 
ATOM     38  C   UNL A   1      42.687  23.160  27.321  1.00  0.00    -0.014 A 
BRANCH  38  39
ATOM     39  C   UNL A   1      43.035  24.539  27.747  1.00  0.00     0.031 A 
ATOM     40  C   UNL A   1      44.469  24.996  27.773  1.00  0.00     0.074 A 
ATOM     41  C   UNL A   1      42.049  25.400  28.059  1.00  0.00     0.049 A 
ATOM     42  N   UNL A   1      44.952  26.169  28.101  1.00  0.00    -0.248 NA
ATOM     43  C   UNL A   1      45.495  24.017  27.378  1.00  0.00     0.031 C 
ATOM     44  C   UNL A   1      40.619  25.083  28.043  1.00  0.00     0.029 A 
ATOM     45  N   UNL A   1      42.092  26.722  28.424  1.00  0.00    -0.354 N 
ATOM     46  C   UNL A   1      46.331  26.063  27.972  1.00  0.00     0.074 A 
ATOM     47  C   UNL A   1      46.614  24.706  27.557  1.00  0.00     0.031 C 
ATOM     48  C   UNL A   1      39.921  26.191  28.329  1.00  0.00     0.029 A 
ATOM     49  C   UNL A   1      40.851  27.280  28.612  1.00  0.00     0.049 A 
ATOM     50  H   UNL A   1      42.933  27.222  28.541  1.00  0.00     0.167 HD
ATOM     51  C   UNL A   1      47.273  27.013  28.172  1.00  0.00     0.031 A 
ATOM     52  C   UNL A   1      40.496  28.524  28.984  1.00  0.00     0.031 A 
ATOM     53  C   UNL A   1      46.988  28.366  28.574  1.00  0.00     0.049 A 
ATOM     54  C   UNL A   1      41.564  29.542  29.256  1.00  0.00     0.074 A 
ATOM     55  C   UNL A   1      47.880  29.403  28.784  1.00  0.00     0.029 A 
ATOM     56  N   UNL A   1      45.722  28.867  28.826  1.00  0.00    -0.354 N 
ATOM     57  N   UNL A   1      42.862  29.424  29.128  1.00  0.00    -0.248 NA
ATOM     58  C   UNL A   1      41.120  30.860  29.730  1.00  0.00     0.031 C 
ATOM     59  C   UNL A   1      47.158  30.519  29.212  1.00  0.00     0.029 A 
ATOM     60  C   UNL A   1      45.811  30.193  29.214  1.00  0.00     0.049 A 
ATOM     61  H   UNL A   1      44.884  28.357  28.740  1.00  0.00     0.167 HD
ATOM     62  C   UNL A   1      43.393  30.651  29.499  1.00  0.00     0.074 A 
ATOM     63  C   UNL A   1      42.274  31.508  29.837  1.00  0.00     0.031 C 
ATOM     64  C   UNL A   1      44.691  31.031  29.556  1.00  0.00     0.031 A 
BRANCH  51  65
ATOM     65  C   UNL A   1      48.714  26.632  27.977  1.00  0.00    -0.014 A 
ATOM     66  C   UNL A   1      49.274  26.663  26.690  1.00  0.00     0.009 A 
ATOM     67  C   UNL A   1      49.489  26.152  29.045  1.00  0.00     0.009 A 
ATOM     68  C   UNL A   1      50.578  26.212  26.472  1.00  0.00     0.001 A 
ATOM     69  C   UNL A   1      50.801  25.724  28.828  1.00  0.00     0.001 A 
ATOM     70  C   UNL A   1      51.341  25.747  27.542  1.00  0.00     0.000 A 
ENDBRANCH  51  65
BRANCH  52  71
ATOM     71  C   UNL A   1      39.054  28.858  29.116  1.00  0.00    -0.014 A 
ATOM     72  C   UNL A   1      38.341  29.377  28.023  1.00  0.00     0.009 A 
ATOM     73  C   UNL A   1      38.401  28.718  30.349  1.00  0.00     0.009 A 
ATOM     74  C   UNL A   1      37.011  29.777  28.170  1.00  0.00     0.001 A 
ATOM     75  C   UNL A   1      37.063  29.094  30.485  1.00  0.00     0.001 A 
ATOM     76  C   UNL A   1      36.373  29.632  29.400  1.00  0.00     0.000 A 
ENDBRANCH  52  71
BRANCH  64  77
ATOM     77  C   UNL A   1      44.992  32.435  29.994  1.00  0.00    -0.014 A 
ATOM     78  C   UNL A   1      45.075  33.462  29.040  1.00  0.00     0.009 A 
ATOM     79  C   UNL A   1      45.296  32.720  31.334  1.00  0.00     0.009 A 
ATOM     80  C   UNL A   1      45.474  34.745  29.416  1.00  0.00     0.001 A 
ATOM     81  C   UNL A   1      45.672  34.012  31.710  1.00  0.00     0.001 A 
ATOM     82  C   UNL A   1      45.769  35.019  30.750  1.00  0.00     0.000 A 
ENDBRANCH  64  77
ENDBRANCH  38  39
ENDBRANCH  30  33
ENDBRANCH  28  29
ENDBRANCH  27  28
ENDBRANCH  26  27
ENDBRANCH   1  26
TORSDOF 16
ENDMDL
