MODEL 1
REMARK VINA RESULT:     -11.3      0.000      0.000
REMARK SMILES Cc1cc(C)cc(-c2cccc(Cl)c2C(=O)NCCCCCCNC(=O)c2ccc(-c3c4nc(c(-c5ccccc5)c5ccc([nH]5)c(-c5ccccc5)c5nc(c(-c6ccccc6)c6ccc3[nH]6)C=C5)C=C4)cc2)c1
REMARK SMILES IDX 21 1 20 2 19 3 18 4 17 5 15 6 16 7 14 9 8 10 9 11 10 12
REMARK SMILES IDX 12 13 11 14 13 15 7 16 1 17 2 18 3 19 75 20 4 21 5 22 6 23
REMARK SMILES IDX 22 24 23 25 24 26 25 27 26 29 27 30 28 31 74 32 29 33 73 34
REMARK SMILES IDX 30 35 31 36 32 37 67 38 33 39 72 40 66 41 68 42 34 43 71 44
REMARK SMILES IDX 65 45 64 46 35 48 57 49 42 50 56 51 43 52 46 53 55 54 69 55
REMARK SMILES IDX 44 56 45 57 54 59 70 60 47 61 36 62 37 63 41 64 38 65 40 66
REMARK SMILES IDX 39 67 58 68 59 69 63 70 60 71 62 72 61 73 48 74 49 75 53 76
REMARK SMILES IDX 50 77 52 78 51 79
REMARK H PARENT 17 8 24 28 68 47 46 58
REMARK Flexibility Score: inf
ROOT
ATOM      1  C   UNL A   1      31.382  27.258  26.528  1.00  0.00     0.002 C 
ENDROOT
BRANCH   1   2
ATOM      2  C   UNL A   1      31.697  25.758  26.496  1.00  0.00     0.002 C 
BRANCH   2   3
ATOM      3  C   UNL A   1      30.653  24.828  25.868  1.00  0.00     0.021 C 
BRANCH   3   4
ATOM      4  C   UNL A   1      31.012  23.348  25.755  1.00  0.00     0.116 C 
BRANCH   4   5
ATOM      5  N   UNL A   1      31.290  22.867  24.414  1.00  0.00    -0.352 N 
ATOM      6  C   UNL A   1      32.449  22.333  23.878  1.00  0.00     0.253 C 
ATOM      7  O   UNL A   1      32.358  21.718  22.819  1.00  0.00    -0.269 OA
ATOM      8  H   UNL A   1      30.534  22.931  23.786  1.00  0.00     0.163 HD
BRANCH   6   9
ATOM      9  C   UNL A   1      33.789  22.549  24.503  1.00  0.00     0.066 A 
ATOM     10  C   UNL A   1      34.398  23.831  24.425  1.00  0.00    -0.004 A 
ATOM     11  C   UNL A   1      35.604  24.058  25.128  1.00  0.00     0.009 A 
ATOM     12  C   UNL A   1      36.228  23.045  25.848  1.00  0.00     0.002 A 
ATOM     13  C   UNL A   1      34.512  21.505  25.106  1.00  0.00     0.054 A 
ATOM     14  C   UNL A   1      35.696  21.763  25.812  1.00  0.00     0.021 A 
ATOM     15  Cl  UNL A   1      34.129  19.830  24.888  1.00  0.00    -0.083 Cl
BRANCH  10  16
ATOM     16  C   UNL A   1      33.937  24.925  23.548  1.00  0.00    -0.017 A 
ATOM     17  C   UNL A   1      33.458  28.715  23.824  1.00  0.00     0.044 C 
ATOM     18  C   UNL A   1      33.453  27.316  23.283  1.00  0.00    -0.050 A 
ATOM     19  C   UNL A   1      32.981  27.064  21.992  1.00  0.00     0.006 A 
ATOM     20  C   UNL A   1      33.926  26.244  24.047  1.00  0.00     0.012 A 
ATOM     21  C   UNL A   1      32.979  25.762  21.469  1.00  0.00    -0.050 A 
ATOM     22  C   UNL A   1      32.485  25.532  20.072  1.00  0.00     0.044 C 
ATOM     23  C   UNL A   1      33.453  24.698  22.253  1.00  0.00     0.012 A 
ENDBRANCH  10  16
ENDBRANCH   6   9
ENDBRANCH   4   5
ENDBRANCH   3   4
ENDBRANCH   2   3
ENDBRANCH   1   2
BRANCH   1  24
ATOM     24  C   UNL A   1      31.978  28.070  27.679  1.00  0.00     0.021 C 
BRANCH  24  25
ATOM     25  C   UNL A   1      33.353  28.682  27.434  1.00  0.00     0.116 C 
BRANCH  25  26
ATOM     26  N   UNL A   1      33.401  30.110  27.695  1.00  0.00    -0.352 N 
ATOM     27  C   UNL A   1      34.424  30.879  28.191  1.00  0.00     0.251 C 
ATOM     28  H   UNL A   1      32.574  30.601  27.484  1.00  0.00     0.163 HD
ATOM     29  O   UNL A   1      34.225  32.063  28.462  1.00  0.00    -0.269 OA
BRANCH  27  30
ATOM     30  C   UNL A   1      35.761  30.293  28.432  1.00  0.00     0.039 A 
ATOM     31  C   UNL A   1      36.697  30.306  27.393  1.00  0.00     0.014 A 
ATOM     32  C   UNL A   1      36.096  29.718  29.662  1.00  0.00     0.014 A 
ATOM     33  C   UNL A   1      37.982  29.802  27.607  1.00  0.00     0.010 A 
ATOM     34  C   UNL A   1      37.401  29.286  29.898  1.00  0.00     0.010 A 
ATOM     35  C   UNL A   1      38.358  29.321  28.872  1.00  0.00    -0.014 A 
BRANCH  35  36
ATOM     36  C   UNL A   1      39.748  28.866  29.133  1.00  0.00     0.031 A 
ATOM     37  C   UNL A   1      40.742  29.779  29.799  1.00  0.00     0.074 A 
ATOM     38  C   UNL A   1      40.131  27.638  28.730  1.00  0.00     0.049 A 
ATOM     39  N   UNL A   1      41.998  29.554  30.094  1.00  0.00    -0.248 NA
ATOM     40  C   UNL A   1      40.272  31.126  30.157  1.00  0.00     0.031 C 
ATOM     41  C   UNL A   1      39.278  26.670  28.035  1.00  0.00     0.029 A 
ATOM     42  N   UNL A   1      41.338  26.992  28.845  1.00  0.00    -0.354 N 
ATOM     43  C   UNL A   1      42.469  30.732  30.664  1.00  0.00     0.074 A 
ATOM     44  C   UNL A   1      41.381  31.685  30.620  1.00  0.00     0.031 C 
ATOM     45  C   UNL A   1      39.976  25.544  27.821  1.00  0.00     0.029 A 
ATOM     46  C   UNL A   1      41.335  25.722  28.322  1.00  0.00     0.049 A 
ATOM     47  H   UNL A   1      42.129  27.401  29.264  1.00  0.00     0.167 HD
ATOM     48  C   UNL A   1      43.688  30.992  31.194  1.00  0.00     0.031 A 
ATOM     49  C   UNL A   1      42.315  24.802  28.250  1.00  0.00     0.031 A 
ATOM     50  C   UNL A   1      44.770  30.043  31.239  1.00  0.00     0.049 A 
ATOM     51  C   UNL A   1      43.666  25.122  28.825  1.00  0.00     0.074 A 
ATOM     52  C   UNL A   1      46.024  30.195  31.803  1.00  0.00     0.029 A 
ATOM     53  N   UNL A   1      44.728  28.770  30.692  1.00  0.00    -0.354 N 
ATOM     54  N   UNL A   1      44.070  26.214  29.429  1.00  0.00    -0.248 NA
ATOM     55  C   UNL A   1      44.695  24.077  28.719  1.00  0.00     0.031 C 
ATOM     56  C   UNL A   1      46.763  29.035  31.544  1.00  0.00     0.029 A 
ATOM     57  C   UNL A   1      45.946  28.136  30.878  1.00  0.00     0.049 A 
ATOM     58  H   UNL A   1      43.949  28.375  30.238  1.00  0.00     0.167 HD
ATOM     59  C   UNL A   1      45.387  25.976  29.801  1.00  0.00     0.074 A 
ATOM     60  C   UNL A   1      45.709  24.631  29.370  1.00  0.00     0.031 C 
ATOM     61  C   UNL A   1      46.254  26.799  30.442  1.00  0.00     0.031 A 
BRANCH  48  62
ATOM     62  C   UNL A   1      43.921  32.367  31.761  1.00  0.00    -0.014 A 
ATOM     63  C   UNL A   1      43.690  32.643  33.119  1.00  0.00     0.009 A 
ATOM     64  C   UNL A   1      44.414  33.388  30.936  1.00  0.00     0.009 A 
ATOM     65  C   UNL A   1      43.911  33.925  33.628  1.00  0.00     0.001 A 
ATOM     66  C   UNL A   1      44.666  34.660  31.455  1.00  0.00     0.001 A 
ATOM     67  C   UNL A   1      44.404  34.930  32.797  1.00  0.00     0.000 A 
ENDBRANCH  48  62
BRANCH  49  68
ATOM     68  C   UNL A   1      42.053  23.479  27.622  1.00  0.00    -0.014 A 
ATOM     69  C   UNL A   1      41.488  22.433  28.367  1.00  0.00     0.009 A 
ATOM     70  C   UNL A   1      42.375  23.253  26.273  1.00  0.00     0.009 A 
ATOM     71  C   UNL A   1      41.278  21.180  27.785  1.00  0.00     0.001 A 
ATOM     72  C   UNL A   1      42.133  22.009  25.685  1.00  0.00     0.001 A 
ATOM     73  C   UNL A   1      41.596  20.971  26.444  1.00  0.00     0.000 A 
ENDBRANCH  49  68
BRANCH  61  74
ATOM     74  C   UNL A   1      47.620  26.254  30.751  1.00  0.00    -0.014 A 
ATOM     75  C   UNL A   1      47.936  25.745  32.021  1.00  0.00     0.009 A 
ATOM     76  C   UNL A   1      48.594  26.212  29.742  1.00  0.00     0.009 A 
ATOM     77  C   UNL A   1      49.212  25.240  32.283  1.00  0.00     0.001 A 
ATOM     78  C   UNL A   1      49.858  25.677  29.996  1.00  0.00     0.001 A 
ATOM     79  C   UNL A   1      50.169  25.200  31.269  1.00  0.00     0.000 A 
ENDBRANCH  61  74
ENDBRANCH  35  36
ENDBRANCH  27  30
ENDBRANCH  25  26
ENDBRANCH  24  25
ENDBRANCH   1  24
TORSDOF 14
ENDMDL
MODEL 2
REMARK VINA RESULT:     -11.2      2.940      4.798
REMARK SMILES Cc1cc(C)cc(-c2cccc(Cl)c2C(=O)NCCCCCCNC(=O)c2ccc(-c3c4nc(c(-c5ccccc5)c5ccc([nH]5)c(-c5ccccc5)c5nc(c(-c6ccccc6)c6ccc3[nH]6)C=C5)C=C4)cc2)c1
REMARK SMILES IDX 21 1 20 2 19 3 18 4 17 5 15 6 16 7 14 9 8 10 9 11 10 12
REMARK SMILES IDX 12 13 11 14 13 15 7 16 1 17 2 18 3 19 75 20 4 21 5 22 6 23
REMARK SMILES IDX 22 24 23 25 24 26 25 27 26 29 27 30 28 31 74 32 29 33 73 34
REMARK SMILES IDX 30 35 31 36 32 37 67 38 33 39 72 40 66 41 68 42 34 43 71 44
REMARK SMILES IDX 65 45 64 46 35 48 57 49 42 50 56 51 43 52 46 53 55 54 69 55
REMARK SMILES IDX 44 56 45 57 54 59 70 60 47 61 36 62 37 63 41 64 38 65 40 66
REMARK SMILES IDX 39 67 58 68 59 69 63 70 60 71 62 72 61 73 48 74 49 75 53 76
REMARK SMILES IDX 50 77 52 78 51 79
REMARK H PARENT 17 8 24 28 68 47 46 58
REMARK Flexibility Score: inf
ROOT
ATOM      1  C   UNL A   1      31.473  30.362  26.055  1.00  0.00     0.002 C 
ENDROOT
BRANCH   1   2
ATOM      2  C   UNL A   1      32.344  29.437  26.912  1.00  0.00     0.002 C 
BRANCH   2   3
ATOM      3  C   UNL A   1      31.761  28.074  27.303  1.00  0.00     0.021 C 
BRANCH   3   4
ATOM      4  C   UNL A   1      32.322  26.843  26.593  1.00  0.00     0.116 C 
BRANCH   4   5
ATOM      5  N   UNL A   1      31.399  25.735  26.429  1.00  0.00    -0.352 N 
ATOM      6  C   UNL A   1      31.194  24.894  25.348  1.00  0.00     0.253 C 
ATOM      7  O   UNL A   1      30.585  23.846  25.547  1.00  0.00    -0.269 OA
ATOM      8  H   UNL A   1      30.828  25.551  27.210  1.00  0.00     0.163 HD
BRANCH   6   9
ATOM      9  C   UNL A   1      31.618  25.260  23.963  1.00  0.00     0.066 A 
ATOM     10  C   UNL A   1      32.689  24.554  23.351  1.00  0.00    -0.004 A 
ATOM     11  C   UNL A   1      32.998  24.822  21.998  1.00  0.00     0.009 A 
ATOM     12  C   UNL A   1      32.312  25.789  21.273  1.00  0.00     0.002 A 
ATOM     13  C   UNL A   1      31.045  26.335  23.263  1.00  0.00     0.054 A 
ATOM     14  C   UNL A   1      31.357  26.565  21.914  1.00  0.00     0.021 A 
ATOM     15  Cl  UNL A   1      30.072  27.554  24.016  1.00  0.00    -0.083 Cl
BRANCH  10  16
ATOM     16  C   UNL A   1      33.608  23.645  24.064  1.00  0.00    -0.017 A 
ATOM     17  C   UNL A   1      36.920  23.944  25.964  1.00  0.00     0.044 C 
ATOM     18  C   UNL A   1      35.700  23.361  25.315  1.00  0.00    -0.050 A 
ATOM     19  C   UNL A   1      35.473  21.983  25.357  1.00  0.00     0.006 A 
ATOM     20  C   UNL A   1      34.765  24.178  24.670  1.00  0.00     0.012 A 
ATOM     21  C   UNL A   1      34.330  21.424  24.762  1.00  0.00    -0.050 A 
ATOM     22  C   UNL A   1      34.109  19.943  24.845  1.00  0.00     0.044 C 
ATOM     23  C   UNL A   1      33.406  22.260  24.115  1.00  0.00     0.012 A 
ENDBRANCH  10  16
ENDBRANCH   6   9
ENDBRANCH   4   5
ENDBRANCH   3   4
ENDBRANCH   2   3
ENDBRANCH   1   2
BRANCH   1  24
ATOM     24  C   UNL A   1      31.325  31.810  26.523  1.00  0.00     0.021 C 
BRANCH  24  25
ATOM     25  C   UNL A   1      32.587  32.479  27.058  1.00  0.00     0.116 C 
BRANCH  25  26
ATOM     26  N   UNL A   1      32.357  33.829  27.546  1.00  0.00    -0.352 N 
ATOM     27  C   UNL A   1      33.054  34.556  28.479  1.00  0.00     0.251 C 
ATOM     28  H   UNL A   1      31.585  34.291  27.147  1.00  0.00     0.163 HD
ATOM     29  O   UNL A   1      32.623  35.647  28.852  1.00  0.00    -0.269 OA
BRANCH  27  30
ATOM     30  C   UNL A   1      34.307  34.031  29.065  1.00  0.00     0.039 A 
ATOM     31  C   UNL A   1      34.227  33.204  30.190  1.00  0.00     0.014 A 
ATOM     32  C   UNL A   1      35.557  34.358  28.530  1.00  0.00     0.014 A 
ATOM     33  C   UNL A   1      35.391  32.656  30.736  1.00  0.00     0.010 A 
ATOM     34  C   UNL A   1      36.709  33.750  29.028  1.00  0.00     0.010 A 
ATOM     35  C   UNL A   1      36.639  32.894  30.138  1.00  0.00    -0.014 A 
BRANCH  35  36
ATOM     36  C   UNL A   1      37.870  32.245  30.658  1.00  0.00     0.031 A 
ATOM     37  C   UNL A   1      38.594  32.815  31.848  1.00  0.00     0.074 A 
ATOM     38  C   UNL A   1      38.364  31.159  30.030  1.00  0.00     0.049 A 
ATOM     39  N   UNL A   1      39.687  32.388  32.430  1.00  0.00    -0.248 NA
ATOM     40  C   UNL A   1      38.032  34.036  32.447  1.00  0.00     0.031 C 
ATOM     41  C   UNL A   1      37.784  30.532  28.840  1.00  0.00     0.029 A 
ATOM     42  N   UNL A   1      39.469  30.391  30.303  1.00  0.00    -0.354 N 
ATOM     43  C   UNL A   1      39.946  33.291  33.455  1.00  0.00     0.074 A 
ATOM     44  C   UNL A   1      38.931  34.318  33.379  1.00  0.00     0.031 C 
ATOM     45  C   UNL A   1      38.514  29.455  28.511  1.00  0.00     0.029 A 
ATOM     46  C   UNL A   1      39.637  29.339  29.435  1.00  0.00     0.049 A 
ATOM     47  H   UNL A   1      40.081  30.576  31.051  1.00  0.00     0.167 HD
ATOM     48  C   UNL A   1      40.928  33.258  34.388  1.00  0.00     0.031 A 
ATOM     49  C   UNL A   1      40.589  28.388  29.385  1.00  0.00     0.031 A 
ATOM     50  C   UNL A   1      41.938  32.235  34.465  1.00  0.00     0.049 A 
ATOM     51  C   UNL A   1      41.681  28.387  30.418  1.00  0.00     0.074 A 
ATOM     52  C   UNL A   1      42.942  32.086  35.406  1.00  0.00     0.029 A 
ATOM     53  N   UNL A   1      42.077  31.192  33.562  1.00  0.00    -0.354 N 
ATOM     54  N   UNL A   1      41.866  29.204  31.426  1.00  0.00    -0.248 NA
ATOM     55  C   UNL A   1      42.689  27.322  30.312  1.00  0.00     0.031 C 
ATOM     56  C   UNL A   1      43.726  30.987  35.038  1.00  0.00     0.029 A 
ATOM     57  C   UNL A   1      43.169  30.413  33.907  1.00  0.00     0.049 A 
ATOM     58  H   UNL A   1      41.487  31.030  32.791  1.00  0.00     0.167 HD
ATOM     59  C   UNL A   1      42.992  28.736  32.091  1.00  0.00     0.074 A 
ATOM     60  C   UNL A   1      43.436  27.553  31.383  1.00  0.00     0.031 C 
ATOM     61  C   UNL A   1      43.603  29.240  33.191  1.00  0.00     0.031 A 
BRANCH  48  62
ATOM     62  C   UNL A   1      40.963  34.373  35.399  1.00  0.00    -0.014 A 
ATOM     63  C   UNL A   1      41.706  35.543  35.169  1.00  0.00     0.009 A 
ATOM     64  C   UNL A   1      40.214  34.268  36.580  1.00  0.00     0.009 A 
ATOM     65  C   UNL A   1      41.727  36.567  36.118  1.00  0.00     0.001 A 
ATOM     66  C   UNL A   1      40.210  35.308  37.513  1.00  0.00     0.001 A 
ATOM     67  C   UNL A   1      40.975  36.451  37.286  1.00  0.00     0.000 A 
ENDBRANCH  48  62
BRANCH  49  68
ATOM     68  C   UNL A   1      40.545  27.344  28.326  1.00  0.00    -0.014 A 
ATOM     69  C   UNL A   1      41.171  27.556  27.088  1.00  0.00     0.009 A 
ATOM     70  C   UNL A   1      39.870  26.132  28.545  1.00  0.00     0.009 A 
ATOM     71  C   UNL A   1      41.096  26.590  26.081  1.00  0.00     0.001 A 
ATOM     72  C   UNL A   1      39.825  25.155  27.548  1.00  0.00     0.001 A 
ATOM     73  C   UNL A   1      40.428  25.389  26.314  1.00  0.00     0.000 A 
ENDBRANCH  49  68
BRANCH  61  74
ATOM     74  C   UNL A   1      44.796  28.494  33.720  1.00  0.00    -0.014 A 
ATOM     75  C   UNL A   1      46.101  28.820  33.319  1.00  0.00     0.009 A 
ATOM     76  C   UNL A   1      44.612  27.473  34.666  1.00  0.00     0.009 A 
ATOM     77  C   UNL A   1      47.194  28.115  33.827  1.00  0.00     0.001 A 
ATOM     78  C   UNL A   1      45.707  26.792  35.197  1.00  0.00     0.001 A 
ATOM     79  C   UNL A   1      46.997  27.106  34.770  1.00  0.00     0.000 A 
ENDBRANCH  61  74
ENDBRANCH  35  36
ENDBRANCH  27  30
ENDBRANCH  25  26
ENDBRANCH  24  25
ENDBRANCH   1  24
TORSDOF 14
ENDMDL
MODEL 3
REMARK VINA RESULT:     -11.1      3.370      7.640
REMARK SMILES Cc1cc(C)cc(-c2cccc(Cl)c2C(=O)NCCCCCCNC(=O)c2ccc(-c3c4nc(c(-c5ccccc5)c5ccc([nH]5)c(-c5ccccc5)c5nc(c(-c6ccccc6)c6ccc3[nH]6)C=C5)C=C4)cc2)c1
REMARK SMILES IDX 21 1 20 2 19 3 18 4 17 5 15 6 16 7 14 9 8 10 9 11 10 12
REMARK SMILES IDX 12 13 11 14 13 15 7 16 1 17 2 18 3 19 75 20 4 21 5 22 6 23
REMARK SMILES IDX 22 24 23 25 24 26 25 27 26 29 27 30 28 31 74 32 29 33 73 34
REMARK SMILES IDX 30 35 31 36 32 37 67 38 33 39 72 40 66 41 68 42 34 43 71 44
REMARK SMILES IDX 65 45 64 46 35 48 57 49 42 50 56 51 43 52 46 53 55 54 69 55
REMARK SMILES IDX 44 56 45 57 54 59 70 60 47 61 36 62 37 63 41 64 38 65 40 66
REMARK SMILES IDX 39 67 58 68 59 69 63 70 60 71 62 72 61 73 48 74 49 75 53 76
REMARK SMILES IDX 50 77 52 78 51 79
REMARK H PARENT 17 8 24 28 68 47 46 58
REMARK Flexibility Score: inf
ROOT
ATOM      1  C   UNL A   1      31.644  30.428  25.934  1.00  0.00     0.002 C 
ENDROOT
BRANCH   1   2
ATOM      2  C   UNL A   1      32.451  29.438  26.780  1.00  0.00     0.002 C 
BRANCH   2   3
ATOM      3  C   UNL A   1      31.770  28.122  27.173  1.00  0.00     0.021 C 
BRANCH   3   4
ATOM      4  C   UNL A   1      32.371  26.830  26.622  1.00  0.00     0.116 C 
BRANCH   4   5
ATOM      5  N   UNL A   1      31.440  25.735  26.425  1.00  0.00    -0.352 N 
ATOM      6  C   UNL A   1      31.227  24.929  25.320  1.00  0.00     0.253 C 
ATOM      7  O   UNL A   1      30.610  23.880  25.487  1.00  0.00    -0.269 OA
ATOM      8  H   UNL A   1      30.867  25.533  27.201  1.00  0.00     0.163 HD
BRANCH   6   9
ATOM      9  C   UNL A   1      31.655  25.332  23.946  1.00  0.00     0.066 A 
ATOM     10  C   UNL A   1      32.726  24.641  23.317  1.00  0.00    -0.004 A 
ATOM     11  C   UNL A   1      33.037  24.945  21.972  1.00  0.00     0.009 A 
ATOM     12  C   UNL A   1      32.355  25.934  21.273  1.00  0.00     0.002 A 
ATOM     13  C   UNL A   1      31.084  26.427  23.274  1.00  0.00     0.054 A 
ATOM     14  C   UNL A   1      31.399  26.693  21.934  1.00  0.00     0.021 A 
ATOM     15  Cl  UNL A   1      30.112  27.626  24.060  1.00  0.00    -0.083 Cl
BRANCH  10  16
ATOM     16  C   UNL A   1      33.642  23.710  24.006  1.00  0.00    -0.017 A 
ATOM     17  C   UNL A   1      36.948  23.951  25.924  1.00  0.00     0.044 C 
ATOM     18  C   UNL A   1      35.729  23.388  25.254  1.00  0.00    -0.050 A 
ATOM     19  C   UNL A   1      35.501  22.010  25.256  1.00  0.00     0.006 A 
ATOM     20  C   UNL A   1      34.797  24.224  24.630  1.00  0.00     0.012 A 
ATOM     21  C   UNL A   1      34.360  21.470  24.642  1.00  0.00    -0.050 A 
ATOM     22  C   UNL A   1      34.137  19.988  24.682  1.00  0.00     0.044 C 
ATOM     23  C   UNL A   1      33.439  22.325  24.016  1.00  0.00     0.012 A 
ENDBRANCH  10  16
ENDBRANCH   6   9
ENDBRANCH   4   5
ENDBRANCH   3   4
ENDBRANCH   2   3
ENDBRANCH   1   2
BRANCH   1  24
ATOM     24  C   UNL A   1      31.406  31.818  26.527  1.00  0.00     0.021 C 
BRANCH  24  25
ATOM     25  C   UNL A   1      32.615  32.499  27.160  1.00  0.00     0.116 C 
BRANCH  25  26
ATOM     26  N   UNL A   1      32.361  33.876  27.546  1.00  0.00    -0.352 N 
ATOM     27  C   UNL A   1      32.993  34.657  28.482  1.00  0.00     0.251 C 
ATOM     28  H   UNL A   1      31.624  34.316  27.064  1.00  0.00     0.163 HD
ATOM     29  O   UNL A   1      32.544  35.770  28.755  1.00  0.00    -0.269 OA
BRANCH  27  30
ATOM     30  C   UNL A   1      34.195  34.165  29.190  1.00  0.00     0.039 A 
ATOM     31  C   UNL A   1      34.028  33.457  30.384  1.00  0.00     0.014 A 
ATOM     32  C   UNL A   1      35.482  34.408  28.700  1.00  0.00     0.014 A 
ATOM     33  C   UNL A   1      35.143  32.940  31.049  1.00  0.00     0.010 A 
ATOM     34  C   UNL A   1      36.587  33.827  29.323  1.00  0.00     0.010 A 
ATOM     35  C   UNL A   1      36.430  33.088  30.506  1.00  0.00    -0.014 A 
BRANCH  35  36
ATOM     36  C   UNL A   1      37.610  32.467  31.159  1.00  0.00     0.031 A 
ATOM     37  C   UNL A   1      38.260  31.245  30.567  1.00  0.00     0.074 A 
ATOM     38  C   UNL A   1      38.075  32.978  32.317  1.00  0.00     0.049 A 
ATOM     39  N   UNL A   1      39.289  30.563  31.006  1.00  0.00    -0.248 NA
ATOM     40  C   UNL A   1      37.663  30.704  29.336  1.00  0.00     0.031 C 
ATOM     41  C   UNL A   1      37.510  34.133  33.019  1.00  0.00     0.029 A 
ATOM     42  N   UNL A   1      39.129  32.593  33.108  1.00  0.00    -0.354 N 
ATOM     43  C   UNL A   1      39.455  29.512  30.112  1.00  0.00     0.074 A 
ATOM     44  C   UNL A   1      38.389  29.613  29.140  1.00  0.00     0.031 C 
ATOM     45  C   UNL A   1      38.245  34.385  34.113  1.00  0.00     0.029 A 
ATOM     46  C   UNL A   1      39.305  33.387  34.215  1.00  0.00     0.049 A 
ATOM     47  H   UNL A   1      39.704  31.822  32.900  1.00  0.00     0.167 HD
ATOM     48  C   UNL A   1      40.420  28.561  30.090  1.00  0.00     0.031 A 
ATOM     49  C   UNL A   1      40.214  33.320  35.206  1.00  0.00     0.031 A 
ATOM     50  C   UNL A   1      41.481  28.461  31.056  1.00  0.00     0.049 A 
ATOM     51  C   UNL A   1      41.261  32.241  35.170  1.00  0.00     0.074 A 
ATOM     52  C   UNL A   1      42.536  27.565  31.087  1.00  0.00     0.029 A 
ATOM     53  N   UNL A   1      41.619  29.280  32.166  1.00  0.00    -0.354 N 
ATOM     54  N   UNL A   1      41.449  31.302  34.275  1.00  0.00    -0.248 NA
ATOM     55  C   UNL A   1      42.227  32.221  36.277  1.00  0.00     0.031 C 
ATOM     56  C   UNL A   1      43.278  27.803  32.249  1.00  0.00     0.029 A 
ATOM     57  C   UNL A   1      42.724  28.891  32.906  1.00  0.00     0.049 A 
ATOM     58  H   UNL A   1      41.020  30.027  32.395  1.00  0.00     0.167 HD
ATOM     59  C   UNL A   1      42.572  30.599  34.694  1.00  0.00     0.074 A 
ATOM     60  C   UNL A   1      43.032  31.231  35.913  1.00  0.00     0.031 C 
ATOM     61  C   UNL A   1      43.169  29.526  34.119  1.00  0.00     0.031 A 
BRANCH  48  62
ATOM     62  C   UNL A   1      40.363  27.540  28.984  1.00  0.00    -0.014 A 
ATOM     63  C   UNL A   1      39.647  26.341  29.135  1.00  0.00     0.009 A 
ATOM     64  C   UNL A   1      41.002  27.798  27.762  1.00  0.00     0.009 A 
ATOM     65  C   UNL A   1      39.605  25.406  28.098  1.00  0.00     0.001 A 
ATOM     66  C   UNL A   1      40.931  26.876  26.716  1.00  0.00     0.001 A 
ATOM     67  C   UNL A   1      40.243  25.677  26.889  1.00  0.00     0.000 A 
ENDBRANCH  48  62
BRANCH  49  68
ATOM     68  C   UNL A   1      40.189  34.315  36.311  1.00  0.00    -0.014 A 
ATOM     69  C   UNL A   1      39.434  34.077  37.470  1.00  0.00     0.009 A 
ATOM     70  C   UNL A   1      40.914  35.514  36.210  1.00  0.00     0.009 A 
ATOM     71  C   UNL A   1      39.381  35.030  38.490  1.00  0.00     0.001 A 
ATOM     72  C   UNL A   1      40.885  36.450  37.246  1.00  0.00     0.001 A 
ATOM     73  C   UNL A   1      40.110  36.212  38.379  1.00  0.00     0.000 A 
ENDBRANCH  49  68
BRANCH  61  74
ATOM     74  C   UNL A   1      44.408  28.991  34.782  1.00  0.00    -0.014 A 
ATOM     75  C   UNL A   1      44.342  27.966  35.738  1.00  0.00     0.009 A 
ATOM     76  C   UNL A   1      45.665  29.494  34.410  1.00  0.00     0.009 A 
ATOM     77  C   UNL A   1      45.508  27.482  36.337  1.00  0.00     0.001 A 
ATOM     78  C   UNL A   1      46.830  28.986  34.986  1.00  0.00     0.001 A 
ATOM     79  C   UNL A   1      46.751  27.988  35.956  1.00  0.00     0.000 A 
ENDBRANCH  61  74
ENDBRANCH  35  36
ENDBRANCH  27  30
ENDBRANCH  25  26
ENDBRANCH  24  25
ENDBRANCH   1  24
TORSDOF 14
ENDMDL
