MODEL 1
REMARK VINA RESULT:     -11.8      0.000      0.000
REMARK SMILES CC(=O)N1C[C@@H]2C[N@H+](CC(=O)NCc3ccccc3)C[C@]2(C(=O)NCCCCCCNC(=O)c2ccc(-c3c4nc(c(-c5ccccc5)c5ccc([nH]5)c(-c5ccccc5)c5nc(c(-c6ccccc6)c6ccc3[nH]6)C=C5)C=C4)cc2)C1
REMARK SMILES IDX 26 1 25 2 24 3 22 4 23 5 21 7 4 8 5 9 82 10 6 11 7 12 20 13
REMARK SMILES IDX 8 14 2 16 1 17 3 18 9 19 10 20 11 21 12 22 13 24 14 25 15 26
REMARK SMILES IDX 19 27 16 28 18 29 17 30 27 31 28 32 29 33 30 34 31 35 32 36
REMARK SMILES IDX 33 38 34 39 35 40 81 41 36 42 80 43 37 44 38 45 39 46 74 47
REMARK SMILES IDX 40 48 79 49 73 50 75 51 41 52 78 53 72 54 71 55 42 57 64 58
REMARK SMILES IDX 49 59 63 60 50 61 53 62 62 63 76 64 51 65 52 66 61 68 77 69
REMARK SMILES IDX 54 70 43 71 44 72 48 73 45 74 47 75 46 76 65 77 66 78 70 79
REMARK SMILES IDX 67 80 69 81 68 82 55 83 56 84 60 85 57 86 59 87 58 88
REMARK H PARENT 24 6 8 15 12 23 31 37 75 56 53 67
REMARK Flexibility Score: inf
ROOT
ATOM      1  C   UNL A   1      32.451  27.997  26.998  1.00  0.00     0.021 C 
ENDROOT
BRANCH   1   2
ATOM      2  C   UNL A   1      32.395  26.677  26.222  1.00  0.00     0.116 C 
BRANCH   2   3
ATOM      3  N   UNL A   1      31.522  25.612  26.746  1.00  0.00    -0.355 N 
ATOM      4  C   UNL A   1      31.395  24.249  26.451  1.00  0.00     0.234 C 
ATOM      5  O   UNL A   1      30.562  23.637  27.126  1.00  0.00    -0.274 OA
ATOM      6  H   UNL A   1      30.902  25.921  27.446  1.00  0.00     0.163 HD
BRANCH   4   7
ATOM      7  C   UNL A   1      32.251  23.559  25.292  1.00  0.00     0.125 C 
ATOM      8  N   UNL A   1      34.207  21.950  25.644  1.00  0.00    -0.341 N 
ATOM      9  C   UNL A   1      33.616  21.430  24.474  1.00  0.00     0.130 C 
ATOM     10  C   UNL A   1      33.204  22.763  26.333  1.00  0.00     0.143 C 
ATOM     11  C   UNL A   1      32.237  22.056  24.487  1.00  0.00     0.087 C 
ATOM     12  C   UNL A   1      31.846  22.234  23.014  1.00  0.00     0.269 C 
ATOM     13  C   UNL A   1      31.028  23.794  24.346  1.00  0.00     0.282 C 
ATOM     14  N   UNL A   1      31.481  23.628  22.975  1.00  0.00    -0.326 N 
ATOM     15  H   UNL A   1      30.797  23.843  22.250  1.00  0.00     0.348 HD
BRANCH   8  16
ATOM     16  C   UNL A   1      35.576  22.146  25.654  1.00  0.00     0.219 C 
ATOM     17  C   UNL A   1      36.039  23.530  25.997  1.00  0.00     0.114 C 
ATOM     18  O   UNL A   1      36.397  21.232  25.570  1.00  0.00    -0.275 OA
ENDBRANCH   8  16
BRANCH  14  19
ATOM     19  C   UNL A   1      32.551  24.597  22.559  1.00  0.00     0.363 C 
BRANCH  19  20
ATOM     20  C   UNL A   1      32.182  25.758  21.610  1.00  0.00     0.275 C 
ATOM     21  O   UNL A   1      32.354  25.573  20.396  1.00  0.00    -0.268 OA
ATOM     22  N   UNL A   1      31.694  26.986  21.960  1.00  0.00    -0.347 N 
ATOM     23  H   UNL A   1      31.892  27.660  21.271  1.00  0.00     0.164 HD
BRANCH  22  24
ATOM     24  C   UNL A   1      30.956  27.571  23.083  1.00  0.00     0.151 C 
BRANCH  24  25
ATOM     25  C   UNL A   1      29.846  28.558  22.718  1.00  0.00    -0.029 A 
ATOM     26  C   UNL A   1      30.112  29.721  21.985  1.00  0.00     0.005 A 
ATOM     27  C   UNL A   1      28.500  28.348  23.080  1.00  0.00     0.005 A 
ATOM     28  C   UNL A   1      29.108  30.676  21.744  1.00  0.00     0.000 A 
ATOM     29  C   UNL A   1      27.506  29.318  22.884  1.00  0.00     0.000 A 
ATOM     30  C   UNL A   1      27.818  30.499  22.234  1.00  0.00     0.000 A 
ENDBRANCH  24  25
ENDBRANCH  22  24
ENDBRANCH  19  20
ENDBRANCH  14  19
ENDBRANCH   4   7
ENDBRANCH   2   3
ENDBRANCH   1   2
BRANCH   1  31
ATOM     31  C   UNL A   1      32.850  29.192  26.110  1.00  0.00     0.002 C 
BRANCH  31  32
ATOM     32  C   UNL A   1      31.715  30.110  25.621  1.00  0.00     0.002 C 
BRANCH  32  33
ATOM     33  C   UNL A   1      31.443  31.373  26.441  1.00  0.00     0.021 C 
BRANCH  33  34
ATOM     34  C   UNL A   1      32.669  32.037  27.059  1.00  0.00     0.116 C 
BRANCH  34  35
ATOM     35  N   UNL A   1      32.422  33.404  27.491  1.00  0.00    -0.352 N 
ATOM     36  C   UNL A   1      33.164  34.187  28.336  1.00  0.00     0.251 C 
ATOM     37  H   UNL A   1      31.610  33.824  27.127  1.00  0.00     0.163 HD
ATOM     38  O   UNL A   1      32.741  35.294  28.689  1.00  0.00    -0.269 OA
BRANCH  36  39
ATOM     39  C   UNL A   1      34.458  33.702  28.847  1.00  0.00     0.039 A 
ATOM     40  C   UNL A   1      34.486  32.951  30.024  1.00  0.00     0.014 A 
ATOM     41  C   UNL A   1      35.644  33.989  28.164  1.00  0.00     0.014 A 
ATOM     42  C   UNL A   1      35.699  32.443  30.490  1.00  0.00     0.010 A 
ATOM     43  C   UNL A   1      36.840  33.420  28.587  1.00  0.00     0.010 A 
ATOM     44  C   UNL A   1      36.880  32.653  29.760  1.00  0.00    -0.014 A 
BRANCH  44  45
ATOM     45  C   UNL A   1      38.173  32.095  30.226  1.00  0.00     0.031 A 
ATOM     46  C   UNL A   1      38.659  30.777  29.694  1.00  0.00     0.074 A 
ATOM     47  C   UNL A   1      38.884  32.757  31.158  1.00  0.00     0.049 A 
ATOM     48  N   UNL A   1      39.755  30.123  29.984  1.00  0.00    -0.248 NA
ATOM     49  C   UNL A   1      37.788  30.092  28.726  1.00  0.00     0.031 C 
ATOM     50  C   UNL A   1      38.499  34.028  31.775  1.00  0.00     0.029 A 
ATOM     51  N   UNL A   1      40.086  32.452  31.745  1.00  0.00    -0.354 N 
ATOM     52  C   UNL A   1      39.698  28.949  29.244  1.00  0.00     0.074 A 
ATOM     53  C   UNL A   1      38.432  28.951  28.543  1.00  0.00     0.031 C 
ATOM     54  C   UNL A   1      39.468  34.416  32.620  1.00  0.00     0.029 A 
ATOM     55  C   UNL A   1      40.521  33.405  32.632  1.00  0.00     0.049 A 
ATOM     56  H   UNL A   1      40.588  31.628  31.549  1.00  0.00     0.167 HD
ATOM     57  C   UNL A   1      40.625  27.967  29.136  1.00  0.00     0.031 A 
ATOM     58  C   UNL A   1      41.647  33.462  33.366  1.00  0.00     0.031 A 
ATOM     59  C   UNL A   1      41.880  27.965  29.839  1.00  0.00     0.049 A 
ATOM     60  C   UNL A   1      42.647  32.345  33.257  1.00  0.00     0.074 A 
ATOM     61  C   UNL A   1      42.908  27.042  29.771  1.00  0.00     0.029 A 
ATOM     62  N   UNL A   1      42.274  28.939  30.746  1.00  0.00    -0.354 N 
ATOM     63  N   UNL A   1      42.609  31.272  32.505  1.00  0.00    -0.248 NA
ATOM     64  C   UNL A   1      43.849  32.456  34.092  1.00  0.00     0.031 C 
ATOM     65  C   UNL A   1      43.901  27.430  30.678  1.00  0.00     0.029 A 
ATOM     66  C   UNL A   1      43.518  28.626  31.265  1.00  0.00     0.049 A 
ATOM     67  H   UNL A   1      41.745  29.734  30.986  1.00  0.00     0.167 HD
ATOM     68  C   UNL A   1      43.795  30.594  32.752  1.00  0.00     0.074 A 
ATOM     69  C   UNL A   1      44.536  31.386  33.713  1.00  0.00     0.031 C 
ATOM     70  C   UNL A   1      44.234  29.423  32.228  1.00  0.00     0.031 A 
BRANCH  57  71
ATOM     71  C   UNL A   1      40.294  26.812  28.229  1.00  0.00    -0.014 A 
ATOM     72  C   UNL A   1      40.774  26.760  26.910  1.00  0.00     0.009 A 
ATOM     73  C   UNL A   1      39.486  25.764  28.696  1.00  0.00     0.009 A 
ATOM     74  C   UNL A   1      40.406  25.714  26.061  1.00  0.00     0.001 A 
ATOM     75  C   UNL A   1      39.148  24.701  27.856  1.00  0.00     0.001 A 
ATOM     76  C   UNL A   1      39.596  24.685  26.535  1.00  0.00     0.000 A 
ENDBRANCH  57  71
BRANCH  58  77
ATOM     77  C   UNL A   1      41.909  34.639  34.235  1.00  0.00    -0.014 A 
ATOM     78  C   UNL A   1      41.614  34.584  35.605  1.00  0.00     0.009 A 
ATOM     79  C   UNL A   1      42.463  35.815  33.705  1.00  0.00     0.009 A 
ATOM     80  C   UNL A   1      41.850  35.689  36.425  1.00  0.00     0.001 A 
ATOM     81  C   UNL A   1      42.723  36.909  34.534  1.00  0.00     0.001 A 
ATOM     82  C   UNL A   1      42.410  36.848  35.892  1.00  0.00     0.000 A 
ENDBRANCH  58  77
BRANCH  70  83
ATOM     83  C   UNL A   1      45.593  28.948  32.663  1.00  0.00    -0.014 A 
ATOM     84  C   UNL A   1      46.756  29.338  31.982  1.00  0.00     0.009 A 
ATOM     85  C   UNL A   1      45.709  28.123  33.794  1.00  0.00     0.009 A 
ATOM     86  C   UNL A   1      48.006  28.878  32.401  1.00  0.00     0.001 A 
ATOM     87  C   UNL A   1      46.963  27.691  34.228  1.00  0.00     0.001 A 
ATOM     88  C   UNL A   1      48.108  28.059  33.525  1.00  0.00     0.000 A 
ENDBRANCH  70  83
ENDBRANCH  44  45
ENDBRANCH  36  39
ENDBRANCH  34  35
ENDBRANCH  33  34
ENDBRANCH  32  33
ENDBRANCH  31  32
ENDBRANCH   1  31
TORSDOF 18
ENDMDL
MODEL 2
REMARK VINA RESULT:     -11.5      0.851      5.744
REMARK SMILES CC(=O)N1C[C@@H]2C[N@H+](CC(=O)NCc3ccccc3)C[C@]2(C(=O)NCCCCCCNC(=O)c2ccc(-c3c4nc(c(-c5ccccc5)c5ccc([nH]5)c(-c5ccccc5)c5nc(c(-c6ccccc6)c6ccc3[nH]6)C=C5)C=C4)cc2)C1
REMARK SMILES IDX 26 1 25 2 24 3 22 4 23 5 21 7 4 8 5 9 82 10 6 11 7 12 20 13
REMARK SMILES IDX 8 14 2 16 1 17 3 18 9 19 10 20 11 21 12 22 13 24 14 25 15 26
REMARK SMILES IDX 19 27 16 28 18 29 17 30 27 31 28 32 29 33 30 34 31 35 32 36
REMARK SMILES IDX 33 38 34 39 35 40 81 41 36 42 80 43 37 44 38 45 39 46 74 47
REMARK SMILES IDX 40 48 79 49 73 50 75 51 41 52 78 53 72 54 71 55 42 57 64 58
REMARK SMILES IDX 49 59 63 60 50 61 53 62 62 63 76 64 51 65 52 66 61 68 77 69
REMARK SMILES IDX 54 70 43 71 44 72 48 73 45 74 47 75 46 76 65 77 66 78 70 79
REMARK SMILES IDX 67 80 69 81 68 82 55 83 56 84 60 85 57 86 59 87 58 88
REMARK H PARENT 24 6 8 15 12 23 31 37 75 56 53 67
REMARK Flexibility Score: inf
ROOT
ATOM      1  C   UNL A   1      31.464  27.659  27.157  1.00  0.00     0.021 C 
ENDROOT
BRANCH   1   2
ATOM      2  C   UNL A   1      31.823  26.405  26.354  1.00  0.00     0.116 C 
BRANCH   2   3
ATOM      3  N   UNL A   1      31.336  25.108  26.857  1.00  0.00    -0.355 N 
ATOM      4  C   UNL A   1      31.635  23.781  26.525  1.00  0.00     0.234 C 
ATOM      5  O   UNL A   1      31.048  22.924  27.191  1.00  0.00    -0.274 OA
ATOM      6  H   UNL A   1      30.666  25.192  27.574  1.00  0.00     0.163 HD
BRANCH   4   7
ATOM      7  C   UNL A   1      32.638  23.421  25.335  1.00  0.00     0.125 C 
ATOM      8  N   UNL A   1      34.728  21.963  25.543  1.00  0.00    -0.341 N 
ATOM      9  C   UNL A   1      34.279  21.636  24.248  1.00  0.00     0.130 C 
ATOM     10  C   UNL A   1      33.598  22.523  26.284  1.00  0.00     0.143 C 
ATOM     11  C   UNL A   1      32.844  22.115  24.257  1.00  0.00     0.087 C 
ATOM     12  C   UNL A   1      32.538  22.549  22.817  1.00  0.00     0.269 C 
ATOM     13  C   UNL A   1      31.465  23.727  24.347  1.00  0.00     0.282 C 
ATOM     14  N   UNL A   1      32.027  23.882  23.015  1.00  0.00    -0.326 N 
ATOM     15  H   UNL A   1      31.376  24.175  22.288  1.00  0.00     0.348 HD
BRANCH   8  16
ATOM     16  C   UNL A   1      36.064  22.278  25.713  1.00  0.00     0.219 C 
ATOM     17  C   UNL A   1      36.362  23.703  26.074  1.00  0.00     0.114 C 
ATOM     18  O   UNL A   1      36.965  21.439  25.751  1.00  0.00    -0.275 OA
ENDBRANCH   8  16
BRANCH  14  19
ATOM     19  C   UNL A   1      33.012  25.011  22.891  1.00  0.00     0.363 C 
BRANCH  19  20
ATOM     20  C   UNL A   1      32.879  25.994  21.710  1.00  0.00     0.275 C 
ATOM     21  O   UNL A   1      32.903  25.513  20.566  1.00  0.00    -0.268 OA
ATOM     22  N   UNL A   1      32.749  27.354  21.778  1.00  0.00    -0.347 N 
ATOM     23  H   UNL A   1      33.058  27.785  20.949  1.00  0.00     0.164 HD
BRANCH  22  24
ATOM     24  C   UNL A   1      32.273  28.341  22.751  1.00  0.00     0.151 C 
BRANCH  24  25
ATOM     25  C   UNL A   1      30.758  28.413  22.951  1.00  0.00    -0.029 A 
ATOM     26  C   UNL A   1      30.029  27.315  23.421  1.00  0.00     0.005 A 
ATOM     27  C   UNL A   1      30.018  29.584  22.690  1.00  0.00     0.005 A 
ATOM     28  C   UNL A   1      28.625  27.352  23.502  1.00  0.00     0.000 A 
ATOM     29  C   UNL A   1      28.615  29.612  22.723  1.00  0.00     0.000 A 
ATOM     30  C   UNL A   1      27.915  28.482  23.108  1.00  0.00     0.000 A 
ENDBRANCH  24  25
ENDBRANCH  22  24
ENDBRANCH  19  20
ENDBRANCH  14  19
ENDBRANCH   4   7
ENDBRANCH   2   3
ENDBRANCH   1   2
BRANCH   1  31
ATOM     31  C   UNL A   1      31.777  28.962  26.395  1.00  0.00     0.002 C 
BRANCH  31  32
ATOM     32  C   UNL A   1      32.190  30.183  27.236  1.00  0.00     0.002 C 
BRANCH  32  33
ATOM     33  C   UNL A   1      31.519  31.516  26.900  1.00  0.00     0.021 C 
BRANCH  33  34
ATOM     34  C   UNL A   1      32.460  32.648  26.502  1.00  0.00     0.116 C 
BRANCH  34  35
ATOM     35  N   UNL A   1      32.233  33.873  27.254  1.00  0.00    -0.352 N 
ATOM     36  C   UNL A   1      32.935  34.371  28.320  1.00  0.00     0.251 C 
ATOM     37  H   UNL A   1      31.471  34.418  26.956  1.00  0.00     0.163 HD
ATOM     38  O   UNL A   1      32.528  35.375  28.916  1.00  0.00    -0.269 OA
BRANCH  36  39
ATOM     39  C   UNL A   1      34.163  33.698  28.776  1.00  0.00     0.039 A 
ATOM     40  C   UNL A   1      35.388  34.067  28.215  1.00  0.00     0.014 A 
ATOM     41  C   UNL A   1      34.108  32.703  29.757  1.00  0.00     0.014 A 
ATOM     42  C   UNL A   1      36.564  33.474  28.675  1.00  0.00     0.010 A 
ATOM     43  C   UNL A   1      35.285  32.167  30.266  1.00  0.00     0.010 A 
ATOM     44  C   UNL A   1      36.523  32.539  29.721  1.00  0.00    -0.014 A 
BRANCH  44  45
ATOM     45  C   UNL A   1      37.766  31.921  30.241  1.00  0.00     0.031 A 
ATOM     46  C   UNL A   1      38.481  32.537  31.410  1.00  0.00     0.074 A 
ATOM     47  C   UNL A   1      38.270  30.831  29.633  1.00  0.00     0.049 A 
ATOM     48  N   UNL A   1      39.583  32.151  32.001  1.00  0.00    -0.248 NA
ATOM     49  C   UNL A   1      37.895  33.764  31.972  1.00  0.00     0.031 C 
ATOM     50  C   UNL A   1      37.684  30.161  28.470  1.00  0.00     0.029 A 
ATOM     51  N   UNL A   1      39.389  30.090  29.916  1.00  0.00    -0.354 N 
ATOM     52  C   UNL A   1      39.824  33.091  32.996  1.00  0.00     0.074 A 
ATOM     53  C   UNL A   1      38.792  34.098  32.885  1.00  0.00     0.031 C 
ATOM     54  C   UNL A   1      38.425  29.082  28.167  1.00  0.00     0.029 A 
ATOM     55  C   UNL A   1      39.554  29.007  29.088  1.00  0.00     0.049 A 
ATOM     56  H   UNL A   1      40.015  30.314  30.643  1.00  0.00     0.167 HD
ATOM     57  C   UNL A   1      40.801  33.103  33.934  1.00  0.00     0.031 A 
ATOM     58  C   UNL A   1      40.506  28.056  29.079  1.00  0.00     0.031 A 
ATOM     59  C   UNL A   1      41.829  32.102  34.037  1.00  0.00     0.049 A 
ATOM     60  C   UNL A   1      41.601  28.108  30.107  1.00  0.00     0.074 A 
ATOM     61  C   UNL A   1      42.842  31.996  34.972  1.00  0.00     0.029 A 
ATOM     62  N   UNL A   1      41.975  31.033  33.164  1.00  0.00    -0.354 N 
ATOM     63  N   UNL A   1      41.780  28.967  31.081  1.00  0.00    -0.248 NA
ATOM     64  C   UNL A   1      42.617  27.050  30.038  1.00  0.00     0.031 C 
ATOM     65  C   UNL A   1      43.633  30.892  34.634  1.00  0.00     0.029 A 
ATOM     66  C   UNL A   1      43.077  30.277  33.524  1.00  0.00     0.049 A 
ATOM     67  H   UNL A   1      41.383  30.842  32.402  1.00  0.00     0.167 HD
ATOM     68  C   UNL A   1      42.912  28.537  31.761  1.00  0.00     0.074 A 
ATOM     69  C   UNL A   1      43.367  27.333  31.095  1.00  0.00     0.031 C 
ATOM     70  C   UNL A   1      43.519  29.086  32.842  1.00  0.00     0.031 A 
BRANCH  57  71
ATOM     71  C   UNL A   1      40.798  34.250  34.908  1.00  0.00    -0.014 A 
ATOM     72  C   UNL A   1      40.070  34.185  36.108  1.00  0.00     0.009 A 
ATOM     73  C   UNL A   1      41.526  35.415  34.621  1.00  0.00     0.009 A 
ATOM     74  C   UNL A   1      40.025  35.282  36.971  1.00  0.00     0.001 A 
ATOM     75  C   UNL A   1      41.508  36.497  35.504  1.00  0.00     0.001 A 
ATOM     76  C   UNL A   1      40.746  36.435  36.670  1.00  0.00     0.000 A 
ENDBRANCH  57  71
BRANCH  58  77
ATOM     77  C   UNL A   1      40.438  26.948  28.090  1.00  0.00    -0.014 A 
ATOM     78  C   UNL A   1      39.698  25.791  28.376  1.00  0.00     0.009 A 
ATOM     79  C   UNL A   1      41.099  27.045  26.855  1.00  0.00     0.009 A 
ATOM     80  C   UNL A   1      39.637  24.744  27.455  1.00  0.00     0.001 A 
ATOM     81  C   UNL A   1      41.013  26.006  25.925  1.00  0.00     0.001 A 
ATOM     82  C   UNL A   1      40.289  24.854  26.227  1.00  0.00     0.000 A 
ENDBRANCH  58  77
BRANCH  70  83
ATOM     83  C   UNL A   1      44.722  28.368  33.387  1.00  0.00    -0.014 A 
ATOM     84  C   UNL A   1      46.019  28.686  32.958  1.00  0.00     0.009 A 
ATOM     85  C   UNL A   1      44.552  27.379  34.369  1.00  0.00     0.009 A 
ATOM     86  C   UNL A   1      47.120  27.999  33.474  1.00  0.00     0.001 A 
ATOM     87  C   UNL A   1      45.657  26.717  34.905  1.00  0.00     0.001 A 
ATOM     88  C   UNL A   1      46.938  27.019  34.449  1.00  0.00     0.000 A 
ENDBRANCH  70  83
ENDBRANCH  44  45
ENDBRANCH  36  39
ENDBRANCH  34  35
ENDBRANCH  33  34
ENDBRANCH  32  33
ENDBRANCH  31  32
ENDBRANCH   1  31
TORSDOF 18
ENDMDL
MODEL 3
REMARK VINA RESULT:     -11.4      1.618      7.012
REMARK SMILES CC(=O)N1C[C@@H]2C[N@H+](CC(=O)NCc3ccccc3)C[C@]2(C(=O)NCCCCCCNC(=O)c2ccc(-c3c4nc(c(-c5ccccc5)c5ccc([nH]5)c(-c5ccccc5)c5nc(c(-c6ccccc6)c6ccc3[nH]6)C=C5)C=C4)cc2)C1
REMARK SMILES IDX 26 1 25 2 24 3 22 4 23 5 21 7 4 8 5 9 82 10 6 11 7 12 20 13
REMARK SMILES IDX 8 14 2 16 1 17 3 18 9 19 10 20 11 21 12 22 13 24 14 25 15 26
REMARK SMILES IDX 19 27 16 28 18 29 17 30 27 31 28 32 29 33 30 34 31 35 32 36
REMARK SMILES IDX 33 38 34 39 35 40 81 41 36 42 80 43 37 44 38 45 39 46 74 47
REMARK SMILES IDX 40 48 79 49 73 50 75 51 41 52 78 53 72 54 71 55 42 57 64 58
REMARK SMILES IDX 49 59 63 60 50 61 53 62 62 63 76 64 51 65 52 66 61 68 77 69
REMARK SMILES IDX 54 70 43 71 44 72 48 73 45 74 47 75 46 76 65 77 66 78 70 79
REMARK SMILES IDX 67 80 69 81 68 82 55 83 56 84 60 85 57 86 59 87 58 88
REMARK H PARENT 24 6 8 15 12 23 31 37 75 56 53 67
REMARK Flexibility Score: inf
ROOT
ATOM      1  C   UNL A   1      33.692  29.061  26.533  1.00  0.00     0.021 C 
ENDROOT
BRANCH   1   2
ATOM      2  C   UNL A   1      33.729  27.784  25.686  1.00  0.00     0.116 C 
BRANCH   2   3
ATOM      3  N   UNL A   1      32.974  27.780  24.421  1.00  0.00    -0.355 N 
ATOM      4  C   UNL A   1      32.422  26.757  23.640  1.00  0.00     0.234 C 
ATOM      5  O   UNL A   1      31.813  27.130  22.634  1.00  0.00    -0.274 OA
ATOM      6  H   UNL A   1      32.827  28.680  24.049  1.00  0.00     0.163 HD
BRANCH   4   7
ATOM      7  C   UNL A   1      32.613  25.217  24.021  1.00  0.00     0.125 C 
ATOM      8  N   UNL A   1      30.904  23.766  25.250  1.00  0.00    -0.341 N 
ATOM      9  C   UNL A   1      31.487  22.835  24.366  1.00  0.00     0.130 C 
ATOM     10  C   UNL A   1      31.157  25.107  24.722  1.00  0.00     0.143 C 
ATOM     11  C   UNL A   1      32.160  23.721  23.340  1.00  0.00     0.087 C 
ATOM     12  C   UNL A   1      33.397  22.945  22.866  1.00  0.00     0.269 C 
ATOM     13  C   UNL A   1      33.671  25.137  22.870  1.00  0.00     0.282 C 
ATOM     14  N   UNL A   1      34.443  23.919  23.053  1.00  0.00    -0.326 N 
ATOM     15  H   UNL A   1      35.230  23.790  22.417  1.00  0.00     0.348 HD
BRANCH   8  16
ATOM     16  C   UNL A   1      30.776  23.414  26.581  1.00  0.00     0.219 C 
ATOM     17  C   UNL A   1      32.025  22.934  27.257  1.00  0.00     0.114 C 
ATOM     18  O   UNL A   1      29.766  23.633  27.251  1.00  0.00    -0.275 OA
ENDBRANCH   8  16
BRANCH  14  19
ATOM     19  C   UNL A   1      35.200  23.860  24.350  1.00  0.00     0.363 C 
BRANCH  19  20
ATOM     20  C   UNL A   1      36.081  22.629  24.647  1.00  0.00     0.275 C 
ATOM     21  O   UNL A   1      37.310  22.800  24.653  1.00  0.00    -0.268 OA
ATOM     22  N   UNL A   1      35.659  21.352  24.895  1.00  0.00    -0.347 N 
ATOM     23  H   UNL A   1      36.359  20.695  24.680  1.00  0.00     0.164 HD
BRANCH  22  24
ATOM     24  C   UNL A   1      34.446  20.698  25.394  1.00  0.00     0.151 C 
BRANCH  24  25
ATOM     25  C   UNL A   1      34.017  19.427  24.659  1.00  0.00    -0.029 A 
ATOM     26  C   UNL A   1      32.721  19.276  24.152  1.00  0.00     0.005 A 
ATOM     27  C   UNL A   1      34.899  18.350  24.437  1.00  0.00     0.005 A 
ATOM     28  C   UNL A   1      32.301  18.066  23.571  1.00  0.00     0.000 A 
ATOM     29  C   UNL A   1      34.474  17.124  23.903  1.00  0.00     0.000 A 
ATOM     30  C   UNL A   1      33.161  16.974  23.490  1.00  0.00     0.000 A 
ENDBRANCH  24  25
ENDBRANCH  22  24
ENDBRANCH  19  20
ENDBRANCH  14  19
ENDBRANCH   4   7
ENDBRANCH   2   3
ENDBRANCH   1   2
BRANCH   1  31
ATOM     31  C   UNL A   1      32.261  29.459  26.945  1.00  0.00     0.002 C 
BRANCH  31  32
ATOM     32  C   UNL A   1      31.536  30.487  26.057  1.00  0.00     0.002 C 
BRANCH  32  33
ATOM     33  C   UNL A   1      31.375  31.900  26.622  1.00  0.00     0.021 C 
BRANCH  33  34
ATOM     34  C   UNL A   1      32.662  32.580  27.077  1.00  0.00     0.116 C 
BRANCH  34  35
ATOM     35  N   UNL A   1      32.440  33.898  27.653  1.00  0.00    -0.352 N 
ATOM     36  C   UNL A   1      33.169  34.552  28.611  1.00  0.00     0.251 C 
ATOM     37  H   UNL A   1      31.659  34.385  27.308  1.00  0.00     0.163 HD
ATOM     38  O   UNL A   1      32.766  35.627  29.071  1.00  0.00    -0.269 OA
BRANCH  36  39
ATOM     39  C   UNL A   1      34.424  33.967  29.113  1.00  0.00     0.039 A 
ATOM     40  C   UNL A   1      34.395  33.189  30.274  1.00  0.00     0.014 A 
ATOM     41  C   UNL A   1      35.630  34.183  28.440  1.00  0.00     0.014 A 
ATOM     42  C   UNL A   1      35.567  32.587  30.731  1.00  0.00     0.010 A 
ATOM     43  C   UNL A   1      36.781  33.522  28.853  1.00  0.00     0.010 A 
ATOM     44  C   UNL A   1      36.763  32.729  30.009  1.00  0.00    -0.014 A 
BRANCH  44  45
ATOM     45  C   UNL A   1      38.011  32.072  30.465  1.00  0.00     0.031 A 
ATOM     46  C   UNL A   1      38.823  32.684  31.570  1.00  0.00     0.074 A 
ATOM     47  C   UNL A   1      38.432  30.948  29.853  1.00  0.00     0.049 A 
ATOM     48  N   UNL A   1      39.945  32.267  32.101  1.00  0.00    -0.248 NA
ATOM     49  C   UNL A   1      38.323  33.947  32.137  1.00  0.00     0.031 C 
ATOM     50  C   UNL A   1      37.746  30.277  28.747  1.00  0.00     0.029 A 
ATOM     51  N   UNL A   1      39.536  30.169  30.084  1.00  0.00    -0.354 N 
ATOM     52  C   UNL A   1      40.286  33.218  33.054  1.00  0.00     0.074 A 
ATOM     53  C   UNL A   1      39.290  34.265  32.983  1.00  0.00     0.031 C 
ATOM     54  C   UNL A   1      38.423  29.162  28.425  1.00  0.00     0.029 A 
ATOM     55  C   UNL A   1      39.605  29.062  29.275  1.00  0.00     0.049 A 
ATOM     56  H   UNL A   1      40.215  30.383  30.764  1.00  0.00     0.167 HD
ATOM     57  C   UNL A   1      41.321  33.212  33.928  1.00  0.00     0.031 A 
ATOM     58  C   UNL A   1      40.515  28.072  29.230  1.00  0.00     0.031 A 
ATOM     59  C   UNL A   1      42.313  32.172  33.991  1.00  0.00     0.049 A 
ATOM     60  C   UNL A   1      41.675  28.102  30.186  1.00  0.00     0.074 A 
ATOM     61  C   UNL A   1      43.379  32.045  34.863  1.00  0.00     0.029 A 
ATOM     62  N   UNL A   1      42.360  31.078  33.138  1.00  0.00    -0.354 N 
ATOM     63  N   UNL A   1      41.950  28.974  31.125  1.00  0.00    -0.248 NA
ATOM     64  C   UNL A   1      42.642  27.002  30.080  1.00  0.00     0.031 C 
ATOM     65  C   UNL A   1      44.102  30.902  34.504  1.00  0.00     0.029 A 
ATOM     66  C   UNL A   1      43.451  30.285  33.447  1.00  0.00     0.049 A 
ATOM     67  H   UNL A   1      41.714  30.894  32.420  1.00  0.00     0.167 HD
ATOM     68  C   UNL A   1      43.105  28.514  31.743  1.00  0.00     0.074 A 
ATOM     69  C   UNL A   1      43.468  27.277  31.080  1.00  0.00     0.031 C 
ATOM     70  C   UNL A   1      43.801  29.062  32.769  1.00  0.00     0.031 A 
BRANCH  57  71
ATOM     71  C   UNL A   1      41.426  34.380  34.871  1.00  0.00    -0.014 A 
ATOM     72  C   UNL A   1      40.818  34.350  36.137  1.00  0.00     0.009 A 
ATOM     73  C   UNL A   1      42.134  35.528  34.488  1.00  0.00     0.009 A 
ATOM     74  C   UNL A   1      40.870  35.466  36.976  1.00  0.00     0.001 A 
ATOM     75  C   UNL A   1      42.215  36.630  35.342  1.00  0.00     0.001 A 
ATOM     76  C   UNL A   1      41.570  36.603  36.579  1.00  0.00     0.000 A 
ENDBRANCH  57  71
BRANCH  58  77
ATOM     77  C   UNL A   1      40.341  26.946  28.275  1.00  0.00    -0.014 A 
ATOM     78  C   UNL A   1      39.540  25.847  28.619  1.00  0.00     0.009 A 
ATOM     79  C   UNL A   1      40.960  26.968  27.016  1.00  0.00     0.009 A 
ATOM     80  C   UNL A   1      39.378  24.782  27.731  1.00  0.00     0.001 A 
ATOM     81  C   UNL A   1      40.774  25.913  26.119  1.00  0.00     0.001 A 
ATOM     82  C   UNL A   1      39.990  24.818  26.479  1.00  0.00     0.000 A 
ENDBRANCH  58  77
BRANCH  70  83
ATOM     83  C   UNL A   1      45.007  28.308  33.255  1.00  0.00    -0.014 A 
ATOM     84  C   UNL A   1      46.287  28.565  32.740  1.00  0.00     0.009 A 
ATOM     85  C   UNL A   1      44.861  27.346  34.267  1.00  0.00     0.009 A 
ATOM     86  C   UNL A   1      47.391  27.845  33.203  1.00  0.00     0.001 A 
ATOM     87  C   UNL A   1      45.971  26.651  34.749  1.00  0.00     0.001 A 
ATOM     88  C   UNL A   1      47.232  26.893  34.209  1.00  0.00     0.000 A 
ENDBRANCH  70  83
ENDBRANCH  44  45
ENDBRANCH  36  39
ENDBRANCH  34  35
ENDBRANCH  33  34
ENDBRANCH  32  33
ENDBRANCH  31  32
ENDBRANCH   1  31
TORSDOF 18
ENDMDL
