MODEL 1
REMARK VINA RESULT:     -11.3      0.000      0.000
REMARK SMILES CC(C)C[C@H](NS(=O)(=O)N1C[C@@H](C)C[C@H](C)C1)C(=O)NCCCCCCNC(=O)c1ccc(-c2c3nc(c(-c4ccccc4)c4ccc([nH]4)c(-c4ccccc4)c4nc(c(-c5ccccc5)c5ccc2[nH]5)C=C4)C=C3)cc1
REMARK SMILES IDX 23 1 22 2 21 3 20 4 18 5 19 6 5 8 4 9 2 10 1 11 3 12 6 13
REMARK SMILES IDX 7 15 8 16 9 17 10 18 11 19 17 20 12 21 15 22 13 23 14 24
REMARK SMILES IDX 16 25 24 26 25 27 26 28 27 29 28 30 29 32 30 33 31 34 77 35
REMARK SMILES IDX 32 36 76 37 33 38 34 39 35 40 70 41 36 42 75 43 69 44 71 45
REMARK SMILES IDX 37 46 74 47 68 48 67 49 38 51 60 52 45 53 59 54 46 55 49 56
REMARK SMILES IDX 58 57 72 58 47 59 48 60 57 62 73 63 50 64 39 65 40 66 44 67
REMARK SMILES IDX 41 68 43 69 42 70 61 71 62 72 66 73 63 74 65 75 64 76 51 77
REMARK SMILES IDX 52 78 56 79 53 80 55 81 54 82
REMARK H PARENT 20 7 6 14 27 31 71 50 49 61
REMARK Flexibility Score: inf
ROOT
ATOM      1  C   UNL A   1      39.415  23.576  26.434  1.00  0.00     0.002 C 
ENDROOT
BRANCH   1   2
ATOM      2  C   UNL A   1      37.937  24.028  26.465  1.00  0.00     0.021 C 
BRANCH   2   3
ATOM      3  C   UNL A   1      36.891  23.414  25.471  1.00  0.00     0.116 C 
BRANCH   3   4
ATOM      4  N   UNL A   1      35.911  22.491  26.192  1.00  0.00    -0.355 N 
ATOM      5  C   UNL A   1      34.673  21.878  26.170  1.00  0.00     0.238 C 
ATOM      6  O   UNL A   1      34.416  21.399  27.300  1.00  0.00    -0.273 OA
ATOM      7  H   UNL A   1      36.347  22.217  27.030  1.00  0.00     0.163 HD
BRANCH   5   8
ATOM      8  C   UNL A   1      33.338  21.583  24.913  1.00  0.00     0.160 C 
BRANCH   8   9
ATOM      9  C   UNL A   1      32.627  19.876  23.873  1.00  0.00     0.033 C 
BRANCH   9  10
ATOM     10  C   UNL A   1      32.560  18.105  24.217  1.00  0.00    -0.015 C 
ATOM     11  C   UNL A   1      33.661  17.345  23.430  1.00  0.00     0.007 C 
ATOM     12  C   UNL A   1      32.724  17.705  25.688  1.00  0.00     0.007 C 
ENDBRANCH   9  10
ENDBRANCH   8   9
BRANCH   8  13
ATOM     13  N   UNL A   1      33.403  23.066  24.366  1.00  0.00    -0.190 NA
ATOM     14  H   UNL A   1      33.694  23.044  23.388  1.00  0.00     0.143 HD
BRANCH  13  15
ATOM     15  S   UNL A   1      31.933  23.831  24.470  1.00  0.00     0.280 S 
ATOM     16  O   UNL A   1      31.047  23.316  23.487  1.00  0.00    -0.195 OA
ATOM     17  O   UNL A   1      31.618  23.922  25.887  1.00  0.00    -0.195 OA
BRANCH  15  18
ATOM     18  N   UNL A   1      32.736  25.216  23.928  1.00  0.00    -0.188 NA
ATOM     19  C   UNL A   1      31.418  26.126  22.989  1.00  0.00     0.106 C 
ATOM     20  C   UNL A   1      33.687  25.996  25.335  1.00  0.00     0.106 C 
ATOM     21  C   UNL A   1      30.449  27.469  23.936  1.00  0.00     0.001 C 
ATOM     22  C   UNL A   1      32.948  27.513  26.290  1.00  0.00     0.001 C 
ATOM     23  C   UNL A   1      29.097  26.677  23.849  1.00  0.00     0.009 C 
ATOM     24  C   UNL A   1      31.342  28.363  25.516  1.00  0.00     0.009 C 
ATOM     25  C   UNL A   1      34.195  28.394  26.613  1.00  0.00     0.009 C 
ENDBRANCH  15  18
ENDBRANCH  13  15
ENDBRANCH   8  13
ENDBRANCH   5   8
ENDBRANCH   3   4
ENDBRANCH   2   3
ENDBRANCH   1   2
BRANCH   1  26
ATOM     26  C   UNL A   1      39.834  22.220  27.034  1.00  0.00     0.002 C 
BRANCH  26  27
ATOM     27  C   UNL A   1      40.077  21.012  26.110  1.00  0.00     0.021 C 
BRANCH  27  28
ATOM     28  C   UNL A   1      41.070  19.926  26.544  1.00  0.00     0.116 C 
BRANCH  28  29
ATOM     29  N   UNL A   1      42.267  19.853  25.721  1.00  0.00    -0.352 N 
ATOM     30  C   UNL A   1      43.231  20.784  25.412  1.00  0.00     0.251 C 
ATOM     31  H   UNL A   1      42.414  18.971  25.308  1.00  0.00     0.163 HD
ATOM     32  O   UNL A   1      44.106  20.478  24.603  1.00  0.00    -0.269 OA
BRANCH  30  33
ATOM     33  C   UNL A   1      43.257  22.148  26.003  1.00  0.00     0.039 A 
ATOM     34  C   UNL A   1      43.121  23.245  25.139  1.00  0.00     0.014 A 
ATOM     35  C   UNL A   1      43.520  22.380  27.355  1.00  0.00     0.014 A 
ATOM     36  C   UNL A   1      43.203  24.555  25.629  1.00  0.00     0.010 A 
ATOM     37  C   UNL A   1      43.552  23.690  27.854  1.00  0.00     0.010 A 
ATOM     38  C   UNL A   1      43.403  24.792  26.997  1.00  0.00    -0.014 A 
BRANCH  38  39
ATOM     39  C   UNL A   1      43.483  26.182  27.531  1.00  0.00     0.031 A 
ATOM     40  C   UNL A   1      44.818  26.866  27.687  1.00  0.00     0.074 A 
ATOM     41  C   UNL A   1      42.361  26.827  27.907  1.00  0.00     0.049 A 
ATOM     42  N   UNL A   1      45.090  28.052  28.174  1.00  0.00    -0.248 NA
ATOM     43  C   UNL A   1      46.003  26.113  27.250  1.00  0.00     0.031 C 
ATOM     44  C   UNL A   1      41.005  26.279  27.837  1.00  0.00     0.029 A 
ATOM     45  N   UNL A   1      42.183  28.084  28.435  1.00  0.00    -0.354 N 
ATOM     46  C   UNL A   1      46.472  28.181  28.111  1.00  0.00     0.074 A 
ATOM     47  C   UNL A   1      46.987  26.935  27.585  1.00  0.00     0.031 C 
ATOM     48  C   UNL A   1      40.135  27.199  28.289  1.00  0.00     0.029 A 
ATOM     49  C   UNL A   1      40.871  28.387  28.711  1.00  0.00     0.049 A 
ATOM     50  H   UNL A   1      42.925  28.709  28.599  1.00  0.00     0.167 HD
ATOM     51  C   UNL A   1      47.248  29.243  28.441  1.00  0.00     0.031 A 
ATOM     52  C   UNL A   1      40.320  29.491  29.249  1.00  0.00     0.031 A 
ATOM     53  C   UNL A   1      46.746  30.487  28.966  1.00  0.00     0.049 A 
ATOM     54  C   UNL A   1      41.203  30.653  29.620  1.00  0.00     0.074 A 
ATOM     55  C   UNL A   1      47.453  31.625  29.318  1.00  0.00     0.029 A 
ATOM     56  N   UNL A   1      45.409  30.756  29.208  1.00  0.00    -0.354 N 
ATOM     57  N   UNL A   1      42.504  30.769  29.513  1.00  0.00    -0.248 NA
ATOM     58  C   UNL A   1      40.534  31.844  30.163  1.00  0.00     0.031 C 
ATOM     59  C   UNL A   1      46.545  32.572  29.803  1.00  0.00     0.029 A 
ATOM     60  C   UNL A   1      45.268  32.042  29.704  1.00  0.00     0.049 A 
ATOM     61  H   UNL A   1      44.668  30.128  29.050  1.00  0.00     0.167 HD
ATOM     62  C   UNL A   1      42.805  32.056  29.943  1.00  0.00     0.074 A 
ATOM     63  C   UNL A   1      41.549  32.686  30.293  1.00  0.00     0.031 C 
ATOM     64  C   UNL A   1      44.013  32.662  30.036  1.00  0.00     0.031 A 
BRANCH  51  65
ATOM     65  C   UNL A   1      48.732  29.107  28.234  1.00  0.00    -0.014 A 
ATOM     66  C   UNL A   1      49.559  28.610  29.254  1.00  0.00     0.009 A 
ATOM     67  C   UNL A   1      49.306  29.438  26.997  1.00  0.00     0.009 A 
ATOM     68  C   UNL A   1      50.935  28.483  29.053  1.00  0.00     0.001 A 
ATOM     69  C   UNL A   1      50.678  29.283  26.789  1.00  0.00     0.001 A 
ATOM     70  C   UNL A   1      51.492  28.815  27.819  1.00  0.00     0.000 A 
ENDBRANCH  51  65
BRANCH  52  71
ATOM     71  C   UNL A   1      38.850  29.568  29.466  1.00  0.00    -0.014 A 
ATOM     72  C   UNL A   1      37.999  30.022  28.446  1.00  0.00     0.009 A 
ATOM     73  C   UNL A   1      38.293  29.221  30.706  1.00  0.00     0.009 A 
ATOM     74  C   UNL A   1      36.629  30.161  28.675  1.00  0.00     0.001 A 
ATOM     75  C   UNL A   1      36.918  29.330  30.923  1.00  0.00     0.001 A 
ATOM     76  C   UNL A   1      36.089  29.812  29.912  1.00  0.00     0.000 A 
ENDBRANCH  52  71
BRANCH  64  77
ATOM     77  C   UNL A   1      44.029  34.098  30.481  1.00  0.00    -0.014 A 
ATOM     78  C   UNL A   1      43.917  35.152  29.562  1.00  0.00     0.009 A 
ATOM     79  C   UNL A   1      44.133  34.395  31.850  1.00  0.00     0.009 A 
ATOM     80  C   UNL A   1      43.952  36.477  30.002  1.00  0.00     0.001 A 
ATOM     81  C   UNL A   1      44.138  35.719  32.289  1.00  0.00     0.001 A 
ATOM     82  C   UNL A   1      44.059  36.759  31.364  1.00  0.00     0.000 A 
ENDBRANCH  64  77
ENDBRANCH  38  39
ENDBRANCH  30  33
ENDBRANCH  28  29
ENDBRANCH  27  28
ENDBRANCH  26  27
ENDBRANCH   1  26
TORSDOF 18
ENDMDL
MODEL 2
REMARK VINA RESULT:     -11.2      4.201      9.467
REMARK SMILES CC(C)C[C@H](NS(=O)(=O)N1C[C@@H](C)C[C@H](C)C1)C(=O)NCCCCCCNC(=O)c1ccc(-c2c3nc(c(-c4ccccc4)c4ccc([nH]4)c(-c4ccccc4)c4nc(c(-c5ccccc5)c5ccc2[nH]5)C=C4)C=C3)cc1
REMARK SMILES IDX 23 1 22 2 21 3 20 4 18 5 19 6 5 8 4 9 2 10 1 11 3 12 6 13
REMARK SMILES IDX 7 15 8 16 9 17 10 18 11 19 17 20 12 21 15 22 13 23 14 24
REMARK SMILES IDX 16 25 24 26 25 27 26 28 27 29 28 30 29 32 30 33 31 34 77 35
REMARK SMILES IDX 32 36 76 37 33 38 34 39 35 40 70 41 36 42 75 43 69 44 71 45
REMARK SMILES IDX 37 46 74 47 68 48 67 49 38 51 60 52 45 53 59 54 46 55 49 56
REMARK SMILES IDX 58 57 72 58 47 59 48 60 57 62 73 63 50 64 39 65 40 66 44 67
REMARK SMILES IDX 41 68 43 69 42 70 61 71 62 72 66 73 63 74 65 75 64 76 51 77
REMARK SMILES IDX 52 78 56 79 53 80 55 81 54 82
REMARK H PARENT 20 7 6 14 27 31 71 50 49 61
REMARK Flexibility Score: inf
ROOT
ATOM      1  C   UNL A   1      34.896  30.978  27.927  1.00  0.00     0.002 C 
ENDROOT
BRANCH   1   2
ATOM      2  C   UNL A   1      33.743  30.258  27.190  1.00  0.00     0.021 C 
BRANCH   2   3
ATOM      3  C   UNL A   1      34.017  28.959  26.355  1.00  0.00     0.116 C 
BRANCH   3   4
ATOM      4  N   UNL A   1      33.658  29.157  24.884  1.00  0.00    -0.355 N 
ATOM      5  C   UNL A   1      32.837  28.787  23.836  1.00  0.00     0.238 C 
ATOM      6  O   UNL A   1      33.298  29.231  22.758  1.00  0.00    -0.273 OA
ATOM      7  H   UNL A   1      34.276  29.836  24.532  1.00  0.00     0.163 HD
BRANCH   5   8
ATOM      8  C   UNL A   1      31.255  27.834  23.634  1.00  0.00     0.160 C 
BRANCH   8   9
ATOM      9  C   UNL A   1      29.230  28.370  23.301  1.00  0.00     0.033 C 
BRANCH   9  10
ATOM     10  C   UNL A   1      28.387  29.680  22.388  1.00  0.00    -0.015 C 
ATOM     11  C   UNL A   1      27.659  30.650  23.357  1.00  0.00     0.007 C 
ATOM     12  C   UNL A   1      29.277  30.547  21.492  1.00  0.00     0.007 C 
ENDBRANCH   9  10
ENDBRANCH   8   9
BRANCH   8  13
ATOM     13  N   UNL A   1      31.783  26.608  24.483  1.00  0.00    -0.190 NA
ATOM     14  H   UNL A   1      31.180  26.486  25.297  1.00  0.00     0.143 HD
BRANCH  13  15
ATOM     15  S   UNL A   1      31.786  25.200  23.603  1.00  0.00     0.280 S 
ATOM     16  O   UNL A   1      30.453  24.808  23.311  1.00  0.00    -0.195 OA
ATOM     17  O   UNL A   1      32.833  25.342  22.605  1.00  0.00    -0.195 OA
BRANCH  15  18
ATOM     18  N   UNL A   1      32.367  24.452  25.003  1.00  0.00    -0.188 NA
ATOM     19  C   UNL A   1      31.807  22.693  24.805  1.00  0.00     0.106 C 
ATOM     20  C   UNL A   1      34.159  24.911  25.276  1.00  0.00     0.106 C 
ATOM     21  C   UNL A   1      33.051  21.467  24.040  1.00  0.00     0.001 C 
ATOM     22  C   UNL A   1      35.570  23.691  24.746  1.00  0.00     0.001 C 
ATOM     23  C   UNL A   1      32.173  21.242  22.759  1.00  0.00     0.009 C 
ATOM     24  C   UNL A   1      35.026  21.867  24.218  1.00  0.00     0.009 C 
ATOM     25  C   UNL A   1      36.654  23.872  25.854  1.00  0.00     0.009 C 
ENDBRANCH  15  18
ENDBRANCH  13  15
ENDBRANCH   8  13
ENDBRANCH   5   8
ENDBRANCH   3   4
ENDBRANCH   2   3
ENDBRANCH   1   2
BRANCH   1  26
ATOM     26  C   UNL A   1      34.909  32.514  28.053  1.00  0.00     0.002 C 
BRANCH  26  27
ATOM     27  C   UNL A   1      33.581  33.288  28.155  1.00  0.00     0.021 C 
BRANCH  27  28
ATOM     28  C   UNL A   1      33.603  34.752  28.614  1.00  0.00     0.116 C 
BRANCH  28  29
ATOM     29  N   UNL A   1      33.150  34.953  29.981  1.00  0.00    -0.352 N 
ATOM     30  C   UNL A   1      33.646  34.521  31.189  1.00  0.00     0.251 C 
ATOM     31  H   UNL A   1      32.335  35.500  30.056  1.00  0.00     0.163 HD
ATOM     32  O   UNL A   1      33.003  34.764  32.209  1.00  0.00    -0.269 OA
BRANCH  30  33
ATOM     33  C   UNL A   1      34.919  33.763  31.316  1.00  0.00     0.039 A 
ATOM     34  C   UNL A   1      34.878  32.501  31.927  1.00  0.00     0.014 A 
ATOM     35  C   UNL A   1      36.156  34.299  30.955  1.00  0.00     0.014 A 
ATOM     36  C   UNL A   1      36.054  31.768  32.134  1.00  0.00     0.010 A 
ATOM     37  C   UNL A   1      37.328  33.546  31.115  1.00  0.00     0.010 A 
ATOM     38  C   UNL A   1      37.292  32.276  31.714  1.00  0.00    -0.014 A 
BRANCH  38  39
ATOM     39  C   UNL A   1      38.549  31.501  31.920  1.00  0.00     0.031 A 
ATOM     40  C   UNL A   1      39.472  31.831  33.067  1.00  0.00     0.074 A 
ATOM     41  C   UNL A   1      38.885  30.517  31.063  1.00  0.00     0.049 A 
ATOM     42  N   UNL A   1      40.628  31.299  33.380  1.00  0.00    -0.248 NA
ATOM     43  C   UNL A   1      39.045  32.910  33.971  1.00  0.00     0.031 C 
ATOM     44  C   UNL A   1      38.102  30.106  29.896  1.00  0.00     0.029 A 
ATOM     45  N   UNL A   1      39.981  29.687  31.034  1.00  0.00    -0.354 N 
ATOM     46  C   UNL A   1      41.068  31.983  34.507  1.00  0.00     0.074 A 
ATOM     47  C   UNL A   1      40.079  33.000  34.795  1.00  0.00     0.031 C 
ATOM     48  C   UNL A   1      38.733  29.095  29.276  1.00  0.00     0.029 A 
ATOM     49  C   UNL A   1      39.980  28.807  29.979  1.00  0.00     0.049 A 
ATOM     50  H   UNL A   1      40.699  29.720  31.707  1.00  0.00     0.167 HD
ATOM     51  C   UNL A   1      42.182  31.776  35.252  1.00  0.00     0.031 A 
ATOM     52  C   UNL A   1      40.882  27.877  29.612  1.00  0.00     0.031 A 
ATOM     53  C   UNL A   1      43.172  30.768  34.975  1.00  0.00     0.049 A 
ATOM     54  C   UNL A   1      42.117  27.674  30.447  1.00  0.00     0.074 A 
ATOM     55  C   UNL A   1      44.328  30.474  35.679  1.00  0.00     0.029 A 
ATOM     56  N   UNL A   1      43.119  29.885  33.908  1.00  0.00    -0.354 N 
ATOM     57  N   UNL A   1      42.493  28.304  31.533  1.00  0.00    -0.248 NA
ATOM     58  C   UNL A   1      43.041  26.614  30.016  1.00  0.00     0.031 C 
ATOM     59  C   UNL A   1      44.990  29.433  35.020  1.00  0.00     0.029 A 
ATOM     60  C   UNL A   1      44.220  29.045  33.935  1.00  0.00     0.049 A 
ATOM     61  H   UNL A   1      42.404  29.857  33.232  1.00  0.00     0.167 HD
ATOM     62  C   UNL A   1      43.677  27.695  31.934  1.00  0.00     0.074 A 
ATOM     63  C   UNL A   1      43.945  26.635  30.984  1.00  0.00     0.031 C 
ATOM     64  C   UNL A   1      44.468  27.985  32.993  1.00  0.00     0.031 A 
BRANCH  51  65
ATOM     65  C   UNL A   1      42.386  32.660  36.452  1.00  0.00    -0.014 A 
ATOM     66  C   UNL A   1      41.826  32.326  37.696  1.00  0.00     0.009 A 
ATOM     67  C   UNL A   1      43.177  33.814  36.353  1.00  0.00     0.009 A 
ATOM     68  C   UNL A   1      42.023  33.150  38.807  1.00  0.00     0.001 A 
ATOM     69  C   UNL A   1      43.397  34.621  37.472  1.00  0.00     0.001 A 
ATOM     70  C   UNL A   1      42.813  34.294  38.695  1.00  0.00     0.000 A 
ENDBRANCH  51  65
BRANCH  52  71
ATOM     71  C   UNL A   1      40.654  27.048  28.398  1.00  0.00    -0.014 A 
ATOM     72  C   UNL A   1      39.894  25.870  28.467  1.00  0.00     0.009 A 
ATOM     73  C   UNL A   1      41.225  27.412  27.168  1.00  0.00     0.009 A 
ATOM     74  C   UNL A   1      39.741  25.057  27.342  1.00  0.00     0.001 A 
ATOM     75  C   UNL A   1      41.044  26.614  26.037  1.00  0.00     0.001 A 
ATOM     76  C   UNL A   1      40.313  25.431  26.128  1.00  0.00     0.000 A 
ENDBRANCH  52  71
BRANCH  64  77
ATOM     77  C   UNL A   1      45.668  27.108  33.216  1.00  0.00    -0.014 A 
ATOM     78  C   UNL A   1      46.917  27.416  32.657  1.00  0.00     0.009 A 
ATOM     79  C   UNL A   1      45.546  25.964  34.023  1.00  0.00     0.009 A 
ATOM     80  C   UNL A   1      48.010  26.572  32.867  1.00  0.00     0.001 A 
ATOM     81  C   UNL A   1      46.647  25.140  34.254  1.00  0.00     0.001 A 
ATOM     82  C   UNL A   1      47.875  25.438  33.667  1.00  0.00     0.000 A 
ENDBRANCH  64  77
ENDBRANCH  38  39
ENDBRANCH  30  33
ENDBRANCH  28  29
ENDBRANCH  27  28
ENDBRANCH  26  27
ENDBRANCH   1  26
TORSDOF 18
ENDMDL
MODEL 3
REMARK VINA RESULT:     -11.2      5.232     10.445
REMARK SMILES CC(C)C[C@H](NS(=O)(=O)N1C[C@@H](C)C[C@H](C)C1)C(=O)NCCCCCCNC(=O)c1ccc(-c2c3nc(c(-c4ccccc4)c4ccc([nH]4)c(-c4ccccc4)c4nc(c(-c5ccccc5)c5ccc2[nH]5)C=C4)C=C3)cc1
REMARK SMILES IDX 23 1 22 2 21 3 20 4 18 5 19 6 5 8 4 9 2 10 1 11 3 12 6 13
REMARK SMILES IDX 7 15 8 16 9 17 10 18 11 19 17 20 12 21 15 22 13 23 14 24
REMARK SMILES IDX 16 25 24 26 25 27 26 28 27 29 28 30 29 32 30 33 31 34 77 35
REMARK SMILES IDX 32 36 76 37 33 38 34 39 35 40 70 41 36 42 75 43 69 44 71 45
REMARK SMILES IDX 37 46 74 47 68 48 67 49 38 51 60 52 45 53 59 54 46 55 49 56
REMARK SMILES IDX 58 57 72 58 47 59 48 60 57 62 73 63 50 64 39 65 40 66 44 67
REMARK SMILES IDX 41 68 43 69 42 70 61 71 62 72 66 73 63 74 65 75 64 76 51 77
REMARK SMILES IDX 52 78 56 79 53 80 55 81 54 82
REMARK H PARENT 20 7 6 14 27 31 71 50 49 61
REMARK Flexibility Score: inf
ROOT
ATOM      1  C   UNL A   1      33.828  32.068  28.130  1.00  0.00     0.002 C 
ENDROOT
BRANCH   1   2
ATOM      2  C   UNL A   1      34.925  30.981  28.185  1.00  0.00     0.021 C 
BRANCH   2   3
ATOM      3  C   UNL A   1      34.787  29.662  27.347  1.00  0.00     0.116 C 
BRANCH   3   4
ATOM      4  N   UNL A   1      33.450  28.972  27.610  1.00  0.00    -0.355 N 
ATOM      5  C   UNL A   1      32.295  28.444  27.063  1.00  0.00     0.238 C 
ATOM      6  O   UNL A   1      31.456  28.230  27.970  1.00  0.00    -0.273 OA
ATOM      7  H   UNL A   1      33.381  28.853  28.584  1.00  0.00     0.163 HD
BRANCH   5   8
ATOM      8  C   UNL A   1      31.699  27.975  25.368  1.00  0.00     0.160 C 
BRANCH   8   9
ATOM      9  C   UNL A   1      30.806  29.036  23.761  1.00  0.00     0.033 C 
BRANCH   9  10
ATOM     10  C   UNL A   1      29.187  29.774  23.459  1.00  0.00    -0.015 C 
ATOM     11  C   UNL A   1      29.169  31.265  23.888  1.00  0.00     0.007 C 
ATOM     12  C   UNL A   1      28.695  29.732  22.009  1.00  0.00     0.007 C 
ENDBRANCH   9  10
ENDBRANCH   8   9
BRANCH   8  13
ATOM     13  N   UNL A   1      31.417  26.476  25.786  1.00  0.00    -0.190 NA
ATOM     14  H   UNL A   1      30.456  26.401  26.119  1.00  0.00     0.143 HD
BRANCH  13  15
ATOM     15  S   UNL A   1      31.625  25.429  24.513  1.00  0.00     0.280 S 
ATOM     16  O   UNL A   1      30.365  24.948  24.070  1.00  0.00    -0.195 OA
ATOM     17  O   UNL A   1      32.622  26.033  23.644  1.00  0.00    -0.195 OA
BRANCH  15  18
ATOM     18  N   UNL A   1      32.338  24.382  25.633  1.00  0.00    -0.188 NA
ATOM     19  C   UNL A   1      31.853  22.702  25.006  1.00  0.00     0.106 C 
ATOM     20  C   UNL A   1      34.120  24.869  25.921  1.00  0.00     0.106 C 
ATOM     21  C   UNL A   1      33.101  21.804  23.878  1.00  0.00     0.001 C 
ATOM     22  C   UNL A   1      35.549  23.926  25.012  1.00  0.00     0.001 C 
ATOM     23  C   UNL A   1      32.148  21.863  22.632  1.00  0.00     0.009 C 
ATOM     24  C   UNL A   1      35.061  22.273  24.049  1.00  0.00     0.009 C 
ATOM     25  C   UNL A   1      36.697  23.882  26.068  1.00  0.00     0.009 C 
ENDBRANCH  15  18
ENDBRANCH  13  15
ENDBRANCH   8  13
ENDBRANCH   5   8
ENDBRANCH   3   4
ENDBRANCH   2   3
ENDBRANCH   1   2
BRANCH   1  26
ATOM     26  C   UNL A   1      34.115  33.498  28.626  1.00  0.00     0.002 C 
BRANCH  26  27
ATOM     27  C   UNL A   1      33.028  34.584  28.515  1.00  0.00     0.021 C 
BRANCH  27  28
ATOM     28  C   UNL A   1      33.278  35.960  29.145  1.00  0.00     0.116 C 
BRANCH  28  29
ATOM     29  N   UNL A   1      32.527  36.199  30.367  1.00  0.00    -0.352 N 
ATOM     30  C   UNL A   1      32.712  35.769  31.661  1.00  0.00     0.251 C 
ATOM     31  H   UNL A   1      31.739  36.775  30.245  1.00  0.00     0.163 HD
ATOM     32  O   UNL A   1      31.859  36.051  32.501  1.00  0.00    -0.269 OA
BRANCH  30  33
ATOM     33  C   UNL A   1      33.891  34.970  32.087  1.00  0.00     0.039 A 
ATOM     34  C   UNL A   1      35.168  35.459  31.772  1.00  0.00     0.014 A 
ATOM     35  C   UNL A   1      33.776  33.713  32.683  1.00  0.00     0.014 A 
ATOM     36  C   UNL A   1      36.315  34.718  32.090  1.00  0.00     0.010 A 
ATOM     37  C   UNL A   1      34.924  32.995  33.047  1.00  0.00     0.010 A 
ATOM     38  C   UNL A   1      36.206  33.484  32.746  1.00  0.00    -0.014 A 
BRANCH  38  39
ATOM     39  C   UNL A   1      37.419  32.692  33.098  1.00  0.00     0.031 A 
ATOM     40  C   UNL A   1      38.170  32.968  34.376  1.00  0.00     0.074 A 
ATOM     41  C   UNL A   1      37.871  31.739  32.257  1.00  0.00     0.049 A 
ATOM     42  N   UNL A   1      39.269  32.415  34.828  1.00  0.00    -0.248 NA
ATOM     43  C   UNL A   1      37.622  34.013  35.254  1.00  0.00     0.031 C 
ATOM     44  C   UNL A   1      37.260  31.381  30.976  1.00  0.00     0.029 A 
ATOM     45  N   UNL A   1      38.958  30.902  32.351  1.00  0.00    -0.354 N 
ATOM     46  C   UNL A   1      39.546  33.050  36.033  1.00  0.00     0.074 A 
ATOM     47  C   UNL A   1      38.529  34.062  36.218  1.00  0.00     0.031 C 
ATOM     48  C   UNL A   1      37.971  30.391  30.411  1.00  0.00     0.029 A 
ATOM     49  C   UNL A   1      39.104  30.064  31.271  1.00  0.00     0.049 A 
ATOM     50  H   UNL A   1      39.573  30.903  33.119  1.00  0.00     0.167 HD
ATOM     51  C   UNL A   1      40.542  32.804  36.920  1.00  0.00     0.031 A 
ATOM     52  C   UNL A   1      40.047  29.143  30.999  1.00  0.00     0.031 A 
ATOM     53  C   UNL A   1      41.559  31.799  36.745  1.00  0.00     0.049 A 
ATOM     54  C   UNL A   1      41.151  28.897  31.993  1.00  0.00     0.074 A 
ATOM     55  C   UNL A   1      42.602  31.468  37.594  1.00  0.00     0.029 A 
ATOM     56  N   UNL A   1      41.655  30.960  35.647  1.00  0.00    -0.354 N 
ATOM     57  N   UNL A   1      41.370  29.480  33.145  1.00  0.00    -0.248 NA
ATOM     58  C   UNL A   1      42.123  27.847  31.654  1.00  0.00     0.031 C 
ATOM     59  C   UNL A   1      43.349  30.448  36.994  1.00  0.00     0.029 A 
ATOM     60  C   UNL A   1      42.740  30.110  35.796  1.00  0.00     0.049 A 
ATOM     61  H   UNL A   1      41.044  30.965  34.876  1.00  0.00     0.167 HD
ATOM     62  C   UNL A   1      42.483  28.845  33.685  1.00  0.00     0.074 A 
ATOM     63  C   UNL A   1      42.881  27.822  32.741  1.00  0.00     0.031 C 
ATOM     64  C   UNL A   1      43.117  29.087  34.857  1.00  0.00     0.031 A 
BRANCH  51  65
ATOM     65  C   UNL A   1      40.575  33.638  38.171  1.00  0.00    -0.014 A 
ATOM     66  C   UNL A   1      41.269  34.858  38.207  1.00  0.00     0.009 A 
ATOM     67  C   UNL A   1      39.874  33.224  39.315  1.00  0.00     0.009 A 
ATOM     68  C   UNL A   1      41.291  35.628  39.372  1.00  0.00     0.001 A 
ATOM     69  C   UNL A   1      39.874  34.010  40.469  1.00  0.00     0.001 A 
ATOM     70  C   UNL A   1      40.590  35.206  40.500  1.00  0.00     0.000 A 
ENDBRANCH  51  65
BRANCH  52  71
ATOM     71  C   UNL A   1      39.992  28.364  29.732  1.00  0.00    -0.014 A 
ATOM     72  C   UNL A   1      39.317  27.135  29.676  1.00  0.00     0.009 A 
ATOM     73  C   UNL A   1      40.645  28.830  28.580  1.00  0.00     0.009 A 
ATOM     74  C   UNL A   1      39.327  26.373  28.506  1.00  0.00     0.001 A 
ATOM     75  C   UNL A   1      40.627  28.082  27.402  1.00  0.00     0.001 A 
ATOM     76  C   UNL A   1      39.979  26.848  27.369  1.00  0.00     0.000 A 
ENDBRANCH  52  71
BRANCH  64  77
ATOM     77  C   UNL A   1      44.270  28.191  35.212  1.00  0.00    -0.014 A 
ATOM     78  C   UNL A   1      44.081  27.001  35.931  1.00  0.00     0.009 A 
ATOM     79  C   UNL A   1      45.566  28.537  34.796  1.00  0.00     0.009 A 
ATOM     80  C   UNL A   1      45.174  26.197  36.262  1.00  0.00     0.001 A 
ATOM     81  C   UNL A   1      46.651  27.716  35.103  1.00  0.00     0.001 A 
ATOM     82  C   UNL A   1      46.456  26.553  35.846  1.00  0.00     0.000 A 
ENDBRANCH  64  77
ENDBRANCH  38  39
ENDBRANCH  30  33
ENDBRANCH  28  29
ENDBRANCH  27  28
ENDBRANCH  26  27
ENDBRANCH   1  26
TORSDOF 18
ENDMDL
