MODEL 1
REMARK VINA RESULT:     -10.7      0.000      0.000
REMARK SMILES CC(C)=CC[C@@]1(C(=O)NCCCCCCNC(=O)c2ccc(-c3c4nc(c(-c5ccccc5)c5ccc([nH]5)c(-c5ccccc5)c5nc(c(-c6ccccc6)c6ccc3[nH]6)C=C5)C=C4)cc2)CCC[C@H](C)C1
REMARK SMILES IDX 12 1 11 2 10 3 9 4 7 5 8 6 6 8 67 9 72 10 68 11 70 12 69 13
REMARK SMILES IDX 71 14 5 15 4 16 1 17 2 18 3 19 13 20 14 21 15 22 16 23 17 24
REMARK SMILES IDX 18 26 19 27 20 28 66 29 21 30 65 31 22 32 23 33 24 34 59 35
REMARK SMILES IDX 25 36 64 37 58 38 60 39 26 40 63 41 57 42 56 43 27 45 49 46
REMARK SMILES IDX 34 47 48 48 35 49 38 50 47 51 61 52 36 53 37 54 46 56 62 57
REMARK SMILES IDX 39 58 28 59 29 60 33 61 30 62 32 63 31 64 50 65 51 66 55 67
REMARK SMILES IDX 52 68 54 69 53 70 40 71 41 72 45 73 42 74 44 75 43 76
REMARK H PARENT 9 7 16 25 60 44 38 55
REMARK Flexibility Score: inf
ROOT
ATOM      1  C   UNL A   1      30.666  29.390  24.258  1.00  0.00     0.002 C 
ENDROOT
BRANCH   1   2
ATOM      2  C   UNL A   1      31.152  28.948  22.871  1.00  0.00     0.021 C 
BRANCH   2   3
ATOM      3  C   UNL A   1      32.634  28.540  22.763  1.00  0.00     0.116 C 
BRANCH   3   4
ATOM      4  N   UNL A   1      32.777  27.425  21.844  1.00  0.00    -0.356 N 
ATOM      5  C   UNL A   1      33.118  26.124  21.890  1.00  0.00     0.226 C 
ATOM      6  O   UNL A   1      33.274  25.663  20.745  1.00  0.00    -0.274 OA
ATOM      7  H   UNL A   1      32.563  27.700  20.923  1.00  0.00     0.163 HD
BRANCH   5   8
ATOM      8  C   UNL A   1      33.188  25.166  23.123  1.00  0.00     0.053 C 
ATOM      9  C   UNL A   1      33.659  26.105  24.311  1.00  0.00     0.017 C 
ATOM     10  C   UNL A   1      34.352  24.143  22.901  1.00  0.00     0.020 C 
ATOM     11  C   UNL A   1      34.063  25.379  25.588  1.00  0.00     0.001 C 
ATOM     12  C   UNL A   1      34.847  23.427  24.190  1.00  0.00    -0.013 C 
ATOM     13  C   UNL A   1      35.201  24.415  25.308  1.00  0.00     0.003 C 
ATOM     14  C   UNL A   1      36.051  22.525  23.914  1.00  0.00     0.007 C 
BRANCH   8  15
ATOM     15  C   UNL A   1      31.903  24.441  23.641  1.00  0.00     0.044 C 
BRANCH  15  16
ATOM     16  C   UNL A   1      30.490  24.931  23.550  1.00  0.00    -0.027 C 
ATOM     17  C   UNL A   1      30.366  26.087  25.797  1.00  0.00     0.039 C 
ATOM     18  C   UNL A   1      29.874  25.767  24.412  1.00  0.00    -0.080 C 
ATOM     19  C   UNL A   1      28.616  26.486  24.001  1.00  0.00     0.039 C 
ENDBRANCH  15  16
ENDBRANCH   8  15
ENDBRANCH   5   8
ENDBRANCH   3   4
ENDBRANCH   2   3
ENDBRANCH   1   2
BRANCH   1  20
ATOM     20  C   UNL A   1      31.713  29.949  25.225  1.00  0.00     0.002 C 
BRANCH  20  21
ATOM     21  C   UNL A   1      31.324  31.187  26.037  1.00  0.00     0.021 C 
BRANCH  21  22
ATOM     22  C   UNL A   1      32.319  31.639  27.108  1.00  0.00     0.116 C 
BRANCH  22  23
ATOM     23  N   UNL A   1      32.202  33.056  27.410  1.00  0.00    -0.352 N 
ATOM     24  C   UNL A   1      33.003  33.865  28.174  1.00  0.00     0.251 C 
ATOM     25  H   UNL A   1      31.425  33.506  27.003  1.00  0.00     0.163 HD
ATOM     26  O   UNL A   1      32.622  35.001  28.467  1.00  0.00    -0.269 OA
BRANCH  24  27
ATOM     27  C   UNL A   1      34.322  33.402  28.657  1.00  0.00     0.039 A 
ATOM     28  C   UNL A   1      35.458  33.676  27.887  1.00  0.00     0.014 A 
ATOM     29  C   UNL A   1      34.441  32.637  29.820  1.00  0.00     0.014 A 
ATOM     30  C   UNL A   1      36.714  33.219  28.301  1.00  0.00     0.010 A 
ATOM     31  C   UNL A   1      35.700  32.223  30.259  1.00  0.00     0.010 A 
ATOM     32  C   UNL A   1      36.848  32.501  29.498  1.00  0.00    -0.014 A 
BRANCH  32  33
ATOM     33  C   UNL A   1      38.175  32.011  29.958  1.00  0.00     0.031 A 
ATOM     34  C   UNL A   1      38.716  30.701  29.450  1.00  0.00     0.074 A 
ATOM     35  C   UNL A   1      38.873  32.712  30.871  1.00  0.00     0.049 A 
ATOM     36  N   UNL A   1      39.817  30.075  29.785  1.00  0.00    -0.248 NA
ATOM     37  C   UNL A   1      37.902  29.993  28.450  1.00  0.00     0.031 C 
ATOM     38  C   UNL A   1      38.458  33.984  31.463  1.00  0.00     0.029 A 
ATOM     39  N   UNL A   1      40.081  32.445  31.469  1.00  0.00    -0.354 N 
ATOM     40  C   UNL A   1      39.816  28.892  29.055  1.00  0.00     0.074 A 
ATOM     41  C   UNL A   1      38.589  28.871  28.288  1.00  0.00     0.031 C 
ATOM     42  C   UNL A   1      39.402  34.395  32.326  1.00  0.00     0.029 A 
ATOM     43  C   UNL A   1      40.470  33.400  32.375  1.00  0.00     0.049 A 
ATOM     44  H   UNL A   1      40.617  31.644  31.267  1.00  0.00     0.167 HD
ATOM     45  C   UNL A   1      40.757  27.918  29.013  1.00  0.00     0.031 A 
ATOM     46  C   UNL A   1      41.559  33.468  33.163  1.00  0.00     0.031 A 
ATOM     47  C   UNL A   1      41.986  27.941  29.760  1.00  0.00     0.049 A 
ATOM     48  C   UNL A   1      42.585  32.369  33.106  1.00  0.00     0.074 A 
ATOM     49  C   UNL A   1      43.023  27.024  29.742  1.00  0.00     0.029 A 
ATOM     50  N   UNL A   1      42.345  28.933  30.658  1.00  0.00    -0.354 N 
ATOM     51  N   UNL A   1      42.594  31.284  32.371  1.00  0.00    -0.248 NA
ATOM     52  C   UNL A   1      43.757  32.513  33.983  1.00  0.00     0.031 C 
ATOM     53  C   UNL A   1      43.992  27.440  30.661  1.00  0.00     0.029 A 
ATOM     54  C   UNL A   1      43.578  28.641  31.215  1.00  0.00     0.049 A 
ATOM     55  H   UNL A   1      41.803  29.728  30.869  1.00  0.00     0.167 HD
ATOM     56  C   UNL A   1      43.782  30.632  32.674  1.00  0.00     0.074 A 
ATOM     57  C   UNL A   1      44.473  31.447  33.652  1.00  0.00     0.031 C 
ATOM     58  C   UNL A   1      44.257  29.462  32.183  1.00  0.00     0.031 A 
BRANCH  45  59
ATOM     59  C   UNL A   1      40.485  26.732  28.129  1.00  0.00    -0.014 A 
ATOM     60  C   UNL A   1      40.982  26.674  26.818  1.00  0.00     0.009 A 
ATOM     61  C   UNL A   1      39.750  25.644  28.627  1.00  0.00     0.009 A 
ATOM     62  C   UNL A   1      40.715  25.567  26.010  1.00  0.00     0.001 A 
ATOM     63  C   UNL A   1      39.508  24.528  27.825  1.00  0.00     0.001 A 
ATOM     64  C   UNL A   1      39.983  24.493  26.515  1.00  0.00     0.000 A 
ENDBRANCH  45  59
BRANCH  46  65
ATOM     65  C   UNL A   1      41.749  34.630  34.070  1.00  0.00    -0.014 A 
ATOM     66  C   UNL A   1      41.230  34.604  35.374  1.00  0.00     0.009 A 
ATOM     67  C   UNL A   1      42.443  35.769  33.637  1.00  0.00     0.009 A 
ATOM     68  C   UNL A   1      41.380  35.707  36.217  1.00  0.00     0.001 A 
ATOM     69  C   UNL A   1      42.615  36.861  34.491  1.00  0.00     0.001 A 
ATOM     70  C   UNL A   1      42.077  36.832  35.777  1.00  0.00     0.000 A 
ENDBRANCH  46  65
BRANCH  58  71
ATOM     71  C   UNL A   1      45.606  29.011  32.666  1.00  0.00    -0.014 A 
ATOM     72  C   UNL A   1      45.737  28.152  33.768  1.00  0.00     0.009 A 
ATOM     73  C   UNL A   1      46.761  29.419  31.978  1.00  0.00     0.009 A 
ATOM     74  C   UNL A   1      47.001  27.734  34.188  1.00  0.00     0.001 A 
ATOM     75  C   UNL A   1      48.020  28.978  32.385  1.00  0.00     0.001 A 
ATOM     76  C   UNL A   1      48.140  28.142  33.494  1.00  0.00     0.000 A 
ENDBRANCH  58  71
ENDBRANCH  32  33
ENDBRANCH  24  27
ENDBRANCH  22  23
ENDBRANCH  21  22
ENDBRANCH  20  21
ENDBRANCH   1  20
TORSDOF 15
ENDMDL
MODEL 2
REMARK VINA RESULT:     -10.7      2.485      6.999
REMARK SMILES CC(C)=CC[C@@]1(C(=O)NCCCCCCNC(=O)c2ccc(-c3c4nc(c(-c5ccccc5)c5ccc([nH]5)c(-c5ccccc5)c5nc(c(-c6ccccc6)c6ccc3[nH]6)C=C5)C=C4)cc2)CCC[C@H](C)C1
REMARK SMILES IDX 12 1 11 2 10 3 9 4 7 5 8 6 6 8 67 9 72 10 68 11 70 12 69 13
REMARK SMILES IDX 71 14 5 15 4 16 1 17 2 18 3 19 13 20 14 21 15 22 16 23 17 24
REMARK SMILES IDX 18 26 19 27 20 28 66 29 21 30 65 31 22 32 23 33 24 34 59 35
REMARK SMILES IDX 25 36 64 37 58 38 60 39 26 40 63 41 57 42 56 43 27 45 49 46
REMARK SMILES IDX 34 47 48 48 35 49 38 50 47 51 61 52 36 53 37 54 46 56 62 57
REMARK SMILES IDX 39 58 28 59 29 60 33 61 30 62 32 63 31 64 50 65 51 66 55 67
REMARK SMILES IDX 52 68 54 69 53 70 40 71 41 72 45 73 42 74 44 75 43 76
REMARK H PARENT 9 7 16 25 60 44 38 55
REMARK Flexibility Score: inf
ROOT
ATOM      1  C   UNL A   1      30.600  26.362  25.822  1.00  0.00     0.002 C 
ENDROOT
BRANCH   1   2
ATOM      2  C   UNL A   1      30.720  26.809  24.359  1.00  0.00     0.021 C 
BRANCH   2   3
ATOM      3  C   UNL A   1      30.519  25.716  23.290  1.00  0.00     0.116 C 
BRANCH   3   4
ATOM      4  N   UNL A   1      31.723  25.576  22.491  1.00  0.00    -0.356 N 
ATOM      5  C   UNL A   1      32.937  25.006  22.598  1.00  0.00     0.226 C 
ATOM      6  O   UNL A   1      33.682  25.368  21.669  1.00  0.00    -0.274 OA
ATOM      7  H   UNL A   1      31.621  26.026  21.621  1.00  0.00     0.163 HD
BRANCH   5   8
ATOM      8  C   UNL A   1      33.428  23.910  23.599  1.00  0.00     0.053 C 
ATOM      9  C   UNL A   1      33.679  24.708  24.946  1.00  0.00     0.017 C 
ATOM     10  C   UNL A   1      34.834  23.400  23.137  1.00  0.00     0.020 C 
ATOM     11  C   UNL A   1      34.414  23.930  26.031  1.00  0.00     0.001 C 
ATOM     12  C   UNL A   1      35.652  22.660  24.233  1.00  0.00    -0.013 C 
ATOM     13  C   UNL A   1      35.771  23.476  25.525  1.00  0.00     0.003 C 
ATOM     14  C   UNL A   1      37.052  22.284  23.743  1.00  0.00     0.007 C 
BRANCH   8  15
ATOM     15  C   UNL A   1      32.501  22.712  23.983  1.00  0.00     0.044 C 
BRANCH  15  16
ATOM     16  C   UNL A   1      32.538  21.324  23.420  1.00  0.00    -0.027 C 
ATOM     17  C   UNL A   1      33.351  20.118  25.490  1.00  0.00     0.039 C 
ATOM     18  C   UNL A   1      32.760  20.185  24.109  1.00  0.00    -0.080 C 
ATOM     19  C   UNL A   1      32.379  18.854  23.515  1.00  0.00     0.039 C 
ENDBRANCH  15  16
ENDBRANCH   8  15
ENDBRANCH   5   8
ENDBRANCH   3   4
ENDBRANCH   2   3
ENDBRANCH   1   2
BRANCH   1  20
ATOM     20  C   UNL A   1      31.567  26.989  26.830  1.00  0.00     0.002 C 
BRANCH  20  21
ATOM     21  C   UNL A   1      32.541  28.045  26.300  1.00  0.00     0.021 C 
BRANCH  21  22
ATOM     22  C   UNL A   1      33.643  28.496  27.260  1.00  0.00     0.116 C 
BRANCH  22  23
ATOM     23  N   UNL A   1      33.577  29.920  27.549  1.00  0.00    -0.352 N 
ATOM     24  C   UNL A   1      34.486  30.738  28.167  1.00  0.00     0.251 C 
ATOM     25  H   UNL A   1      32.749  30.367  27.254  1.00  0.00     0.163 HD
ATOM     26  O   UNL A   1      34.156  31.882  28.492  1.00  0.00    -0.269 OA
BRANCH  24  27
ATOM     27  C   UNL A   1      35.861  30.277  28.456  1.00  0.00     0.039 A 
ATOM     28  C   UNL A   1      36.807  30.285  27.425  1.00  0.00     0.014 A 
ATOM     29  C   UNL A   1      36.206  29.766  29.711  1.00  0.00     0.014 A 
ATOM     30  C   UNL A   1      38.106  29.821  27.660  1.00  0.00     0.010 A 
ATOM     31  C   UNL A   1      37.515  29.347  29.958  1.00  0.00     0.010 A 
ATOM     32  C   UNL A   1      38.475  29.361  28.934  1.00  0.00    -0.014 A 
BRANCH  32  33
ATOM     33  C   UNL A   1      39.851  28.867  29.204  1.00  0.00     0.031 A 
ATOM     34  C   UNL A   1      40.859  29.762  29.875  1.00  0.00     0.074 A 
ATOM     35  C   UNL A   1      40.217  27.635  28.803  1.00  0.00     0.049 A 
ATOM     36  N   UNL A   1      42.124  29.538  30.132  1.00  0.00    -0.248 NA
ATOM     37  C   UNL A   1      40.388  31.092  30.292  1.00  0.00     0.031 C 
ATOM     38  C   UNL A   1      39.350  26.672  28.124  1.00  0.00     0.029 A 
ATOM     39  N   UNL A   1      41.423  26.985  28.901  1.00  0.00    -0.354 N 
ATOM     40  C   UNL A   1      42.603  30.703  30.719  1.00  0.00     0.074 A 
ATOM     41  C   UNL A   1      41.503  31.644  30.746  1.00  0.00     0.031 C 
ATOM     42  C   UNL A   1      40.046  25.549  27.881  1.00  0.00     0.029 A 
ATOM     43  C   UNL A   1      41.417  25.725  28.355  1.00  0.00     0.049 A 
ATOM     44  H   UNL A   1      42.218  27.385  29.323  1.00  0.00     0.167 HD
ATOM     45  C   UNL A   1      43.840  30.964  31.206  1.00  0.00     0.031 A 
ATOM     46  C   UNL A   1      42.402  24.815  28.241  1.00  0.00     0.031 A 
ATOM     47  C   UNL A   1      44.932  30.027  31.197  1.00  0.00     0.049 A 
ATOM     48  C   UNL A   1      43.770  25.130  28.780  1.00  0.00     0.074 A 
ATOM     49  C   UNL A   1      46.207  30.184  31.715  1.00  0.00     0.029 A 
ATOM     50  N   UNL A   1      44.879  28.758  30.643  1.00  0.00    -0.354 N 
ATOM     51  N   UNL A   1      44.191  26.217  29.379  1.00  0.00    -0.248 NA
ATOM     52  C   UNL A   1      44.795  24.087  28.634  1.00  0.00     0.031 C 
ATOM     53  C   UNL A   1      46.938  29.023  31.437  1.00  0.00     0.029 A 
ATOM     54  C   UNL A   1      46.102  28.128  30.790  1.00  0.00     0.049 A 
ATOM     55  H   UNL A   1      44.087  28.363  30.211  1.00  0.00     0.167 HD
ATOM     56  C   UNL A   1      45.518  25.977  29.708  1.00  0.00     0.074 A 
ATOM     57  C   UNL A   1      45.831  24.639  29.251  1.00  0.00     0.031 C 
ATOM     58  C   UNL A   1      46.399  26.795  30.334  1.00  0.00     0.031 A 
BRANCH  45  59
ATOM     59  C   UNL A   1      44.081  32.330  31.786  1.00  0.00    -0.014 A 
ATOM     60  C   UNL A   1      44.534  33.390  30.984  1.00  0.00     0.009 A 
ATOM     61  C   UNL A   1      43.821  32.567  33.145  1.00  0.00     0.009 A 
ATOM     62  C   UNL A   1      44.757  34.651  31.541  1.00  0.00     0.001 A 
ATOM     63  C   UNL A   1      44.019  33.836  33.692  1.00  0.00     0.001 A 
ATOM     64  C   UNL A   1      44.496  34.874  32.892  1.00  0.00     0.000 A 
ENDBRANCH  45  59
BRANCH  46  65
ATOM     65  C   UNL A   1      42.130  23.502  27.598  1.00  0.00    -0.014 A 
ATOM     66  C   UNL A   1      41.580  22.448  28.343  1.00  0.00     0.009 A 
ATOM     67  C   UNL A   1      42.424  23.296  26.242  1.00  0.00     0.009 A 
ATOM     68  C   UNL A   1      41.353  21.205  27.749  1.00  0.00     0.001 A 
ATOM     69  C   UNL A   1      42.171  22.060  25.643  1.00  0.00     0.001 A 
ATOM     70  C   UNL A   1      41.645  21.013  26.399  1.00  0.00     0.000 A 
ENDBRANCH  46  65
BRANCH  58  71
ATOM     71  C   UNL A   1      47.775  26.251  30.598  1.00  0.00    -0.014 A 
ATOM     72  C   UNL A   1      48.112  25.692  31.840  1.00  0.00     0.009 A 
ATOM     73  C   UNL A   1      48.733  26.262  29.571  1.00  0.00     0.009 A 
ATOM     74  C   UNL A   1      49.392  25.179  32.057  1.00  0.00     0.001 A 
ATOM     75  C   UNL A   1      50.003  25.725  29.783  1.00  0.00     0.001 A 
ATOM     76  C   UNL A   1      50.334  25.191  31.027  1.00  0.00     0.000 A 
ENDBRANCH  58  71
ENDBRANCH  32  33
ENDBRANCH  24  27
ENDBRANCH  22  23
ENDBRANCH  21  22
ENDBRANCH  20  21
ENDBRANCH   1  20
TORSDOF 15
ENDMDL
MODEL 3
REMARK VINA RESULT:     -10.3      4.096      8.073
REMARK SMILES CC(C)=CC[C@@]1(C(=O)NCCCCCCNC(=O)c2ccc(-c3c4nc(c(-c5ccccc5)c5ccc([nH]5)c(-c5ccccc5)c5nc(c(-c6ccccc6)c6ccc3[nH]6)C=C5)C=C4)cc2)CCC[C@H](C)C1
REMARK SMILES IDX 12 1 11 2 10 3 9 4 7 5 8 6 6 8 67 9 72 10 68 11 70 12 69 13
REMARK SMILES IDX 71 14 5 15 4 16 1 17 2 18 3 19 13 20 14 21 15 22 16 23 17 24
REMARK SMILES IDX 18 26 19 27 20 28 66 29 21 30 65 31 22 32 23 33 24 34 59 35
REMARK SMILES IDX 25 36 64 37 58 38 60 39 26 40 63 41 57 42 56 43 27 45 49 46
REMARK SMILES IDX 34 47 48 48 35 49 38 50 47 51 61 52 36 53 37 54 46 56 62 57
REMARK SMILES IDX 39 58 28 59 29 60 33 61 30 62 32 63 31 64 50 65 51 66 55 67
REMARK SMILES IDX 52 68 54 69 53 70 40 71 41 72 45 73 42 74 44 75 43 76
REMARK H PARENT 9 7 16 25 60 44 38 55
REMARK Flexibility Score: inf
ROOT
ATOM      1  C   UNL A   1      34.716  35.006  32.456  1.00  0.00     0.002 C 
ENDROOT
BRANCH   1   2
ATOM      2  C   UNL A   1      35.825  34.997  33.517  1.00  0.00     0.021 C 
BRANCH   2   3
ATOM      3  C   UNL A   1      35.758  33.871  34.567  1.00  0.00     0.116 C 
BRANCH   3   4
ATOM      4  N   UNL A   1      36.599  32.760  34.159  1.00  0.00    -0.356 N 
ATOM      5  C   UNL A   1      37.778  32.213  34.508  1.00  0.00     0.226 C 
ATOM      6  O   UNL A   1      38.138  31.362  33.675  1.00  0.00    -0.274 OA
ATOM      7  H   UNL A   1      36.188  32.264  33.414  1.00  0.00     0.163 HD
BRANCH   5   8
ATOM      8  C   UNL A   1      38.606  32.409  35.819  1.00  0.00     0.053 C 
ATOM      9  C   UNL A   1      37.677  31.805  36.953  1.00  0.00     0.017 C 
ATOM     10  C   UNL A   1      38.711  33.941  36.124  1.00  0.00     0.020 C 
ATOM     11  C   UNL A   1      38.126  32.096  38.380  1.00  0.00     0.001 C 
ATOM     12  C   UNL A   1      39.097  34.290  37.590  1.00  0.00    -0.013 C 
ATOM     13  C   UNL A   1      38.193  33.594  38.614  1.00  0.00     0.003 C 
ATOM     14  C   UNL A   1      39.077  35.798  37.841  1.00  0.00     0.007 C 
BRANCH   8  15
ATOM     15  C   UNL A   1      39.995  31.712  35.994  1.00  0.00     0.044 C 
BRANCH  15  16
ATOM     16  C   UNL A   1      40.558  30.598  35.165  1.00  0.00    -0.027 C 
ATOM     17  C   UNL A   1      42.717  30.259  36.441  1.00  0.00     0.039 C 
ATOM     18  C   UNL A   1      41.660  29.870  35.443  1.00  0.00    -0.080 C 
ATOM     19  C   UNL A   1      41.885  28.547  34.760  1.00  0.00     0.039 C 
ENDBRANCH  15  16
ENDBRANCH   8  15
ENDBRANCH   5   8
ENDBRANCH   3   4
ENDBRANCH   2   3
ENDBRANCH   1   2
BRANCH   1  20
ATOM     20  C   UNL A   1      34.015  36.340  32.184  1.00  0.00     0.002 C 
BRANCH  20  21
ATOM     21  C   UNL A   1      32.900  36.343  31.135  1.00  0.00     0.021 C 
BRANCH  21  22
ATOM     22  C   UNL A   1      33.343  36.359  29.671  1.00  0.00     0.116 C 
BRANCH  22  23
ATOM     23  N   UNL A   1      32.656  35.355  28.873  1.00  0.00    -0.352 N 
ATOM     24  C   UNL A   1      33.121  34.180  28.343  1.00  0.00     0.251 C 
ATOM     25  H   UNL A   1      31.709  35.550  28.685  1.00  0.00     0.163 HD
ATOM     26  O   UNL A   1      32.430  33.563  27.528  1.00  0.00    -0.269 OA
BRANCH  24  27
ATOM     27  C   UNL A   1      34.441  33.634  28.727  1.00  0.00     0.039 A 
ATOM     28  C   UNL A   1      34.520  32.759  29.815  1.00  0.00     0.014 A 
ATOM     29  C   UNL A   1      35.610  34.035  28.073  1.00  0.00     0.014 A 
ATOM     30  C   UNL A   1      35.760  32.255  30.223  1.00  0.00     0.010 A 
ATOM     31  C   UNL A   1      36.841  33.495  28.449  1.00  0.00     0.010 A 
ATOM     32  C   UNL A   1      36.930  32.608  29.535  1.00  0.00    -0.014 A 
BRANCH  32  33
ATOM     33  C   UNL A   1      38.256  32.080  29.950  1.00  0.00     0.031 A 
ATOM     34  C   UNL A   1      38.726  30.737  29.457  1.00  0.00     0.074 A 
ATOM     35  C   UNL A   1      39.020  32.778  30.812  1.00  0.00     0.049 A 
ATOM     36  N   UNL A   1      39.816  30.078  29.762  1.00  0.00    -0.248 NA
ATOM     37  C   UNL A   1      37.843  30.034  28.513  1.00  0.00     0.031 C 
ATOM     38  C   UNL A   1      38.679  34.081  31.384  1.00  0.00     0.029 A 
ATOM     39  N   UNL A   1      40.243  32.482  31.364  1.00  0.00    -0.354 N 
ATOM     40  C   UNL A   1      39.739  28.877  29.066  1.00  0.00     0.074 A 
ATOM     41  C   UNL A   1      38.479  28.883  28.354  1.00  0.00     0.031 C 
ATOM     42  C   UNL A   1      39.675  34.478  32.194  1.00  0.00     0.029 A 
ATOM     43  C   UNL A   1      40.707  33.445  32.225  1.00  0.00     0.049 A 
ATOM     44  H   UNL A   1      40.739  31.655  31.162  1.00  0.00     0.167 HD
ATOM     45  C   UNL A   1      40.640  27.867  29.012  1.00  0.00     0.031 A 
ATOM     46  C   UNL A   1      41.832  33.492  32.963  1.00  0.00     0.031 A 
ATOM     47  C   UNL A   1      41.902  27.863  29.704  1.00  0.00     0.049 A 
ATOM     48  C   UNL A   1      42.813  32.354  32.894  1.00  0.00     0.074 A 
ATOM     49  C   UNL A   1      42.902  26.906  29.667  1.00  0.00     0.029 A 
ATOM     50  N   UNL A   1      42.337  28.864  30.557  1.00  0.00    -0.354 N 
ATOM     51  N   UNL A   1      42.748  31.250  32.190  1.00  0.00    -0.248 NA
ATOM     52  C   UNL A   1      44.026  32.476  33.714  1.00  0.00     0.031 C 
ATOM     53  C   UNL A   1      43.926  27.310  30.532  1.00  0.00     0.029 A 
ATOM     54  C   UNL A   1      43.582  28.540  31.068  1.00  0.00     0.049 A 
ATOM     55  H   UNL A   1      41.834  29.684  30.768  1.00  0.00     0.167 HD
ATOM     56  C   UNL A   1      43.923  30.561  32.460  1.00  0.00     0.074 A 
ATOM     57  C   UNL A   1      44.687  31.375  33.383  1.00  0.00     0.031 C 
ATOM     58  C   UNL A   1      44.332  29.360  31.982  1.00  0.00     0.031 A 
BRANCH  45  59
ATOM     59  C   UNL A   1      40.286  26.669  28.175  1.00  0.00    -0.014 A 
ATOM     60  C   UNL A   1      39.445  25.660  28.669  1.00  0.00     0.009 A 
ATOM     61  C   UNL A   1      40.773  26.566  26.862  1.00  0.00     0.009 A 
ATOM     62  C   UNL A   1      39.131  24.552  27.879  1.00  0.00     0.001 A 
ATOM     63  C   UNL A   1      40.435  25.471  26.066  1.00  0.00     0.001 A 
ATOM     64  C   UNL A   1      39.622  24.461  26.578  1.00  0.00     0.000 A 
ENDBRANCH  45  59
BRANCH  46  65
ATOM     65  C   UNL A   1      42.105  34.669  33.828  1.00  0.00    -0.014 A 
ATOM     66  C   UNL A   1      42.628  35.849  33.276  1.00  0.00     0.009 A 
ATOM     67  C   UNL A   1      41.851  34.618  35.207  1.00  0.00     0.009 A 
ATOM     68  C   UNL A   1      42.914  36.945  34.092  1.00  0.00     0.001 A 
ATOM     69  C   UNL A   1      42.114  35.725  36.016  1.00  0.00     0.001 A 
ATOM     70  C   UNL A   1      42.653  36.884  35.460  1.00  0.00     0.000 A 
ENDBRANCH  46  65
BRANCH  58  71
ATOM     71  C   UNL A   1      45.684  28.871  32.419  1.00  0.00    -0.014 A 
ATOM     72  C   UNL A   1      45.830  28.025  33.528  1.00  0.00     0.009 A 
ATOM     73  C   UNL A   1      46.823  29.229  31.680  1.00  0.00     0.009 A 
ATOM     74  C   UNL A   1      47.094  27.569  33.906  1.00  0.00     0.001 A 
ATOM     75  C   UNL A   1      48.082  28.752  32.045  1.00  0.00     0.001 A 
ATOM     76  C   UNL A   1      48.218  27.929  33.161  1.00  0.00     0.000 A 
ENDBRANCH  58  71
ENDBRANCH  32  33
ENDBRANCH  24  27
ENDBRANCH  22  23
ENDBRANCH  21  22
ENDBRANCH  20  21
ENDBRANCH   1  20
TORSDOF 15
ENDMDL
