MODEL 1
REMARK VINA RESULT:     -13.3      0.000      0.000
REMARK SMILES Cc1ccc([C@@H](C)Nc2ccc(N)cc2C(=O)NCCCCCCNC(=O)c2ccc(-c3c4nc(c(-c5ccccc5)c5ccc([nH]5)c(-c5ccccc5)c5nc(c(-c6ccccc6)c6ccc3[nH]6)C=C5)C=C4)cc2)cc1F
REMARK SMILES IDX 21 1 20 2 19 3 18 4 16 5 17 6 15 8 9 9 10 10 11 11 14 12
REMARK SMILES IDX 12 13 8 14 6 16 7 17 5 18 1 19 2 20 3 21 77 22 4 23 76 24
REMARK SMILES IDX 78 25 13 26 22 29 23 30 24 31 25 32 26 33 27 35 28 36 29 37
REMARK SMILES IDX 75 38 30 39 74 40 31 41 32 42 33 43 68 44 34 45 73 46 67 47
REMARK SMILES IDX 69 48 35 49 72 50 66 51 65 52 36 54 58 55 43 56 57 57 44 58
REMARK SMILES IDX 47 59 56 60 70 61 45 62 46 63 55 65 71 66 48 67 37 68 38 69
REMARK SMILES IDX 42 70 39 71 41 72 40 73 59 74 60 75 64 76 61 77 63 78 62 79
REMARK SMILES IDX 49 80 50 81 54 82 51 83 53 84 52 85
REMARK H PARENT 18 7 8 15 13 27 13 28 25 34 69 53 47 64
REMARK Flexibility Score: inf
ROOT
ATOM      1  C   UNL A   1      33.189  29.617  26.033  1.00  0.00     0.002 C 
ENDROOT
BRANCH   1   2
ATOM      2  C   UNL A   1      34.099  28.577  24.339  1.00  0.00     0.021 C 
BRANCH   2   3
ATOM      3  C   UNL A   1      33.858  28.415  22.624  1.00  0.00     0.116 C 
BRANCH   3   4
ATOM      4  N   UNL A   1      33.224  27.237  22.047  1.00  0.00    -0.352 N 
ATOM      5  C   UNL A   1      31.898  26.939  21.850  1.00  0.00     0.253 C 
ATOM      6  O   UNL A   1      31.591  25.948  21.188  1.00  0.00    -0.269 OA
ATOM      7  H   UNL A   1      33.851  26.538  21.748  1.00  0.00     0.163 HD
BRANCH   5   8
ATOM      8  C   UNL A   1      30.852  27.704  22.560  1.00  0.00     0.065 A 
ATOM      9  C   UNL A   1      29.851  27.136  23.355  1.00  0.00     0.048 A 
ATOM     10  C   UNL A   1      28.653  27.878  23.404  1.00  0.00     0.028 A 
ATOM     11  C   UNL A   1      28.534  29.166  22.844  1.00  0.00     0.027 A 
ATOM     12  C   UNL A   1      30.791  29.051  22.137  1.00  0.00     0.041 A 
ATOM     13  C   UNL A   1      29.640  29.809  22.308  1.00  0.00     0.032 A 
BRANCH   9  14
ATOM     14  N   UNL A   1      29.901  25.941  24.057  1.00  0.00    -0.378 N 
ATOM     15  H   UNL A   1      29.420  25.200  23.620  1.00  0.00     0.161 HD
BRANCH  14  16
ATOM     16  C   UNL A   1      30.541  25.570  25.336  1.00  0.00     0.106 C 
ATOM     17  C   UNL A   1      30.874  26.752  26.235  1.00  0.00     0.036 C 
BRANCH  16  18
ATOM     18  C   UNL A   1      31.535  24.422  25.154  1.00  0.00    -0.023 A 
ATOM     19  C   UNL A   1      35.326  20.991  24.814  1.00  0.00     0.047 C 
ATOM     20  C   UNL A   1      34.210  21.968  24.984  1.00  0.00    -0.015 A 
ATOM     21  C   UNL A   1      34.569  23.718  24.769  1.00  0.00     0.007 A 
ATOM     22  C   UNL A   1      32.501  21.440  25.243  1.00  0.00     0.126 A 
ATOM     23  C   UNL A   1      33.245  24.938  24.881  1.00  0.00     0.006 A 
ATOM     24  C   UNL A   1      31.161  22.659  25.326  1.00  0.00     0.045 A 
ATOM     25  F   UNL A   1      32.230  20.142  25.426  1.00  0.00    -0.207 F 
ENDBRANCH  16  18
ENDBRANCH  14  16
ENDBRANCH   9  14
BRANCH  13  26
ATOM     26  N   UNL A   1      29.551  31.081  21.766  1.00  0.00    -0.399 N 
ATOM     27  H   UNL A   1      30.218  31.765  22.005  1.00  0.00     0.156 HD
ATOM     28  H   UNL A   1      28.822  31.301  21.143  1.00  0.00     0.156 HD
ENDBRANCH  13  26
ENDBRANCH   5   8
ENDBRANCH   3   4
ENDBRANCH   2   3
ENDBRANCH   1   2
BRANCH   1  29
ATOM     29  C   UNL A   1      31.748  30.428  26.435  1.00  0.00     0.002 C 
BRANCH  29  30
ATOM     30  C   UNL A   1      31.599  31.957  26.571  1.00  0.00     0.021 C 
BRANCH  30  31
ATOM     31  C   UNL A   1      32.604  32.792  27.363  1.00  0.00     0.116 C 
BRANCH  31  32
ATOM     32  N   UNL A   1      32.243  34.162  27.670  1.00  0.00    -0.352 N 
ATOM     33  C   UNL A   1      32.913  34.978  28.564  1.00  0.00     0.251 C 
ATOM     34  H   UNL A   1      31.462  34.541  27.207  1.00  0.00     0.163 HD
ATOM     35  O   UNL A   1      32.510  36.094  28.863  1.00  0.00    -0.269 OA
BRANCH  33  36
ATOM     36  C   UNL A   1      34.152  34.449  29.177  1.00  0.00     0.039 A 
ATOM     37  C   UNL A   1      34.076  33.710  30.359  1.00  0.00     0.014 A 
ATOM     38  C   UNL A   1      35.370  34.612  28.512  1.00  0.00     0.014 A 
ATOM     39  C   UNL A   1      35.229  33.100  30.857  1.00  0.00     0.010 A 
ATOM     40  C   UNL A   1      36.502  33.944  28.976  1.00  0.00     0.010 A 
ATOM     41  C   UNL A   1      36.448  33.194  30.161  1.00  0.00    -0.014 A 
BRANCH  41  42
ATOM     42  C   UNL A   1      37.671  32.541  30.698  1.00  0.00     0.031 A 
ATOM     43  C   UNL A   1      38.303  33.052  31.965  1.00  0.00     0.074 A 
ATOM     44  C   UNL A   1      38.208  31.485  30.054  1.00  0.00     0.049 A 
ATOM     45  N   UNL A   1      39.330  32.579  32.624  1.00  0.00    -0.248 NA
ATOM     46  C   UNL A   1      37.714  34.262  32.562  1.00  0.00     0.031 C 
ATOM     47  C   UNL A   1      37.711  30.915  28.800  1.00  0.00     0.029 A 
ATOM     48  N   UNL A   1      39.281  30.689  30.376  1.00  0.00    -0.354 N 
ATOM     49  C   UNL A   1      39.507  33.432  33.707  1.00  0.00     0.074 A 
ATOM     50  C   UNL A   1      38.530  34.489  33.579  1.00  0.00     0.031 C 
ATOM     51  C   UNL A   1      38.442  29.833  28.488  1.00  0.00     0.029 A 
ATOM     52  C   UNL A   1      39.487  29.657  29.491  1.00  0.00     0.049 A 
ATOM     53  H   UNL A   1      39.848  30.845  31.166  1.00  0.00     0.167 HD
ATOM     54  C   UNL A   1      40.384  33.331  34.734  1.00  0.00     0.031 A 
ATOM     55  C   UNL A   1      40.412  28.677  29.492  1.00  0.00     0.031 A 
ATOM     56  C   UNL A   1      41.362  32.283  34.855  1.00  0.00     0.049 A 
ATOM     57  C   UNL A   1      41.407  28.615  30.620  1.00  0.00     0.074 A 
ATOM     58  C   UNL A   1      42.272  32.068  35.875  1.00  0.00     0.029 A 
ATOM     59  N   UNL A   1      41.562  31.280  33.919  1.00  0.00    -0.354 N 
ATOM     60  N   UNL A   1      41.510  29.385  31.676  1.00  0.00    -0.248 NA
ATOM     61  C   UNL A   1      42.405  27.537  30.561  1.00  0.00     0.031 C 
ATOM     62  C   UNL A   1      43.075  30.981  35.517  1.00  0.00     0.029 A 
ATOM     63  C   UNL A   1      42.609  30.467  34.318  1.00  0.00     0.049 A 
ATOM     64  H   UNL A   1      41.038  31.164  33.094  1.00  0.00     0.167 HD
ATOM     65  C   UNL A   1      42.564  28.869  32.420  1.00  0.00     0.074 A 
ATOM     66  C   UNL A   1      43.049  27.705  31.707  1.00  0.00     0.031 C 
ATOM     67  C   UNL A   1      43.084  29.316  33.591  1.00  0.00     0.031 A 
BRANCH  54  68
ATOM     68  C   UNL A   1      40.338  34.400  35.795  1.00  0.00    -0.014 A 
ATOM     69  C   UNL A   1      41.085  35.584  35.676  1.00  0.00     0.009 A 
ATOM     70  C   UNL A   1      39.515  34.231  36.918  1.00  0.00     0.009 A 
ATOM     71  C   UNL A   1      41.042  36.554  36.680  1.00  0.00     0.001 A 
ATOM     72  C   UNL A   1      39.446  35.219  37.902  1.00  0.00     0.001 A 
ATOM     73  C   UNL A   1      40.218  36.373  37.788  1.00  0.00     0.000 A 
ENDBRANCH  54  68
BRANCH  55  74
ATOM     74  C   UNL A   1      40.443  27.672  28.393  1.00  0.00    -0.014 A 
ATOM     75  C   UNL A   1      41.172  27.910  27.217  1.00  0.00     0.009 A 
ATOM     76  C   UNL A   1      39.722  26.473  28.506  1.00  0.00     0.009 A 
ATOM     77  C   UNL A   1      41.147  26.988  26.167  1.00  0.00     0.001 A 
ATOM     78  C   UNL A   1      39.730  25.535  27.471  1.00  0.00     0.001 A 
ATOM     79  C   UNL A   1      40.431  25.799  26.297  1.00  0.00     0.000 A 
ENDBRANCH  55  74
BRANCH  67  80
ATOM     80  C   UNL A   1      44.215  28.526  34.189  1.00  0.00    -0.014 A 
ATOM     81  C   UNL A   1      43.982  27.441  35.048  1.00  0.00     0.009 A 
ATOM     82  C   UNL A   1      45.540  28.850  33.852  1.00  0.00     0.009 A 
ATOM     83  C   UNL A   1      45.051  26.728  35.594  1.00  0.00     0.001 A 
ATOM     84  C   UNL A   1      46.605  28.110  34.366  1.00  0.00     0.001 A 
ATOM     85  C   UNL A   1      46.361  27.059  35.248  1.00  0.00     0.000 A 
ENDBRANCH  67  80
ENDBRANCH  41  42
ENDBRANCH  33  36
ENDBRANCH  31  32
ENDBRANCH  30  31
ENDBRANCH  29  30
ENDBRANCH   1  29
TORSDOF 17
ENDMDL
MODEL 2
REMARK VINA RESULT:     -13.1      1.910      2.697
REMARK SMILES Cc1ccc([C@@H](C)Nc2ccc(N)cc2C(=O)NCCCCCCNC(=O)c2ccc(-c3c4nc(c(-c5ccccc5)c5ccc([nH]5)c(-c5ccccc5)c5nc(c(-c6ccccc6)c6ccc3[nH]6)C=C5)C=C4)cc2)cc1F
REMARK SMILES IDX 21 1 20 2 19 3 18 4 16 5 17 6 15 8 9 9 10 10 11 11 14 12
REMARK SMILES IDX 12 13 8 14 6 16 7 17 5 18 1 19 2 20 3 21 77 22 4 23 76 24
REMARK SMILES IDX 78 25 13 26 22 29 23 30 24 31 25 32 26 33 27 35 28 36 29 37
REMARK SMILES IDX 75 38 30 39 74 40 31 41 32 42 33 43 68 44 34 45 73 46 67 47
REMARK SMILES IDX 69 48 35 49 72 50 66 51 65 52 36 54 58 55 43 56 57 57 44 58
REMARK SMILES IDX 47 59 56 60 70 61 45 62 46 63 55 65 71 66 48 67 37 68 38 69
REMARK SMILES IDX 42 70 39 71 41 72 40 73 59 74 60 75 64 76 61 77 63 78 62 79
REMARK SMILES IDX 49 80 50 81 54 82 51 83 53 84 52 85
REMARK H PARENT 18 7 8 15 13 27 13 28 25 34 69 53 47 64
REMARK Flexibility Score: inf
ROOT
ATOM      1  C   UNL A   1      35.230  32.349  28.010  1.00  0.00     0.002 C 
ENDROOT
BRANCH   1   2
ATOM      2  C   UNL A   1      34.246  30.429  27.657  1.00  0.00     0.021 C 
BRANCH   2   3
ATOM      3  C   UNL A   1      33.271  29.667  26.434  1.00  0.00     0.116 C 
BRANCH   3   4
ATOM      4  N   UNL A   1      33.769  28.549  25.644  1.00  0.00    -0.352 N 
ATOM      5  C   UNL A   1      33.234  27.918  24.548  1.00  0.00     0.253 C 
ATOM      6  O   UNL A   1      33.909  27.095  23.932  1.00  0.00    -0.269 OA
ATOM      7  H   UNL A   1      34.632  28.185  25.946  1.00  0.00     0.163 HD
BRANCH   5   8
ATOM      8  C   UNL A   1      31.809  28.104  24.207  1.00  0.00     0.065 A 
ATOM      9  C   UNL A   1      30.793  27.184  24.496  1.00  0.00     0.048 A 
ATOM     10  C   UNL A   1      29.711  27.207  23.593  1.00  0.00     0.028 A 
ATOM     11  C   UNL A   1      29.579  28.189  22.590  1.00  0.00     0.027 A 
ATOM     12  C   UNL A   1      31.604  29.179  23.313  1.00  0.00     0.041 A 
ATOM     13  C   UNL A   1      30.468  29.251  22.519  1.00  0.00     0.032 A 
BRANCH   9  14
ATOM     14  N   UNL A   1      30.755  26.260  25.529  1.00  0.00    -0.378 N 
ATOM     15  H   UNL A   1      30.656  26.663  26.423  1.00  0.00     0.161 HD
BRANCH  14  16
ATOM     16  C   UNL A   1      30.836  24.785  25.541  1.00  0.00     0.106 C 
ATOM     17  C   UNL A   1      30.095  24.127  26.696  1.00  0.00     0.036 C 
BRANCH  16  18
ATOM     18  C   UNL A   1      32.224  24.296  25.123  1.00  0.00    -0.023 A 
ATOM     19  C   UNL A   1      36.700  22.844  23.095  1.00  0.00     0.047 C 
ATOM     20  C   UNL A   1      35.424  23.337  23.692  1.00  0.00    -0.015 A 
ATOM     21  C   UNL A   1      33.913  23.172  22.729  1.00  0.00     0.007 A 
ATOM     22  C   UNL A   1      35.328  23.944  25.391  1.00  0.00     0.126 A 
ATOM     23  C   UNL A   1      32.328  23.674  23.430  1.00  0.00     0.006 A 
ATOM     24  C   UNL A   1      33.735  24.422  26.113  1.00  0.00     0.045 A 
ATOM     25  F   UNL A   1      36.451  24.090  26.106  1.00  0.00    -0.207 F 
ENDBRANCH  16  18
ENDBRANCH  14  16
ENDBRANCH   9  14
BRANCH  13  26
ATOM     26  N   UNL A   1      30.348  30.237  21.553  1.00  0.00    -0.399 N 
ATOM     27  H   UNL A   1      30.116  29.992  20.628  1.00  0.00     0.156 HD
ATOM     28  H   UNL A   1      30.495  31.181  21.790  1.00  0.00     0.156 HD
ENDBRANCH  13  26
ENDBRANCH   5   8
ENDBRANCH   3   4
ENDBRANCH   2   3
ENDBRANCH   1   2
BRANCH   1  29
ATOM     29  C   UNL A   1      34.957  33.815  28.828  1.00  0.00     0.002 C 
BRANCH  29  30
ATOM     30  C   UNL A   1      33.570  34.417  29.133  1.00  0.00     0.021 C 
BRANCH  30  31
ATOM     31  C   UNL A   1      33.417  35.827  29.702  1.00  0.00     0.116 C 
BRANCH  31  32
ATOM     32  N   UNL A   1      32.413  36.031  30.727  1.00  0.00    -0.352 N 
ATOM     33  C   UNL A   1      32.507  35.576  32.030  1.00  0.00     0.251 C 
ATOM     34  H   UNL A   1      31.602  36.530  30.478  1.00  0.00     0.163 HD
ATOM     35  O   UNL A   1      31.589  35.687  32.831  1.00  0.00    -0.269 OA
BRANCH  33  36
ATOM     36  C   UNL A   1      33.770  34.922  32.437  1.00  0.00     0.039 A 
ATOM     37  C   UNL A   1      33.754  33.592  32.860  1.00  0.00     0.014 A 
ATOM     38  C   UNL A   1      34.976  35.614  32.298  1.00  0.00     0.014 A 
ATOM     39  C   UNL A   1      34.965  32.942  33.111  1.00  0.00     0.010 A 
ATOM     40  C   UNL A   1      36.182  34.941  32.483  1.00  0.00     0.010 A 
ATOM     41  C   UNL A   1      36.189  33.602  32.907  1.00  0.00    -0.014 A 
BRANCH  41  42
ATOM     42  C   UNL A   1      37.474  32.902  33.175  1.00  0.00     0.031 A 
ATOM     43  C   UNL A   1      38.214  33.156  34.462  1.00  0.00     0.074 A 
ATOM     44  C   UNL A   1      37.970  32.034  32.271  1.00  0.00     0.049 A 
ATOM     45  N   UNL A   1      39.310  32.597  34.907  1.00  0.00    -0.248 NA
ATOM     46  C   UNL A   1      37.658  34.183  35.359  1.00  0.00     0.031 C 
ATOM     47  C   UNL A   1      37.366  31.726  30.974  1.00  0.00     0.029 A 
ATOM     48  N   UNL A   1      39.087  31.235  32.315  1.00  0.00    -0.354 N 
ATOM     49  C   UNL A   1      39.573  33.204  36.130  1.00  0.00     0.074 A 
ATOM     50  C   UNL A   1      38.564  34.220  36.323  1.00  0.00     0.031 C 
ATOM     51  C   UNL A   1      38.087  30.769  30.369  1.00  0.00     0.029 A 
ATOM     52  C   UNL A   1      39.228  30.427  31.211  1.00  0.00     0.049 A 
ATOM     53  H   UNL A   1      39.724  31.241  33.065  1.00  0.00     0.167 HD
ATOM     54  C   UNL A   1      40.547  32.923  37.026  1.00  0.00     0.031 A 
ATOM     55  C   UNL A   1      40.171  29.510  30.914  1.00  0.00     0.031 A 
ATOM     56  C   UNL A   1      41.556  31.916  36.828  1.00  0.00     0.049 A 
ATOM     57  C   UNL A   1      41.273  29.250  31.908  1.00  0.00     0.074 A 
ATOM     58  C   UNL A   1      42.565  31.527  37.690  1.00  0.00     0.029 A 
ATOM     59  N   UNL A   1      41.686  31.148  35.681  1.00  0.00    -0.354 N 
ATOM     60  N   UNL A   1      41.460  29.779  33.093  1.00  0.00    -0.248 NA
ATOM     61  C   UNL A   1      42.284  28.255  31.525  1.00  0.00     0.031 C 
ATOM     62  C   UNL A   1      43.355  30.578  37.033  1.00  0.00     0.029 A 
ATOM     63  C   UNL A   1      42.786  30.314  35.797  1.00  0.00     0.049 A 
ATOM     64  H   UNL A   1      41.087  31.189  34.901  1.00  0.00     0.167 HD
ATOM     65  C   UNL A   1      42.593  29.161  33.609  1.00  0.00     0.074 A 
ATOM     66  C   UNL A   1      43.033  28.200  32.618  1.00  0.00     0.031 C 
ATOM     67  C   UNL A   1      43.214  29.368  34.797  1.00  0.00     0.031 A 
BRANCH  54  68
ATOM     68  C   UNL A   1      40.580  33.735  38.295  1.00  0.00    -0.014 A 
ATOM     69  C   UNL A   1      39.882  33.329  39.444  1.00  0.00     0.009 A 
ATOM     70  C   UNL A   1      41.343  34.912  38.349  1.00  0.00     0.009 A 
ATOM     71  C   UNL A   1      39.911  34.106  40.604  1.00  0.00     0.001 A 
ATOM     72  C   UNL A   1      41.400  35.667  39.521  1.00  0.00     0.001 A 
ATOM     73  C   UNL A   1      40.675  35.271  40.643  1.00  0.00     0.000 A 
ENDBRANCH  54  68
BRANCH  55  74
ATOM     74  C   UNL A   1      40.119  28.768  29.624  1.00  0.00    -0.014 A 
ATOM     75  C   UNL A   1      40.694  29.300  28.460  1.00  0.00     0.009 A 
ATOM     76  C   UNL A   1      39.469  27.525  29.546  1.00  0.00     0.009 A 
ATOM     77  C   UNL A   1      40.588  28.624  27.241  1.00  0.00     0.001 A 
ATOM     78  C   UNL A   1      39.397  26.833  28.335  1.00  0.00     0.001 A 
ATOM     79  C   UNL A   1      39.944  27.389  27.181  1.00  0.00     0.000 A 
ENDBRANCH  55  74
BRANCH  67  80
ATOM     80  C   UNL A   1      44.416  28.517  35.104  1.00  0.00    -0.014 A 
ATOM     81  C   UNL A   1      45.720  28.957  34.827  1.00  0.00     0.009 A 
ATOM     82  C   UNL A   1      44.239  27.267  35.719  1.00  0.00     0.009 A 
ATOM     83  C   UNL A   1      46.817  28.143  35.117  1.00  0.00     0.001 A 
ATOM     84  C   UNL A   1      45.338  26.474  36.046  1.00  0.00     0.001 A 
ATOM     85  C   UNL A   1      46.626  26.906  35.731  1.00  0.00     0.000 A 
ENDBRANCH  67  80
ENDBRANCH  41  42
ENDBRANCH  33  36
ENDBRANCH  31  32
ENDBRANCH  30  31
ENDBRANCH  29  30
ENDBRANCH   1  29
TORSDOF 17
ENDMDL
MODEL 3
REMARK VINA RESULT:     -13.0      4.469      9.254
REMARK SMILES Cc1ccc([C@@H](C)Nc2ccc(N)cc2C(=O)NCCCCCCNC(=O)c2ccc(-c3c4nc(c(-c5ccccc5)c5ccc([nH]5)c(-c5ccccc5)c5nc(c(-c6ccccc6)c6ccc3[nH]6)C=C5)C=C4)cc2)cc1F
REMARK SMILES IDX 21 1 20 2 19 3 18 4 16 5 17 6 15 8 9 9 10 10 11 11 14 12
REMARK SMILES IDX 12 13 8 14 6 16 7 17 5 18 1 19 2 20 3 21 77 22 4 23 76 24
REMARK SMILES IDX 78 25 13 26 22 29 23 30 24 31 25 32 26 33 27 35 28 36 29 37
REMARK SMILES IDX 75 38 30 39 74 40 31 41 32 42 33 43 68 44 34 45 73 46 67 47
REMARK SMILES IDX 69 48 35 49 72 50 66 51 65 52 36 54 58 55 43 56 57 57 44 58
REMARK SMILES IDX 47 59 56 60 70 61 45 62 46 63 55 65 71 66 48 67 37 68 38 69
REMARK SMILES IDX 42 70 39 71 41 72 40 73 59 74 60 75 64 76 61 77 63 78 62 79
REMARK SMILES IDX 49 80 50 81 54 82 51 83 53 84 52 85
REMARK H PARENT 18 7 8 15 13 27 13 28 25 34 69 53 47 64
REMARK Flexibility Score: inf
ROOT
ATOM      1  C   UNL A   1      35.583  21.994  25.063  1.00  0.00     0.002 C 
ENDROOT
BRANCH   1   2
ATOM      2  C   UNL A   1      35.055  23.673  23.768  1.00  0.00     0.021 C 
BRANCH   2   3
ATOM      3  C   UNL A   1      34.066  25.103  23.822  1.00  0.00     0.116 C 
BRANCH   3   4
ATOM      4  N   UNL A   1      34.014  26.042  22.709  1.00  0.00    -0.352 N 
ATOM      5  C   UNL A   1      33.642  27.363  22.669  1.00  0.00     0.253 C 
ATOM      6  O   UNL A   1      33.834  28.016  21.644  1.00  0.00    -0.269 OA
ATOM      7  H   UNL A   1      34.292  25.667  21.843  1.00  0.00     0.163 HD
BRANCH   5   8
ATOM      8  C   UNL A   1      32.872  27.952  23.783  1.00  0.00     0.065 A 
ATOM      9  C   UNL A   1      31.486  28.148  23.780  1.00  0.00     0.048 A 
ATOM     10  C   UNL A   1      31.047  29.231  24.568  1.00  0.00     0.028 A 
ATOM     11  C   UNL A   1      31.909  29.946  25.425  1.00  0.00     0.027 A 
ATOM     12  C   UNL A   1      33.704  28.556  24.753  1.00  0.00     0.041 A 
ATOM     13  C   UNL A   1      33.221  29.536  25.610  1.00  0.00     0.032 A 
BRANCH   9  14
ATOM     14  N   UNL A   1      30.530  27.428  23.079  1.00  0.00    -0.378 N 
ATOM     15  H   UNL A   1      30.386  27.745  22.157  1.00  0.00     0.161 HD
BRANCH  14  16
ATOM     16  C   UNL A   1      29.688  26.274  23.456  1.00  0.00     0.106 C 
ATOM     17  C   UNL A   1      28.288  26.646  23.923  1.00  0.00     0.036 C 
BRANCH  16  18
ATOM     18  C   UNL A   1      30.498  25.205  24.191  1.00  0.00    -0.023 A 
ATOM     19  C   UNL A   1      32.923  21.855  27.218  1.00  0.00     0.047 C 
ATOM     20  C   UNL A   1      32.158  22.783  26.334  1.00  0.00    -0.015 A 
ATOM     21  C   UNL A   1      31.797  24.437  26.943  1.00  0.00     0.007 A 
ATOM     22  C   UNL A   1      31.725  22.352  24.633  1.00  0.00     0.126 A 
ATOM     23  C   UNL A   1      30.949  25.630  25.888  1.00  0.00     0.006 A 
ATOM     24  C   UNL A   1      30.899  23.557  23.557  1.00  0.00     0.045 A 
ATOM     25  F   UNL A   1      31.970  21.116  24.180  1.00  0.00    -0.207 F 
ENDBRANCH  16  18
ENDBRANCH  14  16
ENDBRANCH   9  14
BRANCH  13  26
ATOM     26  N   UNL A   1      34.082  30.212  26.459  1.00  0.00    -0.399 N 
ATOM     27  H   UNL A   1      33.883  30.263  27.422  1.00  0.00     0.156 HD
ATOM     28  H   UNL A   1      34.892  30.641  26.100  1.00  0.00     0.156 HD
ENDBRANCH  13  26
ENDBRANCH   5   8
ENDBRANCH   3   4
ENDBRANCH   2   3
ENDBRANCH   1   2
BRANCH   1  29
ATOM     29  C   UNL A   1      36.461  20.538  25.006  1.00  0.00     0.002 C 
BRANCH  29  30
ATOM     30  C   UNL A   1      37.977  20.426  24.742  1.00  0.00     0.021 C 
BRANCH  30  31
ATOM     31  C   UNL A   1      38.980  20.287  25.887  1.00  0.00     0.116 C 
BRANCH  31  32
ATOM     32  N   UNL A   1      39.928  19.193  25.817  1.00  0.00    -0.352 N 
ATOM     33  C   UNL A   1      41.288  19.305  26.045  1.00  0.00     0.251 C 
ATOM     34  H   UNL A   1      39.579  18.301  25.591  1.00  0.00     0.163 HD
ATOM     35  O   UNL A   1      42.061  18.372  25.877  1.00  0.00    -0.269 OA
BRANCH  33  36
ATOM     36  C   UNL A   1      41.799  20.619  26.494  1.00  0.00     0.039 A 
ATOM     37  C   UNL A   1      42.114  21.597  25.549  1.00  0.00     0.014 A 
ATOM     38  C   UNL A   1      41.868  20.899  27.861  1.00  0.00     0.014 A 
ATOM     39  C   UNL A   1      42.465  22.877  25.983  1.00  0.00     0.010 A 
ATOM     40  C   UNL A   1      42.151  22.195  28.286  1.00  0.00     0.010 A 
ATOM     41  C   UNL A   1      42.468  23.194  27.353  1.00  0.00    -0.014 A 
BRANCH  41  42
ATOM     42  C   UNL A   1      42.842  24.560  27.806  1.00  0.00     0.031 A 
ATOM     43  C   UNL A   1      44.289  24.976  27.826  1.00  0.00     0.074 A 
ATOM     44  C   UNL A   1      41.885  25.428  28.191  1.00  0.00     0.049 A 
ATOM     45  N   UNL A   1      44.809  26.139  28.126  1.00  0.00    -0.248 NA
ATOM     46  C   UNL A   1      45.283  23.947  27.479  1.00  0.00     0.031 C 
ATOM     47  C   UNL A   1      40.452  25.136  28.248  1.00  0.00     0.029 A 
ATOM     48  N   UNL A   1      41.972  26.741  28.587  1.00  0.00    -0.354 N 
ATOM     49  C   UNL A   1      46.185  25.979  28.004  1.00  0.00     0.074 A 
ATOM     50  C   UNL A   1      46.422  24.593  27.673  1.00  0.00     0.031 C 
ATOM     51  C   UNL A   1      39.790  26.249  28.604  1.00  0.00     0.029 A 
ATOM     52  C   UNL A   1      40.752  27.320  28.844  1.00  0.00     0.049 A 
ATOM     53  H   UNL A   1      42.827  27.220  28.679  1.00  0.00     0.167 HD
ATOM     54  C   UNL A   1      47.162  26.908  28.127  1.00  0.00     0.031 A 
ATOM     55  C   UNL A   1      40.443  28.575  29.227  1.00  0.00     0.031 A 
ATOM     56  C   UNL A   1      46.925  28.286  28.464  1.00  0.00     0.049 A 
ATOM     57  C   UNL A   1      41.554  29.577  29.404  1.00  0.00     0.074 A 
ATOM     58  C   UNL A   1      47.841  29.315  28.577  1.00  0.00     0.029 A 
ATOM     59  N   UNL A   1      45.679  28.821  28.754  1.00  0.00    -0.354 N 
ATOM     60  N   UNL A   1      42.842  29.427  29.208  1.00  0.00    -0.248 NA
ATOM     61  C   UNL A   1      41.163  30.925  29.840  1.00  0.00     0.031 C 
ATOM     62  C   UNL A   1      47.161  30.457  29.011  1.00  0.00     0.029 A 
ATOM     63  C   UNL A   1      45.809  30.160  29.085  1.00  0.00     0.049 A 
ATOM     64  H   UNL A   1      44.830  28.325  28.728  1.00  0.00     0.167 HD
ATOM     65  C   UNL A   1      43.411  30.667  29.470  1.00  0.00     0.074 A 
ATOM     66  C   UNL A   1      42.325  31.562  29.812  1.00  0.00     0.031 C 
ATOM     67  C   UNL A   1      44.717  31.035  29.431  1.00  0.00     0.031 A 
BRANCH  54  68
ATOM     68  C   UNL A   1      48.583  26.452  27.916  1.00  0.00    -0.014 A 
ATOM     69  C   UNL A   1      49.376  26.005  28.987  1.00  0.00     0.009 A 
ATOM     70  C   UNL A   1      49.129  26.446  26.624  1.00  0.00     0.009 A 
ATOM     71  C   UNL A   1      50.697  25.605  28.773  1.00  0.00     0.001 A 
ATOM     72  C   UNL A   1      50.438  26.011  26.407  1.00  0.00     0.001 A 
ATOM     73  C   UNL A   1      51.224  25.602  27.482  1.00  0.00     0.000 A 
ENDBRANCH  54  68
BRANCH  55  74
ATOM     74  C   UNL A   1      39.025  28.961  29.468  1.00  0.00    -0.014 A 
ATOM     75  C   UNL A   1      38.223  29.453  28.427  1.00  0.00     0.009 A 
ATOM     76  C   UNL A   1      38.470  28.861  30.754  1.00  0.00     0.009 A 
ATOM     77  C   UNL A   1      36.912  29.869  28.675  1.00  0.00     0.001 A 
ATOM     78  C   UNL A   1      37.148  29.241  30.992  1.00  0.00     0.001 A 
ATOM     79  C   UNL A   1      36.374  29.757  29.956  1.00  0.00     0.000 A 
ENDBRANCH  55  74
BRANCH  67  80
ATOM     80  C   UNL A   1      45.037  32.473  29.732  1.00  0.00    -0.014 A 
ATOM     81  C   UNL A   1      45.346  32.901  31.033  1.00  0.00     0.009 A 
ATOM     82  C   UNL A   1      45.070  33.409  28.686  1.00  0.00     0.009 A 
ATOM     83  C   UNL A   1      45.634  34.244  31.285  1.00  0.00     0.001 A 
ATOM     84  C   UNL A   1      45.398  34.741  28.934  1.00  0.00     0.001 A 
ATOM     85  C   UNL A   1      45.666  35.161  30.235  1.00  0.00     0.000 A 
ENDBRANCH  67  80
ENDBRANCH  41  42
ENDBRANCH  33  36
ENDBRANCH  31  32
ENDBRANCH  30  31
ENDBRANCH  29  30
ENDBRANCH   1  29
TORSDOF 17
ENDMDL
