MODEL 1
REMARK VINA RESULT:     -11.7      0.000      0.000
REMARK SMILES CC(C)(C)OC(=O)N1CCN(N[C@@H](C(=O)NCCCCCCNC(=O)c2ccc(-c3c4nc(c(-c5ccccc5)c5ccc([nH]5)c(-c5ccccc5)c5nc(c(-c6ccccc6)c6ccc3[nH]6)C=C5)C=C4)cc2)c2ccccc2Cl)CC1
REMARK SMILES IDX 18 1 17 2 16 3 14 4 15 5 13 7 12 8 11 10 6 11 7 12 8 13 9 14
REMARK SMILES IDX 82 15 10 16 81 17 5 18 2 19 1 20 3 21 4 22 74 23 75 24 79 25
REMARK SMILES IDX 76 26 78 27 80 28 77 29 19 30 20 31 21 32 22 33 23 34 24 35
REMARK SMILES IDX 25 37 26 38 27 39 73 40 28 41 72 42 29 43 30 44 31 45 66 46
REMARK SMILES IDX 32 47 71 48 65 49 67 50 33 51 70 52 64 53 63 54 34 56 56 57
REMARK SMILES IDX 41 58 55 59 42 60 45 61 54 62 68 63 43 64 44 65 53 67 69 68
REMARK SMILES IDX 46 69 35 70 36 71 40 72 37 73 39 74 38 75 57 76 58 77 62 78
REMARK SMILES IDX 59 79 61 80 60 81 47 82 48 83 52 84 49 85 51 86 50 87
REMARK H PARENT 16 6 12 9 23 36 67 55 45 66
REMARK Flexibility Score: inf
ROOT
ATOM      1  C   UNL A   1      33.525  28.707  26.931  1.00  0.00     0.021 C 
ENDROOT
BRANCH   1   2
ATOM      2  C   UNL A   1      33.492  27.521  25.955  1.00  0.00     0.116 C 
BRANCH   2   3
ATOM      3  N   UNL A   1      32.623  26.483  26.479  1.00  0.00    -0.354 N 
ATOM      4  C   UNL A   1      31.448  26.057  25.909  1.00  0.00     0.243 C 
ATOM      5  O   UNL A   1      30.520  25.812  26.689  1.00  0.00    -0.273 OA
ATOM      6  H   UNL A   1      32.901  26.045  27.316  1.00  0.00     0.163 HD
BRANCH   4   7
ATOM      7  C   UNL A   1      31.321  25.904  24.353  1.00  0.00     0.190 C 
BRANCH   7   8
ATOM      8  N   UNL A   1      32.645  25.417  23.818  1.00  0.00    -0.238 NA
ATOM      9  H   UNL A   1      32.901  25.980  23.006  1.00  0.00     0.143 HD
BRANCH   8  10
ATOM     10  N   UNL A   1      32.573  24.008  23.418  1.00  0.00    -0.240 NA
ATOM     11  C   UNL A   1      34.585  20.847  25.203  1.00  0.00     0.410 C 
ATOM     12  O   UNL A   1      35.745  20.589  24.924  1.00  0.00    -0.224 OA
ATOM     13  N   UNL A   1      34.058  22.115  25.096  1.00  0.00    -0.306 N 
ATOM     14  C   UNL A   1      34.771  23.106  24.317  1.00  0.00     0.140 C 
ATOM     15  C   UNL A   1      32.759  22.574  25.577  1.00  0.00     0.140 C 
ATOM     16  C   UNL A   1      33.917  23.463  23.096  1.00  0.00     0.124 C 
ATOM     17  C   UNL A   1      31.893  23.161  24.437  1.00  0.00     0.124 C 
BRANCH  11  18
ATOM     18  O   UNL A   1      33.666  19.923  25.588  1.00  0.00    -0.444 OA
BRANCH  18  19
ATOM     19  C   UNL A   1      33.360  18.803  24.709  1.00  0.00     0.106 C 
ATOM     20  C   UNL A   1      32.481  17.865  25.550  1.00  0.00     0.056 C 
ATOM     21  C   UNL A   1      34.659  18.081  24.337  1.00  0.00     0.056 C 
ATOM     22  C   UNL A   1      32.554  19.198  23.461  1.00  0.00     0.056 C 
ENDBRANCH  18  19
ENDBRANCH  11  18
ENDBRANCH   8  10
ENDBRANCH   7   8
BRANCH   7  23
ATOM     23  C   UNL A   1      30.884  27.195  23.617  1.00  0.00    -0.002 A 
ATOM     24  C   UNL A   1      31.814  28.149  23.152  1.00  0.00     0.007 A 
ATOM     25  C   UNL A   1      29.522  27.505  23.408  1.00  0.00     0.046 A 
ATOM     26  C   UNL A   1      31.416  29.302  22.460  1.00  0.00     0.000 A 
ATOM     27  C   UNL A   1      29.128  28.646  22.691  1.00  0.00     0.021 A 
ATOM     28  Cl  UNL A   1      28.226  26.576  24.070  1.00  0.00    -0.084 Cl
ATOM     29  C   UNL A   1      30.074  29.541  22.210  1.00  0.00     0.002 A 
ENDBRANCH   7  23
ENDBRANCH   4   7
ENDBRANCH   2   3
ENDBRANCH   1   2
BRANCH   1  30
ATOM     30  C   UNL A   1      32.165  29.389  27.114  1.00  0.00     0.002 C 
BRANCH  30  31
ATOM     31  C   UNL A   1      31.835  30.437  26.046  1.00  0.00     0.002 C 
BRANCH  31  32
ATOM     32  C   UNL A   1      31.520  31.837  26.583  1.00  0.00     0.021 C 
BRANCH  32  33
ATOM     33  C   UNL A   1      32.670  32.506  27.334  1.00  0.00     0.116 C 
BRANCH  33  34
ATOM     34  N   UNL A   1      32.412  33.920  27.568  1.00  0.00    -0.352 N 
ATOM     35  C   UNL A   1      32.982  34.769  28.486  1.00  0.00     0.251 C 
ATOM     36  H   UNL A   1      31.731  34.326  26.986  1.00  0.00     0.163 HD
ATOM     37  O   UNL A   1      32.484  35.867  28.713  1.00  0.00    -0.269 OA
BRANCH  35  38
ATOM     38  C   UNL A   1      34.199  34.350  29.210  1.00  0.00     0.039 A 
ATOM     39  C   UNL A   1      34.079  33.818  30.496  1.00  0.00     0.014 A 
ATOM     40  C   UNL A   1      35.456  34.486  28.614  1.00  0.00     0.014 A 
ATOM     41  C   UNL A   1      35.216  33.348  31.157  1.00  0.00     0.010 A 
ATOM     42  C   UNL A   1      36.579  33.966  29.250  1.00  0.00     0.010 A 
ATOM     43  C   UNL A   1      36.468  33.382  30.521  1.00  0.00    -0.014 A 
BRANCH  43  44
ATOM     44  C   UNL A   1      37.672  32.782  31.145  1.00  0.00     0.031 A 
ATOM     45  C   UNL A   1      38.320  31.574  30.533  1.00  0.00     0.074 A 
ATOM     46  C   UNL A   1      38.125  33.273  32.316  1.00  0.00     0.049 A 
ATOM     47  N   UNL A   1      39.299  30.839  30.997  1.00  0.00    -0.248 NA
ATOM     48  C   UNL A   1      37.784  31.118  29.240  1.00  0.00     0.031 C 
ATOM     49  C   UNL A   1      37.567  34.426  33.025  1.00  0.00     0.029 A 
ATOM     50  N   UNL A   1      39.149  32.850  33.125  1.00  0.00    -0.354 N 
ATOM     51  C   UNL A   1      39.487  29.828  30.063  1.00  0.00     0.074 A 
ATOM     52  C   UNL A   1      38.496  30.020  29.026  1.00  0.00     0.031 C 
ATOM     53  C   UNL A   1      38.262  34.626  34.155  1.00  0.00     0.029 A 
ATOM     54  C   UNL A   1      39.283  33.590  34.274  1.00  0.00     0.049 A 
ATOM     55  H   UNL A   1      39.732  32.089  32.904  1.00  0.00     0.167 HD
ATOM     56  C   UNL A   1      40.411  28.838  30.063  1.00  0.00     0.031 A 
ATOM     57  C   UNL A   1      40.118  33.440  35.319  1.00  0.00     0.031 A 
ATOM     58  C   UNL A   1      41.399  28.651  31.090  1.00  0.00     0.049 A 
ATOM     59  C   UNL A   1      41.099  32.302  35.318  1.00  0.00     0.074 A 
ATOM     60  C   UNL A   1      42.414  27.712  31.149  1.00  0.00     0.029 A 
ATOM     61  N   UNL A   1      41.493  29.417  32.242  1.00  0.00    -0.354 N 
ATOM     62  N   UNL A   1      41.303  31.390  34.398  1.00  0.00    -0.248 NA
ATOM     63  C   UNL A   1      41.964  32.171  36.500  1.00  0.00     0.031 C 
ATOM     64  C   UNL A   1      43.090  27.877  32.362  1.00  0.00     0.029 A 
ATOM     65  C   UNL A   1      42.527  28.949  33.034  1.00  0.00     0.049 A 
ATOM     66  H   UNL A   1      40.911  30.179  32.464  1.00  0.00     0.167 HD
ATOM     67  C   UNL A   1      42.330  30.590  34.881  1.00  0.00     0.074 A 
ATOM     68  C   UNL A   1      42.718  31.133  36.166  1.00  0.00     0.031 C 
ATOM     69  C   UNL A   1      42.897  29.499  34.313  1.00  0.00     0.031 A 
BRANCH  56  70
ATOM     70  C   UNL A   1      40.391  27.871  28.913  1.00  0.00    -0.014 A 
ATOM     71  C   UNL A   1      39.659  26.676  28.983  1.00  0.00     0.009 A 
ATOM     72  C   UNL A   1      41.075  28.181  27.727  1.00  0.00     0.009 A 
ATOM     73  C   UNL A   1      39.636  25.796  27.899  1.00  0.00     0.001 A 
ATOM     74  C   UNL A   1      41.029  27.312  26.635  1.00  0.00     0.001 A 
ATOM     75  C   UNL A   1      40.317  26.117  26.725  1.00  0.00     0.000 A 
ENDBRANCH  56  70
BRANCH  57  76
ATOM     76  C   UNL A   1      40.058  34.384  36.466  1.00  0.00    -0.014 A 
ATOM     77  C   UNL A   1      39.260  34.094  37.582  1.00  0.00     0.009 A 
ATOM     78  C   UNL A   1      40.789  35.582  36.447  1.00  0.00     0.009 A 
ATOM     79  C   UNL A   1      39.175  34.995  38.645  1.00  0.00     0.001 A 
ATOM     80  C   UNL A   1      40.724  36.468  37.523  1.00  0.00     0.001 A 
ATOM     81  C   UNL A   1      39.911  36.179  38.617  1.00  0.00     0.000 A 
ENDBRANCH  57  76
BRANCH  69  82
ATOM     82  C   UNL A   1      44.009  28.831  35.067  1.00  0.00    -0.014 A 
ATOM     83  C   UNL A   1      43.747  27.779  35.958  1.00  0.00     0.009 A 
ATOM     84  C   UNL A   1      45.338  29.222  34.845  1.00  0.00     0.009 A 
ATOM     85  C   UNL A   1      44.795  27.146  36.628  1.00  0.00     0.001 A 
ATOM     86  C   UNL A   1      46.386  28.572  35.497  1.00  0.00     0.001 A 
ATOM     87  C   UNL A   1      46.113  27.538  36.393  1.00  0.00     0.000 A 
ENDBRANCH  69  82
ENDBRANCH  43  44
ENDBRANCH  35  38
ENDBRANCH  33  34
ENDBRANCH  32  33
ENDBRANCH  31  32
ENDBRANCH  30  31
ENDBRANCH   1  30
TORSDOF 18
ENDMDL
MODEL 2
REMARK VINA RESULT:     -11.6      3.955      9.435
REMARK SMILES CC(C)(C)OC(=O)N1CCN(N[C@@H](C(=O)NCCCCCCNC(=O)c2ccc(-c3c4nc(c(-c5ccccc5)c5ccc([nH]5)c(-c5ccccc5)c5nc(c(-c6ccccc6)c6ccc3[nH]6)C=C5)C=C4)cc2)c2ccccc2Cl)CC1
REMARK SMILES IDX 18 1 17 2 16 3 14 4 15 5 13 7 12 8 11 10 6 11 7 12 8 13 9 14
REMARK SMILES IDX 82 15 10 16 81 17 5 18 2 19 1 20 3 21 4 22 74 23 75 24 79 25
REMARK SMILES IDX 76 26 78 27 80 28 77 29 19 30 20 31 21 32 22 33 23 34 24 35
REMARK SMILES IDX 25 37 26 38 27 39 73 40 28 41 72 42 29 43 30 44 31 45 66 46
REMARK SMILES IDX 32 47 71 48 65 49 67 50 33 51 70 52 64 53 63 54 34 56 56 57
REMARK SMILES IDX 41 58 55 59 42 60 45 61 54 62 68 63 43 64 44 65 53 67 69 68
REMARK SMILES IDX 46 69 35 70 36 71 40 72 37 73 39 74 38 75 57 76 58 77 62 78
REMARK SMILES IDX 59 79 61 80 60 81 47 82 48 83 52 84 49 85 51 86 50 87
REMARK H PARENT 16 6 12 9 23 36 67 55 45 66
REMARK Flexibility Score: inf
ROOT
ATOM      1  C   UNL A   1      36.652  22.111  24.171  1.00  0.00     0.021 C 
ENDROOT
BRANCH   1   2
ATOM      2  C   UNL A   1      35.728  22.773  25.204  1.00  0.00     0.116 C 
BRANCH   2   3
ATOM      3  N   UNL A   1      35.286  21.783  26.169  1.00  0.00    -0.354 N 
ATOM      4  C   UNL A   1      33.985  21.401  26.388  1.00  0.00     0.243 C 
ATOM      5  O   UNL A   1      33.663  21.209  27.567  1.00  0.00    -0.273 OA
ATOM      6  H   UNL A   1      35.980  21.347  26.715  1.00  0.00     0.163 HD
BRANCH   4   7
ATOM      7  C   UNL A   1      32.987  21.229  25.190  1.00  0.00     0.190 C 
BRANCH   7   8
ATOM      8  N   UNL A   1      31.588  21.465  25.703  1.00  0.00    -0.238 NA
ATOM      9  H   UNL A   1      31.013  20.651  25.485  1.00  0.00     0.143 HD
BRANCH   8  10
ATOM     10  N   UNL A   1      30.989  22.654  25.087  1.00  0.00    -0.240 NA
ATOM     11  C   UNL A   1      31.646  26.594  26.211  1.00  0.00     0.410 C 
ATOM     12  O   UNL A   1      31.042  27.102  27.143  1.00  0.00    -0.224 OA
ATOM     13  N   UNL A   1      31.891  25.242  26.132  1.00  0.00    -0.306 N 
ATOM     14  C   UNL A   1      31.136  24.343  26.979  1.00  0.00     0.140 C 
ATOM     15  C   UNL A   1      32.756  24.556  25.177  1.00  0.00     0.140 C 
ATOM     16  C   UNL A   1      30.249  23.470  26.084  1.00  0.00     0.124 C 
ATOM     17  C   UNL A   1      31.988  23.487  24.364  1.00  0.00     0.124 C 
BRANCH  11  18
ATOM     18  O   UNL A   1      32.089  27.277  25.123  1.00  0.00    -0.444 OA
BRANCH  18  19
ATOM     19  C   UNL A   1      33.024  28.379  25.297  1.00  0.00     0.106 C 
ATOM     20  C   UNL A   1      33.760  28.494  23.954  1.00  0.00     0.056 C 
ATOM     21  C   UNL A   1      34.030  28.022  26.396  1.00  0.00     0.056 C 
ATOM     22  C   UNL A   1      32.344  29.732  25.569  1.00  0.00     0.056 C 
ENDBRANCH  18  19
ENDBRANCH  11  18
ENDBRANCH   8  10
ENDBRANCH   7   8
BRANCH   7  23
ATOM     23  C   UNL A   1      33.074  19.857  24.477  1.00  0.00    -0.002 A 
ATOM     24  C   UNL A   1      33.758  18.757  25.038  1.00  0.00     0.007 A 
ATOM     25  C   UNL A   1      32.505  19.646  23.202  1.00  0.00     0.046 A 
ATOM     26  C   UNL A   1      33.810  17.509  24.403  1.00  0.00     0.000 A 
ATOM     27  C   UNL A   1      32.535  18.387  22.580  1.00  0.00     0.021 A 
ATOM     28  Cl  UNL A   1      31.801  20.908  22.257  1.00  0.00    -0.084 Cl
ATOM     29  C   UNL A   1      33.180  17.316  23.184  1.00  0.00     0.002 A 
ENDBRANCH   7  23
ENDBRANCH   4   7
ENDBRANCH   2   3
ENDBRANCH   1   2
BRANCH   1  30
ATOM     30  C   UNL A   1      37.777  21.281  24.797  1.00  0.00     0.002 C 
BRANCH  30  31
ATOM     31  C   UNL A   1      37.583  19.766  24.684  1.00  0.00     0.002 C 
BRANCH  31  32
ATOM     32  C   UNL A   1      38.677  18.917  25.340  1.00  0.00     0.021 C 
BRANCH  32  33
ATOM     33  C   UNL A   1      39.672  19.706  26.190  1.00  0.00     0.116 C 
BRANCH  33  34
ATOM     34  N   UNL A   1      41.018  19.160  26.091  1.00  0.00    -0.352 N 
ATOM     35  C   UNL A   1      42.227  19.810  26.141  1.00  0.00     0.251 C 
ATOM     36  H   UNL A   1      41.070  18.185  25.970  1.00  0.00     0.163 HD
ATOM     37  O   UNL A   1      43.258  19.237  25.802  1.00  0.00    -0.269 OA
BRANCH  35  38
ATOM     38  C   UNL A   1      42.282  21.214  26.597  1.00  0.00     0.039 A 
ATOM     39  C   UNL A   1      42.200  21.490  27.964  1.00  0.00     0.014 A 
ATOM     40  C   UNL A   1      42.414  22.252  25.671  1.00  0.00     0.014 A 
ATOM     41  C   UNL A   1      42.328  22.807  28.410  1.00  0.00     0.010 A 
ATOM     42  C   UNL A   1      42.599  23.556  26.120  1.00  0.00     0.010 A 
ATOM     43  C   UNL A   1      42.570  23.844  27.493  1.00  0.00    -0.014 A 
BRANCH  43  44
ATOM     44  C   UNL A   1      42.831  25.233  27.943  1.00  0.00     0.031 A 
ATOM     45  C   UNL A   1      44.221  25.659  28.318  1.00  0.00     0.074 A 
ATOM     46  C   UNL A   1      41.797  26.083  28.100  1.00  0.00     0.049 A 
ATOM     47  N   UNL A   1      44.624  26.786  28.848  1.00  0.00    -0.248 NA
ATOM     48  C   UNL A   1      45.298  24.681  28.089  1.00  0.00     0.031 C 
ATOM     49  C   UNL A   1      40.397  25.782  27.795  1.00  0.00     0.029 A 
ATOM     50  N   UNL A   1      41.763  27.370  28.576  1.00  0.00    -0.354 N 
ATOM     51  C   UNL A   1      45.994  26.650  29.028  1.00  0.00     0.074 A 
ATOM     52  C   UNL A   1      46.348  25.317  28.589  1.00  0.00     0.031 C 
ATOM     53  C   UNL A   1      39.644  26.856  28.077  1.00  0.00     0.029 A 
ATOM     54  C   UNL A   1      40.499  27.904  28.627  1.00  0.00     0.049 A 
ATOM     55  H   UNL A   1      42.568  27.863  28.853  1.00  0.00     0.167 HD
ATOM     56  C   UNL A   1      46.879  27.558  29.503  1.00  0.00     0.031 A 
ATOM     57  C   UNL A   1      40.070  29.094  29.085  1.00  0.00     0.031 A 
ATOM     58  C   UNL A   1      46.527  28.884  29.933  1.00  0.00     0.049 A 
ATOM     59  C   UNL A   1      41.066  30.064  29.656  1.00  0.00     0.074 A 
ATOM     60  C   UNL A   1      47.361  29.896  30.377  1.00  0.00     0.029 A 
ATOM     61  N   UNL A   1      45.233  29.381  29.979  1.00  0.00    -0.354 N 
ATOM     62  N   UNL A   1      42.367  29.942  29.764  1.00  0.00    -0.248 NA
ATOM     63  C   UNL A   1      40.534  31.335  30.169  1.00  0.00     0.031 C 
ATOM     64  C   UNL A   1      46.566  30.989  30.739  1.00  0.00     0.029 A 
ATOM     65  C   UNL A   1      45.243  30.673  30.476  1.00  0.00     0.049 A 
ATOM     66  H   UNL A   1      44.429  28.889  29.701  1.00  0.00     0.167 HD
ATOM     67  C   UNL A   1      42.811  31.125  30.340  1.00  0.00     0.074 A 
ATOM     68  C   UNL A   1      41.644  31.958  30.542  1.00  0.00     0.031 C 
ATOM     69  C   UNL A   1      44.072  31.487  30.675  1.00  0.00     0.031 A 
BRANCH  56  70
ATOM     70  C   UNL A   1      48.320  27.143  29.590  1.00  0.00    -0.014 A 
ATOM     71  C   UNL A   1      49.234  27.481  28.579  1.00  0.00     0.009 A 
ATOM     72  C   UNL A   1      48.781  26.447  30.718  1.00  0.00     0.009 A 
ATOM     73  C   UNL A   1      50.575  27.104  28.683  1.00  0.00     0.001 A 
ATOM     74  C   UNL A   1      50.127  26.093  30.831  1.00  0.00     0.001 A 
ATOM     75  C   UNL A   1      51.020  26.415  29.810  1.00  0.00     0.000 A 
ENDBRANCH  56  70
BRANCH  57  76
ATOM     76  C   UNL A   1      38.625  29.437  29.039  1.00  0.00    -0.014 A 
ATOM     77  C   UNL A   1      38.066  30.005  27.884  1.00  0.00     0.009 A 
ATOM     78  C   UNL A   1      37.798  29.208  30.151  1.00  0.00     0.009 A 
ATOM     79  C   UNL A   1      36.716  30.360  27.851  1.00  0.00     0.001 A 
ATOM     80  C   UNL A   1      36.443  29.538  30.105  1.00  0.00     0.001 A 
ATOM     81  C   UNL A   1      35.905  30.122  28.960  1.00  0.00     0.000 A 
ENDBRANCH  57  76
BRANCH  69  82
ATOM     82  C   UNL A   1      44.260  32.847  31.279  1.00  0.00    -0.014 A 
ATOM     83  C   UNL A   1      44.439  33.979  30.469  1.00  0.00     0.009 A 
ATOM     84  C   UNL A   1      44.203  33.007  32.672  1.00  0.00     0.009 A 
ATOM     85  C   UNL A   1      44.580  35.243  31.045  1.00  0.00     0.001 A 
ATOM     86  C   UNL A   1      44.319  34.274  33.244  1.00  0.00     0.001 A 
ATOM     87  C   UNL A   1      44.514  35.390  32.430  1.00  0.00     0.000 A 
ENDBRANCH  69  82
ENDBRANCH  43  44
ENDBRANCH  35  38
ENDBRANCH  33  34
ENDBRANCH  32  33
ENDBRANCH  31  32
ENDBRANCH  30  31
ENDBRANCH   1  30
TORSDOF 18
ENDMDL
MODEL 3
REMARK VINA RESULT:     -11.6      1.544      2.259
REMARK SMILES CC(C)(C)OC(=O)N1CCN(N[C@@H](C(=O)NCCCCCCNC(=O)c2ccc(-c3c4nc(c(-c5ccccc5)c5ccc([nH]5)c(-c5ccccc5)c5nc(c(-c6ccccc6)c6ccc3[nH]6)C=C5)C=C4)cc2)c2ccccc2Cl)CC1
REMARK SMILES IDX 18 1 17 2 16 3 14 4 15 5 13 7 12 8 11 10 6 11 7 12 8 13 9 14
REMARK SMILES IDX 82 15 10 16 81 17 5 18 2 19 1 20 3 21 4 22 74 23 75 24 79 25
REMARK SMILES IDX 76 26 78 27 80 28 77 29 19 30 20 31 21 32 22 33 23 34 24 35
REMARK SMILES IDX 25 37 26 38 27 39 73 40 28 41 72 42 29 43 30 44 31 45 66 46
REMARK SMILES IDX 32 47 71 48 65 49 67 50 33 51 70 52 64 53 63 54 34 56 56 57
REMARK SMILES IDX 41 58 55 59 42 60 45 61 54 62 68 63 43 64 44 65 53 67 69 68
REMARK SMILES IDX 46 69 35 70 36 71 40 72 37 73 39 74 38 75 57 76 58 77 62 78
REMARK SMILES IDX 59 79 61 80 60 81 47 82 48 83 52 84 49 85 51 86 50 87
REMARK H PARENT 16 6 12 9 23 36 67 55 45 66
REMARK Flexibility Score: inf
ROOT
ATOM      1  C   UNL A   1      34.790  29.558  26.824  1.00  0.00     0.021 C 
ENDROOT
BRANCH   1   2
ATOM      2  C   UNL A   1      33.964  28.591  25.962  1.00  0.00     0.116 C 
BRANCH   2   3
ATOM      3  N   UNL A   1      33.580  29.247  24.725  1.00  0.00    -0.354 N 
ATOM      4  C   UNL A   1      32.626  28.801  23.843  1.00  0.00     0.243 C 
ATOM      5  O   UNL A   1      32.889  28.930  22.641  1.00  0.00    -0.273 OA
ATOM      6  H   UNL A   1      34.044  30.085  24.498  1.00  0.00     0.163 HD
BRANCH   4   7
ATOM      7  C   UNL A   1      31.289  28.165  24.362  1.00  0.00     0.190 C 
BRANCH   7   8
ATOM      8  N   UNL A   1      31.302  26.695  24.023  1.00  0.00    -0.238 NA
ATOM      9  H   UNL A   1      30.478  26.254  24.431  1.00  0.00     0.143 HD
BRANCH   8  10
ATOM     10  N   UNL A   1      32.505  26.039  24.547  1.00  0.00    -0.240 NA
ATOM     11  C   UNL A   1      33.283  21.963  24.520  1.00  0.00     0.410 C 
ATOM     12  O   UNL A   1      32.830  21.220  25.376  1.00  0.00    -0.224 OA
ATOM     13  N   UNL A   1      32.666  23.137  24.151  1.00  0.00    -0.306 N 
ATOM     14  C   UNL A   1      31.647  23.694  25.016  1.00  0.00     0.140 C 
ATOM     15  C   UNL A   1      33.007  23.996  23.022  1.00  0.00     0.140 C 
ATOM     16  C   UNL A   1      32.167  25.023  25.577  1.00  0.00     0.124 C 
ATOM     17  C   UNL A   1      33.341  25.438  23.471  1.00  0.00     0.124 C 
BRANCH  11  18
ATOM     18  O   UNL A   1      34.463  21.761  23.878  1.00  0.00    -0.444 OA
BRANCH  18  19
ATOM     19  C   UNL A   1      35.715  22.024  24.572  1.00  0.00     0.106 C 
ATOM     20  C   UNL A   1      36.651  22.605  23.502  1.00  0.00     0.056 C 
ATOM     21  C   UNL A   1      36.296  20.705  25.089  1.00  0.00     0.056 C 
ATOM     22  C   UNL A   1      35.593  23.068  25.695  1.00  0.00     0.056 C 
ENDBRANCH  18  19
ENDBRANCH  11  18
ENDBRANCH   8  10
ENDBRANCH   7   8
BRANCH   7  23
ATOM     23  C   UNL A   1      30.006  28.834  23.808  1.00  0.00    -0.002 A 
ATOM     24  C   UNL A   1      29.909  30.227  23.604  1.00  0.00     0.007 A 
ATOM     25  C   UNL A   1      28.846  28.083  23.515  1.00  0.00     0.046 A 
ATOM     26  C   UNL A   1      28.756  30.824  23.075  1.00  0.00     0.000 A 
ATOM     27  C   UNL A   1      27.703  28.680  22.960  1.00  0.00     0.021 A 
ATOM     28  Cl  UNL A   1      28.686  26.403  23.879  1.00  0.00    -0.084 Cl
ATOM     29  C   UNL A   1      27.660  30.049  22.732  1.00  0.00     0.002 A 
ENDBRANCH   7  23
ENDBRANCH   4   7
ENDBRANCH   2   3
ENDBRANCH   1   2
BRANCH   1  30
ATOM     30  C   UNL A   1      33.949  30.636  27.514  1.00  0.00     0.002 C 
BRANCH  30  31
ATOM     31  C   UNL A   1      32.443  30.529  27.249  1.00  0.00     0.002 C 
BRANCH  31  32
ATOM     32  C   UNL A   1      31.702  31.866  27.147  1.00  0.00     0.021 C 
BRANCH  32  33
ATOM     33  C   UNL A   1      32.580  33.054  26.754  1.00  0.00     0.116 C 
BRANCH  33  34
ATOM     34  N   UNL A   1      32.366  34.197  27.630  1.00  0.00    -0.352 N 
ATOM     35  C   UNL A   1      33.025  34.546  28.784  1.00  0.00     0.251 C 
ATOM     36  H   UNL A   1      31.645  34.807  27.356  1.00  0.00     0.163 HD
ATOM     37  O   UNL A   1      32.565  35.405  29.529  1.00  0.00    -0.269 OA
BRANCH  35  38
ATOM     38  C   UNL A   1      34.292  33.872  29.132  1.00  0.00     0.039 A 
ATOM     39  C   UNL A   1      35.447  34.176  28.408  1.00  0.00     0.014 A 
ATOM     40  C   UNL A   1      34.333  32.940  30.173  1.00  0.00     0.014 A 
ATOM     41  C   UNL A   1      36.665  33.602  28.780  1.00  0.00     0.010 A 
ATOM     42  C   UNL A   1      35.555  32.414  30.578  1.00  0.00     0.010 A 
ATOM     43  C   UNL A   1      36.733  32.749  29.894  1.00  0.00    -0.014 A 
BRANCH  43  44
ATOM     44  C   UNL A   1      38.027  32.219  30.388  1.00  0.00     0.031 A 
ATOM     45  C   UNL A   1      38.584  30.940  29.832  1.00  0.00     0.074 A 
ATOM     46  C   UNL A   1      38.653  32.844  31.405  1.00  0.00     0.049 A 
ATOM     47  N   UNL A   1      39.632  30.258  30.222  1.00  0.00    -0.248 NA
ATOM     48  C   UNL A   1      37.857  30.336  28.704  1.00  0.00     0.031 C 
ATOM     49  C   UNL A   1      38.200  34.079  32.049  1.00  0.00     0.029 A 
ATOM     50  N   UNL A   1      39.796  32.513  32.089  1.00  0.00    -0.354 N 
ATOM     51  C   UNL A   1      39.682  29.141  29.398  1.00  0.00     0.074 A 
ATOM     52  C   UNL A   1      38.538  29.214  28.515  1.00  0.00     0.031 C 
ATOM     53  C   UNL A   1      39.062  34.409  33.023  1.00  0.00     0.029 A 
ATOM     54  C   UNL A   1      40.101  33.386  33.104  1.00  0.00     0.049 A 
ATOM     55  H   UNL A   1      40.345  31.726  31.871  1.00  0.00     0.167 HD
ATOM     56  C   UNL A   1      40.605  28.151  29.372  1.00  0.00     0.031 A 
ATOM     57  C   UNL A   1      41.091  33.357  34.015  1.00  0.00     0.031 A 
ATOM     58  C   UNL A   1      41.745  28.082  30.246  1.00  0.00     0.049 A 
ATOM     59  C   UNL A   1      42.073  32.219  33.997  1.00  0.00     0.074 A 
ATOM     60  C   UNL A   1      42.767  27.148  30.258  1.00  0.00     0.029 A 
ATOM     61  N   UNL A   1      42.010  28.980  31.268  1.00  0.00    -0.354 N 
ATOM     62  N   UNL A   1      42.139  31.200  33.173  1.00  0.00    -0.248 NA
ATOM     63  C   UNL A   1      43.113  32.225  35.035  1.00  0.00     0.031 C 
ATOM     64  C   UNL A   1      43.623  27.453  31.321  1.00  0.00     0.029 A 
ATOM     65  C   UNL A   1      43.161  28.603  31.938  1.00  0.00     0.049 A 
ATOM     66  H   UNL A   1      41.462  29.768  31.485  1.00  0.00     0.167 HD
ATOM     67  C   UNL A   1      43.238  30.456  33.582  1.00  0.00     0.074 A 
ATOM     68  C   UNL A   1      43.817  31.147  34.714  1.00  0.00     0.031 C 
ATOM     69  C   UNL A   1      43.721  29.300  33.067  1.00  0.00     0.031 A 
BRANCH  56  70
ATOM     70  C   UNL A   1      40.416  27.052  28.365  1.00  0.00    -0.014 A 
ATOM     71  C   UNL A   1      39.636  25.923  28.661  1.00  0.00     0.009 A 
ATOM     72  C   UNL A   1      40.985  27.169  27.087  1.00  0.00     0.009 A 
ATOM     73  C   UNL A   1      39.454  24.919  27.707  1.00  0.00     0.001 A 
ATOM     74  C   UNL A   1      40.781  26.176  26.127  1.00  0.00     0.001 A 
ATOM     75  C   UNL A   1      40.023  25.049  26.441  1.00  0.00     0.000 A 
ENDBRANCH  56  70
BRANCH  57  76
ATOM     76  C   UNL A   1      41.202  34.432  35.034  1.00  0.00    -0.014 A 
ATOM     77  C   UNL A   1      41.957  35.585  34.771  1.00  0.00     0.009 A 
ATOM     78  C   UNL A   1      40.563  34.309  36.278  1.00  0.00     0.009 A 
ATOM     79  C   UNL A   1      42.091  36.581  35.741  1.00  0.00     0.001 A 
ATOM     80  C   UNL A   1      40.676  35.318  37.236  1.00  0.00     0.001 A 
ATOM     81  C   UNL A   1      41.446  36.448  36.970  1.00  0.00     0.000 A 
ENDBRANCH  57  76
BRANCH  69  82
ATOM     82  C   UNL A   1      44.945  28.719  33.712  1.00  0.00    -0.014 A 
ATOM     83  C   UNL A   1      44.838  27.774  34.743  1.00  0.00     0.009 A 
ATOM     84  C   UNL A   1      46.219  29.081  33.247  1.00  0.00     0.009 A 
ATOM     85  C   UNL A   1      45.986  27.218  35.312  1.00  0.00     0.001 A 
ATOM     86  C   UNL A   1      47.364  28.506  33.799  1.00  0.00     0.001 A 
ATOM     87  C   UNL A   1      47.246  27.580  34.836  1.00  0.00     0.000 A 
ENDBRANCH  69  82
ENDBRANCH  43  44
ENDBRANCH  35  38
ENDBRANCH  33  34
ENDBRANCH  32  33
ENDBRANCH  31  32
ENDBRANCH  30  31
ENDBRANCH   1  30
TORSDOF 18
ENDMDL
