MODEL 1
REMARK VINA RESULT:     -12.9      0.000      0.000
REMARK SMILES O=C(NCCCCCCNC(=O)[C@H]1CCCN(c2cc(-c3ccccn3)nc(-c3ccccc3F)n2)C1)c1ccc(-c2c3nc(c(-c4ccccc4)c4ccc([nH]4)c(-c4ccccc4)c4nc(c(-c5ccccc5)c5ccc2[nH]5)C=C4)C=C3)cc1
REMARK SMILES IDX 6 1 5 2 4 3 3 4 1 5 2 6 38 8 39 9 85 10 40 11 84 12 41 13
REMARK SMILES IDX 42 14 43 15 78 16 44 17 83 18 77 19 79 20 45 21 82 22 76 23
REMARK SMILES IDX 75 24 46 26 68 27 53 28 67 29 54 30 57 31 66 32 80 33 55 34
REMARK SMILES IDX 56 35 65 37 81 38 58 39 47 40 48 41 52 42 49 43 51 44 50 45
REMARK SMILES IDX 69 46 70 47 74 48 71 49 73 50 72 51 59 52 60 53 64 54 61 55
REMARK SMILES IDX 63 56 62 57 7 58 8 59 9 60 10 61 11 62 12 64 13 65 14 66
REMARK SMILES IDX 37 67 15 68 17 69 16 70 18 71 19 72 36 73 20 74 28 75 27 76
REMARK SMILES IDX 21 77 22 78 26 79 23 80 25 81 24 82 29 83 30 84 34 85 31 86
REMARK SMILES IDX 33 87 35 88 32 89
REMARK H PARENT 3 7 79 25 57 36 10 63
REMARK Flexibility Score: inf
ROOT
ATOM      1  C   UNL A   1      35.401  21.921  24.409  1.00  0.00     0.002 C 
ENDROOT
BRANCH   1   2
ATOM      2  C   UNL A   1      36.010  23.313  24.568  1.00  0.00     0.021 C 
BRANCH   2   3
ATOM      3  C   UNL A   1      36.804  23.527  25.850  1.00  0.00     0.116 C 
BRANCH   3   4
ATOM      4  N   UNL A   1      37.919  22.604  25.984  1.00  0.00    -0.352 N 
ATOM      5  O   UNL A   1      40.067  21.983  26.305  1.00  0.00    -0.269 OA
ATOM      6  C   UNL A   1      39.208  22.857  26.386  1.00  0.00     0.251 C 
ATOM      7  H   UNL A   1      37.723  21.667  25.755  1.00  0.00     0.163 HD
BRANCH   6   8
ATOM      8  C   UNL A   1      39.569  24.200  26.887  1.00  0.00     0.039 A 
ATOM      9  C   UNL A   1      40.117  25.159  26.031  1.00  0.00     0.014 A 
ATOM     10  C   UNL A   1      39.365  24.500  28.237  1.00  0.00     0.014 A 
ATOM     11  C   UNL A   1      40.595  26.356  26.552  1.00  0.00     0.010 A 
ATOM     12  C   UNL A   1      39.770  25.738  28.743  1.00  0.00     0.010 A 
ATOM     13  C   UNL A   1      40.423  26.661  27.912  1.00  0.00    -0.014 A 
BRANCH  13  14
ATOM     14  C   UNL A   1      40.904  27.965  28.433  1.00  0.00     0.031 A 
ATOM     15  C   UNL A   1      42.369  28.303  28.454  1.00  0.00     0.074 A 
ATOM     16  C   UNL A   1      40.000  28.866  28.866  1.00  0.00     0.049 A 
ATOM     17  N   UNL A   1      42.953  29.413  28.835  1.00  0.00    -0.248 NA
ATOM     18  C   UNL A   1      43.302  27.262  27.995  1.00  0.00     0.031 C 
ATOM     19  C   UNL A   1      38.551  28.657  28.897  1.00  0.00     0.029 A 
ATOM     20  N   UNL A   1      40.164  30.142  29.337  1.00  0.00    -0.354 N 
ATOM     21  C   UNL A   1      44.317  29.195  28.689  1.00  0.00     0.074 A 
ATOM     22  C   UNL A   1      44.476  27.841  28.202  1.00  0.00     0.031 C 
ATOM     23  C   UNL A   1      37.954  29.785  29.309  1.00  0.00     0.029 A 
ATOM     24  C   UNL A   1      38.979  30.773  29.626  1.00  0.00     0.049 A 
ATOM     25  H   UNL A   1      41.044  30.565  29.457  1.00  0.00     0.167 HD
ATOM     26  C   UNL A   1      45.343  30.046  28.933  1.00  0.00     0.031 A 
ATOM     27  C   UNL A   1      38.738  32.010  30.098  1.00  0.00     0.031 A 
ATOM     28  C   UNL A   1      45.185  31.394  29.413  1.00  0.00     0.049 A 
ATOM     29  C   UNL A   1      39.893  32.922  30.384  1.00  0.00     0.074 A 
ATOM     30  C   UNL A   1      46.162  32.346  29.653  1.00  0.00     0.029 A 
ATOM     31  N   UNL A   1      43.970  31.980  29.734  1.00  0.00    -0.354 N 
ATOM     32  N   UNL A   1      41.174  32.713  30.202  1.00  0.00    -0.248 NA
ATOM     33  C   UNL A   1      39.566  34.242  30.937  1.00  0.00     0.031 C 
ATOM     34  C   UNL A   1      45.542  33.491  30.166  1.00  0.00     0.029 A 
ATOM     35  C   UNL A   1      44.174  33.272  30.193  1.00  0.00     0.049 A 
ATOM     36  H   UNL A   1      43.092  31.544  29.648  1.00  0.00     0.167 HD
ATOM     37  C   UNL A   1      41.806  33.884  30.596  1.00  0.00     0.074 A 
ATOM     38  C   UNL A   1      40.765  34.803  31.013  1.00  0.00     0.031 C 
ATOM     39  C   UNL A   1      43.130  34.173  30.609  1.00  0.00     0.031 A 
BRANCH  26  40
ATOM     40  C   UNL A   1      46.739  29.526  28.719  1.00  0.00    -0.014 A 
ATOM     41  C   UNL A   1      47.452  28.888  29.746  1.00  0.00     0.009 A 
ATOM     42  C   UNL A   1      47.341  29.656  27.456  1.00  0.00     0.009 A 
ATOM     43  C   UNL A   1      48.751  28.424  29.525  1.00  0.00     0.001 A 
ATOM     44  C   UNL A   1      48.629  29.167  27.230  1.00  0.00     0.001 A 
ATOM     45  C   UNL A   1      49.337  28.562  28.267  1.00  0.00     0.000 A 
ENDBRANCH  26  40
BRANCH  27  46
ATOM     46  C   UNL A   1      37.339  32.454  30.316  1.00  0.00    -0.014 A 
ATOM     47  C   UNL A   1      36.615  31.998  31.428  1.00  0.00     0.009 A 
ATOM     48  C   UNL A   1      36.729  33.353  29.428  1.00  0.00     0.009 A 
ATOM     49  C   UNL A   1      35.303  32.424  31.638  1.00  0.00     0.001 A 
ATOM     50  C   UNL A   1      35.426  33.798  29.656  1.00  0.00     0.001 A 
ATOM     51  C   UNL A   1      34.711  33.329  30.757  1.00  0.00     0.000 A 
ENDBRANCH  27  46
BRANCH  39  52
ATOM     52  C   UNL A   1      43.521  35.553  31.052  1.00  0.00    -0.014 A 
ATOM     53  C   UNL A   1      43.685  36.599  30.130  1.00  0.00     0.009 A 
ATOM     54  C   UNL A   1      43.713  35.814  32.419  1.00  0.00     0.009 A 
ATOM     55  C   UNL A   1      44.066  37.869  30.565  1.00  0.00     0.001 A 
ATOM     56  C   UNL A   1      44.067  37.091  32.853  1.00  0.00     0.001 A 
ATOM     57  C   UNL A   1      44.254  38.115  31.925  1.00  0.00     0.000 A 
ENDBRANCH  39  52
ENDBRANCH  13  14
ENDBRANCH   6   8
ENDBRANCH   3   4
ENDBRANCH   2   3
ENDBRANCH   1   2
BRANCH   1  58
ATOM     58  C   UNL A   1      35.219  21.130  25.708  1.00  0.00     0.002 C 
BRANCH  58  59
ATOM     59  C   UNL A   1      33.805  21.138  26.302  1.00  0.00     0.021 C 
BRANCH  59  60
ATOM     60  C   UNL A   1      33.524  22.256  27.305  1.00  0.00     0.116 C 
BRANCH  60  61
ATOM     61  N   UNL A   1      32.117  22.319  27.649  1.00  0.00    -0.356 N 
ATOM     62  C   UNL A   1      31.103  22.994  27.047  1.00  0.00     0.224 C 
ATOM     63  H   UNL A   1      31.857  21.795  28.441  1.00  0.00     0.163 HD
ATOM     64  O   UNL A   1      29.976  22.896  27.536  1.00  0.00    -0.275 OA
BRANCH  62  65
ATOM     65  C   UNL A   1      31.385  23.865  25.837  1.00  0.00     0.098 C 
ATOM     66  C   UNL A   1      31.236  23.040  24.548  1.00  0.00     0.017 C 
ATOM     67  C   UNL A   1      30.411  25.043  25.854  1.00  0.00     0.131 C 
ATOM     68  C   UNL A   1      31.365  23.928  23.315  1.00  0.00     0.022 C 
ATOM     69  N   UNL A   1      30.479  25.784  24.599  1.00  0.00    -0.356 N 
ATOM     70  C   UNL A   1      30.334  25.055  23.349  1.00  0.00     0.118 C 
BRANCH  69  71
ATOM     71  C   UNL A   1      30.668  27.147  24.616  1.00  0.00     0.133 A 
ATOM     72  C   UNL A   1      29.967  27.959  23.750  1.00  0.00     0.077 A 
ATOM     73  N   UNL A   1      31.548  27.660  25.488  1.00  0.00    -0.211 NA
ATOM     74  C   UNL A   1      30.184  29.321  23.827  1.00  0.00     0.095 A 
ATOM     75  C   UNL A   1      31.731  28.996  25.470  1.00  0.00     0.165 A 
ATOM     76  N   UNL A   1      31.072  29.860  24.683  1.00  0.00    -0.226 NA
BRANCH  74  77
ATOM     77  C   UNL A   1      29.414  30.241  22.982  1.00  0.00     0.089 A 
ATOM     78  C   UNL A   1      28.868  31.414  23.507  1.00  0.00     0.030 A 
ATOM     79  N   UNL A   1      29.186  29.847  21.702  1.00  0.00    -0.255 NA
ATOM     80  C   UNL A   1      28.065  32.210  22.695  1.00  0.00     0.004 A 
ATOM     81  C   UNL A   1      28.417  30.648  20.933  1.00  0.00     0.112 A 
ATOM     82  C   UNL A   1      27.834  31.822  21.382  1.00  0.00     0.020 A 
ENDBRANCH  74  77
BRANCH  75  83
ATOM     83  C   UNL A   1      32.813  29.529  26.293  1.00  0.00     0.055 A 
ATOM     84  C   UNL A   1      34.019  28.819  26.446  1.00  0.00     0.015 A 
ATOM     85  C   UNL A   1      32.702  30.766  26.934  1.00  0.00     0.134 A 
ATOM     86  C   UNL A   1      35.076  29.340  27.199  1.00  0.00     0.001 A 
ATOM     87  C   UNL A   1      33.749  31.289  27.695  1.00  0.00     0.040 A 
ATOM     88  F   UNL A   1      31.566  31.475  26.855  1.00  0.00    -0.206 F 
ATOM     89  C   UNL A   1      34.941  30.578  27.824  1.00  0.00     0.003 A 
ENDBRANCH  75  83
ENDBRANCH  69  71
ENDBRANCH  62  65
ENDBRANCH  60  61
ENDBRANCH  59  60
ENDBRANCH  58  59
ENDBRANCH   1  58
TORSDOF 16
ENDMDL
MODEL 2
REMARK VINA RESULT:     -12.5      0.381      5.602
REMARK SMILES O=C(NCCCCCCNC(=O)[C@H]1CCCN(c2cc(-c3ccccn3)nc(-c3ccccc3F)n2)C1)c1ccc(-c2c3nc(c(-c4ccccc4)c4ccc([nH]4)c(-c4ccccc4)c4nc(c(-c5ccccc5)c5ccc2[nH]5)C=C4)C=C3)cc1
REMARK SMILES IDX 6 1 5 2 4 3 3 4 1 5 2 6 38 8 39 9 85 10 40 11 84 12 41 13
REMARK SMILES IDX 42 14 43 15 78 16 44 17 83 18 77 19 79 20 45 21 82 22 76 23
REMARK SMILES IDX 75 24 46 26 68 27 53 28 67 29 54 30 57 31 66 32 80 33 55 34
REMARK SMILES IDX 56 35 65 37 81 38 58 39 47 40 48 41 52 42 49 43 51 44 50 45
REMARK SMILES IDX 69 46 70 47 74 48 71 49 73 50 72 51 59 52 60 53 64 54 61 55
REMARK SMILES IDX 63 56 62 57 7 58 8 59 9 60 10 61 11 62 12 64 13 65 14 66
REMARK SMILES IDX 37 67 15 68 17 69 16 70 18 71 19 72 36 73 20 74 28 75 27 76
REMARK SMILES IDX 21 77 22 78 26 79 23 80 25 81 24 82 29 83 30 84 34 85 31 86
REMARK SMILES IDX 33 87 35 88 32 89
REMARK H PARENT 3 7 79 25 57 36 10 63
REMARK Flexibility Score: inf
ROOT
ATOM      1  C   UNL A   1      35.234  22.301  24.501  1.00  0.00     0.002 C 
ENDROOT
BRANCH   1   2
ATOM      2  C   UNL A   1      35.473  23.756  24.901  1.00  0.00     0.021 C 
BRANCH   2   3
ATOM      3  C   UNL A   1      36.603  23.973  25.900  1.00  0.00     0.116 C 
BRANCH   3   4
ATOM      4  N   UNL A   1      37.549  22.869  25.930  1.00  0.00    -0.352 N 
ATOM      5  O   UNL A   1      39.573  21.879  26.089  1.00  0.00    -0.269 OA
ATOM      6  C   UNL A   1      38.883  22.882  26.255  1.00  0.00     0.251 C 
ATOM      7  H   UNL A   1      37.180  21.990  25.685  1.00  0.00     0.163 HD
BRANCH   6   8
ATOM      8  C   UNL A   1      39.499  24.121  26.774  1.00  0.00     0.039 A 
ATOM      9  C   UNL A   1      39.475  24.413  28.140  1.00  0.00     0.014 A 
ATOM     10  C   UNL A   1      40.102  25.009  25.877  1.00  0.00     0.014 A 
ATOM     11  C   UNL A   1      39.917  25.653  28.589  1.00  0.00     0.010 A 
ATOM     12  C   UNL A   1      40.622  26.219  26.342  1.00  0.00     0.010 A 
ATOM     13  C   UNL A   1      40.499  26.568  27.697  1.00  0.00    -0.014 A 
BRANCH  13  14
ATOM     14  C   UNL A   1      41.003  27.867  28.209  1.00  0.00     0.031 A 
ATOM     15  C   UNL A   1      40.062  28.905  28.757  1.00  0.00     0.074 A 
ATOM     16  C   UNL A   1      42.330  28.097  28.205  1.00  0.00     0.049 A 
ATOM     17  N   UNL A   1      40.341  30.072  29.283  1.00  0.00    -0.248 NA
ATOM     18  C   UNL A   1      38.625  28.599  28.703  1.00  0.00     0.031 C 
ATOM     19  C   UNL A   1      43.345  27.169  27.700  1.00  0.00     0.029 A 
ATOM     20  N   UNL A   1      43.054  29.168  28.661  1.00  0.00    -0.354 N 
ATOM     21  C   UNL A   1      39.118  30.650  29.597  1.00  0.00     0.074 A 
ATOM     22  C   UNL A   1      38.093  29.714  29.184  1.00  0.00     0.031 C 
ATOM     23  C   UNL A   1      44.562  27.685  27.925  1.00  0.00     0.029 A 
ATOM     24  C   UNL A   1      44.411  29.002  28.534  1.00  0.00     0.049 A 
ATOM     25  H   UNL A   1      42.642  29.975  29.043  1.00  0.00     0.167 HD
ATOM     26  C   UNL A   1      38.870  31.849  30.178  1.00  0.00     0.031 A 
ATOM     27  C   UNL A   1      45.427  29.819  28.867  1.00  0.00     0.031 A 
ATOM     28  C   UNL A   1      39.888  32.778  30.592  1.00  0.00     0.049 A 
ATOM     29  C   UNL A   1      45.124  31.150  29.486  1.00  0.00     0.074 A 
ATOM     30  C   UNL A   1      39.738  34.000  31.226  1.00  0.00     0.029 A 
ATOM     31  N   UNL A   1      41.250  32.591  30.407  1.00  0.00    -0.354 N 
ATOM     32  N   UNL A   1      43.963  31.664  29.811  1.00  0.00    -0.248 NA
ATOM     33  C   UNL A   1      46.274  32.013  29.786  1.00  0.00     0.031 C 
ATOM     34  C   UNL A   1      41.004  34.575  31.379  1.00  0.00     0.029 A 
ATOM     35  C   UNL A   1      41.949  33.686  30.891  1.00  0.00     0.049 A 
ATOM     36  H   UNL A   1      41.660  31.798  29.992  1.00  0.00     0.167 HD
ATOM     37  C   UNL A   1      44.243  32.900  30.376  1.00  0.00     0.074 A 
ATOM     38  C   UNL A   1      45.684  33.052  30.361  1.00  0.00     0.031 C 
ATOM     39  C   UNL A   1      43.382  33.825  30.866  1.00  0.00     0.031 A 
BRANCH  26  40
ATOM     40  C   UNL A   1      37.430  32.241  30.368  1.00  0.00    -0.014 A 
ATOM     41  C   UNL A   1      36.649  31.696  31.400  1.00  0.00     0.009 A 
ATOM     42  C   UNL A   1      36.852  33.193  29.512  1.00  0.00     0.009 A 
ATOM     43  C   UNL A   1      35.311  32.068  31.548  1.00  0.00     0.001 A 
ATOM     44  C   UNL A   1      35.522  33.583  29.679  1.00  0.00     0.001 A 
ATOM     45  C   UNL A   1      34.749  33.013  30.689  1.00  0.00     0.000 A 
ENDBRANCH  26  40
BRANCH  27  46
ATOM     46  C   UNL A   1      46.826  29.386  28.628  1.00  0.00    -0.014 A 
ATOM     47  C   UNL A   1      47.452  29.654  27.401  1.00  0.00     0.009 A 
ATOM     48  C   UNL A   1      47.551  28.726  29.632  1.00  0.00     0.009 A 
ATOM     49  C   UNL A   1      48.772  29.256  27.180  1.00  0.00     0.001 A 
ATOM     50  C   UNL A   1      48.879  28.354  29.418  1.00  0.00     0.001 A 
ATOM     51  C   UNL A   1      49.487  28.612  28.190  1.00  0.00     0.000 A 
ENDBRANCH  27  46
BRANCH  39  52
ATOM     52  C   UNL A   1      43.983  35.066  31.462  1.00  0.00    -0.014 A 
ATOM     53  C   UNL A   1      44.491  35.077  32.771  1.00  0.00     0.009 A 
ATOM     54  C   UNL A   1      44.058  36.239  30.693  1.00  0.00     0.009 A 
ATOM     55  C   UNL A   1      45.029  36.247  33.308  1.00  0.00     0.001 A 
ATOM     56  C   UNL A   1      44.620  37.399  31.223  1.00  0.00     0.001 A 
ATOM     57  C   UNL A   1      45.096  37.406  32.534  1.00  0.00     0.000 A 
ENDBRANCH  39  52
ENDBRANCH  13  14
ENDBRANCH   6   8
ENDBRANCH   3   4
ENDBRANCH   2   3
ENDBRANCH   1   2
BRANCH   1  58
ATOM     58  C   UNL A   1      35.191  21.299  25.658  1.00  0.00     0.002 C 
BRANCH  58  59
ATOM     59  C   UNL A   1      33.830  21.127  26.343  1.00  0.00     0.021 C 
BRANCH  59  60
ATOM     60  C   UNL A   1      33.490  22.182  27.395  1.00  0.00     0.116 C 
BRANCH  60  61
ATOM     61  N   UNL A   1      32.065  22.232  27.658  1.00  0.00    -0.356 N 
ATOM     62  C   UNL A   1      31.082  22.902  27.002  1.00  0.00     0.224 C 
ATOM     63  H   UNL A   1      31.764  21.699  28.429  1.00  0.00     0.163 HD
ATOM     64  O   UNL A   1      29.930  22.791  27.424  1.00  0.00    -0.275 OA
BRANCH  62  65
ATOM     65  C   UNL A   1      31.426  23.784  25.816  1.00  0.00     0.098 C 
ATOM     66  C   UNL A   1      31.380  22.961  24.518  1.00  0.00     0.017 C 
ATOM     67  C   UNL A   1      30.430  24.942  25.773  1.00  0.00     0.131 C 
ATOM     68  C   UNL A   1      31.572  23.858  23.299  1.00  0.00     0.022 C 
ATOM     69  N   UNL A   1      30.566  25.691  24.527  1.00  0.00    -0.356 N 
ATOM     70  C   UNL A   1      30.519  24.965  23.268  1.00  0.00     0.118 C 
BRANCH  69  71
ATOM     71  C   UNL A   1      30.726  27.057  24.561  1.00  0.00     0.133 A 
ATOM     72  C   UNL A   1      30.010  27.864  23.704  1.00  0.00     0.077 A 
ATOM     73  N   UNL A   1      31.594  27.578  25.441  1.00  0.00    -0.211 NA
ATOM     74  C   UNL A   1      30.198  29.229  23.798  1.00  0.00     0.095 A 
ATOM     75  C   UNL A   1      31.749  28.917  25.439  1.00  0.00     0.165 A 
ATOM     76  N   UNL A   1      31.073  29.776  24.662  1.00  0.00    -0.226 NA
BRANCH  74  77
ATOM     77  C   UNL A   1      29.410  30.143  22.963  1.00  0.00     0.089 A 
ATOM     78  C   UNL A   1      29.072  31.421  23.415  1.00  0.00     0.030 A 
ATOM     79  N   UNL A   1      28.955  29.651  21.782  1.00  0.00    -0.255 NA
ATOM     80  C   UNL A   1      28.244  32.219  22.632  1.00  0.00     0.004 A 
ATOM     81  C   UNL A   1      28.167  30.455  21.035  1.00  0.00     0.112 A 
ATOM     82  C   UNL A   1      27.782  31.730  21.418  1.00  0.00     0.020 A 
ENDBRANCH  74  77
BRANCH  75  83
ATOM     83  C   UNL A   1      32.819  29.462  26.271  1.00  0.00     0.055 A 
ATOM     84  C   UNL A   1      34.037  28.773  26.422  1.00  0.00     0.015 A 
ATOM     85  C   UNL A   1      32.684  30.692  26.922  1.00  0.00     0.134 A 
ATOM     86  C   UNL A   1      35.081  29.307  27.183  1.00  0.00     0.001 A 
ATOM     87  C   UNL A   1      33.718  31.227  27.691  1.00  0.00     0.040 A 
ATOM     88  F   UNL A   1      31.535  31.380  26.845  1.00  0.00    -0.206 F 
ATOM     89  C   UNL A   1      34.922  30.537  27.817  1.00  0.00     0.003 A 
ENDBRANCH  75  83
ENDBRANCH  69  71
ENDBRANCH  62  65
ENDBRANCH  60  61
ENDBRANCH  59  60
ENDBRANCH  58  59
ENDBRANCH   1  58
TORSDOF 16
ENDMDL
MODEL 3
REMARK VINA RESULT:     -12.5      3.486      9.267
REMARK SMILES O=C(NCCCCCCNC(=O)[C@H]1CCCN(c2cc(-c3ccccn3)nc(-c3ccccc3F)n2)C1)c1ccc(-c2c3nc(c(-c4ccccc4)c4ccc([nH]4)c(-c4ccccc4)c4nc(c(-c5ccccc5)c5ccc2[nH]5)C=C4)C=C3)cc1
REMARK SMILES IDX 6 1 5 2 4 3 3 4 1 5 2 6 38 8 39 9 85 10 40 11 84 12 41 13
REMARK SMILES IDX 42 14 43 15 78 16 44 17 83 18 77 19 79 20 45 21 82 22 76 23
REMARK SMILES IDX 75 24 46 26 68 27 53 28 67 29 54 30 57 31 66 32 80 33 55 34
REMARK SMILES IDX 56 35 65 37 81 38 58 39 47 40 48 41 52 42 49 43 51 44 50 45
REMARK SMILES IDX 69 46 70 47 74 48 71 49 73 50 72 51 59 52 60 53 64 54 61 55
REMARK SMILES IDX 63 56 62 57 7 58 8 59 9 60 10 61 11 62 12 64 13 65 14 66
REMARK SMILES IDX 37 67 15 68 17 69 16 70 18 71 19 72 36 73 20 74 28 75 27 76
REMARK SMILES IDX 21 77 22 78 26 79 23 80 25 81 24 82 29 83 30 84 34 85 31 86
REMARK SMILES IDX 33 87 35 88 32 89
REMARK H PARENT 3 7 79 25 57 36 10 63
REMARK Flexibility Score: inf
ROOT
ATOM      1  C   UNL A   1      33.654  29.116  26.474  1.00  0.00     0.002 C 
ENDROOT
BRANCH   1   2
ATOM      2  C   UNL A   1      34.947  29.019  27.284  1.00  0.00     0.021 C 
BRANCH   2   3
ATOM      3  C   UNL A   1      35.474  30.345  27.817  1.00  0.00     0.116 C 
BRANCH   3   4
ATOM      4  N   UNL A   1      35.389  30.445  29.265  1.00  0.00    -0.352 N 
ATOM      5  O   UNL A   1      36.004  30.076  31.407  1.00  0.00    -0.269 OA
ATOM      6  C   UNL A   1      36.298  30.048  30.215  1.00  0.00     0.251 C 
ATOM      7  H   UNL A   1      34.565  30.855  29.613  1.00  0.00     0.163 HD
BRANCH   6   8
ATOM      8  C   UNL A   1      37.627  29.552  29.796  1.00  0.00     0.039 A 
ATOM      9  C   UNL A   1      38.434  28.835  30.683  1.00  0.00     0.014 A 
ATOM     10  C   UNL A   1      38.074  29.818  28.499  1.00  0.00     0.014 A 
ATOM     11  C   UNL A   1      39.738  28.515  30.324  1.00  0.00     0.010 A 
ATOM     12  C   UNL A   1      39.356  29.422  28.111  1.00  0.00     0.010 A 
ATOM     13  C   UNL A   1      40.213  28.801  29.034  1.00  0.00    -0.014 A 
BRANCH  13  14
ATOM     14  C   UNL A   1      41.596  28.409  28.662  1.00  0.00     0.031 A 
ATOM     15  C   UNL A   1      41.921  27.002  28.244  1.00  0.00     0.074 A 
ATOM     16  C   UNL A   1      42.563  29.347  28.675  1.00  0.00     0.049 A 
ATOM     17  N   UNL A   1      43.066  26.505  27.846  1.00  0.00    -0.248 NA
ATOM     18  C   UNL A   1      40.823  26.023  28.280  1.00  0.00     0.031 C 
ATOM     19  C   UNL A   1      42.374  30.747  29.064  1.00  0.00     0.029 A 
ATOM     20  N   UNL A   1      43.888  29.272  28.332  1.00  0.00    -0.354 N 
ATOM     21  C   UNL A   1      42.835  25.155  27.613  1.00  0.00     0.074 A 
ATOM     22  C   UNL A   1      41.446  24.906  27.932  1.00  0.00     0.031 C 
ATOM     23  C   UNL A   1      43.524  31.411  28.882  1.00  0.00     0.029 A 
ATOM     24  C   UNL A   1      44.544  30.474  28.424  1.00  0.00     0.049 A 
ATOM     25  H   UNL A   1      44.325  28.438  28.047  1.00  0.00     0.167 HD
ATOM     26  C   UNL A   1      43.701  24.210  27.171  1.00  0.00     0.031 A 
ATOM     27  C   UNL A   1      45.827  30.792  28.172  1.00  0.00     0.031 A 
ATOM     28  C   UNL A   1      45.082  24.459  26.850  1.00  0.00     0.049 A 
ATOM     29  C   UNL A   1      46.769  29.722  27.708  1.00  0.00     0.074 A 
ATOM     30  C   UNL A   1      46.027  23.575  26.357  1.00  0.00     0.029 A 
ATOM     31  N   UNL A   1      45.719  25.682  26.998  1.00  0.00    -0.354 N 
ATOM     32  N   UNL A   1      46.524  28.460  27.455  1.00  0.00    -0.248 NA
ATOM     33  C   UNL A   1      48.164  30.124  27.491  1.00  0.00     0.031 C 
ATOM     34  C   UNL A   1      47.248  24.250  26.253  1.00  0.00     0.029 A 
ATOM     35  C   UNL A   1      47.050  25.569  26.629  1.00  0.00     0.049 A 
ATOM     36  H   UNL A   1      45.289  26.508  27.317  1.00  0.00     0.167 HD
ATOM     37  C   UNL A   1      47.729  27.920  27.027  1.00  0.00     0.074 A 
ATOM     38  C   UNL A   1      48.699  28.997  27.041  1.00  0.00     0.031 C 
ATOM     39  C   UNL A   1      48.005  26.648  26.653  1.00  0.00     0.031 A 
BRANCH  26  40
ATOM     40  C   UNL A   1      43.182  22.804  27.043  1.00  0.00    -0.014 A 
ATOM     41  C   UNL A   1      42.656  22.111  28.144  1.00  0.00     0.009 A 
ATOM     42  C   UNL A   1      43.199  22.170  25.789  1.00  0.00     0.009 A 
ATOM     43  C   UNL A   1      42.191  20.801  28.002  1.00  0.00     0.001 A 
ATOM     44  C   UNL A   1      42.709  20.871  25.644  1.00  0.00     0.001 A 
ATOM     45  C   UNL A   1      42.216  20.184  26.751  1.00  0.00     0.000 A 
ENDBRANCH  26  40
BRANCH  27  46
ATOM     46  C   UNL A   1      46.284  32.193  28.345  1.00  0.00    -0.014 A 
ATOM     47  C   UNL A   1      46.931  32.587  29.526  1.00  0.00     0.009 A 
ATOM     48  C   UNL A   1      46.099  33.136  27.322  1.00  0.00     0.009 A 
ATOM     49  C   UNL A   1      47.370  33.903  29.685  1.00  0.00     0.001 A 
ATOM     50  C   UNL A   1      46.564  34.444  27.473  1.00  0.00     0.001 A 
ATOM     51  C   UNL A   1      47.193  34.828  28.656  1.00  0.00     0.000 A 
ENDBRANCH  27  46
BRANCH  39  52
ATOM     52  C   UNL A   1      49.406  26.363  26.190  1.00  0.00    -0.014 A 
ATOM     53  C   UNL A   1      49.814  26.643  24.876  1.00  0.00     0.009 A 
ATOM     54  C   UNL A   1      50.336  25.821  27.092  1.00  0.00     0.009 A 
ATOM     55  C   UNL A   1      51.116  26.353  24.466  1.00  0.00     0.001 A 
ATOM     56  C   UNL A   1      51.644  25.558  26.686  1.00  0.00     0.001 A 
ATOM     57  C   UNL A   1      52.030  25.814  25.371  1.00  0.00     0.000 A 
ENDBRANCH  39  52
ENDBRANCH  13  14
ENDBRANCH   6   8
ENDBRANCH   3   4
ENDBRANCH   2   3
ENDBRANCH   1   2
BRANCH   1  58
ATOM     58  C   UNL A   1      33.440  28.005  25.442  1.00  0.00     0.002 C 
BRANCH  58  59
ATOM     59  C   UNL A   1      33.769  28.369  23.989  1.00  0.00     0.021 C 
BRANCH  59  60
ATOM     60  C   UNL A   1      32.579  28.371  23.031  1.00  0.00     0.116 C 
BRANCH  60  61
ATOM     61  N   UNL A   1      32.879  27.649  21.810  1.00  0.00    -0.356 N 
ATOM     62  C   UNL A   1      32.887  26.311  21.569  1.00  0.00     0.224 C 
ATOM     63  H   UNL A   1      33.112  28.213  21.038  1.00  0.00     0.163 HD
ATOM     64  O   UNL A   1      33.185  25.933  20.435  1.00  0.00    -0.275 OA
BRANCH  62  65
ATOM     65  C   UNL A   1      32.576  25.337  22.690  1.00  0.00     0.098 C 
ATOM     66  C   UNL A   1      31.059  25.281  22.933  1.00  0.00     0.017 C 
ATOM     67  C   UNL A   1      33.125  23.965  22.300  1.00  0.00     0.131 C 
ATOM     68  C   UNL A   1      30.710  24.198  23.949  1.00  0.00     0.022 C 
ATOM     69  N   UNL A   1      32.655  22.941  23.229  1.00  0.00    -0.356 N 
ATOM     70  C   UNL A   1      31.228  22.836  23.489  1.00  0.00     0.118 C 
BRANCH  69  71
ATOM     71  C   UNL A   1      33.557  22.095  23.832  1.00  0.00     0.133 A 
ATOM     72  C   UNL A   1      34.791  22.563  24.233  1.00  0.00     0.077 A 
ATOM     73  N   UNL A   1      33.210  20.813  24.015  1.00  0.00    -0.211 NA
ATOM     74  C   UNL A   1      35.647  21.672  24.850  1.00  0.00     0.095 A 
ATOM     75  C   UNL A   1      34.120  20.000  24.589  1.00  0.00     0.165 A 
ATOM     76  N   UNL A   1      35.328  20.377  25.033  1.00  0.00    -0.226 NA
BRANCH  74  77
ATOM     77  C   UNL A   1      36.944  22.129  25.363  1.00  0.00     0.089 A 
ATOM     78  C   UNL A   1      38.030  21.255  25.454  1.00  0.00     0.030 A 
ATOM     79  N   UNL A   1      37.002  23.405  25.825  1.00  0.00    -0.255 NA
ATOM     80  C   UNL A   1      39.213  21.703  26.035  1.00  0.00     0.004 A 
ATOM     81  C   UNL A   1      38.169  23.817  26.368  1.00  0.00     0.112 A 
ATOM     82  C   UNL A   1      39.286  23.009  26.501  1.00  0.00     0.020 A 
ENDBRANCH  74  77
BRANCH  75  83
ATOM     83  C   UNL A   1      33.807  18.574  24.624  1.00  0.00     0.055 A 
ATOM     84  C   UNL A   1      34.288  17.706  23.626  1.00  0.00     0.015 A 
ATOM     85  C   UNL A   1      33.045  18.019  25.656  1.00  0.00     0.134 A 
ATOM     86  C   UNL A   1      34.027  16.333  23.674  1.00  0.00     0.001 A 
ATOM     87  C   UNL A   1      32.772  16.651  25.705  1.00  0.00     0.040 A 
ATOM     88  F   UNL A   1      32.529  18.799  26.617  1.00  0.00    -0.206 F 
ATOM     89  C   UNL A   1      33.269  15.804  24.716  1.00  0.00     0.003 A 
ENDBRANCH  75  83
ENDBRANCH  69  71
ENDBRANCH  62  65
ENDBRANCH  60  61
ENDBRANCH  59  60
ENDBRANCH  58  59
ENDBRANCH   1  58
TORSDOF 16
ENDMDL
