MODEL 1
REMARK VINA RESULT:     -10.3      0.000      0.000
REMARK SMILES COc1ccc(Br)cc1S(=O)(=O)N(C)CC(=O)NCCCCCCNC(=O)c1ccc(-c2c3nc(c(-c4ccccc4)c4ccc([nH]4)c(-c4ccccc4)c4nc(c(-c5ccccc5)c5ccc2[nH]5)C=C4)C=C3)cc1
REMARK SMILES IDX 20 1 19 2 18 3 16 4 17 5 15 7 13 8 14 9 10 10 11 11 12 12
REMARK SMILES IDX 9 13 3 14 4 15 5 16 8 17 6 18 7 19 2 20 1 21 21 22 22 23
REMARK SMILES IDX 23 24 24 25 25 26 26 27 27 29 28 30 29 31 75 32 30 33 74 34
REMARK SMILES IDX 31 35 32 36 33 37 68 38 34 39 73 40 67 41 69 42 35 43 72 44
REMARK SMILES IDX 66 45 65 46 36 48 58 49 43 50 57 51 44 52 47 53 56 54 70 55
REMARK SMILES IDX 45 56 46 57 55 59 71 60 48 61 37 62 38 63 42 64 39 65 41 66
REMARK SMILES IDX 40 67 59 68 60 69 64 70 61 71 63 72 62 73 49 74 50 75 54 76
REMARK SMILES IDX 51 77 53 78 52 79
REMARK H PARENT 18 6 25 28 69 47 47 58
REMARK Flexibility Score: inf
ROOT
ATOM      1  C   UNL A   1      31.761  28.407  27.399  1.00  0.00     0.021 C 
ENDROOT
BRANCH   1   2
ATOM      2  C   UNL A   1      31.700  27.341  26.296  1.00  0.00     0.116 C 
BRANCH   2   3
ATOM      3  N   UNL A   1      30.860  26.222  26.681  1.00  0.00    -0.355 N 
ATOM      4  C   UNL A   1      31.014  24.873  26.511  1.00  0.00     0.235 C 
ATOM      5  O   UNL A   1      30.138  24.149  26.994  1.00  0.00    -0.274 OA
ATOM      6  H   UNL A   1      30.033  26.479  27.147  1.00  0.00     0.163 HD
BRANCH   4   7
ATOM      7  C   UNL A   1      32.231  24.275  25.803  1.00  0.00     0.202 C 
BRANCH   7   8
ATOM      8  N   UNL A   1      32.041  23.691  24.434  1.00  0.00    -0.191 NA
ATOM      9  C   UNL A   1      30.991  24.362  23.670  1.00  0.00     0.125 C 
BRANCH   8  10
ATOM     10  S   UNL A   1      32.114  21.996  24.405  1.00  0.00     0.247 S 
ATOM     11  O   UNL A   1      31.756  21.618  23.046  1.00  0.00    -0.207 OA
ATOM     12  O   UNL A   1      31.369  21.505  25.540  1.00  0.00    -0.207 OA
BRANCH  10  13
ATOM     13  C   UNL A   1      33.782  21.396  24.608  1.00  0.00     0.125 A 
ATOM     14  C   UNL A   1      34.190  20.059  24.649  1.00  0.00     0.138 A 
ATOM     15  C   UNL A   1      35.536  19.777  24.950  1.00  0.00     0.049 A 
ATOM     16  C   UNL A   1      36.454  20.799  25.207  1.00  0.00     0.019 A 
ATOM     17  C   UNL A   1      34.723  22.424  24.835  1.00  0.00     0.041 A 
ATOM     18  C   UNL A   1      36.046  22.122  25.135  1.00  0.00     0.019 A 
ATOM     19  Br  UNL A   1      37.284  23.511  25.456  1.00  0.00    -0.051 Br
BRANCH  14  20
ATOM     20  O   UNL A   1      33.312  19.057  24.345  1.00  0.00    -0.495 OA
ATOM     21  C   UNL A   1      32.845  18.285  25.455  1.00  0.00     0.278 C 
ENDBRANCH  14  20
ENDBRANCH  10  13
ENDBRANCH   8  10
ENDBRANCH   7   8
ENDBRANCH   4   7
ENDBRANCH   2   3
ENDBRANCH   1   2
BRANCH   1  22
ATOM     22  C   UNL A   1      32.339  29.752  26.953  1.00  0.00     0.002 C 
BRANCH  22  23
ATOM     23  C   UNL A   1      31.387  30.619  26.120  1.00  0.00     0.002 C 
BRANCH  23  24
ATOM     24  C   UNL A   1      31.322  32.108  26.495  1.00  0.00     0.021 C 
BRANCH  24  25
ATOM     25  C   UNL A   1      32.512  32.646  27.289  1.00  0.00     0.116 C 
BRANCH  25  26
ATOM     26  N   UNL A   1      32.344  34.040  27.663  1.00  0.00    -0.352 N 
ATOM     27  C   UNL A   1      33.036  34.804  28.568  1.00  0.00     0.251 C 
ATOM     28  H   UNL A   1      31.618  34.511  27.192  1.00  0.00     0.163 HD
ATOM     29  O   UNL A   1      32.617  35.916  28.880  1.00  0.00    -0.269 OA
BRANCH  27  30
ATOM     30  C   UNL A   1      34.280  34.298  29.191  1.00  0.00     0.039 A 
ATOM     31  C   UNL A   1      34.192  33.613  30.406  1.00  0.00     0.014 A 
ATOM     32  C   UNL A   1      35.529  34.536  28.611  1.00  0.00     0.014 A 
ATOM     33  C   UNL A   1      35.348  33.107  31.007  1.00  0.00     0.010 A 
ATOM     34  C   UNL A   1      36.677  33.991  29.187  1.00  0.00     0.010 A 
ATOM     35  C   UNL A   1      36.597  33.266  30.386  1.00  0.00    -0.014 A 
BRANCH  35  36
ATOM     36  C   UNL A   1      37.822  32.655  30.960  1.00  0.00     0.031 A 
ATOM     37  C   UNL A   1      38.418  31.418  30.352  1.00  0.00     0.074 A 
ATOM     38  C   UNL A   1      38.361  33.179  32.078  1.00  0.00     0.049 A 
ATOM     39  N   UNL A   1      39.439  30.708  30.763  1.00  0.00    -0.248 NA
ATOM     40  C   UNL A   1      37.772  30.899  29.137  1.00  0.00     0.031 C 
ATOM     41  C   UNL A   1      37.862  34.359  32.787  1.00  0.00     0.029 A 
ATOM     42  N   UNL A   1      39.442  32.777  32.821  1.00  0.00    -0.354 N 
ATOM     43  C   UNL A   1      39.546  29.650  29.869  1.00  0.00     0.074 A 
ATOM     44  C   UNL A   1      38.469  29.793  28.914  1.00  0.00     0.031 C 
ATOM     45  C   UNL A   1      38.643  34.594  33.853  1.00  0.00     0.029 A 
ATOM     46  C   UNL A   1      39.676  33.564  33.921  1.00  0.00     0.049 A 
ATOM     47  H   UNL A   1      39.997  31.998  32.586  1.00  0.00     0.167 HD
ATOM     48  C   UNL A   1      40.466  28.655  29.840  1.00  0.00     0.031 A 
ATOM     49  C   UNL A   1      40.611  33.466  34.884  1.00  0.00     0.031 A 
ATOM     50  C   UNL A   1      41.549  28.516  30.776  1.00  0.00     0.049 A 
ATOM     51  C   UNL A   1      41.612  32.349  34.835  1.00  0.00     0.074 A 
ATOM     52  C   UNL A   1      42.569  27.579  30.784  1.00  0.00     0.029 A 
ATOM     53  N   UNL A   1      41.751  29.335  31.875  1.00  0.00    -0.354 N 
ATOM     54  N   UNL A   1      41.734  31.390  33.950  1.00  0.00    -0.248 NA
ATOM     55  C   UNL A   1      42.607  32.304  35.917  1.00  0.00     0.031 C 
ATOM     56  C   UNL A   1      43.365  27.807  31.911  1.00  0.00     0.029 A 
ATOM     57  C   UNL A   1      42.863  28.910  32.583  1.00  0.00     0.049 A 
ATOM     58  H   UNL A   1      41.187  30.106  32.117  1.00  0.00     0.167 HD
ATOM     59  C   UNL A   1      42.826  30.636  34.359  1.00  0.00     0.074 A 
ATOM     60  C   UNL A   1      43.340  31.257  35.562  1.00  0.00     0.031 C 
ATOM     61  C   UNL A   1      43.355  29.528  33.786  1.00  0.00     0.031 A 
BRANCH  48  62
ATOM     62  C   UNL A   1      40.330  27.625  28.755  1.00  0.00    -0.014 A 
ATOM     63  C   UNL A   1      39.553  26.472  28.943  1.00  0.00     0.009 A 
ATOM     64  C   UNL A   1      40.962  27.827  27.518  1.00  0.00     0.009 A 
ATOM     65  C   UNL A   1      39.438  25.524  27.924  1.00  0.00     0.001 A 
ATOM     66  C   UNL A   1      40.826  26.889  26.493  1.00  0.00     0.001 A 
ATOM     67  C   UNL A   1      40.072  25.734  26.700  1.00  0.00     0.000 A 
ENDBRANCH  48  62
BRANCH  49  68
ATOM     68  C   UNL A   1      40.647  34.465  35.981  1.00  0.00    -0.014 A 
ATOM     69  C   UNL A   1      39.957  34.227  37.178  1.00  0.00     0.009 A 
ATOM     70  C   UNL A   1      41.377  35.655  35.838  1.00  0.00     0.009 A 
ATOM     71  C   UNL A   1      39.984  35.170  38.207  1.00  0.00     0.001 A 
ATOM     72  C   UNL A   1      41.418  36.587  36.877  1.00  0.00     0.001 A 
ATOM     73  C   UNL A   1      40.718  36.346  38.057  1.00  0.00     0.000 A 
ENDBRANCH  49  68
BRANCH  61  74
ATOM     74  C   UNL A   1      44.557  28.925  34.449  1.00  0.00    -0.014 A 
ATOM     75  C   UNL A   1      44.419  27.907  35.406  1.00  0.00     0.009 A 
ATOM     76  C   UNL A   1      45.844  29.355  34.090  1.00  0.00     0.009 A 
ATOM     77  C   UNL A   1      45.547  27.349  36.008  1.00  0.00     0.001 A 
ATOM     78  C   UNL A   1      46.971  28.781  34.680  1.00  0.00     0.001 A 
ATOM     79  C   UNL A   1      46.821  27.784  35.643  1.00  0.00     0.000 A 
ENDBRANCH  61  74
ENDBRANCH  35  36
ENDBRANCH  27  30
ENDBRANCH  25  26
ENDBRANCH  24  25
ENDBRANCH  23  24
ENDBRANCH  22  23
ENDBRANCH   1  22
TORSDOF 17
ENDMDL
MODEL 2
REMARK VINA RESULT:     -10.3      4.078      9.164
REMARK SMILES COc1ccc(Br)cc1S(=O)(=O)N(C)CC(=O)NCCCCCCNC(=O)c1ccc(-c2c3nc(c(-c4ccccc4)c4ccc([nH]4)c(-c4ccccc4)c4nc(c(-c5ccccc5)c5ccc2[nH]5)C=C4)C=C3)cc1
REMARK SMILES IDX 20 1 19 2 18 3 16 4 17 5 15 7 13 8 14 9 10 10 11 11 12 12
REMARK SMILES IDX 9 13 3 14 4 15 5 16 8 17 6 18 7 19 2 20 1 21 21 22 22 23
REMARK SMILES IDX 23 24 24 25 25 26 26 27 27 29 28 30 29 31 75 32 30 33 74 34
REMARK SMILES IDX 31 35 32 36 33 37 68 38 34 39 73 40 67 41 69 42 35 43 72 44
REMARK SMILES IDX 66 45 65 46 36 48 58 49 43 50 57 51 44 52 47 53 56 54 70 55
REMARK SMILES IDX 45 56 46 57 55 59 71 60 48 61 37 62 38 63 42 64 39 65 41 66
REMARK SMILES IDX 40 67 59 68 60 69 64 70 61 71 63 72 62 73 49 74 50 75 54 76
REMARK SMILES IDX 51 77 53 78 52 79
REMARK H PARENT 18 6 25 28 69 47 47 58
REMARK Flexibility Score: inf
ROOT
ATOM      1  C   UNL A   1      34.481  20.609  24.718  1.00  0.00     0.021 C 
ENDROOT
BRANCH   1   2
ATOM      2  C   UNL A   1      33.366  20.127  25.657  1.00  0.00     0.116 C 
BRANCH   2   3
ATOM      3  N   UNL A   1      33.354  20.878  26.899  1.00  0.00    -0.355 N 
ATOM      4  C   UNL A   1      32.707  22.029  27.256  1.00  0.00     0.235 C 
ATOM      5  O   UNL A   1      32.855  22.412  28.421  1.00  0.00    -0.274 OA
ATOM      6  H   UNL A   1      33.910  20.489  27.611  1.00  0.00     0.163 HD
BRANCH   4   7
ATOM      7  C   UNL A   1      31.800  22.788  26.285  1.00  0.00     0.202 C 
BRANCH   7   8
ATOM      8  N   UNL A   1      32.375  23.959  25.543  1.00  0.00    -0.191 NA
ATOM      9  C   UNL A   1      33.717  24.317  25.998  1.00  0.00     0.125 C 
BRANCH   8  10
ATOM     10  S   UNL A   1      31.251  25.199  25.260  1.00  0.00     0.247 S 
ATOM     11  O   UNL A   1      30.735  25.558  26.572  1.00  0.00    -0.207 OA
ATOM     12  O   UNL A   1      30.372  24.760  24.203  1.00  0.00    -0.207 OA
BRANCH  10  13
ATOM     13  C   UNL A   1      32.036  26.688  24.669  1.00  0.00     0.125 A 
ATOM     14  C   UNL A   1      32.926  26.795  23.596  1.00  0.00     0.138 A 
ATOM     15  C   UNL A   1      33.548  28.035  23.360  1.00  0.00     0.049 A 
ATOM     16  C   UNL A   1      33.294  29.143  24.173  1.00  0.00     0.019 A 
ATOM     17  C   UNL A   1      31.758  27.822  25.465  1.00  0.00     0.041 A 
ATOM     18  C   UNL A   1      32.387  29.035  25.216  1.00  0.00     0.019 A 
ATOM     19  Br  UNL A   1      32.016  30.532  26.305  1.00  0.00    -0.051 Br
BRANCH  14  20
ATOM     20  O   UNL A   1      33.138  25.732  22.764  1.00  0.00    -0.495 OA
ATOM     21  C   UNL A   1      32.473  25.793  21.500  1.00  0.00     0.278 C 
ENDBRANCH  14  20
ENDBRANCH  10  13
ENDBRANCH   8  10
ENDBRANCH   7   8
ENDBRANCH   4   7
ENDBRANCH   2   3
ENDBRANCH   1   2
BRANCH   1  22
ATOM     22  C   UNL A   1      35.798  20.952  25.417  1.00  0.00     0.002 C 
BRANCH  22  23
ATOM     23  C   UNL A   1      37.013  21.062  24.487  1.00  0.00     0.002 C 
BRANCH  23  24
ATOM     24  C   UNL A   1      38.112  20.006  24.678  1.00  0.00     0.021 C 
BRANCH  24  25
ATOM     25  C   UNL A   1      38.991  20.178  25.917  1.00  0.00     0.116 C 
BRANCH  25  26
ATOM     26  N   UNL A   1      40.169  19.326  25.883  1.00  0.00    -0.352 N 
ATOM     27  C   UNL A   1      41.490  19.633  26.089  1.00  0.00     0.251 C 
ATOM     28  H   UNL A   1      39.989  18.379  25.681  1.00  0.00     0.163 HD
ATOM     29  O   UNL A   1      42.359  18.806  25.829  1.00  0.00    -0.269 OA
BRANCH  27  30
ATOM     30  C   UNL A   1      41.886  20.961  26.608  1.00  0.00     0.039 A 
ATOM     31  C   UNL A   1      42.280  21.948  25.699  1.00  0.00     0.014 A 
ATOM     32  C   UNL A   1      41.917  21.224  27.981  1.00  0.00     0.014 A 
ATOM     33  C   UNL A   1      42.640  23.217  26.159  1.00  0.00     0.010 A 
ATOM     34  C   UNL A   1      42.231  22.505  28.437  1.00  0.00     0.010 A 
ATOM     35  C   UNL A   1      42.589  23.515  27.530  1.00  0.00    -0.014 A 
BRANCH  35  36
ATOM     36  C   UNL A   1      42.878  24.883  28.029  1.00  0.00     0.031 A 
ATOM     37  C   UNL A   1      44.271  25.273  28.431  1.00  0.00     0.074 A 
ATOM     38  C   UNL A   1      41.865  25.757  28.186  1.00  0.00     0.049 A 
ATOM     39  N   UNL A   1      44.693  26.396  28.956  1.00  0.00    -0.248 NA
ATOM     40  C   UNL A   1      45.324  24.265  28.237  1.00  0.00     0.031 C 
ATOM     41  C   UNL A   1      40.461  25.495  27.865  1.00  0.00     0.029 A 
ATOM     42  N   UNL A   1      41.862  27.042  28.669  1.00  0.00    -0.354 N 
ATOM     43  C   UNL A   1      46.055  26.223  29.172  1.00  0.00     0.074 A 
ATOM     44  C   UNL A   1      46.381  24.878  28.752  1.00  0.00     0.031 C 
ATOM     45  C   UNL A   1      39.735  26.588  28.145  1.00  0.00     0.029 A 
ATOM     46  C   UNL A   1      40.615  27.615  28.696  1.00  0.00     0.049 A 
ATOM     47  H   UNL A   1      42.677  27.507  28.968  1.00  0.00     0.167 HD
ATOM     48  C   UNL A   1      46.954  27.109  29.666  1.00  0.00     0.031 A 
ATOM     49  C   UNL A   1      40.219  28.828  29.123  1.00  0.00     0.031 A 
ATOM     50  C   UNL A   1      46.639  28.453  30.070  1.00  0.00     0.049 A 
ATOM     51  C   UNL A   1      41.232  29.787  29.676  1.00  0.00     0.074 A 
ATOM     52  C   UNL A   1      47.497  29.444  30.518  1.00  0.00     0.029 A 
ATOM     53  N   UNL A   1      45.363  28.995  30.080  1.00  0.00    -0.354 N 
ATOM     54  N   UNL A   1      42.525  29.628  29.820  1.00  0.00    -0.248 NA
ATOM     55  C   UNL A   1      40.731  31.096  30.121  1.00  0.00     0.031 C 
ATOM     56  C   UNL A   1      46.735  30.573  30.836  1.00  0.00     0.029 A 
ATOM     57  C   UNL A   1      45.407  30.297  30.551  1.00  0.00     0.049 A 
ATOM     58  H   UNL A   1      44.547  28.524  29.794  1.00  0.00     0.167 HD
ATOM     59  C   UNL A   1      42.994  30.818  30.358  1.00  0.00     0.074 A 
ATOM     60  C   UNL A   1      41.851  31.695  30.501  1.00  0.00     0.031 C 
ATOM     61  C   UNL A   1      44.261  31.153  30.701  1.00  0.00     0.031 A 
BRANCH  48  62
ATOM     62  C   UNL A   1      48.374  26.642  29.805  1.00  0.00    -0.014 A 
ATOM     63  C   UNL A   1      48.821  26.023  30.983  1.00  0.00     0.009 A 
ATOM     64  C   UNL A   1      49.267  26.792  28.733  1.00  0.00     0.009 A 
ATOM     65  C   UNL A   1      50.146  25.594  31.096  1.00  0.00     0.001 A 
ATOM     66  C   UNL A   1      50.584  26.341  28.841  1.00  0.00     0.001 A 
ATOM     67  C   UNL A   1      51.025  25.752  30.025  1.00  0.00     0.000 A 
ENDBRANCH  48  62
BRANCH  49  68
ATOM     68  C   UNL A   1      38.786  29.208  29.039  1.00  0.00    -0.014 A 
ATOM     69  C   UNL A   1      37.930  28.984  30.127  1.00  0.00     0.009 A 
ATOM     70  C   UNL A   1      38.273  29.802  27.877  1.00  0.00     0.009 A 
ATOM     71  C   UNL A   1      36.581  29.333  30.045  1.00  0.00     0.001 A 
ATOM     72  C   UNL A   1      36.928  30.169  27.806  1.00  0.00     0.001 A 
ATOM     73  C   UNL A   1      36.082  29.929  28.888  1.00  0.00     0.000 A 
ENDBRANCH  49  68
BRANCH  61  74
ATOM     74  C   UNL A   1      44.476  32.531  31.255  1.00  0.00    -0.014 A 
ATOM     75  C   UNL A   1      44.521  32.752  32.640  1.00  0.00     0.009 A 
ATOM     76  C   UNL A   1      44.668  33.613  30.383  1.00  0.00     0.009 A 
ATOM     77  C   UNL A   1      44.732  34.038  33.141  1.00  0.00     0.001 A 
ATOM     78  C   UNL A   1      44.898  34.894  30.887  1.00  0.00     0.001 A 
ATOM     79  C   UNL A   1      44.922  35.106  32.265  1.00  0.00     0.000 A 
ENDBRANCH  61  74
ENDBRANCH  35  36
ENDBRANCH  27  30
ENDBRANCH  25  26
ENDBRANCH  24  25
ENDBRANCH  23  24
ENDBRANCH  22  23
ENDBRANCH   1  22
TORSDOF 17
ENDMDL
MODEL 3
REMARK VINA RESULT:     -10.3      2.826      7.869
REMARK SMILES COc1ccc(Br)cc1S(=O)(=O)N(C)CC(=O)NCCCCCCNC(=O)c1ccc(-c2c3nc(c(-c4ccccc4)c4ccc([nH]4)c(-c4ccccc4)c4nc(c(-c5ccccc5)c5ccc2[nH]5)C=C4)C=C3)cc1
REMARK SMILES IDX 20 1 19 2 18 3 16 4 17 5 15 7 13 8 14 9 10 10 11 11 12 12
REMARK SMILES IDX 9 13 3 14 4 15 5 16 8 17 6 18 7 19 2 20 1 21 21 22 22 23
REMARK SMILES IDX 23 24 24 25 25 26 26 27 27 29 28 30 29 31 75 32 30 33 74 34
REMARK SMILES IDX 31 35 32 36 33 37 68 38 34 39 73 40 67 41 69 42 35 43 72 44
REMARK SMILES IDX 66 45 65 46 36 48 58 49 43 50 57 51 44 52 47 53 56 54 70 55
REMARK SMILES IDX 45 56 46 57 55 59 71 60 48 61 37 62 38 63 42 64 39 65 41 66
REMARK SMILES IDX 40 67 59 68 60 69 64 70 61 71 63 72 62 73 49 74 50 75 54 76
REMARK SMILES IDX 51 77 53 78 52 79
REMARK H PARENT 18 6 25 28 69 47 47 58
REMARK Flexibility Score: inf
ROOT
ATOM      1  C   UNL A   1      33.611  20.285  25.254  1.00  0.00     0.021 C 
ENDROOT
BRANCH   1   2
ATOM      2  C   UNL A   1      32.581  21.368  24.908  1.00  0.00     0.116 C 
BRANCH   2   3
ATOM      3  N   UNL A   1      31.769  21.720  26.058  1.00  0.00    -0.355 N 
ATOM      4  C   UNL A   1      31.561  22.915  26.690  1.00  0.00     0.235 C 
ATOM      5  O   UNL A   1      30.765  22.914  27.633  1.00  0.00    -0.274 OA
ATOM      6  H   UNL A   1      31.280  20.963  26.453  1.00  0.00     0.163 HD
BRANCH   4   7
ATOM      7  C   UNL A   1      32.238  24.208  26.229  1.00  0.00     0.202 C 
BRANCH   7   8
ATOM      8  N   UNL A   1      31.866  24.766  24.887  1.00  0.00    -0.191 NA
ATOM      9  C   UNL A   1      33.020  25.252  24.134  1.00  0.00     0.125 C 
BRANCH   8  10
ATOM     10  S   UNL A   1      30.453  25.705  24.912  1.00  0.00     0.247 S 
ATOM     11  O   UNL A   1      29.911  25.549  26.253  1.00  0.00    -0.207 OA
ATOM     12  O   UNL A   1      29.676  25.360  23.745  1.00  0.00    -0.207 OA
BRANCH  10  13
ATOM     13  C   UNL A   1      30.807  27.448  24.776  1.00  0.00     0.125 A 
ATOM     14  C   UNL A   1      31.540  28.225  25.678  1.00  0.00     0.138 A 
ATOM     15  C   UNL A   1      31.603  29.616  25.470  1.00  0.00     0.049 A 
ATOM     16  C   UNL A   1      30.950  30.221  24.393  1.00  0.00     0.019 A 
ATOM     17  C   UNL A   1      30.178  28.063  23.670  1.00  0.00     0.041 A 
ATOM     18  C   UNL A   1      30.251  29.438  23.487  1.00  0.00     0.019 A 
ATOM     19  Br  UNL A   1      29.386  30.243  22.014  1.00  0.00    -0.051 Br
BRANCH  14  20
ATOM     20  O   UNL A   1      32.226  27.635  26.702  1.00  0.00    -0.495 OA
ATOM     21  C   UNL A   1      33.630  27.902  26.742  1.00  0.00     0.278 C 
ENDBRANCH  14  20
ENDBRANCH  10  13
ENDBRANCH   8  10
ENDBRANCH   7   8
ENDBRANCH   4   7
ENDBRANCH   2   3
ENDBRANCH   1   2
BRANCH   1  22
ATOM     22  C   UNL A   1      35.065  20.677  24.978  1.00  0.00     0.002 C 
BRANCH  22  23
ATOM     23  C   UNL A   1      35.674  21.652  25.994  1.00  0.00     0.002 C 
BRANCH  23  24
ATOM     24  C   UNL A   1      35.743  23.124  25.564  1.00  0.00     0.021 C 
BRANCH  24  25
ATOM     25  C   UNL A   1      37.120  23.624  25.126  1.00  0.00     0.116 C 
BRANCH  25  26
ATOM     26  N   UNL A   1      38.186  22.708  25.497  1.00  0.00    -0.352 N 
ATOM     27  C   UNL A   1      39.367  22.943  26.154  1.00  0.00     0.251 C 
ATOM     28  H   UNL A   1      38.036  21.771  25.236  1.00  0.00     0.163 HD
ATOM     29  O   UNL A   1      40.225  22.066  26.206  1.00  0.00    -0.269 OA
BRANCH  27  30
ATOM     30  C   UNL A   1      39.630  24.252  26.793  1.00  0.00     0.039 A 
ATOM     31  C   UNL A   1      39.156  24.475  28.089  1.00  0.00     0.014 A 
ATOM     32  C   UNL A   1      40.295  25.272  26.107  1.00  0.00     0.014 A 
ATOM     33  C   UNL A   1      39.407  25.694  28.724  1.00  0.00     0.010 A 
ATOM     34  C   UNL A   1      40.587  26.472  26.757  1.00  0.00     0.010 A 
ATOM     35  C   UNL A   1      40.151  26.692  28.074  1.00  0.00    -0.014 A 
BRANCH  35  36
ATOM     36  C   UNL A   1      40.507  27.956  28.765  1.00  0.00     0.031 A 
ATOM     37  C   UNL A   1      41.852  28.120  29.415  1.00  0.00     0.074 A 
ATOM     38  C   UNL A   1      39.589  28.936  28.869  1.00  0.00     0.049 A 
ATOM     39  N   UNL A   1      42.307  29.123  30.123  1.00  0.00    -0.248 NA
ATOM     40  C   UNL A   1      42.800  27.007  29.266  1.00  0.00     0.031 C 
ATOM     41  C   UNL A   1      38.236  28.891  28.311  1.00  0.00     0.029 A 
ATOM     42  N   UNL A   1      39.653  30.157  29.491  1.00  0.00    -0.354 N 
ATOM     43  C   UNL A   1      43.586  28.754  30.520  1.00  0.00     0.074 A 
ATOM     44  C   UNL A   1      43.822  27.424  30.001  1.00  0.00     0.031 C 
ATOM     45  C   UNL A   1      37.602  30.038  28.604  1.00  0.00     0.029 A 
ATOM     46  C   UNL A   1      38.492  30.883  29.396  1.00  0.00     0.049 A 
ATOM     47  H   UNL A   1      40.455  30.481  29.961  1.00  0.00     0.167 HD
ATOM     48  C   UNL A   1      44.487  29.463  31.243  1.00  0.00     0.031 A 
ATOM     49  C   UNL A   1      38.171  32.090  29.897  1.00  0.00     0.031 A 
ATOM     50  C   UNL A   1      44.265  30.792  31.748  1.00  0.00     0.049 A 
ATOM     51  C   UNL A   1      39.183  32.851  30.703  1.00  0.00     0.074 A 
ATOM     52  C   UNL A   1      45.146  31.614  32.431  1.00  0.00     0.029 A 
ATOM     53  N   UNL A   1      43.075  31.492  31.629  1.00  0.00    -0.354 N 
ATOM     54  N   UNL A   1      40.408  32.512  31.020  1.00  0.00    -0.248 NA
ATOM     55  C   UNL A   1      38.767  34.165  31.216  1.00  0.00     0.031 C 
ATOM     56  C   UNL A   1      44.475  32.797  32.760  1.00  0.00     0.029 A 
ATOM     57  C   UNL A   1      43.189  32.726  32.248  1.00  0.00     0.049 A 
ATOM     58  H   UNL A   1      42.269  31.161  31.171  1.00  0.00     0.167 HD
ATOM     59  C   UNL A   1      40.915  33.573  31.757  1.00  0.00     0.074 A 
ATOM     60  C   UNL A   1      39.871  34.574  31.827  1.00  0.00     0.031 C 
ATOM     61  C   UNL A   1      42.138  33.705  32.323  1.00  0.00     0.031 A 
BRANCH  48  62
ATOM     62  C   UNL A   1      45.803  28.803  31.539  1.00  0.00    -0.014 A 
ATOM     63  C   UNL A   1      46.102  28.326  32.825  1.00  0.00     0.009 A 
ATOM     64  C   UNL A   1      46.743  28.627  30.512  1.00  0.00     0.009 A 
ATOM     65  C   UNL A   1      47.331  27.715  33.084  1.00  0.00     0.001 A 
ATOM     66  C   UNL A   1      47.961  27.995  30.768  1.00  0.00     0.001 A 
ATOM     67  C   UNL A   1      48.258  27.548  32.055  1.00  0.00     0.000 A 
ENDBRANCH  48  62
BRANCH  49  68
ATOM     68  C   UNL A   1      36.824  32.660  29.643  1.00  0.00    -0.014 A 
ATOM     69  C   UNL A   1      36.551  33.320  28.436  1.00  0.00     0.009 A 
ATOM     70  C   UNL A   1      35.806  32.538  30.600  1.00  0.00     0.009 A 
ATOM     71  C   UNL A   1      35.287  33.863  28.201  1.00  0.00     0.001 A 
ATOM     72  C   UNL A   1      34.537  33.064  30.353  1.00  0.00     0.001 A 
ATOM     73  C   UNL A   1      34.280  33.731  29.156  1.00  0.00     0.000 A 
ENDBRANCH  49  68
BRANCH  61  74
ATOM     74  C   UNL A   1      42.415  34.983  33.059  1.00  0.00    -0.014 A 
ATOM     75  C   UNL A   1      41.966  35.170  34.375  1.00  0.00     0.009 A 
ATOM     76  C   UNL A   1      43.162  35.998  32.441  1.00  0.00     0.009 A 
ATOM     77  C   UNL A   1      42.239  36.360  35.050  1.00  0.00     0.001 A 
ATOM     78  C   UNL A   1      43.450  37.179  33.126  1.00  0.00     0.001 A 
ATOM     79  C   UNL A   1      42.982  37.362  34.427  1.00  0.00     0.000 A 
ENDBRANCH  61  74
ENDBRANCH  35  36
ENDBRANCH  27  30
ENDBRANCH  25  26
ENDBRANCH  24  25
ENDBRANCH  23  24
ENDBRANCH  22  23
ENDBRANCH   1  22
TORSDOF 17
ENDMDL
