MODEL 1
REMARK VINA RESULT:     -12.1      0.000      0.000
REMARK SMILES Cc1cc(F)ccc1OC1(C(=O)NCCCCCCNC(=O)c2ccc(-c3c4nc(c(-c5ccccc5)c5ccc([nH]5)c(-c5ccccc5)c5nc(c(-c6ccccc6)c6ccc3[nH]6)C=C5)C=C4)cc2)CCN(C(=O)[C@H]2CCOC2)CC1
REMARK SMILES IDX 16 1 15 2 14 3 13 4 11 5 12 6 10 8 71 9 82 10 72 11 81 12
REMARK SMILES IDX 73 13 74 14 75 15 9 16 8 17 1 18 2 19 3 20 4 21 7 22 5 23
REMARK SMILES IDX 6 24 76 25 77 26 80 27 78 28 79 29 17 30 18 31 19 32 20 33
REMARK SMILES IDX 21 34 22 36 23 37 24 38 70 39 25 40 69 41 26 42 27 43 28 44
REMARK SMILES IDX 63 45 29 46 68 47 62 48 64 49 30 50 67 51 61 52 60 53 31 55
REMARK SMILES IDX 53 56 38 57 52 58 39 59 42 60 51 61 65 62 40 63 41 64 50 66
REMARK SMILES IDX 66 67 43 68 32 69 33 70 37 71 34 72 36 73 35 74 54 75 55 76
REMARK SMILES IDX 59 77 56 78 58 79 57 80 44 81 45 82 49 83 46 84 48 85 47 86
REMARK H PARENT 13 7 20 35 64 54 42 65
REMARK Flexibility Score: inf
ROOT
ATOM      1  C   UNL A   1      33.559  30.377  27.070  1.00  0.00     0.002 C 
ENDROOT
BRANCH   1   2
ATOM      2  C   UNL A   1      34.055  28.945  27.286  1.00  0.00     0.021 C 
BRANCH   2   3
ATOM      3  C   UNL A   1      33.667  27.979  26.170  1.00  0.00     0.116 C 
BRANCH   3   4
ATOM      4  N   UNL A   1      32.567  27.122  26.558  1.00  0.00    -0.353 N 
ATOM      5  C   UNL A   1      31.514  26.609  25.853  1.00  0.00     0.264 C 
ATOM      6  O   UNL A   1      30.755  25.886  26.508  1.00  0.00    -0.270 OA
ATOM      7  H   UNL A   1      32.579  26.860  27.508  1.00  0.00     0.163 HD
BRANCH   5   8
ATOM      8  C   UNL A   1      31.297  26.903  24.314  1.00  0.00     0.190 C 
ATOM      9  C   UNL A   1      29.900  26.424  23.950  1.00  0.00     0.080 C 
ATOM     10  C   UNL A   1      31.674  28.370  24.096  1.00  0.00     0.080 C 
ATOM     11  C   UNL A   1      28.888  27.483  23.545  1.00  0.00     0.124 C 
ATOM     12  C   UNL A   1      30.753  29.193  23.215  1.00  0.00     0.124 C 
ATOM     13  N   UNL A   1      29.336  28.843  23.242  1.00  0.00    -0.342 N 
ATOM     14  C   UNL A   1      28.319  29.703  22.810  1.00  0.00     0.228 C 
ATOM     15  O   UNL A   1      27.135  29.374  22.922  1.00  0.00    -0.274 OA
BRANCH   8  16
ATOM     16  O   UNL A   1      32.307  26.043  23.745  1.00  0.00    -0.477 OA
BRANCH  16  17
ATOM     17  C   UNL A   1      32.652  24.740  23.875  1.00  0.00     0.124 A 
ATOM     18  C   UNL A   1      34.835  24.683  25.291  1.00  0.00     0.048 C 
ATOM     19  C   UNL A   1      33.698  24.081  24.537  1.00  0.00    -0.006 A 
ATOM     20  C   UNL A   1      33.781  22.669  24.452  1.00  0.00     0.046 A 
ATOM     21  C   UNL A   1      32.857  21.928  23.734  1.00  0.00     0.123 A 
ATOM     22  C   UNL A   1      31.730  23.949  23.150  1.00  0.00     0.050 A 
ATOM     23  F   UNL A   1      32.978  20.597  23.676  1.00  0.00    -0.207 F 
ATOM     24  C   UNL A   1      31.825  22.560  23.074  1.00  0.00     0.043 A 
ENDBRANCH  16  17
ENDBRANCH   8  16
BRANCH  14  25
ATOM     25  C   UNL A   1      28.699  31.008  22.127  1.00  0.00     0.107 C 
ATOM     26  C   UNL A   1      27.986  31.171  20.798  1.00  0.00     0.044 C 
ATOM     27  C   UNL A   1      28.201  32.215  22.904  1.00  0.00     0.173 C 
ATOM     28  C   UNL A   1      27.796  32.669  20.661  1.00  0.00     0.161 C 
ATOM     29  O   UNL A   1      27.983  33.260  21.950  1.00  0.00    -0.381 OA
ENDBRANCH  14  25
ENDBRANCH   5   8
ENDBRANCH   3   4
ENDBRANCH   2   3
ENDBRANCH   1   2
BRANCH   1  30
ATOM     30  C   UNL A   1      32.037  30.541  27.085  1.00  0.00     0.002 C 
BRANCH  30  31
ATOM     31  C   UNL A   1      31.543  31.984  26.959  1.00  0.00     0.021 C 
BRANCH  31  32
ATOM     32  C   UNL A   1      32.652  33.011  26.771  1.00  0.00     0.116 C 
BRANCH  32  33
ATOM     33  N   UNL A   1      32.459  34.175  27.621  1.00  0.00    -0.352 N 
ATOM     34  C   UNL A   1      33.142  34.538  28.755  1.00  0.00     0.251 C 
ATOM     35  H   UNL A   1      31.739  34.788  27.345  1.00  0.00     0.163 HD
ATOM     36  O   UNL A   1      32.719  35.427  29.483  1.00  0.00    -0.269 OA
BRANCH  34  37
ATOM     37  C   UNL A   1      34.393  33.831  29.097  1.00  0.00     0.039 A 
ATOM     38  C   UNL A   1      35.577  34.184  28.445  1.00  0.00     0.014 A 
ATOM     39  C   UNL A   1      34.390  32.825  30.066  1.00  0.00     0.014 A 
ATOM     40  C   UNL A   1      36.772  33.559  28.805  1.00  0.00     0.010 A 
ATOM     41  C   UNL A   1      35.592  32.264  30.480  1.00  0.00     0.010 A 
ATOM     42  C   UNL A   1      36.792  32.615  29.844  1.00  0.00    -0.014 A 
BRANCH  42  43
ATOM     43  C   UNL A   1      38.049  31.951  30.269  1.00  0.00     0.031 A 
ATOM     44  C   UNL A   1      38.972  32.650  31.229  1.00  0.00     0.074 A 
ATOM     45  C   UNL A   1      38.400  30.767  29.734  1.00  0.00     0.049 A 
ATOM     46  N   UNL A   1      40.161  32.295  31.640  1.00  0.00    -0.248 NA
ATOM     47  C   UNL A   1      38.505  33.935  31.775  1.00  0.00     0.031 C 
ATOM     48  C   UNL A   1      37.606  30.000  28.773  1.00  0.00     0.029 A 
ATOM     49  N   UNL A   1      39.527  30.006  29.918  1.00  0.00    -0.354 N 
ATOM     50  C   UNL A   1      40.593  33.321  32.471  1.00  0.00     0.074 A 
ATOM     51  C   UNL A   1      39.563  34.337  32.461  1.00  0.00     0.031 C 
ATOM     52  C   UNL A   1      38.262  28.870  28.465  1.00  0.00     0.029 A 
ATOM     53  C   UNL A   1      39.542  28.855  29.167  1.00  0.00     0.049 A 
ATOM     54  H   UNL A   1      40.256  30.261  30.528  1.00  0.00     0.167 HD
ATOM     55  C   UNL A   1      41.735  33.404  33.194  1.00  0.00     0.031 A 
ATOM     56  C   UNL A   1      40.486  27.904  29.046  1.00  0.00     0.031 A 
ATOM     57  C   UNL A   1      42.758  32.393  33.202  1.00  0.00     0.049 A 
ATOM     58  C   UNL A   1      41.762  28.031  29.833  1.00  0.00     0.074 A 
ATOM     59  C   UNL A   1      43.930  32.358  33.936  1.00  0.00     0.029 A 
ATOM     60  N   UNL A   1      42.730  31.238  32.434  1.00  0.00    -0.354 N 
ATOM     61  N   UNL A   1      42.130  28.978  30.662  1.00  0.00    -0.248 NA
ATOM     62  C   UNL A   1      42.746  26.951  29.676  1.00  0.00     0.031 C 
ATOM     63  C   UNL A   1      44.642  31.212  33.565  1.00  0.00     0.029 A 
ATOM     64  C   UNL A   1      43.877  30.497  32.656  1.00  0.00     0.049 A 
ATOM     65  H   UNL A   1      42.003  30.984  31.822  1.00  0.00     0.167 HD
ATOM     66  C   UNL A   1      43.372  28.591  31.151  1.00  0.00     0.074 A 
ATOM     67  C   UNL A   1      43.687  27.320  30.533  1.00  0.00     0.031 C 
ATOM     68  C   UNL A   1      44.176  29.230  32.036  1.00  0.00     0.031 A 
BRANCH  55  69
ATOM     69  C   UNL A   1      41.941  34.648  34.017  1.00  0.00    -0.014 A 
ATOM     70  C   UNL A   1      41.541  34.709  35.362  1.00  0.00     0.009 A 
ATOM     71  C   UNL A   1      42.553  35.772  33.442  1.00  0.00     0.009 A 
ATOM     72  C   UNL A   1      41.701  35.886  36.096  1.00  0.00     0.001 A 
ATOM     73  C   UNL A   1      42.745  36.935  34.189  1.00  0.00     0.001 A 
ATOM     74  C   UNL A   1      42.307  36.996  35.510  1.00  0.00     0.000 A 
ENDBRANCH  55  69
BRANCH  56  75
ATOM     75  C   UNL A   1      40.256  26.740  28.151  1.00  0.00    -0.014 A 
ATOM     76  C   UNL A   1      39.561  25.612  28.612  1.00  0.00     0.009 A 
ATOM     77  C   UNL A   1      40.721  26.754  26.826  1.00  0.00     0.009 A 
ATOM     78  C   UNL A   1      39.360  24.511  27.776  1.00  0.00     0.001 A 
ATOM     79  C   UNL A   1      40.492  25.665  25.982  1.00  0.00     0.001 A 
ATOM     80  C   UNL A   1      39.820  24.542  26.460  1.00  0.00     0.000 A 
ENDBRANCH  56  75
BRANCH  68  81
ATOM     81  C   UNL A   1      45.454  28.543  32.433  1.00  0.00    -0.014 A 
ATOM     82  C   UNL A   1      45.493  27.605  33.475  1.00  0.00     0.009 A 
ATOM     83  C   UNL A   1      46.629  28.805  31.710  1.00  0.00     0.009 A 
ATOM     84  C   UNL A   1      46.692  26.968  33.805  1.00  0.00     0.001 A 
ATOM     85  C   UNL A   1      47.817  28.142  32.019  1.00  0.00     0.001 A 
ATOM     86  C   UNL A   1      47.850  27.231  33.073  1.00  0.00     0.000 A 
ENDBRANCH  68  81
ENDBRANCH  42  43
ENDBRANCH  34  37
ENDBRANCH  32  33
ENDBRANCH  31  32
ENDBRANCH  30  31
ENDBRANCH   1  30
TORSDOF 16
ENDMDL
MODEL 2
REMARK VINA RESULT:     -12.0      0.843      5.705
REMARK SMILES Cc1cc(F)ccc1OC1(C(=O)NCCCCCCNC(=O)c2ccc(-c3c4nc(c(-c5ccccc5)c5ccc([nH]5)c(-c5ccccc5)c5nc(c(-c6ccccc6)c6ccc3[nH]6)C=C5)C=C4)cc2)CCN(C(=O)[C@H]2CCOC2)CC1
REMARK SMILES IDX 16 1 15 2 14 3 13 4 11 5 12 6 10 8 71 9 82 10 72 11 81 12
REMARK SMILES IDX 73 13 74 14 75 15 9 16 8 17 1 18 2 19 3 20 4 21 7 22 5 23
REMARK SMILES IDX 6 24 76 25 77 26 80 27 78 28 79 29 17 30 18 31 19 32 20 33
REMARK SMILES IDX 21 34 22 36 23 37 24 38 70 39 25 40 69 41 26 42 27 43 28 44
REMARK SMILES IDX 63 45 29 46 68 47 62 48 64 49 30 50 67 51 61 52 60 53 31 55
REMARK SMILES IDX 53 56 38 57 52 58 39 59 42 60 51 61 65 62 40 63 41 64 50 66
REMARK SMILES IDX 66 67 43 68 32 69 33 70 37 71 34 72 36 73 35 74 54 75 55 76
REMARK SMILES IDX 59 77 56 78 58 79 57 80 44 81 45 82 49 83 46 84 48 85 47 86
REMARK H PARENT 13 7 20 35 64 54 42 65
REMARK Flexibility Score: inf
ROOT
ATOM      1  C   UNL A   1      33.653  30.215  27.199  1.00  0.00     0.002 C 
ENDROOT
BRANCH   1   2
ATOM      2  C   UNL A   1      34.105  28.757  27.307  1.00  0.00     0.021 C 
BRANCH   2   3
ATOM      3  C   UNL A   1      33.642  27.876  26.149  1.00  0.00     0.116 C 
BRANCH   3   4
ATOM      4  N   UNL A   1      32.525  27.035  26.526  1.00  0.00    -0.353 N 
ATOM      5  C   UNL A   1      31.467  26.547  25.812  1.00  0.00     0.264 C 
ATOM      6  O   UNL A   1      30.692  25.832  26.459  1.00  0.00    -0.270 OA
ATOM      7  H   UNL A   1      32.529  26.765  27.474  1.00  0.00     0.163 HD
BRANCH   5   8
ATOM      8  C   UNL A   1      31.260  26.858  24.275  1.00  0.00     0.190 C 
ATOM      9  C   UNL A   1      29.858  26.400  23.901  1.00  0.00     0.080 C 
ATOM     10  C   UNL A   1      31.657  28.322  24.073  1.00  0.00     0.080 C 
ATOM     11  C   UNL A   1      28.862  27.476  23.501  1.00  0.00     0.124 C 
ATOM     12  C   UNL A   1      30.750  29.165  23.196  1.00  0.00     0.124 C 
ATOM     13  N   UNL A   1      29.329  28.833  23.213  1.00  0.00    -0.342 N 
ATOM     14  C   UNL A   1      28.325  29.710  22.785  1.00  0.00     0.228 C 
ATOM     15  O   UNL A   1      27.137  29.396  22.888  1.00  0.00    -0.274 OA
BRANCH   8  16
ATOM     16  O   UNL A   1      32.262  25.990  23.703  1.00  0.00    -0.477 OA
BRANCH  16  17
ATOM     17  C   UNL A   1      32.596  24.685  23.831  1.00  0.00     0.124 A 
ATOM     18  C   UNL A   1      34.809  24.611  25.199  1.00  0.00     0.048 C 
ATOM     19  C   UNL A   1      33.649  24.017  24.473  1.00  0.00    -0.006 A 
ATOM     20  C   UNL A   1      33.716  22.605  24.391  1.00  0.00     0.046 A 
ATOM     21  C   UNL A   1      32.769  21.871  23.696  1.00  0.00     0.123 A 
ATOM     22  C   UNL A   1      31.650  23.901  23.129  1.00  0.00     0.050 A 
ATOM     23  F   UNL A   1      32.876  20.538  23.640  1.00  0.00    -0.207 F 
ATOM     24  C   UNL A   1      31.730  22.510  23.056  1.00  0.00     0.043 A 
ENDBRANCH  16  17
ENDBRANCH   8  16
BRANCH  14  25
ATOM     25  C   UNL A   1      28.725  31.016  22.116  1.00  0.00     0.107 C 
ATOM     26  C   UNL A   1      28.033  31.193  20.778  1.00  0.00     0.044 C 
ATOM     27  C   UNL A   1      28.225  32.222  22.893  1.00  0.00     0.173 C 
ATOM     28  C   UNL A   1      27.856  32.693  20.647  1.00  0.00     0.161 C 
ATOM     29  O   UNL A   1      28.028  33.274  21.943  1.00  0.00    -0.381 OA
ENDBRANCH  14  25
ENDBRANCH   5   8
ENDBRANCH   3   4
ENDBRANCH   2   3
ENDBRANCH   1   2
BRANCH   1  30
ATOM     30  C   UNL A   1      32.138  30.415  27.105  1.00  0.00     0.002 C 
BRANCH  30  31
ATOM     31  C   UNL A   1      31.690  31.864  26.903  1.00  0.00     0.021 C 
BRANCH  31  32
ATOM     32  C   UNL A   1      32.832  32.872  26.861  1.00  0.00     0.116 C 
BRANCH  32  33
ATOM     33  N   UNL A   1      32.524  34.067  27.630  1.00  0.00    -0.352 N 
ATOM     34  C   UNL A   1      33.122  34.534  28.774  1.00  0.00     0.251 C 
ATOM     35  H   UNL A   1      31.786  34.619  27.282  1.00  0.00     0.163 HD
ATOM     36  O   UNL A   1      32.609  35.434  29.426  1.00  0.00    -0.269 OA
BRANCH  34  37
ATOM     37  C   UNL A   1      34.392  33.925  29.221  1.00  0.00     0.039 A 
ATOM     38  C   UNL A   1      35.593  34.361  28.658  1.00  0.00     0.014 A 
ATOM     39  C   UNL A   1      34.388  32.929  30.200  1.00  0.00     0.014 A 
ATOM     40  C   UNL A   1      36.800  33.830  29.118  1.00  0.00     0.010 A 
ATOM     41  C   UNL A   1      35.591  32.462  30.713  1.00  0.00     0.010 A 
ATOM     42  C   UNL A   1      36.809  32.897  30.167  1.00  0.00    -0.014 A 
BRANCH  42  43
ATOM     43  C   UNL A   1      38.074  32.333  30.697  1.00  0.00     0.031 A 
ATOM     44  C   UNL A   1      38.643  31.082  30.089  1.00  0.00     0.074 A 
ATOM     45  C   UNL A   1      38.665  32.894  31.769  1.00  0.00     0.049 A 
ATOM     46  N   UNL A   1      39.673  30.370  30.470  1.00  0.00    -0.248 NA
ATOM     47  C   UNL A   1      37.941  30.543  28.912  1.00  0.00     0.031 C 
ATOM     48  C   UNL A   1      38.197  34.093  32.467  1.00  0.00     0.029 A 
ATOM     49  N   UNL A   1      39.784  32.516  32.467  1.00  0.00    -0.354 N 
ATOM     50  C   UNL A   1      39.726  29.291  29.597  1.00  0.00     0.074 A 
ATOM     51  C   UNL A   1      38.595  29.410  28.704  1.00  0.00     0.031 C 
ATOM     52  C   UNL A   1      39.034  34.363  33.482  1.00  0.00     0.029 A 
ATOM     53  C   UNL A   1      40.066  33.331  33.537  1.00  0.00     0.049 A 
ATOM     54  H   UNL A   1      40.333  31.736  32.225  1.00  0.00     0.167 HD
ATOM     55  C   UNL A   1      40.644  28.297  29.532  1.00  0.00     0.031 A 
ATOM     56  C   UNL A   1      41.036  33.249  34.466  1.00  0.00     0.031 A 
ATOM     57  C   UNL A   1      41.768  28.181  30.421  1.00  0.00     0.049 A 
ATOM     58  C   UNL A   1      42.027  32.119  34.394  1.00  0.00     0.074 A 
ATOM     59  C   UNL A   1      42.783  27.240  30.410  1.00  0.00     0.029 A 
ATOM     60  N   UNL A   1      42.022  29.033  31.486  1.00  0.00    -0.354 N 
ATOM     61  N   UNL A   1      42.101  31.139  33.527  1.00  0.00    -0.248 NA
ATOM     62  C   UNL A   1      43.076  32.094  35.424  1.00  0.00     0.031 C 
ATOM     63  C   UNL A   1      43.616  27.485  31.506  1.00  0.00     0.029 A 
ATOM     64  C   UNL A   1      43.162  28.623  32.156  1.00  0.00     0.049 A 
ATOM     65  H   UNL A   1      41.472  29.811  31.731  1.00  0.00     0.167 HD
ATOM     66  C   UNL A   1      43.222  30.400  33.885  1.00  0.00     0.074 A 
ATOM     67  C   UNL A   1      43.801  31.053  35.041  1.00  0.00     0.031 C 
ATOM     68  C   UNL A   1      43.729  29.285  33.304  1.00  0.00     0.031 A 
BRANCH  55  69
ATOM     69  C   UNL A   1      40.450  27.248  28.470  1.00  0.00    -0.014 A 
ATOM     70  C   UNL A   1      41.066  27.358  27.212  1.00  0.00     0.009 A 
ATOM     71  C   UNL A   1      39.647  26.128  28.734  1.00  0.00     0.009 A 
ATOM     72  C   UNL A   1      40.839  26.396  26.225  1.00  0.00     0.001 A 
ATOM     73  C   UNL A   1      39.452  25.150  27.758  1.00  0.00     0.001 A 
ATOM     74  C   UNL A   1      40.035  25.291  26.501  1.00  0.00     0.000 A 
ENDBRANCH  55  69
BRANCH  56  75
ATOM     75  C   UNL A   1      41.123  34.273  35.540  1.00  0.00    -0.014 A 
ATOM     76  C   UNL A   1      42.011  35.353  35.425  1.00  0.00     0.009 A 
ATOM     77  C   UNL A   1      40.313  34.182  36.683  1.00  0.00     0.009 A 
ATOM     78  C   UNL A   1      42.105  36.305  36.443  1.00  0.00     0.001 A 
ATOM     79  C   UNL A   1      40.386  35.152  37.685  1.00  0.00     0.001 A 
ATOM     80  C   UNL A   1      41.288  36.207  37.568  1.00  0.00     0.000 A 
ENDBRANCH  56  75
BRANCH  68  81
ATOM     81  C   UNL A   1      45.002  28.724  33.875  1.00  0.00    -0.014 A 
ATOM     82  C   UNL A   1      44.990  27.734  34.868  1.00  0.00     0.009 A 
ATOM     83  C   UNL A   1      46.236  29.162  33.367  1.00  0.00     0.009 A 
ATOM     84  C   UNL A   1      46.190  27.217  35.364  1.00  0.00     0.001 A 
ATOM     85  C   UNL A   1      47.432  28.619  33.839  1.00  0.00     0.001 A 
ATOM     86  C   UNL A   1      47.408  27.654  34.843  1.00  0.00     0.000 A 
ENDBRANCH  68  81
ENDBRANCH  42  43
ENDBRANCH  34  37
ENDBRANCH  32  33
ENDBRANCH  31  32
ENDBRANCH  30  31
ENDBRANCH   1  30
TORSDOF 16
ENDMDL
MODEL 3
REMARK VINA RESULT:     -11.9      3.992      9.641
REMARK SMILES Cc1cc(F)ccc1OC1(C(=O)NCCCCCCNC(=O)c2ccc(-c3c4nc(c(-c5ccccc5)c5ccc([nH]5)c(-c5ccccc5)c5nc(c(-c6ccccc6)c6ccc3[nH]6)C=C5)C=C4)cc2)CCN(C(=O)[C@H]2CCOC2)CC1
REMARK SMILES IDX 16 1 15 2 14 3 13 4 11 5 12 6 10 8 71 9 82 10 72 11 81 12
REMARK SMILES IDX 73 13 74 14 75 15 9 16 8 17 1 18 2 19 3 20 4 21 7 22 5 23
REMARK SMILES IDX 6 24 76 25 77 26 80 27 78 28 79 29 17 30 18 31 19 32 20 33
REMARK SMILES IDX 21 34 22 36 23 37 24 38 70 39 25 40 69 41 26 42 27 43 28 44
REMARK SMILES IDX 63 45 29 46 68 47 62 48 64 49 30 50 67 51 61 52 60 53 31 55
REMARK SMILES IDX 53 56 38 57 52 58 39 59 42 60 51 61 65 62 40 63 41 64 50 66
REMARK SMILES IDX 66 67 43 68 32 69 33 70 37 71 34 72 36 73 35 74 54 75 55 76
REMARK SMILES IDX 59 77 56 78 58 79 57 80 44 81 45 82 49 83 46 84 48 85 47 86
REMARK H PARENT 13 7 20 35 64 54 42 65
REMARK Flexibility Score: inf
ROOT
ATOM      1  C   UNL A   1      37.869  22.347  25.721  1.00  0.00     0.002 C 
ENDROOT
BRANCH   1   2
ATOM      2  C   UNL A   1      37.311  23.707  25.292  1.00  0.00     0.021 C 
BRANCH   2   3
ATOM      3  C   UNL A   1      35.787  23.790  25.323  1.00  0.00     0.116 C 
BRANCH   3   4
ATOM      4  N   UNL A   1      35.228  23.928  23.995  1.00  0.00    -0.353 N 
ATOM      5  C   UNL A   1      34.098  23.417  23.421  1.00  0.00     0.264 C 
ATOM      6  O   UNL A   1      33.914  23.758  22.247  1.00  0.00    -0.270 OA
ATOM      7  H   UNL A   1      35.763  24.495  23.392  1.00  0.00     0.163 HD
BRANCH   5   8
ATOM      8  C   UNL A   1      33.094  22.479  24.205  1.00  0.00     0.190 C 
ATOM      9  C   UNL A   1      32.174  21.836  23.179  1.00  0.00     0.080 C 
ATOM     10  C   UNL A   1      33.951  21.593  25.113  1.00  0.00     0.080 C 
ATOM     11  C   UNL A   1      32.286  20.332  22.995  1.00  0.00     0.124 C 
ATOM     12  C   UNL A   1      33.586  20.122  25.179  1.00  0.00     0.124 C 
ATOM     13  N   UNL A   1      33.029  19.530  23.967  1.00  0.00    -0.342 N 
ATOM     14  C   UNL A   1      32.995  18.151  23.725  1.00  0.00     0.228 C 
ATOM     15  O   UNL A   1      32.573  17.717  22.651  1.00  0.00    -0.274 OA
BRANCH   8  16
ATOM     16  O   UNL A   1      32.390  23.461  24.994  1.00  0.00    -0.477 OA
BRANCH  16  17
ATOM     17  C   UNL A   1      31.873  24.691  24.767  1.00  0.00     0.124 A 
ATOM     18  C   UNL A   1      33.481  26.399  25.895  1.00  0.00     0.048 C 
ATOM     19  C   UNL A   1      32.290  25.989  25.096  1.00  0.00    -0.006 A 
ATOM     20  C   UNL A   1      31.480  27.087  24.715  1.00  0.00     0.046 A 
ATOM     21  C   UNL A   1      30.291  26.910  24.027  1.00  0.00     0.123 A 
ATOM     22  C   UNL A   1      30.651  24.551  24.067  1.00  0.00     0.050 A 
ATOM     23  F   UNL A   1      29.554  27.976  23.693  1.00  0.00    -0.207 F 
ATOM     24  C   UNL A   1      29.863  25.641  23.699  1.00  0.00     0.043 A 
ENDBRANCH  16  17
ENDBRANCH   8  16
BRANCH  14  25
ATOM     25  C   UNL A   1      33.408  17.199  24.837  1.00  0.00     0.107 C 
ATOM     26  C   UNL A   1      32.268  16.280  25.237  1.00  0.00     0.044 C 
ATOM     27  C   UNL A   1      34.461  16.210  24.368  1.00  0.00     0.173 C 
ATOM     28  C   UNL A   1      32.957  14.997  25.659  1.00  0.00     0.161 C 
ATOM     29  O   UNL A   1      34.293  15.023  25.151  1.00  0.00    -0.381 OA
ENDBRANCH  14  25
ENDBRANCH   5   8
ENDBRANCH   3   4
ENDBRANCH   2   3
ENDBRANCH   1   2
BRANCH   1  30
ATOM     30  C   UNL A   1      37.490  21.179  24.806  1.00  0.00     0.002 C 
BRANCH  30  31
ATOM     31  C   UNL A   1      38.338  19.918  24.986  1.00  0.00     0.021 C 
BRANCH  31  32
ATOM     32  C   UNL A   1      39.294  19.971  26.171  1.00  0.00     0.116 C 
BRANCH  32  33
ATOM     33  N   UNL A   1      40.493  19.183  25.932  1.00  0.00    -0.352 N 
ATOM     34  C   UNL A   1      41.804  19.588  25.922  1.00  0.00     0.251 C 
ATOM     35  H   UNL A   1      40.344  18.225  25.755  1.00  0.00     0.163 HD
ATOM     36  O   UNL A   1      42.683  18.855  25.488  1.00  0.00    -0.269 OA
BRANCH  34  37
ATOM     37  C   UNL A   1      42.143  20.934  26.430  1.00  0.00     0.039 A 
ATOM     38  C   UNL A   1      42.453  21.948  25.521  1.00  0.00     0.014 A 
ATOM     39  C   UNL A   1      42.146  21.187  27.803  1.00  0.00     0.014 A 
ATOM     40  C   UNL A   1      42.717  23.236  25.992  1.00  0.00     0.010 A 
ATOM     41  C   UNL A   1      42.328  22.485  28.264  1.00  0.00     0.010 A 
ATOM     42  C   UNL A   1      42.630  23.519  27.364  1.00  0.00    -0.014 A 
BRANCH  42  43
ATOM     43  C   UNL A   1      42.878  24.882  27.895  1.00  0.00     0.031 A 
ATOM     44  C   UNL A   1      44.259  25.261  28.354  1.00  0.00     0.074 A 
ATOM     45  C   UNL A   1      41.855  25.745  28.041  1.00  0.00     0.049 A 
ATOM     46  N   UNL A   1      44.663  26.356  28.945  1.00  0.00    -0.248 NA
ATOM     47  C   UNL A   1      45.320  24.262  28.145  1.00  0.00     0.031 C 
ATOM     48  C   UNL A   1      40.466  25.488  27.660  1.00  0.00     0.029 A 
ATOM     49  N   UNL A   1      41.829  27.013  28.564  1.00  0.00    -0.354 N 
ATOM     50  C   UNL A   1      46.016  26.167  29.200  1.00  0.00     0.074 A 
ATOM     51  C   UNL A   1      46.350  24.833  28.751  1.00  0.00     0.031 C 
ATOM     52  C   UNL A   1      39.726  26.572  27.945  1.00  0.00     0.029 A 
ATOM     53  C   UNL A   1      40.577  27.579  28.572  1.00  0.00     0.049 A 
ATOM     54  H   UNL A   1      42.631  27.474  28.901  1.00  0.00     0.167 HD
ATOM     55  C   UNL A   1      46.905  27.031  29.742  1.00  0.00     0.031 A 
ATOM     56  C   UNL A   1      40.159  28.767  29.045  1.00  0.00     0.031 A 
ATOM     57  C   UNL A   1      46.570  28.357  30.188  1.00  0.00     0.049 A 
ATOM     58  C   UNL A   1      41.158  29.701  29.673  1.00  0.00     0.074 A 
ATOM     59  C   UNL A   1      47.406  29.329  30.708  1.00  0.00     0.029 A 
ATOM     60  N   UNL A   1      45.291  28.894  30.171  1.00  0.00    -0.354 N 
ATOM     61  N   UNL A   1      42.445  29.532  29.853  1.00  0.00    -0.248 NA
ATOM     62  C   UNL A   1      40.645  30.992  30.152  1.00  0.00     0.031 C 
ATOM     63  C   UNL A   1      46.623  30.433  31.063  1.00  0.00     0.029 A 
ATOM     64  C   UNL A   1      45.312  30.175  30.696  1.00  0.00     0.049 A 
ATOM     65  H   UNL A   1      44.489  28.433  29.836  1.00  0.00     0.167 HD
ATOM     66  C   UNL A   1      42.903  30.709  30.433  1.00  0.00     0.074 A 
ATOM     67  C   UNL A   1      41.757  31.584  30.565  1.00  0.00     0.031 C 
ATOM     68  C   UNL A   1      44.162  31.036  30.817  1.00  0.00     0.031 A 
BRANCH  55  69
ATOM     69  C   UNL A   1      48.324  26.552  29.900  1.00  0.00    -0.014 A 
ATOM     70  C   UNL A   1      48.736  25.851  31.045  1.00  0.00     0.009 A 
ATOM     71  C   UNL A   1      49.260  26.797  28.884  1.00  0.00     0.009 A 
ATOM     72  C   UNL A   1      50.066  25.452  31.192  1.00  0.00     0.001 A 
ATOM     73  C   UNL A   1      50.581  26.366  29.018  1.00  0.00     0.001 A 
ATOM     74  C   UNL A   1      50.986  25.707  30.176  1.00  0.00     0.000 A 
ENDBRANCH  55  69
BRANCH  56  75
ATOM     75  C   UNL A   1      38.726  29.147  28.933  1.00  0.00    -0.014 A 
ATOM     76  C   UNL A   1      38.218  29.670  27.734  1.00  0.00     0.009 A 
ATOM     77  C   UNL A   1      37.855  28.981  30.021  1.00  0.00     0.009 A 
ATOM     78  C   UNL A   1      36.875  30.043  27.635  1.00  0.00     0.001 A 
ATOM     79  C   UNL A   1      36.506  29.326  29.911  1.00  0.00     0.001 A 
ATOM     80  C   UNL A   1      36.020  29.864  28.721  1.00  0.00     0.000 A 
ENDBRANCH  56  75
BRANCH  68  81
ATOM     81  C   UNL A   1      44.380  32.417  31.371  1.00  0.00    -0.014 A 
ATOM     82  C   UNL A   1      44.310  32.679  32.747  1.00  0.00     0.009 A 
ATOM     83  C   UNL A   1      44.715  33.465  30.496  1.00  0.00     0.009 A 
ATOM     84  C   UNL A   1      44.539  33.969  33.233  1.00  0.00     0.001 A 
ATOM     85  C   UNL A   1      44.977  34.744  30.987  1.00  0.00     0.001 A 
ATOM     86  C   UNL A   1      44.880  34.997  32.354  1.00  0.00     0.000 A 
ENDBRANCH  68  81
ENDBRANCH  42  43
ENDBRANCH  34  37
ENDBRANCH  32  33
ENDBRANCH  31  32
ENDBRANCH  30  31
ENDBRANCH   1  30
TORSDOF 16
ENDMDL
