MODEL 1
REMARK VINA RESULT:     -11.3      0.000      0.000
REMARK SMILES Cc1ccc(S(=O)(=O)N2C[C@@H](CC(=O)NCCCCCCNC(=O)c3ccc(-c4c5nc(c(-c6ccccc6)c6ccc([nH]6)c(-c6ccccc6)c6nc(c(-c7ccccc7)c7ccc4[nH]7)C=C6)C=C5)cc3)c3ccccc32)c(C)c1
REMARK SMILES IDX 18 1 17 2 16 3 15 4 13 5 14 6 12 8 11 9 9 10 10 11 78 12
REMARK SMILES IDX 73 13 77 14 74 15 76 16 75 17 6 18 7 19 8 20 5 21 1 22 2 23
REMARK SMILES IDX 3 24 81 25 4 26 79 27 80 28 19 29 20 30 21 31 22 32 23 33
REMARK SMILES IDX 24 35 25 36 26 37 72 38 27 39 71 40 28 41 29 42 30 43 65 44
REMARK SMILES IDX 31 45 70 46 64 47 66 48 32 49 69 50 63 51 62 52 33 54 55 55
REMARK SMILES IDX 40 56 54 57 41 58 44 59 53 60 67 61 42 62 43 63 52 65 68 66
REMARK SMILES IDX 45 67 34 68 35 69 39 70 36 71 38 72 37 73 56 74 57 75 61 76
REMARK SMILES IDX 58 77 60 78 59 79 46 80 47 81 51 82 48 83 50 84 49 85
REMARK H PARENT 15 7 22 34 66 53 44 64
REMARK Flexibility Score: inf
ROOT
ATOM      1  C   UNL A   1      41.644  21.544  26.760  1.00  0.00     0.002 C 
ENDROOT
BRANCH   1   2
ATOM      2  C   UNL A   1      40.601  22.441  27.419  1.00  0.00     0.021 C 
BRANCH   2   3
ATOM      3  C   UNL A   1      39.431  22.854  26.530  1.00  0.00     0.116 C 
BRANCH   3   4
ATOM      4  N   UNL A   1      39.008  21.723  25.724  1.00  0.00    -0.356 N 
ATOM      5  C   UNL A   1      37.768  21.426  25.241  1.00  0.00     0.220 C 
ATOM      6  O   UNL A   1      37.543  20.278  24.858  1.00  0.00    -0.275 OA
ATOM      7  H   UNL A   1      39.717  21.080  25.492  1.00  0.00     0.163 HD
BRANCH   5   8
ATOM      8  C   UNL A   1      36.713  22.504  25.117  1.00  0.00     0.110 C 
BRANCH   8   9
ATOM      9  C   UNL A   1      35.738  22.286  23.951  1.00  0.00     0.051 C 
ATOM     10  N   UNL A   1      34.118  24.104  24.043  1.00  0.00    -0.265 N 
ATOM     11  C   UNL A   1      35.368  23.651  23.328  1.00  0.00     0.144 C 
ATOM     12  C   UNL A   1      33.491  22.898  24.513  1.00  0.00     0.055 A 
ATOM     13  C   UNL A   1      34.372  21.823  24.381  1.00  0.00    -0.018 A 
ATOM     14  C   UNL A   1      32.234  22.724  25.067  1.00  0.00     0.027 A 
ATOM     15  C   UNL A   1      33.942  20.529  24.617  1.00  0.00     0.006 A 
ATOM     16  C   UNL A   1      31.817  21.428  25.381  1.00  0.00     0.002 A 
ATOM     17  C   UNL A   1      32.653  20.334  25.121  1.00  0.00     0.000 A 
BRANCH  10  18
ATOM     18  S   UNL A   1      33.160  25.163  23.089  1.00  0.00     0.264 S 
ATOM     19  O   UNL A   1      31.956  24.447  22.724  1.00  0.00    -0.201 OA
ATOM     20  O   UNL A   1      34.027  25.740  22.079  1.00  0.00    -0.201 OA
BRANCH  18  21
ATOM     21  C   UNL A   1      32.714  26.516  24.165  1.00  0.00     0.090 A 
ATOM     22  C   UNL A   1      31.780  29.785  26.813  1.00  0.00     0.044 C 
ATOM     23  C   UNL A   1      32.096  28.630  25.911  1.00  0.00    -0.051 A 
ATOM     24  C   UNL A   1      33.077  27.700  26.257  1.00  0.00     0.005 A 
ATOM     25  C   UNL A   1      31.444  28.506  24.678  1.00  0.00     0.008 A 
ATOM     26  C   UNL A   1      33.392  26.656  25.387  1.00  0.00     0.023 A 
ATOM     27  C   UNL A   1      31.733  27.453  23.787  1.00  0.00    -0.030 A 
ATOM     28  C   UNL A   1      31.028  27.476  22.458  1.00  0.00     0.046 C 
ENDBRANCH  18  21
ENDBRANCH  10  18
ENDBRANCH   8   9
ENDBRANCH   5   8
ENDBRANCH   3   4
ENDBRANCH   2   3
ENDBRANCH   1   2
BRANCH   1  29
ATOM     29  C   UNL A   1      42.147  20.392  27.632  1.00  0.00     0.002 C 
BRANCH  29  30
ATOM     30  C   UNL A   1      42.544  19.116  26.884  1.00  0.00     0.021 C 
BRANCH  30  31
ATOM     31  C   UNL A   1      42.523  19.218  25.359  1.00  0.00     0.116 C 
BRANCH  31  32
ATOM     32  N   UNL A   1      43.779  18.797  24.765  1.00  0.00    -0.352 N 
ATOM     33  C   UNL A   1      44.865  19.543  24.382  1.00  0.00     0.251 C 
ATOM     34  H   UNL A   1      43.865  17.828  24.615  1.00  0.00     0.163 HD
ATOM     35  O   UNL A   1      45.739  19.038  23.683  1.00  0.00    -0.269 OA
BRANCH  33  36
ATOM     36  C   UNL A   1      44.986  20.956  24.797  1.00  0.00     0.039 A 
ATOM     37  C   UNL A   1      45.440  21.243  26.088  1.00  0.00     0.014 A 
ATOM     38  C   UNL A   1      44.604  21.995  23.944  1.00  0.00     0.014 A 
ATOM     39  C   UNL A   1      45.554  22.571  26.505  1.00  0.00     0.010 A 
ATOM     40  C   UNL A   1      44.789  23.320  24.335  1.00  0.00     0.010 A 
ATOM     41  C   UNL A   1      45.249  23.623  25.626  1.00  0.00    -0.014 A 
BRANCH  41  42
ATOM     42  C   UNL A   1      45.380  25.040  26.050  1.00  0.00     0.031 A 
ATOM     43  C   UNL A   1      46.722  25.723  26.003  1.00  0.00     0.074 A 
ATOM     44  C   UNL A   1      44.305  25.704  26.517  1.00  0.00     0.049 A 
ATOM     45  N   UNL A   1      47.043  26.940  26.368  1.00  0.00    -0.248 NA
ATOM     46  C   UNL A   1      47.854  24.928  25.503  1.00  0.00     0.031 C 
ATOM     47  C   UNL A   1      42.955  25.152  26.640  1.00  0.00     0.029 A 
ATOM     48  N   UNL A   1      44.182  26.991  26.978  1.00  0.00    -0.354 N 
ATOM     49  C   UNL A   1      48.412  27.047  26.157  1.00  0.00     0.074 A 
ATOM     50  C   UNL A   1      48.870  25.759  25.684  1.00  0.00     0.031 C 
ATOM     51  C   UNL A   1      42.133  26.102  27.116  1.00  0.00     0.029 A 
ATOM     52  C   UNL A   1      42.905  27.315  27.370  1.00  0.00     0.049 A 
ATOM     53  H   UNL A   1      44.935  27.622  27.024  1.00  0.00     0.167 HD
ATOM     54  C   UNL A   1      49.216  28.126  26.321  1.00  0.00     0.031 A 
ATOM     55  C   UNL A   1      42.412  28.458  27.883  1.00  0.00     0.031 A 
ATOM     56  C   UNL A   1      48.763  29.410  26.786  1.00  0.00     0.049 A 
ATOM     57  C   UNL A   1      43.329  29.635  28.077  1.00  0.00     0.074 A 
ATOM     58  C   UNL A   1      49.491  30.577  26.942  1.00  0.00     0.029 A 
ATOM     59  N   UNL A   1      47.462  29.695  27.172  1.00  0.00    -0.354 N 
ATOM     60  N   UNL A   1      44.609  29.738  27.815  1.00  0.00    -0.248 NA
ATOM     61  C   UNL A   1      42.725  30.858  28.623  1.00  0.00     0.031 C 
ATOM     62  C   UNL A   1      48.644  31.552  27.478  1.00  0.00     0.029 A 
ATOM     63  C   UNL A   1      47.373  31.013  27.588  1.00  0.00     0.049 A 
ATOM     64  H   UNL A   1      46.714  29.056  27.154  1.00  0.00     0.167 HD
ATOM     65  C   UNL A   1      44.954  31.047  28.129  1.00  0.00     0.074 A 
ATOM     66  C   UNL A   1      43.746  31.701  28.586  1.00  0.00     0.031 C 
ATOM     67  C   UNL A   1      46.163  31.654  28.039  1.00  0.00     0.031 A 
BRANCH  54  68
ATOM     68  C   UNL A   1      50.677  27.955  26.004  1.00  0.00    -0.014 A 
ATOM     69  C   UNL A   1      51.577  27.449  26.957  1.00  0.00     0.009 A 
ATOM     70  C   UNL A   1      51.156  28.274  24.724  1.00  0.00     0.009 A 
ATOM     71  C   UNL A   1      52.932  27.308  26.646  1.00  0.00     0.001 A 
ATOM     72  C   UNL A   1      52.505  28.099  24.405  1.00  0.00     0.001 A 
ATOM     73  C   UNL A   1      53.394  27.627  25.371  1.00  0.00     0.000 A 
ENDBRANCH  54  68
BRANCH  55  74
ATOM     74  C   UNL A   1      40.970  28.558  28.235  1.00  0.00    -0.014 A 
ATOM     75  C   UNL A   1      40.514  28.157  29.500  1.00  0.00     0.009 A 
ATOM     76  C   UNL A   1      40.038  29.039  27.302  1.00  0.00     0.009 A 
ATOM     77  C   UNL A   1      39.154  28.205  29.813  1.00  0.00     0.001 A 
ATOM     78  C   UNL A   1      38.682  29.117  27.628  1.00  0.00     0.001 A 
ATOM     79  C   UNL A   1      38.240  28.689  28.879  1.00  0.00     0.000 A 
ENDBRANCH  55  74
BRANCH  67  80
ATOM     80  C   UNL A   1      46.230  33.114  28.394  1.00  0.00    -0.014 A 
ATOM     81  C   UNL A   1      46.519  33.544  29.698  1.00  0.00     0.009 A 
ATOM     82  C   UNL A   1      46.028  34.077  27.392  1.00  0.00     0.009 A 
ATOM     83  C   UNL A   1      46.564  34.907  29.999  1.00  0.00     0.001 A 
ATOM     84  C   UNL A   1      46.108  35.438  27.688  1.00  0.00     0.001 A 
ATOM     85  C   UNL A   1      46.363  35.852  28.993  1.00  0.00     0.000 A 
ENDBRANCH  67  80
ENDBRANCH  41  42
ENDBRANCH  33  36
ENDBRANCH  31  32
ENDBRANCH  30  31
ENDBRANCH  29  30
ENDBRANCH   1  29
TORSDOF 16
ENDMDL
MODEL 2
REMARK VINA RESULT:     -11.1      7.922     13.801
REMARK SMILES Cc1ccc(S(=O)(=O)N2C[C@@H](CC(=O)NCCCCCCNC(=O)c3ccc(-c4c5nc(c(-c6ccccc6)c6ccc([nH]6)c(-c6ccccc6)c6nc(c(-c7ccccc7)c7ccc4[nH]7)C=C6)C=C5)cc3)c3ccccc32)c(C)c1
REMARK SMILES IDX 18 1 17 2 16 3 15 4 13 5 14 6 12 8 11 9 9 10 10 11 78 12
REMARK SMILES IDX 73 13 77 14 74 15 76 16 75 17 6 18 7 19 8 20 5 21 1 22 2 23
REMARK SMILES IDX 3 24 81 25 4 26 79 27 80 28 19 29 20 30 21 31 22 32 23 33
REMARK SMILES IDX 24 35 25 36 26 37 72 38 27 39 71 40 28 41 29 42 30 43 65 44
REMARK SMILES IDX 31 45 70 46 64 47 66 48 32 49 69 50 63 51 62 52 33 54 55 55
REMARK SMILES IDX 40 56 54 57 41 58 44 59 53 60 67 61 42 62 43 63 52 65 68 66
REMARK SMILES IDX 45 67 34 68 35 69 39 70 36 71 38 72 37 73 56 74 57 75 61 76
REMARK SMILES IDX 58 77 60 78 59 79 46 80 47 81 51 82 48 83 50 84 49 85
REMARK H PARENT 15 7 22 34 66 53 44 64
REMARK Flexibility Score: inf
ROOT
ATOM      1  C   UNL A   1      34.660  35.028  32.229  1.00  0.00     0.002 C 
ENDROOT
BRANCH   1   2
ATOM      2  C   UNL A   1      35.806  34.964  33.234  1.00  0.00     0.021 C 
BRANCH   2   3
ATOM      3  C   UNL A   1      35.621  33.975  34.382  1.00  0.00     0.116 C 
BRANCH   3   4
ATOM      4  N   UNL A   1      35.824  32.621  33.896  1.00  0.00    -0.356 N 
ATOM      5  C   UNL A   1      36.986  31.919  33.765  1.00  0.00     0.220 C 
ATOM      6  O   UNL A   1      36.994  30.920  33.045  1.00  0.00    -0.275 OA
ATOM      7  H   UNL A   1      35.008  32.142  33.624  1.00  0.00     0.163 HD
BRANCH   5   8
ATOM      8  C   UNL A   1      38.219  32.323  34.543  1.00  0.00     0.110 C 
BRANCH   8   9
ATOM      9  C   UNL A   1      38.495  31.441  35.769  1.00  0.00     0.051 C 
ATOM     10  N   UNL A   1      38.832  32.947  37.654  1.00  0.00    -0.265 N 
ATOM     11  C   UNL A   1      37.803  32.051  37.008  1.00  0.00     0.144 C 
ATOM     12  C   UNL A   1      40.106  32.414  37.252  1.00  0.00     0.055 A 
ATOM     13  C   UNL A   1      39.926  31.476  36.234  1.00  0.00    -0.018 A 
ATOM     14  C   UNL A   1      41.374  32.740  37.705  1.00  0.00     0.027 A 
ATOM     15  C   UNL A   1      40.989  30.708  35.790  1.00  0.00     0.006 A 
ATOM     16  C   UNL A   1      42.464  32.022  37.207  1.00  0.00     0.002 A 
ATOM     17  C   UNL A   1      42.267  30.987  36.284  1.00  0.00     0.000 A 
BRANCH  10  18
ATOM     18  S   UNL A   1      38.566  33.147  39.340  1.00  0.00     0.264 S 
ATOM     19  O   UNL A   1      39.544  32.336  40.032  1.00  0.00    -0.201 OA
ATOM     20  O   UNL A   1      37.144  32.978  39.577  1.00  0.00    -0.201 OA
BRANCH  18  21
ATOM     21  C   UNL A   1      38.906  34.866  39.684  1.00  0.00     0.090 A 
ATOM     22  C   UNL A   1      39.678  39.049  40.374  1.00  0.00     0.044 C 
ATOM     23  C   UNL A   1      39.436  37.590  40.126  1.00  0.00    -0.051 A 
ATOM     24  C   UNL A   1      39.551  37.054  38.844  1.00  0.00     0.005 A 
ATOM     25  C   UNL A   1      39.034  36.759  41.180  1.00  0.00     0.008 A 
ATOM     26  C   UNL A   1      39.278  35.704  38.620  1.00  0.00     0.023 A 
ATOM     27  C   UNL A   1      38.767  35.389  40.983  1.00  0.00    -0.030 A 
ATOM     28  C   UNL A   1      38.261  34.620  42.173  1.00  0.00     0.046 C 
ENDBRANCH  18  21
ENDBRANCH  10  18
ENDBRANCH   8   9
ENDBRANCH   5   8
ENDBRANCH   3   4
ENDBRANCH   2   3
ENDBRANCH   1   2
BRANCH   1  29
ATOM     29  C   UNL A   1      33.638  36.136  32.487  1.00  0.00     0.002 C 
BRANCH  29  30
ATOM     30  C   UNL A   1      32.671  36.429  31.336  1.00  0.00     0.021 C 
BRANCH  30  31
ATOM     31  C   UNL A   1      33.290  36.405  29.939  1.00  0.00     0.116 C 
BRANCH  31  32
ATOM     32  N   UNL A   1      32.608  35.478  29.053  1.00  0.00    -0.352 N 
ATOM     33  C   UNL A   1      33.077  34.351  28.429  1.00  0.00     0.251 C 
ATOM     34  H   UNL A   1      31.663  35.692  28.873  1.00  0.00     0.163 HD
ATOM     35  O   UNL A   1      32.420  33.828  27.533  1.00  0.00    -0.269 OA
BRANCH  33  36
ATOM     36  C   UNL A   1      34.375  33.764  28.822  1.00  0.00     0.039 A 
ATOM     37  C   UNL A   1      34.389  32.720  29.752  1.00  0.00     0.014 A 
ATOM     38  C   UNL A   1      35.578  34.270  28.322  1.00  0.00     0.014 A 
ATOM     39  C   UNL A   1      35.604  32.156  30.145  1.00  0.00     0.010 A 
ATOM     40  C   UNL A   1      36.783  33.657  28.658  1.00  0.00     0.010 A 
ATOM     41  C   UNL A   1      36.812  32.605  29.586  1.00  0.00    -0.014 A 
BRANCH  41  42
ATOM     42  C   UNL A   1      38.111  32.004  29.982  1.00  0.00     0.031 A 
ATOM     43  C   UNL A   1      39.037  32.747  30.908  1.00  0.00     0.074 A 
ATOM     44  C   UNL A   1      38.481  30.810  29.479  1.00  0.00     0.049 A 
ATOM     45  N   UNL A   1      40.228  32.405  31.336  1.00  0.00    -0.248 NA
ATOM     46  C   UNL A   1      38.576  34.055  31.399  1.00  0.00     0.031 C 
ATOM     47  C   UNL A   1      37.691  29.999  28.551  1.00  0.00     0.029 A 
ATOM     48  N   UNL A   1      39.622  30.072  29.676  1.00  0.00    -0.354 N 
ATOM     49  C   UNL A   1      40.661  33.461  32.129  1.00  0.00     0.074 A 
ATOM     50  C   UNL A   1      39.631  34.476  32.081  1.00  0.00     0.031 C 
ATOM     51  C   UNL A   1      38.356  28.863  28.284  1.00  0.00     0.029 A 
ATOM     52  C   UNL A   1      39.636  28.885  28.986  1.00  0.00     0.049 A 
ATOM     53  H   UNL A   1      40.359  30.366  30.258  1.00  0.00     0.167 HD
ATOM     54  C   UNL A   1      41.802  33.569  32.852  1.00  0.00     0.031 A 
ATOM     55  C   UNL A   1      40.576  27.923  28.920  1.00  0.00     0.031 A 
ATOM     56  C   UNL A   1      42.825  32.559  32.906  1.00  0.00     0.049 A 
ATOM     57  C   UNL A   1      41.844  28.077  29.713  1.00  0.00     0.074 A 
ATOM     58  C   UNL A   1      43.996  32.557  33.644  1.00  0.00     0.029 A 
ATOM     59  N   UNL A   1      42.800  31.372  32.191  1.00  0.00    -0.354 N 
ATOM     60  N   UNL A   1      42.211  29.054  30.506  1.00  0.00    -0.248 NA
ATOM     61  C   UNL A   1      42.822  26.984  29.612  1.00  0.00     0.031 C 
ATOM     62  C   UNL A   1      44.707  31.393  33.331  1.00  0.00     0.029 A 
ATOM     63  C   UNL A   1      43.946  30.640  32.453  1.00  0.00     0.049 A 
ATOM     64  H   UNL A   1      42.075  31.091  31.587  1.00  0.00     0.167 HD
ATOM     65  C   UNL A   1      43.442  28.676  31.027  1.00  0.00     0.074 A 
ATOM     66  C   UNL A   1      43.752  27.376  30.471  1.00  0.00     0.031 C 
ATOM     67  C   UNL A   1      44.242  29.344  31.895  1.00  0.00     0.031 A 
BRANCH  54  68
ATOM     68  C   UNL A   1      42.007  34.838  33.635  1.00  0.00    -0.014 A 
ATOM     69  C   UNL A   1      42.807  35.881  33.140  1.00  0.00     0.009 A 
ATOM     70  C   UNL A   1      41.366  35.006  34.872  1.00  0.00     0.009 A 
ATOM     71  C   UNL A   1      42.993  37.047  33.886  1.00  0.00     0.001 A 
ATOM     72  C   UNL A   1      41.527  36.187  35.601  1.00  0.00     0.001 A 
ATOM     73  C   UNL A   1      42.350  37.201  35.113  1.00  0.00     0.000 A 
ENDBRANCH  54  68
BRANCH  55  74
ATOM     74  C   UNL A   1      40.349  26.713  28.084  1.00  0.00    -0.014 A 
ATOM     75  C   UNL A   1      40.867  26.638  26.782  1.00  0.00     0.009 A 
ATOM     76  C   UNL A   1      39.601  25.633  28.578  1.00  0.00     0.009 A 
ATOM     77  C   UNL A   1      40.612  25.522  25.980  1.00  0.00     0.001 A 
ATOM     78  C   UNL A   1      39.375  24.505  27.787  1.00  0.00     0.001 A 
ATOM     79  C   UNL A   1      39.871  24.455  26.485  1.00  0.00     0.000 A 
ENDBRANCH  55  74
BRANCH  67  80
ATOM     80  C   UNL A   1      45.504  28.658  32.338  1.00  0.00    -0.014 A 
ATOM     81  C   UNL A   1      45.531  27.812  33.457  1.00  0.00     0.009 A 
ATOM     82  C   UNL A   1      46.685  28.841  31.600  1.00  0.00     0.009 A 
ATOM     83  C   UNL A   1      46.721  27.197  33.850  1.00  0.00     0.001 A 
ATOM     84  C   UNL A   1      47.865  28.198  31.974  1.00  0.00     0.001 A 
ATOM     85  C   UNL A   1      47.885  27.387  33.105  1.00  0.00     0.000 A 
ENDBRANCH  67  80
ENDBRANCH  41  42
ENDBRANCH  33  36
ENDBRANCH  31  32
ENDBRANCH  30  31
ENDBRANCH  29  30
ENDBRANCH   1  29
TORSDOF 16
ENDMDL
MODEL 3
REMARK VINA RESULT:     -11.1      6.579     11.796
REMARK SMILES Cc1ccc(S(=O)(=O)N2C[C@@H](CC(=O)NCCCCCCNC(=O)c3ccc(-c4c5nc(c(-c6ccccc6)c6ccc([nH]6)c(-c6ccccc6)c6nc(c(-c7ccccc7)c7ccc4[nH]7)C=C6)C=C5)cc3)c3ccccc32)c(C)c1
REMARK SMILES IDX 18 1 17 2 16 3 15 4 13 5 14 6 12 8 11 9 9 10 10 11 78 12
REMARK SMILES IDX 73 13 77 14 74 15 76 16 75 17 6 18 7 19 8 20 5 21 1 22 2 23
REMARK SMILES IDX 3 24 81 25 4 26 79 27 80 28 19 29 20 30 21 31 22 32 23 33
REMARK SMILES IDX 24 35 25 36 26 37 72 38 27 39 71 40 28 41 29 42 30 43 65 44
REMARK SMILES IDX 31 45 70 46 64 47 66 48 32 49 69 50 63 51 62 52 33 54 55 55
REMARK SMILES IDX 40 56 54 57 41 58 44 59 53 60 67 61 42 62 43 63 52 65 68 66
REMARK SMILES IDX 45 67 34 68 35 69 39 70 36 71 38 72 37 73 56 74 57 75 61 76
REMARK SMILES IDX 58 77 60 78 59 79 46 80 47 81 51 82 48 83 50 84 49 85
REMARK H PARENT 15 7 22 34 66 53 44 64
REMARK Flexibility Score: inf
ROOT
ATOM      1  C   UNL A   1      35.141  33.408  27.932  1.00  0.00     0.002 C 
ENDROOT
BRANCH   1   2
ATOM      2  C   UNL A   1      35.911  32.102  28.098  1.00  0.00     0.021 C 
BRANCH   2   3
ATOM      3  C   UNL A   1      35.146  30.834  27.728  1.00  0.00     0.116 C 
BRANCH   3   4
ATOM      4  N   UNL A   1      33.721  31.118  27.692  1.00  0.00    -0.356 N 
ATOM      5  C   UNL A   1      32.733  30.473  27.009  1.00  0.00     0.220 C 
ATOM      6  O   UNL A   1      31.655  31.046  26.850  1.00  0.00    -0.275 OA
ATOM      7  H   UNL A   1      33.428  31.884  28.237  1.00  0.00     0.163 HD
BRANCH   5   8
ATOM      8  C   UNL A   1      32.936  29.055  26.520  1.00  0.00     0.110 C 
BRANCH   8   9
ATOM      9  C   UNL A   1      31.628  28.279  26.309  1.00  0.00     0.051 C 
ATOM     10  N   UNL A   1      32.254  26.020  25.643  1.00  0.00    -0.265 N 
ATOM     11  C   UNL A   1      31.798  26.834  26.830  1.00  0.00     0.144 C 
ATOM     12  C   UNL A   1      31.770  26.729  24.488  1.00  0.00     0.055 A 
ATOM     13  C   UNL A   1      31.317  27.994  24.864  1.00  0.00    -0.018 A 
ATOM     14  C   UNL A   1      31.748  26.329  23.162  1.00  0.00     0.027 A 
ATOM     15  C   UNL A   1      30.657  28.804  23.956  1.00  0.00     0.006 A 
ATOM     16  C   UNL A   1      31.151  27.173  22.222  1.00  0.00     0.002 A 
ATOM     17  C   UNL A   1      30.576  28.386  22.624  1.00  0.00     0.000 A 
BRANCH  10  18
ATOM     18  S   UNL A   1      31.828  24.362  25.778  1.00  0.00     0.264 S 
ATOM     19  O   UNL A   1      30.824  24.089  24.772  1.00  0.00    -0.201 OA
ATOM     20  O   UNL A   1      31.580  24.092  27.182  1.00  0.00    -0.201 OA
BRANCH  18  21
ATOM     21  C   UNL A   1      33.306  23.446  25.369  1.00  0.00     0.090 A 
ATOM     22  C   UNL A   1      36.952  21.331  24.472  1.00  0.00     0.044 C 
ATOM     23  C   UNL A   1      35.686  22.083  24.762  1.00  0.00    -0.051 A 
ATOM     24  C   UNL A   1      35.714  23.450  25.036  1.00  0.00     0.005 A 
ATOM     25  C   UNL A   1      34.464  21.400  24.815  1.00  0.00     0.008 A 
ATOM     26  C   UNL A   1      34.534  24.127  25.348  1.00  0.00     0.023 A 
ATOM     27  C   UNL A   1      33.257  22.063  25.113  1.00  0.00    -0.030 A 
ATOM     28  C   UNL A   1      32.024  21.208  25.225  1.00  0.00     0.046 C 
ENDBRANCH  18  21
ENDBRANCH  10  18
ENDBRANCH   8   9
ENDBRANCH   5   8
ENDBRANCH   3   4
ENDBRANCH   2   3
ENDBRANCH   1   2
BRANCH   1  29
ATOM     29  C   UNL A   1      34.712  34.074  29.240  1.00  0.00     0.002 C 
BRANCH  29  30
ATOM     30  C   UNL A   1      33.329  34.733  29.227  1.00  0.00     0.021 C 
BRANCH  30  31
ATOM     31  C   UNL A   1      33.277  36.155  29.785  1.00  0.00     0.116 C 
BRANCH  31  32
ATOM     32  N   UNL A   1      32.441  36.249  30.968  1.00  0.00    -0.352 N 
ATOM     33  C   UNL A   1      32.570  35.635  32.188  1.00  0.00     0.251 C 
ATOM     34  H   UNL A   1      31.661  36.844  30.882  1.00  0.00     0.163 HD
ATOM     35  O   UNL A   1      31.637  35.653  32.985  1.00  0.00    -0.269 OA
BRANCH  33  36
ATOM     36  C   UNL A   1      33.826  34.943  32.547  1.00  0.00     0.039 A 
ATOM     37  C   UNL A   1      35.031  35.645  32.462  1.00  0.00     0.014 A 
ATOM     38  C   UNL A   1      33.828  33.595  32.914  1.00  0.00     0.014 A 
ATOM     39  C   UNL A   1      36.231  35.009  32.787  1.00  0.00     0.010 A 
ATOM     40  C   UNL A   1      35.016  32.983  33.311  1.00  0.00     0.010 A 
ATOM     41  C   UNL A   1      36.233  33.678  33.236  1.00  0.00    -0.014 A 
BRANCH  41  42
ATOM     42  C   UNL A   1      37.499  32.992  33.601  1.00  0.00     0.031 A 
ATOM     43  C   UNL A   1      38.114  31.989  32.663  1.00  0.00     0.074 A 
ATOM     44  C   UNL A   1      38.075  33.238  34.794  1.00  0.00     0.049 A 
ATOM     45  N   UNL A   1      39.192  31.261  32.821  1.00  0.00    -0.248 NA
ATOM     46  C   UNL A   1      37.416  31.756  31.388  1.00  0.00     0.031 C 
ATOM     47  C   UNL A   1      37.569  34.165  35.807  1.00  0.00     0.029 A 
ATOM     48  N   UNL A   1      39.217  32.723  35.356  1.00  0.00    -0.354 N 
ATOM     49  C   UNL A   1      39.288  30.476  31.679  1.00  0.00     0.074 A 
ATOM     50  C   UNL A   1      38.134  30.776  30.860  1.00  0.00     0.031 C 
ATOM     51  C   UNL A   1      38.410  34.175  36.854  1.00  0.00     0.029 A 
ATOM     52  C   UNL A   1      39.492  33.227  36.605  1.00  0.00     0.049 A 
ATOM     53  H   UNL A   1      39.785  32.056  34.908  1.00  0.00     0.167 HD
ATOM     54  C   UNL A   1      40.260  29.598  31.329  1.00  0.00     0.031 A 
ATOM     55  C   UNL A   1      40.497  32.952  37.457  1.00  0.00     0.031 A 
ATOM     56  C   UNL A   1      41.412  29.301  32.138  1.00  0.00     0.049 A 
ATOM     57  C   UNL A   1      41.551  31.957  37.055  1.00  0.00     0.074 A 
ATOM     58  C   UNL A   1      42.473  28.461  31.851  1.00  0.00     0.029 A 
ATOM     59  N   UNL A   1      41.651  29.833  33.396  1.00  0.00    -0.354 N 
ATOM     60  N   UNL A   1      41.659  31.268  35.945  1.00  0.00    -0.248 NA
ATOM     61  C   UNL A   1      42.632  31.715  38.022  1.00  0.00     0.031 C 
ATOM     62  C   UNL A   1      43.326  28.441  32.960  1.00  0.00     0.029 A 
ATOM     63  C   UNL A   1      42.831  29.322  33.907  1.00  0.00     0.049 A 
ATOM     64  H   UNL A   1      41.067  30.479  33.857  1.00  0.00     0.167 HD
ATOM     65  C   UNL A   1      42.838  30.541  36.064  1.00  0.00     0.074 A 
ATOM     66  C   UNL A   1      43.414  30.885  37.348  1.00  0.00     0.031 C 
ATOM     67  C   UNL A   1      43.396  29.673  35.186  1.00  0.00     0.031 A 
BRANCH  54  68
ATOM     68  C   UNL A   1      40.107  28.885  30.012  1.00  0.00    -0.014 A 
ATOM     69  C   UNL A   1      40.577  29.453  28.816  1.00  0.00     0.009 A 
ATOM     70  C   UNL A   1      39.514  27.614  29.971  1.00  0.00     0.009 A 
ATOM     71  C   UNL A   1      40.416  28.780  27.602  1.00  0.00     0.001 A 
ATOM     72  C   UNL A   1      39.386  26.929  28.761  1.00  0.00     0.001 A 
ATOM     73  C   UNL A   1      39.827  27.518  27.576  1.00  0.00     0.000 A 
ENDBRANCH  54  68
BRANCH  55  74
ATOM     74  C   UNL A   1      40.571  33.642  38.773  1.00  0.00    -0.014 A 
ATOM     75  C   UNL A   1      41.218  34.881  38.894  1.00  0.00     0.009 A 
ATOM     76  C   UNL A   1      40.008  33.057  39.918  1.00  0.00     0.009 A 
ATOM     77  C   UNL A   1      41.328  35.505  40.139  1.00  0.00     0.001 A 
ATOM     78  C   UNL A   1      40.091  33.698  41.156  1.00  0.00     0.001 A 
ATOM     79  C   UNL A   1      40.761  34.916  41.267  1.00  0.00     0.000 A 
ENDBRANCH  55  74
BRANCH  67  80
ATOM     80  C   UNL A   1      44.723  29.071  35.559  1.00  0.00    -0.014 A 
ATOM     81  C   UNL A   1      45.935  29.699  35.233  1.00  0.00     0.009 A 
ATOM     82  C   UNL A   1      44.756  27.866  36.278  1.00  0.00     0.009 A 
ATOM     83  C   UNL A   1      47.152  29.111  35.584  1.00  0.00     0.001 A 
ATOM     84  C   UNL A   1      45.973  27.298  36.658  1.00  0.00     0.001 A 
ATOM     85  C   UNL A   1      47.169  27.914  36.300  1.00  0.00     0.000 A 
ENDBRANCH  67  80
ENDBRANCH  41  42
ENDBRANCH  33  36
ENDBRANCH  31  32
ENDBRANCH  30  31
ENDBRANCH  29  30
ENDBRANCH   1  29
TORSDOF 16
ENDMDL
