MODEL 1
REMARK VINA RESULT:      -9.9      0.000      0.000
REMARK SMILES CC[NH2+][C@]1(C(=O)NCCCCCCNC(=O)c2ccc(-c3c4nc(c(-c5ccccc5)c5ccc([nH]5)c(-c5ccccc5)c5nc(c(-c6ccccc6)c6ccc3[nH]6)C=C5)C=C4)cc2)CCC[C@H]1CC[N@H+]1CCC[C@@H](CC)C1
REMARK SMILES IDX 9 1 8 2 7 3 5 4 6 5 4 7 65 8 68 9 66 10 67 11 3 12 2 15 1 16
REMARK SMILES IDX 69 17 70 18 71 19 72 20 78 21 73 23 75 24 74 25 76 26 77 27
REMARK SMILES IDX 10 28 11 29 12 30 13 31 14 32 15 33 16 35 17 36 18 37 64 38
REMARK SMILES IDX 19 39 63 40 20 41 21 42 22 43 57 44 23 45 62 46 56 47 58 48
REMARK SMILES IDX 24 49 61 50 55 51 54 52 25 54 47 55 32 56 46 57 33 58 36 59
REMARK SMILES IDX 45 60 59 61 34 62 35 63 44 65 60 66 37 67 26 68 27 69 31 70
REMARK SMILES IDX 28 71 30 72 29 73 48 74 49 75 53 76 50 77 52 78 51 79 38 80
REMARK SMILES IDX 39 81 43 82 40 83 42 84 41 85
REMARK H PARENT 7 6 3 13 3 14 71 22 14 34 58 53 36 64
REMARK Flexibility Score: inf
ROOT
ATOM      1  C   UNL A   1      38.052  23.409  26.127  1.00  0.00     0.021 C 
ENDROOT
BRANCH   1   2
ATOM      2  C   UNL A   1      36.572  23.724  25.823  1.00  0.00     0.116 C 
BRANCH   2   3
ATOM      3  N   UNL A   1      35.686  22.824  26.550  1.00  0.00    -0.351 N 
ATOM      4  C   UNL A   1      34.490  22.229  26.577  1.00  0.00     0.281 C 
ATOM      5  O   UNL A   1      34.391  21.643  27.683  1.00  0.00    -0.268 OA
ATOM      6  H   UNL A   1      36.170  22.533  27.357  1.00  0.00     0.163 HD
BRANCH   4   7
ATOM      7  C   UNL A   1      33.292  22.004  25.547  1.00  0.00     0.178 C 
ATOM      8  C   UNL A   1      32.257  23.075  26.029  1.00  0.00     0.079 C 
ATOM      9  C   UNL A   1      33.135  22.179  23.988  1.00  0.00     0.066 C 
ATOM     10  C   UNL A   1      31.066  23.017  25.108  1.00  0.00     0.008 C 
ATOM     11  C   UNL A   1      31.625  22.550  23.779  1.00  0.00     0.011 C 
BRANCH   7  12
ATOM     12  N   UNL A   1      32.787  20.600  25.716  1.00  0.00    -0.334 N 
ATOM     13  H   UNL A   1      32.816  20.391  26.713  1.00  0.00     0.347 HD
ATOM     14  H   UNL A   1      31.865  20.620  25.280  1.00  0.00     0.347 HD
BRANCH  12  15
ATOM     15  C   UNL A   1      33.469  19.514  25.032  1.00  0.00     0.257 C 
ATOM     16  C   UNL A   1      32.600  18.265  25.149  1.00  0.00     0.071 C 
ENDBRANCH  12  15
ENDBRANCH   7  12
BRANCH   9  17
ATOM     17  C   UNL A   1      33.972  23.185  23.192  1.00  0.00     0.072 C 
BRANCH  17  18
ATOM     18  C   UNL A   1      33.116  24.087  22.311  1.00  0.00     0.262 C 
BRANCH  18  19
ATOM     19  N   UNL A   1      33.091  25.546  22.562  1.00  0.00    -0.335 N 
ATOM     20  C   UNL A   1      31.728  26.060  22.346  1.00  0.00     0.262 C 
ATOM     21  C   UNL A   1      33.588  25.818  23.935  1.00  0.00     0.265 C 
ATOM     22  H   UNL A   1      33.706  26.032  21.911  1.00  0.00     0.348 HD
ATOM     23  C   UNL A   1      31.534  27.498  22.827  1.00  0.00     0.062 C 
ATOM     24  C   UNL A   1      33.373  27.243  24.467  1.00  0.00     0.044 C 
ATOM     25  C   UNL A   1      31.905  27.632  24.300  1.00  0.00     0.015 C 
BRANCH  24  26
ATOM     26  C   UNL A   1      33.880  27.459  25.912  1.00  0.00     0.006 C 
ATOM     27  C   UNL A   1      32.878  27.951  26.947  1.00  0.00     0.004 C 
ENDBRANCH  24  26
ENDBRANCH  18  19
ENDBRANCH  17  18
ENDBRANCH   9  17
ENDBRANCH   4   7
ENDBRANCH   2   3
ENDBRANCH   1   2
BRANCH   1  28
ATOM     28  C   UNL A   1      38.521  21.992  25.753  1.00  0.00     0.002 C 
BRANCH  28  29
ATOM     29  C   UNL A   1      39.805  21.509  26.423  1.00  0.00     0.002 C 
BRANCH  29  30
ATOM     30  C   UNL A   1      40.242  20.084  26.069  1.00  0.00     0.021 C 
BRANCH  30  31
ATOM     31  C   UNL A   1      41.532  19.588  26.712  1.00  0.00     0.116 C 
BRANCH  31  32
ATOM     32  N   UNL A   1      42.672  19.645  25.809  1.00  0.00    -0.352 N 
ATOM     33  C   UNL A   1      43.462  20.674  25.366  1.00  0.00     0.251 C 
ATOM     34  H   UNL A   1      42.928  18.767  25.445  1.00  0.00     0.163 HD
ATOM     35  O   UNL A   1      44.263  20.438  24.453  1.00  0.00    -0.269 OA
BRANCH  33  36
ATOM     36  C   UNL A   1      43.399  22.050  25.919  1.00  0.00     0.039 A 
ATOM     37  C   UNL A   1      43.384  23.131  25.023  1.00  0.00     0.014 A 
ATOM     38  C   UNL A   1      43.456  22.316  27.286  1.00  0.00     0.014 A 
ATOM     39  C   UNL A   1      43.386  24.450  25.493  1.00  0.00     0.010 A 
ATOM     40  C   UNL A   1      43.357  23.627  27.757  1.00  0.00     0.010 A 
ATOM     41  C   UNL A   1      43.348  24.712  26.868  1.00  0.00    -0.014 A 
BRANCH  41  42
ATOM     42  C   UNL A   1      43.369  26.097  27.416  1.00  0.00     0.031 A 
ATOM     43  C   UNL A   1      44.686  26.728  27.798  1.00  0.00     0.074 A 
ATOM     44  C   UNL A   1      42.220  26.761  27.648  1.00  0.00     0.049 A 
ATOM     45  N   UNL A   1      44.917  27.841  28.448  1.00  0.00    -0.248 NA
ATOM     46  C   UNL A   1      45.904  25.985  27.433  1.00  0.00     0.031 C 
ATOM     47  C   UNL A   1      40.876  26.268  27.347  1.00  0.00     0.029 A 
ATOM     48  N   UNL A   1      42.002  27.994  28.215  1.00  0.00    -0.354 N 
ATOM     49  C   UNL A   1      46.297  27.907  28.605  1.00  0.00     0.074 A 
ATOM     50  C   UNL A   1      46.847  26.702  28.025  1.00  0.00     0.031 C 
ATOM     51  C   UNL A   1      39.974  27.192  27.718  1.00  0.00     0.029 A 
ATOM     52  C   UNL A   1      40.672  28.321  28.328  1.00  0.00     0.049 A 
ATOM     53  H   UNL A   1      42.729  28.587  28.513  1.00  0.00     0.167 HD
ATOM     54  C   UNL A   1      47.045  28.890  29.164  1.00  0.00     0.031 A 
ATOM     55  C   UNL A   1      40.077  29.398  28.877  1.00  0.00     0.031 A 
ATOM     56  C   UNL A   1      46.505  30.107  29.707  1.00  0.00     0.049 A 
ATOM     57  C   UNL A   1      40.927  30.480  29.484  1.00  0.00     0.074 A 
ATOM     58  C   UNL A   1      47.182  31.185  30.248  1.00  0.00     0.029 A 
ATOM     59  N   UNL A   1      45.153  30.410  29.762  1.00  0.00    -0.354 N 
ATOM     60  N   UNL A   1      42.231  30.541  29.596  1.00  0.00    -0.248 NA
ATOM     61  C   UNL A   1      40.221  31.648  30.032  1.00  0.00     0.031 C 
ATOM     62  C   UNL A   1      46.237  32.128  30.666  1.00  0.00     0.029 A 
ATOM     63  C   UNL A   1      44.976  31.657  30.337  1.00  0.00     0.049 A 
ATOM     64  H   UNL A   1      44.429  29.827  29.441  1.00  0.00     0.167 HD
ATOM     65  C   UNL A   1      42.504  31.764  30.196  1.00  0.00     0.074 A 
ATOM     66  C   UNL A   1      41.230  32.418  30.415  1.00  0.00     0.031 C 
ATOM     67  C   UNL A   1      43.702  32.299  30.533  1.00  0.00     0.031 A 
BRANCH  54  68
ATOM     68  C   UNL A   1      48.535  28.682  29.216  1.00  0.00    -0.014 A 
ATOM     69  C   UNL A   1      49.148  28.066  30.319  1.00  0.00     0.009 A 
ATOM     70  C   UNL A   1      49.335  29.084  28.134  1.00  0.00     0.009 A 
ATOM     71  C   UNL A   1      50.533  27.899  30.358  1.00  0.00     0.001 A 
ATOM     72  C   UNL A   1      50.717  28.886  28.161  1.00  0.00     0.001 A 
ATOM     73  C   UNL A   1      51.316  28.305  29.277  1.00  0.00     0.000 A 
ENDBRANCH  54  68
BRANCH  55  74
ATOM     74  C   UNL A   1      38.595  29.513  28.871  1.00  0.00    -0.014 A 
ATOM     75  C   UNL A   1      37.913  29.876  27.700  1.00  0.00     0.009 A 
ATOM     76  C   UNL A   1      37.853  29.264  30.038  1.00  0.00     0.009 A 
ATOM     77  C   UNL A   1      36.523  30.015  27.703  1.00  0.00     0.001 A 
ATOM     78  C   UNL A   1      36.461  29.375  30.030  1.00  0.00     0.001 A 
ATOM     79  C   UNL A   1      35.797  29.759  28.865  1.00  0.00     0.000 A 
ENDBRANCH  55  74
BRANCH  67  80
ATOM     80  C   UNL A   1      43.703  33.678  31.125  1.00  0.00    -0.014 A 
ATOM     81  C   UNL A   1      43.736  34.823  30.314  1.00  0.00     0.009 A 
ATOM     82  C   UNL A   1      43.609  33.833  32.518  1.00  0.00     0.009 A 
ATOM     83  C   UNL A   1      43.700  36.095  30.888  1.00  0.00     0.001 A 
ATOM     84  C   UNL A   1      43.546  35.105  33.087  1.00  0.00     0.001 A 
ATOM     85  C   UNL A   1      43.598  36.234  32.272  1.00  0.00     0.000 A 
ENDBRANCH  67  80
ENDBRANCH  41  42
ENDBRANCH  33  36
ENDBRANCH  31  32
ENDBRANCH  30  31
ENDBRANCH  29  30
ENDBRANCH  28  29
ENDBRANCH   1  28
TORSDOF 19
ENDMDL
MODEL 2
REMARK VINA RESULT:      -9.8      2.187      3.248
REMARK SMILES CC[NH2+][C@]1(C(=O)NCCCCCCNC(=O)c2ccc(-c3c4nc(c(-c5ccccc5)c5ccc([nH]5)c(-c5ccccc5)c5nc(c(-c6ccccc6)c6ccc3[nH]6)C=C5)C=C4)cc2)CCC[C@H]1CC[N@H+]1CCC[C@@H](CC)C1
REMARK SMILES IDX 9 1 8 2 7 3 5 4 6 5 4 7 65 8 68 9 66 10 67 11 3 12 2 15 1 16
REMARK SMILES IDX 69 17 70 18 71 19 72 20 78 21 73 23 75 24 74 25 76 26 77 27
REMARK SMILES IDX 10 28 11 29 12 30 13 31 14 32 15 33 16 35 17 36 18 37 64 38
REMARK SMILES IDX 19 39 63 40 20 41 21 42 22 43 57 44 23 45 62 46 56 47 58 48
REMARK SMILES IDX 24 49 61 50 55 51 54 52 25 54 47 55 32 56 46 57 33 58 36 59
REMARK SMILES IDX 45 60 59 61 34 62 35 63 44 65 60 66 37 67 26 68 27 69 31 70
REMARK SMILES IDX 28 71 30 72 29 73 48 74 49 75 53 76 50 77 52 78 51 79 38 80
REMARK SMILES IDX 39 81 43 82 40 83 42 84 41 85
REMARK H PARENT 7 6 3 13 3 14 71 22 14 34 58 53 36 64
REMARK Flexibility Score: inf
ROOT
ATOM      1  C   UNL A   1      39.492  21.896  26.116  1.00  0.00     0.021 C 
ENDROOT
BRANCH   1   2
ATOM      2  C   UNL A   1      38.284  21.207  25.447  1.00  0.00     0.116 C 
BRANCH   2   3
ATOM      3  N   UNL A   1      37.625  22.105  24.506  1.00  0.00    -0.351 N 
ATOM      4  C   UNL A   1      36.467  22.648  24.120  1.00  0.00     0.281 C 
ATOM      5  O   UNL A   1      36.692  23.286  23.062  1.00  0.00    -0.268 OA
ATOM      6  H   UNL A   1      38.323  22.457  23.908  1.00  0.00     0.163 HD
BRANCH   4   7
ATOM      7  C   UNL A   1      34.994  22.768  24.720  1.00  0.00     0.178 C 
ATOM      8  C   UNL A   1      35.283  22.819  26.258  1.00  0.00     0.079 C 
ATOM      9  C   UNL A   1      33.858  23.858  24.637  1.00  0.00     0.066 C 
ATOM     10  C   UNL A   1      33.968  22.983  26.973  1.00  0.00     0.008 C 
ATOM     11  C   UNL A   1      33.085  23.732  25.996  1.00  0.00     0.011 C 
BRANCH   7  12
ATOM     12  N   UNL A   1      34.224  21.541  24.322  1.00  0.00    -0.334 N 
ATOM     13  H   UNL A   1      33.235  21.756  24.448  1.00  0.00     0.347 HD
ATOM     14  H   UNL A   1      34.534  21.360  23.368  1.00  0.00     0.347 HD
BRANCH  12  15
ATOM     15  C   UNL A   1      34.480  20.289  25.014  1.00  0.00     0.257 C 
ATOM     16  C   UNL A   1      33.135  19.694  25.421  1.00  0.00     0.071 C 
ENDBRANCH  12  15
ENDBRANCH   7  12
BRANCH   9  17
ATOM     17  C   UNL A   1      34.166  25.342  24.416  1.00  0.00     0.072 C 
BRANCH  17  18
ATOM     18  C   UNL A   1      33.118  26.031  23.551  1.00  0.00     0.262 C 
BRANCH  18  19
ATOM     19  N   UNL A   1      32.045  26.824  24.192  1.00  0.00    -0.335 N 
ATOM     20  C   UNL A   1      32.638  27.782  25.140  1.00  0.00     0.262 C 
ATOM     21  C   UNL A   1      31.232  27.493  23.144  1.00  0.00     0.265 C 
ATOM     22  H   UNL A   1      31.420  26.218  24.724  1.00  0.00     0.348 HD
ATOM     23  C   UNL A   1      31.645  28.822  25.660  1.00  0.00     0.062 C 
ATOM     24  C   UNL A   1      30.253  28.572  23.627  1.00  0.00     0.044 C 
ATOM     25  C   UNL A   1      30.996  29.577  24.506  1.00  0.00     0.015 C 
BRANCH  24  26
ATOM     26  C   UNL A   1      29.460  29.257  22.489  1.00  0.00     0.006 C 
ATOM     27  C   UNL A   1      29.079  30.720  22.673  1.00  0.00     0.004 C 
ENDBRANCH  24  26
ENDBRANCH  18  19
ENDBRANCH  17  18
ENDBRANCH   9  17
ENDBRANCH   4   7
ENDBRANCH   2   3
ENDBRANCH   1   2
BRANCH   1  28
ATOM     28  C   UNL A   1      40.427  20.972  26.915  1.00  0.00     0.002 C 
BRANCH  28  29
ATOM     29  C   UNL A   1      41.780  20.667  26.277  1.00  0.00     0.002 C 
BRANCH  29  30
ATOM     30  C   UNL A   1      41.942  19.253  25.709  1.00  0.00     0.021 C 
BRANCH  30  31
ATOM     31  C   UNL A   1      43.235  18.525  26.055  1.00  0.00     0.116 C 
BRANCH  31  32
ATOM     32  N   UNL A   1      44.182  18.499  24.950  1.00  0.00    -0.352 N 
ATOM     33  C   UNL A   1      44.877  19.480  24.293  1.00  0.00     0.251 C 
ATOM     34  H   UNL A   1      44.360  17.593  24.607  1.00  0.00     0.163 HD
ATOM     35  O   UNL A   1      45.488  19.168  23.263  1.00  0.00    -0.269 OA
BRANCH  33  36
ATOM     36  C   UNL A   1      44.926  20.893  24.747  1.00  0.00     0.039 A 
ATOM     37  C   UNL A   1      44.492  21.895  23.865  1.00  0.00     0.014 A 
ATOM     38  C   UNL A   1      45.478  21.272  25.971  1.00  0.00     0.014 A 
ATOM     39  C   UNL A   1      44.575  23.247  24.222  1.00  0.00     0.010 A 
ATOM     40  C   UNL A   1      45.467  22.610  26.368  1.00  0.00     0.010 A 
ATOM     41  C   UNL A   1      45.041  23.618  25.489  1.00  0.00    -0.014 A 
BRANCH  41  42
ATOM     42  C   UNL A   1      45.166  25.042  25.907  1.00  0.00     0.031 A 
ATOM     43  C   UNL A   1      46.510  25.725  25.838  1.00  0.00     0.074 A 
ATOM     44  C   UNL A   1      44.109  25.702  26.420  1.00  0.00     0.049 A 
ATOM     45  N   UNL A   1      46.875  26.890  26.310  1.00  0.00    -0.248 NA
ATOM     46  C   UNL A   1      47.596  24.978  25.183  1.00  0.00     0.031 C 
ATOM     47  C   UNL A   1      42.756  25.163  26.564  1.00  0.00     0.029 A 
ATOM     48  N   UNL A   1      44.016  26.972  26.937  1.00  0.00    -0.354 N 
ATOM     49  C   UNL A   1      48.237  26.994  26.047  1.00  0.00     0.074 A 
ATOM     50  C   UNL A   1      48.642  25.757  25.418  1.00  0.00     0.031 C 
ATOM     51  C   UNL A   1      41.966  26.097  27.118  1.00  0.00     0.029 A 
ATOM     52  C   UNL A   1      42.765  27.283  27.413  1.00  0.00     0.049 A 
ATOM     53  H   UNL A   1      44.774  27.600  26.964  1.00  0.00     0.167 HD
ATOM     54  C   UNL A   1      49.075  28.031  26.289  1.00  0.00     0.031 A 
ATOM     55  C   UNL A   1      42.314  28.389  28.036  1.00  0.00     0.031 A 
ATOM     56  C   UNL A   1      48.669  29.278  26.880  1.00  0.00     0.049 A 
ATOM     57  C   UNL A   1      43.260  29.532  28.287  1.00  0.00     0.074 A 
ATOM     58  C   UNL A   1      49.430  30.408  27.119  1.00  0.00     0.029 A 
ATOM     59  N   UNL A   1      47.382  29.561  27.309  1.00  0.00    -0.354 N 
ATOM     60  N   UNL A   1      44.536  29.625  28.004  1.00  0.00    -0.248 NA
ATOM     61  C   UNL A   1      42.699  30.727  28.934  1.00  0.00     0.031 C 
ATOM     62  C   UNL A   1      48.611  31.364  27.729  1.00  0.00     0.029 A 
ATOM     63  C   UNL A   1      47.330  30.845  27.821  1.00  0.00     0.049 A 
ATOM     64  H   UNL A   1      46.619  28.940  27.258  1.00  0.00     0.167 HD
ATOM     65  C   UNL A   1      44.922  30.897  28.409  1.00  0.00     0.074 A 
ATOM     66  C   UNL A   1      43.743  31.543  28.946  1.00  0.00     0.031 C 
ATOM     67  C   UNL A   1      46.144  31.478  28.338  1.00  0.00     0.031 A 
BRANCH  54  68
ATOM     68  C   UNL A   1      50.522  27.855  25.914  1.00  0.00    -0.014 A 
ATOM     69  C   UNL A   1      50.993  28.206  24.638  1.00  0.00     0.009 A 
ATOM     70  C   UNL A   1      51.434  27.357  26.858  1.00  0.00     0.009 A 
ATOM     71  C   UNL A   1      52.335  28.019  24.301  1.00  0.00     0.001 A 
ATOM     72  C   UNL A   1      52.783  27.201  26.530  1.00  0.00     0.001 A 
ATOM     73  C   UNL A   1      53.230  27.521  25.249  1.00  0.00     0.000 A 
ENDBRANCH  54  68
BRANCH  55  74
ATOM     74  C   UNL A   1      40.892  28.477  28.460  1.00  0.00    -0.014 A 
ATOM     75  C   UNL A   1      39.932  29.059  27.618  1.00  0.00     0.009 A 
ATOM     76  C   UNL A   1      40.486  27.984  29.710  1.00  0.00     0.009 A 
ATOM     77  C   UNL A   1      38.602  29.169  28.029  1.00  0.00     0.001 A 
ATOM     78  C   UNL A   1      39.149  28.069  30.107  1.00  0.00     0.001 A 
ATOM     79  C   UNL A   1      38.210  28.670  29.269  1.00  0.00     0.000 A 
ENDBRANCH  55  74
BRANCH  67  80
ATOM     80  C   UNL A   1      46.262  32.901  28.804  1.00  0.00    -0.014 A 
ATOM     81  C   UNL A   1      46.622  33.210  30.125  1.00  0.00     0.009 A 
ATOM     82  C   UNL A   1      46.068  33.946  27.888  1.00  0.00     0.009 A 
ATOM     83  C   UNL A   1      46.760  34.541  30.524  1.00  0.00     0.001 A 
ATOM     84  C   UNL A   1      46.232  35.274  28.283  1.00  0.00     0.001 A 
ATOM     85  C   UNL A   1      46.571  35.570  29.602  1.00  0.00     0.000 A 
ENDBRANCH  67  80
ENDBRANCH  41  42
ENDBRANCH  33  36
ENDBRANCH  31  32
ENDBRANCH  30  31
ENDBRANCH  29  30
ENDBRANCH  28  29
ENDBRANCH   1  28
TORSDOF 19
ENDMDL
MODEL 3
REMARK VINA RESULT:      -9.6      3.336      8.836
REMARK SMILES CC[NH2+][C@]1(C(=O)NCCCCCCNC(=O)c2ccc(-c3c4nc(c(-c5ccccc5)c5ccc([nH]5)c(-c5ccccc5)c5nc(c(-c6ccccc6)c6ccc3[nH]6)C=C5)C=C4)cc2)CCC[C@H]1CC[N@H+]1CCC[C@@H](CC)C1
REMARK SMILES IDX 9 1 8 2 7 3 5 4 6 5 4 7 65 8 68 9 66 10 67 11 3 12 2 15 1 16
REMARK SMILES IDX 69 17 70 18 71 19 72 20 78 21 73 23 75 24 74 25 76 26 77 27
REMARK SMILES IDX 10 28 11 29 12 30 13 31 14 32 15 33 16 35 17 36 18 37 64 38
REMARK SMILES IDX 19 39 63 40 20 41 21 42 22 43 57 44 23 45 62 46 56 47 58 48
REMARK SMILES IDX 24 49 61 50 55 51 54 52 25 54 47 55 32 56 46 57 33 58 36 59
REMARK SMILES IDX 45 60 59 61 34 62 35 63 44 65 60 66 37 67 26 68 27 69 31 70
REMARK SMILES IDX 28 71 30 72 29 73 48 74 49 75 53 76 50 77 52 78 51 79 38 80
REMARK SMILES IDX 39 81 43 82 40 83 42 84 41 85
REMARK H PARENT 7 6 3 13 3 14 71 22 14 34 58 53 36 64
REMARK Flexibility Score: inf
ROOT
ATOM      1  C   UNL A   1      34.809  29.649  27.129  1.00  0.00     0.021 C 
ENDROOT
BRANCH   1   2
ATOM      2  C   UNL A   1      34.077  28.514  26.383  1.00  0.00     0.116 C 
BRANCH   2   3
ATOM      3  N   UNL A   1      34.055  28.762  24.946  1.00  0.00    -0.351 N 
ATOM      4  C   UNL A   1      33.515  28.425  23.772  1.00  0.00     0.281 C 
ATOM      5  O   UNL A   1      34.147  29.043  22.881  1.00  0.00    -0.268 OA
ATOM      6  H   UNL A   1      34.712  29.474  24.768  1.00  0.00     0.163 HD
BRANCH   4   7
ATOM      7  C   UNL A   1      32.256  27.574  23.286  1.00  0.00     0.178 C 
ATOM      8  C   UNL A   1      32.945  26.445  22.446  1.00  0.00     0.079 C 
ATOM      9  C   UNL A   1      31.161  26.712  24.022  1.00  0.00     0.066 C 
ATOM     10  C   UNL A   1      31.869  25.516  21.948  1.00  0.00     0.008 C 
ATOM     11  C   UNL A   1      30.773  25.594  22.991  1.00  0.00     0.011 C 
BRANCH   7  12
ATOM     12  N   UNL A   1      31.385  28.463  22.446  1.00  0.00    -0.334 N 
ATOM     13  H   UNL A   1      32.006  29.067  21.908  1.00  0.00     0.347 HD
ATOM     14  H   UNL A   1      30.810  27.809  21.915  1.00  0.00     0.347 HD
BRANCH  12  15
ATOM     15  C   UNL A   1      30.414  29.325  23.100  1.00  0.00     0.257 C 
ATOM     16  C   UNL A   1      29.200  29.445  22.184  1.00  0.00     0.071 C 
ENDBRANCH  12  15
ENDBRANCH   7  12
BRANCH   9  17
ATOM     17  C   UNL A   1      31.428  26.028  25.366  1.00  0.00     0.072 C 
BRANCH  17  18
ATOM     18  C   UNL A   1      31.829  24.568  25.207  1.00  0.00     0.262 C 
BRANCH  18  19
ATOM     19  N   UNL A   1      32.951  24.024  26.006  1.00  0.00    -0.335 N 
ATOM     20  C   UNL A   1      32.426  23.125  27.046  1.00  0.00     0.262 C 
ATOM     21  C   UNL A   1      33.916  23.346  25.103  1.00  0.00     0.265 C 
ATOM     22  H   UNL A   1      33.451  24.777  26.479  1.00  0.00     0.348 HD
ATOM     23  C   UNL A   1      33.510  22.312  27.756  1.00  0.00     0.062 C 
ATOM     24  C   UNL A   1      34.994  22.487  25.780  1.00  0.00     0.044 C 
ATOM     25  C   UNL A   1      34.332  21.512  26.752  1.00  0.00     0.015 C 
BRANCH  24  26
ATOM     26  C   UNL A   1      35.948  21.778  24.790  1.00  0.00     0.006 C 
ATOM     27  C   UNL A   1      37.405  21.622  25.201  1.00  0.00     0.004 C 
ENDBRANCH  24  26
ENDBRANCH  18  19
ENDBRANCH  17  18
ENDBRANCH   9  17
ENDBRANCH   4   7
ENDBRANCH   2   3
ENDBRANCH   1   2
BRANCH   1  28
ATOM     28  C   UNL A   1      33.977  30.916  27.396  1.00  0.00     0.002 C 
BRANCH  28  29
ATOM     29  C   UNL A   1      32.468  30.783  27.206  1.00  0.00     0.002 C 
BRANCH  29  30
ATOM     30  C   UNL A   1      31.688  32.101  27.147  1.00  0.00     0.021 C 
BRANCH  30  31
ATOM     31  C   UNL A   1      32.500  33.359  26.862  1.00  0.00     0.116 C 
BRANCH  31  32
ATOM     32  N   UNL A   1      32.409  34.345  27.929  1.00  0.00    -0.352 N 
ATOM     33  C   UNL A   1      33.149  34.565  29.062  1.00  0.00     0.251 C 
ATOM     34  H   UNL A   1      31.667  34.981  27.814  1.00  0.00     0.163 HD
ATOM     35  O   UNL A   1      32.722  35.387  29.883  1.00  0.00    -0.269 OA
BRANCH  33  36
ATOM     36  C   UNL A   1      34.425  33.866  29.354  1.00  0.00     0.039 A 
ATOM     37  C   UNL A   1      34.467  32.973  30.436  1.00  0.00     0.014 A 
ATOM     38  C   UNL A   1      35.607  34.136  28.665  1.00  0.00     0.014 A 
ATOM     39  C   UNL A   1      35.661  32.334  30.793  1.00  0.00     0.010 A 
ATOM     40  C   UNL A   1      36.773  33.424  28.954  1.00  0.00     0.010 A 
ATOM     41  C   UNL A   1      36.824  32.535  30.038  1.00  0.00    -0.014 A 
BRANCH  41  42
ATOM     42  C   UNL A   1      38.122  31.894  30.388  1.00  0.00     0.031 A 
ATOM     43  C   UNL A   1      39.098  32.624  31.279  1.00  0.00     0.074 A 
ATOM     44  C   UNL A   1      38.467  30.706  29.855  1.00  0.00     0.049 A 
ATOM     45  N   UNL A   1      40.341  32.331  31.565  1.00  0.00    -0.248 NA
ATOM     46  C   UNL A   1      38.620  33.871  31.898  1.00  0.00     0.031 C 
ATOM     47  C   UNL A   1      37.633  29.897  28.965  1.00  0.00     0.029 A 
ATOM     48  N   UNL A   1      39.628  29.980  29.971  1.00  0.00    -0.354 N 
ATOM     49  C   UNL A   1      40.802  33.375  32.359  1.00  0.00     0.074 A 
ATOM     50  C   UNL A   1      39.723  34.330  32.471  1.00  0.00     0.031 C 
ATOM     51  C   UNL A   1      38.302  28.783  28.627  1.00  0.00     0.029 A 
ATOM     52  C   UNL A   1      39.628  28.819  29.235  1.00  0.00     0.049 A 
ATOM     53  H   UNL A   1      40.388  30.264  30.529  1.00  0.00     0.167 HD
ATOM     54  C   UNL A   1      42.009  33.521  32.958  1.00  0.00     0.031 A 
ATOM     55  C   UNL A   1      40.593  27.898  29.052  1.00  0.00     0.031 A 
ATOM     56  C   UNL A   1      43.072  32.556  32.881  1.00  0.00     0.049 A 
ATOM     57  C   UNL A   1      41.922  28.075  29.734  1.00  0.00     0.074 A 
ATOM     58  C   UNL A   1      44.312  32.587  33.494  1.00  0.00     0.029 A 
ATOM     59  N   UNL A   1      43.010  31.376  32.156  1.00  0.00    -0.354 N 
ATOM     60  N   UNL A   1      42.330  29.053  30.505  1.00  0.00    -0.248 NA
ATOM     61  C   UNL A   1      42.920  27.016  29.527  1.00  0.00     0.031 C 
ATOM     62  C   UNL A   1      45.017  31.442  33.110  1.00  0.00     0.029 A 
ATOM     63  C   UNL A   1      44.196  30.676  32.299  1.00  0.00     0.049 A 
ATOM     64  H   UNL A   1      42.240  31.082  31.619  1.00  0.00     0.167 HD
ATOM     65  C   UNL A   1      43.618  28.712  30.901  1.00  0.00     0.074 A 
ATOM     66  C   UNL A   1      43.919  27.432  30.294  1.00  0.00     0.031 C 
ATOM     67  C   UNL A   1      44.472  29.396  31.699  1.00  0.00     0.031 A 
BRANCH  54  68
ATOM     68  C   UNL A   1      42.241  34.780  33.751  1.00  0.00    -0.014 A 
ATOM     69  C   UNL A   1      42.749  35.940  33.146  1.00  0.00     0.009 A 
ATOM     70  C   UNL A   1      41.923  34.813  35.119  1.00  0.00     0.009 A 
ATOM     71  C   UNL A   1      42.975  37.093  33.901  1.00  0.00     0.001 A 
ATOM     72  C   UNL A   1      42.119  35.977  35.865  1.00  0.00     0.001 A 
ATOM     73  C   UNL A   1      42.656  37.112  35.259  1.00  0.00     0.000 A 
ENDBRANCH  54  68
BRANCH  55  74
ATOM     74  C   UNL A   1      40.337  26.713  28.190  1.00  0.00    -0.014 A 
ATOM     75  C   UNL A   1      40.798  26.683  26.866  1.00  0.00     0.009 A 
ATOM     76  C   UNL A   1      39.628  25.607  28.686  1.00  0.00     0.009 A 
ATOM     77  C   UNL A   1      40.531  25.584  26.046  1.00  0.00     0.001 A 
ATOM     78  C   UNL A   1      39.387  24.497  27.874  1.00  0.00     0.001 A 
ATOM     79  C   UNL A   1      39.831  24.490  26.552  1.00  0.00     0.000 A 
ENDBRANCH  55  74
BRANCH  67  80
ATOM     80  C   UNL A   1      45.795  28.756  32.008  1.00  0.00    -0.014 A 
ATOM     81  C   UNL A   1      45.947  27.877  33.091  1.00  0.00     0.009 A 
ATOM     82  C   UNL A   1      46.891  28.992  31.162  1.00  0.00     0.009 A 
ATOM     83  C   UNL A   1      47.179  27.266  33.335  1.00  0.00     0.001 A 
ATOM     84  C   UNL A   1      48.113  28.360  31.393  1.00  0.00     0.001 A 
ATOM     85  C   UNL A   1      48.257  27.503  32.483  1.00  0.00     0.000 A 
ENDBRANCH  67  80
ENDBRANCH  41  42
ENDBRANCH  33  36
ENDBRANCH  31  32
ENDBRANCH  30  31
ENDBRANCH  29  30
ENDBRANCH  28  29
ENDBRANCH   1  28
TORSDOF 19
ENDMDL
