MODEL 1
REMARK VINA RESULT:     -11.6      0.000      0.000
REMARK SMILES CCNC(=O)c1cccc(-c2ccc(Cl)c(C(=O)NCCCCCCNC(=O)c3ccc(-c4c5nc(c(-c6ccccc6)c6ccc([nH]6)c(-c6ccccc6)c6nc(c(-c7ccccc7)c7ccc4[nH]7)C=C6)C=C5)cc3)c2)c1
REMARK SMILES IDX 22 1 21 2 20 3 19 4 17 5 18 6 16 8 11 9 12 10 77 11 13 12
REMARK SMILES IDX 14 13 15 14 10 15 6 16 7 17 78 18 8 19 9 20 4 21 3 22 5 24
REMARK SMILES IDX 2 25 1 26 23 27 24 28 25 29 26 30 27 31 28 33 29 34 30 35
REMARK SMILES IDX 76 36 31 37 75 38 32 39 33 40 34 41 69 42 35 43 74 44 68 45
REMARK SMILES IDX 70 46 36 47 73 48 67 49 66 50 37 52 59 53 44 54 58 55 45 56
REMARK SMILES IDX 48 57 57 58 71 59 46 60 47 61 56 63 72 64 49 65 38 66 39 67
REMARK SMILES IDX 43 68 40 69 42 70 41 71 60 72 61 73 65 74 62 75 64 76 63 77
REMARK SMILES IDX 50 78 51 79 55 80 52 81 54 82 53 83
REMARK H PARENT 19 7 3 23 26 32 70 51 48 62
REMARK Flexibility Score: inf
ROOT
ATOM      1  C   UNL A   1      34.258  25.726  25.364  1.00  0.00     0.002 C 
ENDROOT
BRANCH   1   2
ATOM      2  C   UNL A   1      34.358  25.046  24.001  1.00  0.00     0.021 C 
BRANCH   2   3
ATOM      3  C   UNL A   1      34.879  23.617  23.986  1.00  0.00     0.116 C 
BRANCH   3   4
ATOM      4  N   UNL A   1      34.015  22.647  23.324  1.00  0.00    -0.352 N 
ATOM      5  C   UNL A   1      32.648  22.428  23.366  1.00  0.00     0.252 C 
ATOM      6  O   UNL A   1      32.189  21.592  22.593  1.00  0.00    -0.269 OA
ATOM      7  H   UNL A   1      34.498  22.026  22.732  1.00  0.00     0.163 HD
BRANCH   5   8
ATOM      8  C   UNL A   1      31.748  23.160  24.312  1.00  0.00     0.059 A 
ATOM      9  C   UNL A   1      30.196  25.045  24.598  1.00  0.00    -0.017 A 
ATOM     10  C   UNL A   1      30.260  24.866  25.982  1.00  0.00     0.010 A 
ATOM     11  C   UNL A   1      30.837  24.087  23.796  1.00  0.00     0.024 A 
ATOM     12  C   UNL A   1      31.016  23.822  26.526  1.00  0.00     0.022 A 
ATOM     13  C   UNL A   1      31.796  22.997  25.701  1.00  0.00     0.053 A 
ATOM     14  Cl  UNL A   1      32.801  21.848  26.508  1.00  0.00    -0.083 Cl
BRANCH   9  15
ATOM     15  C   UNL A   1      29.597  26.237  23.968  1.00  0.00    -0.018 A 
ATOM     16  C   UNL A   1      29.857  28.390  22.835  1.00  0.00     0.040 A 
ATOM     17  C   UNL A   1      28.489  28.637  22.951  1.00  0.00     0.014 A 
ATOM     18  C   UNL A   1      30.403  27.226  23.385  1.00  0.00     0.022 A 
ATOM     19  C   UNL A   1      27.668  27.685  23.552  1.00  0.00     0.001 A 
ATOM     20  C   UNL A   1      28.215  26.492  24.039  1.00  0.00     0.009 A 
BRANCH  16  21
ATOM     21  C   UNL A   1      30.729  29.407  22.206  1.00  0.00     0.251 C 
ATOM     22  N   UNL A   1      30.191  30.433  21.470  1.00  0.00    -0.352 N 
ATOM     23  H   UNL A   1      30.850  30.980  20.984  1.00  0.00     0.163 HD
ATOM     24  O   UNL A   1      31.947  29.323  22.341  1.00  0.00    -0.269 OA
BRANCH  22  25
ATOM     25  C   UNL A   1      28.807  30.846  21.291  1.00  0.00     0.112 C 
ATOM     26  C   UNL A   1      28.559  32.225  21.866  1.00  0.00     0.027 C 
ENDBRANCH  22  25
ENDBRANCH  16  21
ENDBRANCH   9  15
ENDBRANCH   5   8
ENDBRANCH   3   4
ENDBRANCH   2   3
ENDBRANCH   1   2
BRANCH   1  27
ATOM     27  C   UNL A   1      33.344  26.951  25.451  1.00  0.00     0.002 C 
BRANCH  27  28
ATOM     28  C   UNL A   1      33.967  28.229  26.016  1.00  0.00     0.021 C 
BRANCH  28  29
ATOM     29  C   UNL A   1      33.515  28.624  27.419  1.00  0.00     0.116 C 
BRANCH  29  30
ATOM     30  N   UNL A   1      33.618  30.053  27.663  1.00  0.00    -0.352 N 
ATOM     31  C   UNL A   1      34.669  30.784  28.166  1.00  0.00     0.251 C 
ATOM     32  H   UNL A   1      32.816  30.576  27.435  1.00  0.00     0.163 HD
ATOM     33  O   UNL A   1      34.523  31.965  28.452  1.00  0.00    -0.269 OA
BRANCH  31  34
ATOM     34  C   UNL A   1      35.978  30.130  28.389  1.00  0.00     0.039 A 
ATOM     35  C   UNL A   1      36.911  30.119  27.349  1.00  0.00     0.014 A 
ATOM     36  C   UNL A   1      36.287  29.542  29.618  1.00  0.00     0.014 A 
ATOM     37  C   UNL A   1      38.187  29.595  27.570  1.00  0.00     0.010 A 
ATOM     38  C   UNL A   1      37.580  29.083  29.858  1.00  0.00     0.010 A 
ATOM     39  C   UNL A   1      38.548  29.118  28.841  1.00  0.00    -0.014 A 
BRANCH  39  40
ATOM     40  C   UNL A   1      39.937  28.687  29.142  1.00  0.00     0.031 A 
ATOM     41  C   UNL A   1      40.900  29.632  29.803  1.00  0.00     0.074 A 
ATOM     42  C   UNL A   1      40.351  27.463  28.753  1.00  0.00     0.049 A 
ATOM     43  N   UNL A   1      42.176  29.471  30.051  1.00  0.00    -0.248 NA
ATOM     44  C   UNL A   1      40.366  30.937  30.227  1.00  0.00     0.031 C 
ATOM     45  C   UNL A   1      39.521  26.459  28.085  1.00  0.00     0.029 A 
ATOM     46  N   UNL A   1      41.581  26.862  28.853  1.00  0.00    -0.354 N 
ATOM     47  C   UNL A   1      42.594  30.650  30.655  1.00  0.00     0.074 A 
ATOM     48  C   UNL A   1      41.452  31.536  30.691  1.00  0.00     0.031 C 
ATOM     49  C   UNL A   1      40.258  25.361  27.854  1.00  0.00     0.029 A 
ATOM     50  C   UNL A   1      41.624  25.601  28.305  1.00  0.00     0.049 A 
ATOM     51  H   UNL A   1      42.358  27.292  29.276  1.00  0.00     0.167 HD
ATOM     52  C   UNL A   1      43.815  30.957  31.155  1.00  0.00     0.031 A 
ATOM     53  C   UNL A   1      42.654  24.745  28.160  1.00  0.00     0.031 A 
ATOM     54  C   UNL A   1      44.953  30.078  31.113  1.00  0.00     0.049 A 
ATOM     55  C   UNL A   1      44.018  25.150  28.649  1.00  0.00     0.074 A 
ATOM     56  C   UNL A   1      46.225  30.292  31.618  1.00  0.00     0.029 A 
ATOM     57  N   UNL A   1      44.959  28.821  30.531  1.00  0.00    -0.354 N 
ATOM     58  N   UNL A   1      44.383  26.243  29.273  1.00  0.00    -0.248 NA
ATOM     59  C   UNL A   1      45.114  24.199  28.414  1.00  0.00     0.031 C 
ATOM     60  C   UNL A   1      47.015  29.187  31.290  1.00  0.00     0.029 A 
ATOM     61  C   UNL A   1      46.221  28.261  30.636  1.00  0.00     0.049 A 
ATOM     62  H   UNL A   1      44.182  28.392  30.105  1.00  0.00     0.167 HD
ATOM     63  C   UNL A   1      45.740  26.099  29.528  1.00  0.00     0.074 A 
ATOM     64  C   UNL A   1      46.129  24.803  29.014  1.00  0.00     0.031 C 
ATOM     65  C   UNL A   1      46.590  26.965  30.130  1.00  0.00     0.031 A 
BRANCH  52  66
ATOM     66  C   UNL A   1      43.986  32.305  31.797  1.00  0.00    -0.014 A 
ATOM     67  C   UNL A   1      44.320  33.433  31.030  1.00  0.00     0.009 A 
ATOM     68  C   UNL A   1      43.746  32.467  33.171  1.00  0.00     0.009 A 
ATOM     69  C   UNL A   1      44.437  34.689  31.629  1.00  0.00     0.001 A 
ATOM     70  C   UNL A   1      43.835  33.729  33.762  1.00  0.00     0.001 A 
ATOM     71  C   UNL A   1      44.188  34.837  32.993  1.00  0.00     0.000 A 
ENDBRANCH  52  66
BRANCH  53  72
ATOM     72  C   UNL A   1      42.454  23.423  27.506  1.00  0.00    -0.014 A 
ATOM     73  C   UNL A   1      42.064  22.307  28.263  1.00  0.00     0.009 A 
ATOM     74  C   UNL A   1      42.698  23.256  26.134  1.00  0.00     0.009 A 
ATOM     75  C   UNL A   1      41.964  21.046  27.670  1.00  0.00     0.001 A 
ATOM     76  C   UNL A   1      42.564  22.002  25.536  1.00  0.00     0.001 A 
ATOM     77  C   UNL A   1      42.212  20.895  26.306  1.00  0.00     0.000 A 
ENDBRANCH  53  72
BRANCH  65  78
ATOM     78  C   UNL A   1      48.018  26.527  30.300  1.00  0.00    -0.014 A 
ATOM     79  C   UNL A   1      48.993  26.840  29.340  1.00  0.00     0.009 A 
ATOM     80  C   UNL A   1      48.402  25.845  31.465  1.00  0.00     0.009 A 
ATOM     81  C   UNL A   1      50.321  26.456  29.534  1.00  0.00     0.001 A 
ATOM     82  C   UNL A   1      49.736  25.490  31.670  1.00  0.00     0.001 A 
ATOM     83  C   UNL A   1      50.693  25.789  30.701  1.00  0.00     0.000 A 
ENDBRANCH  65  78
ENDBRANCH  39  40
ENDBRANCH  31  34
ENDBRANCH  29  30
ENDBRANCH  28  29
ENDBRANCH  27  28
ENDBRANCH   1  27
TORSDOF 16
ENDMDL
MODEL 2
REMARK VINA RESULT:     -11.4      4.256      6.999
REMARK SMILES CCNC(=O)c1cccc(-c2ccc(Cl)c(C(=O)NCCCCCCNC(=O)c3ccc(-c4c5nc(c(-c6ccccc6)c6ccc([nH]6)c(-c6ccccc6)c6nc(c(-c7ccccc7)c7ccc4[nH]7)C=C6)C=C5)cc3)c2)c1
REMARK SMILES IDX 22 1 21 2 20 3 19 4 17 5 18 6 16 8 11 9 12 10 77 11 13 12
REMARK SMILES IDX 14 13 15 14 10 15 6 16 7 17 78 18 8 19 9 20 4 21 3 22 5 24
REMARK SMILES IDX 2 25 1 26 23 27 24 28 25 29 26 30 27 31 28 33 29 34 30 35
REMARK SMILES IDX 76 36 31 37 75 38 32 39 33 40 34 41 69 42 35 43 74 44 68 45
REMARK SMILES IDX 70 46 36 47 73 48 67 49 66 50 37 52 59 53 44 54 58 55 45 56
REMARK SMILES IDX 48 57 57 58 71 59 46 60 47 61 56 63 72 64 49 65 38 66 39 67
REMARK SMILES IDX 43 68 40 69 42 70 41 71 60 72 61 73 65 74 62 75 64 76 63 77
REMARK SMILES IDX 50 78 51 79 55 80 52 81 54 82 53 83
REMARK H PARENT 19 7 3 23 26 32 70 51 48 62
REMARK Flexibility Score: inf
ROOT
ATOM      1  C   UNL A   1      34.379  31.640  28.778  1.00  0.00     0.002 C 
ENDROOT
BRANCH   1   2
ATOM      2  C   UNL A   1      35.063  30.974  27.588  1.00  0.00     0.021 C 
BRANCH   2   3
ATOM      3  C   UNL A   1      34.503  29.633  27.138  1.00  0.00     0.116 C 
BRANCH   3   4
ATOM      4  N   UNL A   1      33.251  29.238  27.772  1.00  0.00    -0.352 N 
ATOM      5  C   UNL A   1      32.158  28.517  27.320  1.00  0.00     0.252 C 
ATOM      6  O   UNL A   1      31.287  28.244  28.142  1.00  0.00    -0.269 OA
ATOM      7  H   UNL A   1      33.166  29.545  28.704  1.00  0.00     0.163 HD
BRANCH   5   8
ATOM      8  C   UNL A   1      32.016  28.087  25.895  1.00  0.00     0.059 A 
ATOM      9  C   UNL A   1      32.611  26.398  24.209  1.00  0.00    -0.017 A 
ATOM     10  C   UNL A   1      32.153  27.259  23.209  1.00  0.00     0.010 A 
ATOM     11  C   UNL A   1      32.395  26.788  25.541  1.00  0.00     0.024 A 
ATOM     12  C   UNL A   1      31.589  28.495  23.543  1.00  0.00     0.022 A 
ATOM     13  C   UNL A   1      31.561  28.932  24.877  1.00  0.00     0.053 A 
ATOM     14  Cl  UNL A   1      30.981  30.538  25.137  1.00  0.00    -0.083 Cl
BRANCH   9  15
ATOM     15  C   UNL A   1      33.401  25.184  23.926  1.00  0.00    -0.018 A 
ATOM     16  C   UNL A   1      35.214  23.651  24.517  1.00  0.00     0.040 A 
ATOM     17  C   UNL A   1      35.076  22.990  23.296  1.00  0.00     0.014 A 
ATOM     18  C   UNL A   1      34.417  24.765  24.798  1.00  0.00     0.022 A 
ATOM     19  C   UNL A   1      34.095  23.402  22.398  1.00  0.00     0.001 A 
ATOM     20  C   UNL A   1      33.257  24.477  22.718  1.00  0.00     0.009 A 
BRANCH  16  21
ATOM     21  C   UNL A   1      36.264  23.218  25.466  1.00  0.00     0.251 C 
ATOM     22  N   UNL A   1      35.963  22.377  26.508  1.00  0.00    -0.352 N 
ATOM     23  H   UNL A   1      36.691  22.250  27.158  1.00  0.00     0.163 HD
ATOM     24  O   UNL A   1      37.414  23.623  25.318  1.00  0.00    -0.269 OA
BRANCH  22  25
ATOM     25  C   UNL A   1      34.744  21.641  26.810  1.00  0.00     0.112 C 
ATOM     26  C   UNL A   1      33.829  22.429  27.723  1.00  0.00     0.027 C 
ENDBRANCH  22  25
ENDBRANCH  16  21
ENDBRANCH   9  15
ENDBRANCH   5   8
ENDBRANCH   3   4
ENDBRANCH   2   3
ENDBRANCH   1   2
BRANCH   1  27
ATOM     27  C   UNL A   1      34.631  33.139  28.960  1.00  0.00     0.002 C 
BRANCH  27  28
ATOM     28  C   UNL A   1      33.410  34.055  28.843  1.00  0.00     0.021 C 
BRANCH  28  29
ATOM     29  C   UNL A   1      33.641  35.518  29.209  1.00  0.00     0.116 C 
BRANCH  29  30
ATOM     30  N   UNL A   1      32.765  35.978  30.274  1.00  0.00    -0.352 N 
ATOM     31  C   UNL A   1      32.818  35.725  31.625  1.00  0.00     0.251 C 
ATOM     32  H   UNL A   1      32.023  36.557  29.986  1.00  0.00     0.163 HD
ATOM     33  O   UNL A   1      31.901  36.069  32.357  1.00  0.00    -0.269 OA
BRANCH  31  34
ATOM     34  C   UNL A   1      33.980  35.004  32.192  1.00  0.00     0.039 A 
ATOM     35  C   UNL A   1      33.800  33.701  32.663  1.00  0.00     0.014 A 
ATOM     36  C   UNL A   1      35.241  35.603  32.247  1.00  0.00     0.014 A 
ATOM     37  C   UNL A   1      34.902  32.968  33.109  1.00  0.00     0.010 A 
ATOM     38  C   UNL A   1      36.348  34.850  32.627  1.00  0.00     0.010 A 
ATOM     39  C   UNL A   1      36.192  33.519  33.048  1.00  0.00    -0.014 A 
BRANCH  39  40
ATOM     40  C   UNL A   1      37.396  32.715  33.383  1.00  0.00     0.031 A 
ATOM     41  C   UNL A   1      38.154  32.976  34.655  1.00  0.00     0.074 A 
ATOM     42  C   UNL A   1      37.848  31.798  32.503  1.00  0.00     0.049 A 
ATOM     43  N   UNL A   1      39.280  32.450  35.067  1.00  0.00    -0.248 NA
ATOM     44  C   UNL A   1      37.582  33.969  35.578  1.00  0.00     0.031 C 
ATOM     45  C   UNL A   1      37.215  31.464  31.225  1.00  0.00     0.029 A 
ATOM     46  N   UNL A   1      38.955  30.986  32.546  1.00  0.00    -0.354 N 
ATOM     47  C   UNL A   1      39.550  33.048  36.291  1.00  0.00     0.074 A 
ATOM     48  C   UNL A   1      38.500  34.012  36.532  1.00  0.00     0.031 C 
ATOM     49  C   UNL A   1      37.931  30.505  30.617  1.00  0.00     0.029 A 
ATOM     50  C   UNL A   1      39.101  30.195  31.431  1.00  0.00     0.049 A 
ATOM     51  H   UNL A   1      39.583  30.972  33.303  1.00  0.00     0.167 HD
ATOM     52  C   UNL A   1      40.570  32.800  37.146  1.00  0.00     0.031 A 
ATOM     53  C   UNL A   1      40.080  29.334  31.092  1.00  0.00     0.031 A 
ATOM     54  C   UNL A   1      41.619  31.845  36.904  1.00  0.00     0.049 A 
ATOM     55  C   UNL A   1      41.244  29.143  32.026  1.00  0.00     0.074 A 
ATOM     56  C   UNL A   1      42.681  31.506  37.725  1.00  0.00     0.029 A 
ATOM     57  N   UNL A   1      41.741  31.082  35.754  1.00  0.00    -0.354 N 
ATOM     58  N   UNL A   1      41.453  29.671  33.208  1.00  0.00    -0.248 NA
ATOM     59  C   UNL A   1      42.309  28.234  31.578  1.00  0.00     0.031 C 
ATOM     60  C   UNL A   1      43.477  30.578  37.047  1.00  0.00     0.029 A 
ATOM     61  C   UNL A   1      42.878  30.295  35.831  1.00  0.00     0.049 A 
ATOM     62  H   UNL A   1      41.114  31.098  34.995  1.00  0.00     0.167 HD
ATOM     63  C   UNL A   1      42.655  29.138  33.653  1.00  0.00     0.074 A 
ATOM     64  C   UNL A   1      43.118  28.228  32.628  1.00  0.00     0.031 C 
ATOM     65  C   UNL A   1      43.319  29.385  34.807  1.00  0.00     0.031 A 
BRANCH  52  66
ATOM     66  C   UNL A   1      40.602  33.573  38.435  1.00  0.00    -0.014 A 
ATOM     67  C   UNL A   1      39.969  33.080  39.588  1.00  0.00     0.009 A 
ATOM     68  C   UNL A   1      41.326  34.772  38.519  1.00  0.00     0.009 A 
ATOM     69  C   UNL A   1      40.038  33.786  40.791  1.00  0.00     0.001 A 
ATOM     70  C   UNL A   1      41.418  35.461  39.731  1.00  0.00     0.001 A 
ATOM     71  C   UNL A   1      40.769  34.971  40.863  1.00  0.00     0.000 A 
ENDBRANCH  52  66
BRANCH  53  72
ATOM     72  C   UNL A   1      40.025  28.595  29.802  1.00  0.00    -0.014 A 
ATOM     73  C   UNL A   1      39.459  27.312  29.740  1.00  0.00     0.009 A 
ATOM     74  C   UNL A   1      40.581  29.144  28.636  1.00  0.00     0.009 A 
ATOM     75  C   UNL A   1      39.488  26.579  28.551  1.00  0.00     0.001 A 
ATOM     76  C   UNL A   1      40.578  28.424  27.439  1.00  0.00     0.001 A 
ATOM     77  C   UNL A   1      40.045  27.137  27.401  1.00  0.00     0.000 A 
ENDBRANCH  53  72
BRANCH  65  78
ATOM     78  C   UNL A   1      44.600  28.634  35.042  1.00  0.00    -0.014 A 
ATOM     79  C   UNL A   1      45.839  29.173  34.661  1.00  0.00     0.009 A 
ATOM     80  C   UNL A   1      44.570  27.399  35.709  1.00  0.00     0.009 A 
ATOM     81  C   UNL A   1      47.020  28.476  34.920  1.00  0.00     0.001 A 
ATOM     82  C   UNL A   1      45.755  26.720  35.994  1.00  0.00     0.001 A 
ATOM     83  C   UNL A   1      46.978  27.255  35.594  1.00  0.00     0.000 A 
ENDBRANCH  65  78
ENDBRANCH  39  40
ENDBRANCH  31  34
ENDBRANCH  29  30
ENDBRANCH  28  29
ENDBRANCH  27  28
ENDBRANCH   1  27
TORSDOF 16
ENDMDL
MODEL 3
REMARK VINA RESULT:     -11.3      2.570      7.247
REMARK SMILES CCNC(=O)c1cccc(-c2ccc(Cl)c(C(=O)NCCCCCCNC(=O)c3ccc(-c4c5nc(c(-c6ccccc6)c6ccc([nH]6)c(-c6ccccc6)c6nc(c(-c7ccccc7)c7ccc4[nH]7)C=C6)C=C5)cc3)c2)c1
REMARK SMILES IDX 22 1 21 2 20 3 19 4 17 5 18 6 16 8 11 9 12 10 77 11 13 12
REMARK SMILES IDX 14 13 15 14 10 15 6 16 7 17 78 18 8 19 9 20 4 21 3 22 5 24
REMARK SMILES IDX 2 25 1 26 23 27 24 28 25 29 26 30 27 31 28 33 29 34 30 35
REMARK SMILES IDX 76 36 31 37 75 38 32 39 33 40 34 41 69 42 35 43 74 44 68 45
REMARK SMILES IDX 70 46 36 47 73 48 67 49 66 50 37 52 59 53 44 54 58 55 45 56
REMARK SMILES IDX 48 57 57 58 71 59 46 60 47 61 56 63 72 64 49 65 38 66 39 67
REMARK SMILES IDX 43 68 40 69 42 70 41 71 60 72 61 73 65 74 62 75 64 76 63 77
REMARK SMILES IDX 50 78 51 79 55 80 52 81 54 82 53 83
REMARK H PARENT 19 7 3 23 26 32 70 51 48 62
REMARK Flexibility Score: inf
ROOT
ATOM      1  C   UNL A   1      37.341  22.028  24.508  1.00  0.00     0.002 C 
ENDROOT
BRANCH   1   2
ATOM      2  C   UNL A   1      37.558  23.007  25.659  1.00  0.00     0.021 C 
BRANCH   2   3
ATOM      3  C   UNL A   1      36.324  23.712  26.201  1.00  0.00     0.116 C 
BRANCH   3   4
ATOM      4  N   UNL A   1      35.444  22.885  27.019  1.00  0.00    -0.352 N 
ATOM      5  C   UNL A   1      34.254  22.231  26.747  1.00  0.00     0.252 C 
ATOM      6  O   UNL A   1      33.800  21.503  27.627  1.00  0.00    -0.269 OA
ATOM      7  H   UNL A   1      35.758  22.770  27.945  1.00  0.00     0.163 HD
BRANCH   5   8
ATOM      8  C   UNL A   1      33.528  22.395  25.450  1.00  0.00     0.059 A 
ATOM      9  C   UNL A   1      32.258  23.928  24.006  1.00  0.00    -0.017 A 
ATOM     10  C   UNL A   1      31.854  22.839  23.231  1.00  0.00     0.010 A 
ATOM     11  C   UNL A   1      33.205  23.684  25.015  1.00  0.00     0.024 A 
ATOM     12  C   UNL A   1      32.316  21.551  23.526  1.00  0.00     0.022 A 
ATOM     13  C   UNL A   1      33.113  21.318  24.658  1.00  0.00     0.053 A 
ATOM     14  Cl  UNL A   1      33.486  19.666  24.997  1.00  0.00    -0.083 Cl
BRANCH   9  15
ATOM     15  C   UNL A   1      31.653  25.269  23.886  1.00  0.00    -0.018 A 
ATOM     16  C   UNL A   1      31.901  27.696  23.702  1.00  0.00     0.040 A 
ATOM     17  C   UNL A   1      30.528  27.868  23.879  1.00  0.00     0.014 A 
ATOM     18  C   UNL A   1      32.455  26.413  23.757  1.00  0.00     0.022 A 
ATOM     19  C   UNL A   1      29.711  26.751  24.038  1.00  0.00     0.001 A 
ATOM     20  C   UNL A   1      30.267  25.466  24.025  1.00  0.00     0.009 A 
BRANCH  16  21
ATOM     21  C   UNL A   1      32.769  28.884  23.543  1.00  0.00     0.251 C 
ATOM     22  N   UNL A   1      33.068  29.683  24.619  1.00  0.00    -0.352 N 
ATOM     23  H   UNL A   1      33.540  30.517  24.393  1.00  0.00     0.163 HD
ATOM     24  O   UNL A   1      33.219  29.158  22.433  1.00  0.00    -0.269 OA
BRANCH  22  25
ATOM     25  C   UNL A   1      32.803  29.499  26.038  1.00  0.00     0.112 C 
ATOM     26  C   UNL A   1      33.745  28.485  26.653  1.00  0.00     0.027 C 
ENDBRANCH  22  25
ENDBRANCH  16  21
ENDBRANCH   9  15
ENDBRANCH   5   8
ENDBRANCH   3   4
ENDBRANCH   2   3
ENDBRANCH   1   2
BRANCH   1  27
ATOM     27  C   UNL A   1      36.947  20.599  24.891  1.00  0.00     0.002 C 
BRANCH  27  28
ATOM     28  C   UNL A   1      38.088  19.585  25.008  1.00  0.00     0.021 C 
BRANCH  28  29
ATOM     29  C   UNL A   1      39.326  20.063  25.761  1.00  0.00     0.116 C 
BRANCH  29  30
ATOM     30  N   UNL A   1      40.350  19.037  25.869  1.00  0.00    -0.352 N 
ATOM     31  C   UNL A   1      41.699  19.166  26.106  1.00  0.00     0.251 C 
ATOM     32  H   UNL A   1      40.032  18.113  25.756  1.00  0.00     0.163 HD
ATOM     33  O   UNL A   1      42.441  18.198  26.008  1.00  0.00    -0.269 OA
BRANCH  31  34
ATOM     34  C   UNL A   1      42.260  20.491  26.453  1.00  0.00     0.039 A 
ATOM     35  C   UNL A   1      42.833  21.266  25.441  1.00  0.00     0.014 A 
ATOM     36  C   UNL A   1      42.212  20.970  27.765  1.00  0.00     0.014 A 
ATOM     37  C   UNL A   1      43.278  22.559  25.729  1.00  0.00     0.010 A 
ATOM     38  C   UNL A   1      42.593  22.283  28.035  1.00  0.00     0.010 A 
ATOM     39  C   UNL A   1      43.116  23.095  27.016  1.00  0.00    -0.014 A 
BRANCH  39  40
ATOM     40  C   UNL A   1      43.451  24.512  27.314  1.00  0.00     0.031 A 
ATOM     41  C   UNL A   1      44.885  24.958  27.373  1.00  0.00     0.074 A 
ATOM     42  C   UNL A   1      42.460  25.381  27.603  1.00  0.00     0.049 A 
ATOM     43  N   UNL A   1      45.373  26.123  27.717  1.00  0.00    -0.248 NA
ATOM     44  C   UNL A   1      45.906  23.960  27.014  1.00  0.00     0.031 C 
ATOM     45  C   UNL A   1      41.029  25.069  27.600  1.00  0.00     0.029 A 
ATOM     46  N   UNL A   1      42.510  26.704  27.969  1.00  0.00    -0.354 N 
ATOM     47  C   UNL A   1      46.753  25.997  27.619  1.00  0.00     0.074 A 
ATOM     48  C   UNL A   1      47.028  24.631  27.233  1.00  0.00     0.031 C 
ATOM     49  C   UNL A   1      40.337  26.173  27.927  1.00  0.00     0.029 A 
ATOM     50  C   UNL A   1      41.274  27.253  28.216  1.00  0.00     0.049 A 
ATOM     51  H   UNL A   1      43.349  27.210  28.046  1.00  0.00     0.167 HD
ATOM     52  C   UNL A   1      47.704  26.942  27.811  1.00  0.00     0.031 A 
ATOM     53  C   UNL A   1      40.934  28.482  28.650  1.00  0.00     0.031 A 
ATOM     54  C   UNL A   1      47.432  28.299  28.203  1.00  0.00     0.049 A 
ATOM     55  C   UNL A   1      42.019  29.484  28.937  1.00  0.00     0.074 A 
ATOM     56  C   UNL A   1      48.329  29.336  28.396  1.00  0.00     0.029 A 
ATOM     57  N   UNL A   1      46.169  28.808  28.463  1.00  0.00    -0.354 N 
ATOM     58  N   UNL A   1      43.315  29.368  28.780  1.00  0.00    -0.248 NA
ATOM     59  C   UNL A   1      41.593  30.790  29.462  1.00  0.00     0.031 C 
ATOM     60  C   UNL A   1      47.614  30.456  28.829  1.00  0.00     0.029 A 
ATOM     61  C   UNL A   1      46.267  30.135  28.846  1.00  0.00     0.049 A 
ATOM     62  H   UNL A   1      45.329  28.300  28.388  1.00  0.00     0.167 HD
ATOM     63  C   UNL A   1      43.853  30.591  29.160  1.00  0.00     0.074 A 
ATOM     64  C   UNL A   1      42.744  31.442  29.531  1.00  0.00     0.031 C 
ATOM     65  C   UNL A   1      45.152  30.973  29.201  1.00  0.00     0.031 A 
BRANCH  52  66
ATOM     66  C   UNL A   1      49.137  26.541  27.599  1.00  0.00    -0.014 A 
ATOM     67  C   UNL A   1      49.922  26.077  28.666  1.00  0.00     0.009 A 
ATOM     68  C   UNL A   1      49.690  26.563  26.309  1.00  0.00     0.009 A 
ATOM     69  C   UNL A   1      51.240  25.669  28.452  1.00  0.00     0.001 A 
ATOM     70  C   UNL A   1      50.999  26.127  26.092  1.00  0.00     0.001 A 
ATOM     71  C   UNL A   1      51.775  25.688  27.164  1.00  0.00     0.000 A 
ENDBRANCH  52  66
BRANCH  53  72
ATOM     72  C   UNL A   1      39.506  28.843  28.864  1.00  0.00    -0.014 A 
ATOM     73  C   UNL A   1      38.892  28.610  30.105  1.00  0.00     0.009 A 
ATOM     74  C   UNL A   1      38.736  29.376  27.819  1.00  0.00     0.009 A 
ATOM     75  C   UNL A   1      37.530  28.863  30.281  1.00  0.00     0.001 A 
ATOM     76  C   UNL A   1      37.382  29.661  28.008  1.00  0.00     0.001 A 
ATOM     77  C   UNL A   1      36.776  29.391  29.233  1.00  0.00     0.000 A 
ENDBRANCH  53  72
BRANCH  65  78
ATOM     78  C   UNL A   1      45.445  32.383  29.629  1.00  0.00    -0.014 A 
ATOM     79  C   UNL A   1      45.713  32.695  30.972  1.00  0.00     0.009 A 
ATOM     80  C   UNL A   1      45.512  33.403  28.667  1.00  0.00     0.009 A 
ATOM     81  C   UNL A   1      46.018  34.006  31.343  1.00  0.00     0.001 A 
ATOM     82  C   UNL A   1      45.848  34.706  29.037  1.00  0.00     0.001 A 
ATOM     83  C   UNL A   1      46.093  35.007  30.376  1.00  0.00     0.000 A 
ENDBRANCH  65  78
ENDBRANCH  39  40
ENDBRANCH  31  34
ENDBRANCH  29  30
ENDBRANCH  28  29
ENDBRANCH  27  28
ENDBRANCH   1  27
TORSDOF 16
ENDMDL
