MODEL 1
REMARK VINA RESULT:     -11.1      0.000      0.000
REMARK SMILES O=C(NCCCCCCNC(=O)c1c(F)cccc1NS(=O)(=O)C(F)(F)F)c1ccc(-c2c3nc(c(-c4ccccc4)c4ccc([nH]4)c(-c4ccccc4)c4nc(c(-c5ccccc5)c5ccc2[nH]5)C=C4)C=C3)cc1
REMARK SMILES IDX 7 1 6 2 5 3 4 4 3 5 1 6 2 7 28 9 29 10 75 11 30 12 74 13
REMARK SMILES IDX 31 14 32 15 33 16 68 17 34 18 73 19 67 20 69 21 35 22 72 23
REMARK SMILES IDX 66 24 65 25 36 27 58 28 43 29 57 30 44 31 47 32 56 33 70 34
REMARK SMILES IDX 45 35 46 36 55 38 71 39 48 40 37 41 38 42 42 43 39 44 41 45
REMARK SMILES IDX 40 46 59 47 60 48 64 49 61 50 63 51 62 52 49 53 50 54 54 55
REMARK SMILES IDX 51 56 53 57 52 58 8 59 9 60 10 61 11 62 12 64 13 65 14 66
REMARK SMILES IDX 19 67 15 68 16 69 18 70 17 71 20 72 21 74 22 75 23 76 24 77
REMARK SMILES IDX 25 78 26 79 27 80
REMARK H PARENT 3 8 69 26 47 37 10 63 20 73
REMARK Flexibility Score: inf
ROOT
ATOM      1  C   UNL A   1      32.927  30.115  27.231  1.00  0.00     0.002 C 
ENDROOT
BRANCH   1   2
ATOM      2  C   UNL A   1      31.566  30.635  26.756  1.00  0.00     0.002 C 
BRANCH   2   3
ATOM      3  C   UNL A   1      31.403  32.154  26.757  1.00  0.00     0.021 C 
BRANCH   3   4
ATOM      4  C   UNL A   1      32.639  32.939  27.174  1.00  0.00     0.116 C 
BRANCH   4   5
ATOM      5  N   UNL A   1      32.332  34.270  27.671  1.00  0.00    -0.352 N 
ATOM      6  O   UNL A   1      32.489  36.051  29.054  1.00  0.00    -0.269 OA
ATOM      7  C   UNL A   1      32.952  34.979  28.673  1.00  0.00     0.251 C 
ATOM      8  H   UNL A   1      31.580  34.725  27.230  1.00  0.00     0.163 HD
BRANCH   7   9
ATOM      9  C   UNL A   1      34.166  34.429  29.318  1.00  0.00     0.039 A 
ATOM     10  C   UNL A   1      35.423  34.622  28.744  1.00  0.00     0.014 A 
ATOM     11  C   UNL A   1      34.043  33.706  30.508  1.00  0.00     0.014 A 
ATOM     12  C   UNL A   1      36.528  33.965  29.270  1.00  0.00     0.010 A 
ATOM     13  C   UNL A   1      35.175  33.122  31.089  1.00  0.00     0.010 A 
ATOM     14  C   UNL A   1      36.422  33.220  30.457  1.00  0.00    -0.014 A 
BRANCH  14  15
ATOM     15  C   UNL A   1      37.655  32.624  31.035  1.00  0.00     0.031 A 
ATOM     16  C   UNL A   1      38.232  33.109  32.335  1.00  0.00     0.074 A 
ATOM     17  C   UNL A   1      38.215  31.578  30.398  1.00  0.00     0.049 A 
ATOM     18  N   UNL A   1      39.240  32.622  33.016  1.00  0.00    -0.248 NA
ATOM     19  C   UNL A   1      37.610  34.292  32.951  1.00  0.00     0.031 C 
ATOM     20  C   UNL A   1      37.757  31.030  29.118  1.00  0.00     0.029 A 
ATOM     21  N   UNL A   1      39.258  30.763  30.753  1.00  0.00    -0.354 N 
ATOM     22  C   UNL A   1      39.380  33.439  34.131  1.00  0.00     0.074 A 
ATOM     23  C   UNL A   1      38.371  34.472  34.023  1.00  0.00     0.031 C 
ATOM     24  C   UNL A   1      38.467  29.930  28.831  1.00  0.00     0.029 A 
ATOM     25  C   UNL A   1      39.468  29.729  29.873  1.00  0.00     0.049 A 
ATOM     26  H   UNL A   1      39.804  30.904  31.561  1.00  0.00     0.167 HD
ATOM     27  C   UNL A   1      40.263  33.334  35.154  1.00  0.00     0.031 A 
ATOM     28  C   UNL A   1      40.366  28.729  29.895  1.00  0.00     0.031 A 
ATOM     29  C   UNL A   1      41.272  32.311  35.258  1.00  0.00     0.049 A 
ATOM     30  C   UNL A   1      41.331  28.640  31.038  1.00  0.00     0.074 A 
ATOM     31  C   UNL A   1      42.209  32.122  36.261  1.00  0.00     0.029 A 
ATOM     32  N   UNL A   1      41.475  31.304  34.327  1.00  0.00    -0.354 N 
ATOM     33  N   UNL A   1      41.429  29.409  32.095  1.00  0.00    -0.248 NA
ATOM     34  C   UNL A   1      42.306  27.543  30.993  1.00  0.00     0.031 C 
ATOM     35  C   UNL A   1      43.004  31.023  35.916  1.00  0.00     0.029 A 
ATOM     36  C   UNL A   1      42.530  30.499  34.725  1.00  0.00     0.049 A 
ATOM     37  H   UNL A   1      40.947  31.180  33.506  1.00  0.00     0.167 HD
ATOM     38  C   UNL A   1      42.476  28.889  32.841  1.00  0.00     0.074 A 
ATOM     39  C   UNL A   1      42.955  27.718  32.135  1.00  0.00     0.031 C 
ATOM     40  C   UNL A   1      43.004  29.348  34.001  1.00  0.00     0.031 A 
BRANCH  27  41
ATOM     41  C   UNL A   1      40.190  34.368  36.245  1.00  0.00    -0.014 A 
ATOM     42  C   UNL A   1      39.369  34.179  37.368  1.00  0.00     0.009 A 
ATOM     43  C   UNL A   1      40.998  35.513  36.180  1.00  0.00     0.009 A 
ATOM     44  C   UNL A   1      39.340  35.129  38.391  1.00  0.00     0.001 A 
ATOM     45  C   UNL A   1      40.985  36.451  37.215  1.00  0.00     0.001 A 
ATOM     46  C   UNL A   1      40.151  36.261  38.317  1.00  0.00     0.000 A 
ENDBRANCH  27  41
BRANCH  28  47
ATOM     47  C   UNL A   1      40.398  27.743  28.784  1.00  0.00    -0.014 A 
ATOM     48  C   UNL A   1      41.168  27.977  27.636  1.00  0.00     0.009 A 
ATOM     49  C   UNL A   1      39.661  26.551  28.878  1.00  0.00     0.009 A 
ATOM     50  C   UNL A   1      41.183  27.046  26.595  1.00  0.00     0.001 A 
ATOM     51  C   UNL A   1      39.703  25.608  27.850  1.00  0.00     0.001 A 
ATOM     52  C   UNL A   1      40.457  25.861  26.706  1.00  0.00     0.000 A 
ENDBRANCH  28  47
BRANCH  40  53
ATOM     53  C   UNL A   1      44.153  28.569  34.573  1.00  0.00    -0.014 A 
ATOM     54  C   UNL A   1      43.933  27.497  35.452  1.00  0.00     0.009 A 
ATOM     55  C   UNL A   1      45.469  28.910  34.228  1.00  0.00     0.009 A 
ATOM     56  C   UNL A   1      45.013  26.809  36.009  1.00  0.00     0.001 A 
ATOM     57  C   UNL A   1      46.545  28.203  34.766  1.00  0.00     0.001 A 
ATOM     58  C   UNL A   1      46.317  27.162  35.664  1.00  0.00     0.000 A 
ENDBRANCH  40  53
ENDBRANCH  14  15
ENDBRANCH   7   9
ENDBRANCH   4   5
ENDBRANCH   3   4
ENDBRANCH   2   3
ENDBRANCH   1   2
BRANCH   1  59
ATOM     59  C   UNL A   1      33.101  28.592  27.219  1.00  0.00     0.021 C 
BRANCH  59  60
ATOM     60  C   UNL A   1      33.955  28.046  26.075  1.00  0.00     0.116 C 
BRANCH  60  61
ATOM     61  N   UNL A   1      33.843  28.878  24.890  1.00  0.00    -0.352 N 
ATOM     62  C   UNL A   1      33.096  28.664  23.761  1.00  0.00     0.256 C 
ATOM     63  H   UNL A   1      34.376  29.705  24.898  1.00  0.00     0.163 HD
ATOM     64  O   UNL A   1      33.302  29.329  22.752  1.00  0.00    -0.269 OA
BRANCH  62  65
ATOM     65  C   UNL A   1      32.108  27.578  23.721  1.00  0.00     0.099 A 
ATOM     66  C   UNL A   1      32.556  26.259  23.598  1.00  0.00     0.138 A 
ATOM     67  C   UNL A   1      30.733  27.852  23.804  1.00  0.00     0.065 A 
ATOM     68  F   UNL A   1      33.866  25.980  23.532  1.00  0.00    -0.206 F 
ATOM     69  C   UNL A   1      31.654  25.206  23.497  1.00  0.00     0.040 A 
ATOM     70  C   UNL A   1      29.834  26.786  23.669  1.00  0.00     0.028 A 
ATOM     71  C   UNL A   1      30.289  25.472  23.525  1.00  0.00     0.005 A 
BRANCH  67  72
ATOM     72  N   UNL A   1      30.231  29.204  23.874  1.00  0.00    -0.275 N 
ATOM     73  H   UNL A   1      30.528  29.814  24.587  1.00  0.00     0.180 HD
BRANCH  72  74
ATOM     74  S   UNL A   1      29.107  29.724  22.689  1.00  0.00     0.333 S 
ATOM     75  O   UNL A   1      29.789  29.701  21.408  1.00  0.00    -0.197 OA
ATOM     76  O   UNL A   1      27.962  28.852  22.907  1.00  0.00    -0.197 OA
BRANCH  74  77
ATOM     77  C   UNL A   1      28.640  31.467  23.157  1.00  0.00     0.516 C 
ATOM     78  F   UNL A   1      28.964  32.368  22.184  1.00  0.00    -0.155 F 
ATOM     79  F   UNL A   1      27.297  31.597  23.367  1.00  0.00    -0.155 F 
ATOM     80  F   UNL A   1      29.252  31.885  24.300  1.00  0.00    -0.155 F 
ENDBRANCH  74  77
ENDBRANCH  72  74
ENDBRANCH  67  72
ENDBRANCH  62  65
ENDBRANCH  60  61
ENDBRANCH  59  60
ENDBRANCH   1  59
TORSDOF 16
ENDMDL
MODEL 2
REMARK VINA RESULT:     -11.0      2.655      3.523
REMARK SMILES O=C(NCCCCCCNC(=O)c1c(F)cccc1NS(=O)(=O)C(F)(F)F)c1ccc(-c2c3nc(c(-c4ccccc4)c4ccc([nH]4)c(-c4ccccc4)c4nc(c(-c5ccccc5)c5ccc2[nH]5)C=C4)C=C3)cc1
REMARK SMILES IDX 7 1 6 2 5 3 4 4 3 5 1 6 2 7 28 9 29 10 75 11 30 12 74 13
REMARK SMILES IDX 31 14 32 15 33 16 68 17 34 18 73 19 67 20 69 21 35 22 72 23
REMARK SMILES IDX 66 24 65 25 36 27 58 28 43 29 57 30 44 31 47 32 56 33 70 34
REMARK SMILES IDX 45 35 46 36 55 38 71 39 48 40 37 41 38 42 42 43 39 44 41 45
REMARK SMILES IDX 40 46 59 47 60 48 64 49 61 50 63 51 62 52 49 53 50 54 54 55
REMARK SMILES IDX 51 56 53 57 52 58 8 59 9 60 10 61 11 62 12 64 13 65 14 66
REMARK SMILES IDX 19 67 15 68 16 69 18 70 17 71 20 72 21 74 22 75 23 76 24 77
REMARK SMILES IDX 25 78 26 79 27 80
REMARK H PARENT 3 8 69 26 47 37 10 63 20 73
REMARK Flexibility Score: inf
ROOT
ATOM      1  C   UNL A   1      32.228  29.581  27.078  1.00  0.00     0.002 C 
ENDROOT
BRANCH   1   2
ATOM      2  C   UNL A   1      31.570  30.536  26.077  1.00  0.00     0.002 C 
BRANCH   2   3
ATOM      3  C   UNL A   1      31.402  31.978  26.553  1.00  0.00     0.021 C 
BRANCH   3   4
ATOM      4  C   UNL A   1      32.589  32.554  27.312  1.00  0.00     0.116 C 
BRANCH   4   5
ATOM      5  N   UNL A   1      32.367  33.912  27.779  1.00  0.00    -0.352 N 
ATOM      6  O   UNL A   1      32.729  35.755  29.036  1.00  0.00    -0.269 OA
ATOM      7  C   UNL A   1      33.125  34.658  28.651  1.00  0.00     0.251 C 
ATOM      8  H   UNL A   1      31.567  34.359  27.421  1.00  0.00     0.163 HD
BRANCH   7   9
ATOM      9  C   UNL A   1      34.409  34.119  29.153  1.00  0.00     0.039 A 
ATOM     10  C   UNL A   1      35.600  34.376  28.474  1.00  0.00     0.014 A 
ATOM     11  C   UNL A   1      34.419  33.339  30.314  1.00  0.00     0.014 A 
ATOM     12  C   UNL A   1      36.768  33.732  28.862  1.00  0.00     0.010 A 
ATOM     13  C   UNL A   1      35.616  32.767  30.759  1.00  0.00     0.010 A 
ATOM     14  C   UNL A   1      36.795  32.932  30.018  1.00  0.00    -0.014 A 
BRANCH  14  15
ATOM     15  C   UNL A   1      38.093  32.350  30.449  1.00  0.00     0.031 A 
ATOM     16  C   UNL A   1      38.888  32.944  31.577  1.00  0.00     0.074 A 
ATOM     17  C   UNL A   1      38.515  31.222  29.847  1.00  0.00     0.049 A 
ATOM     18  N   UNL A   1      39.984  32.490  32.135  1.00  0.00    -0.248 NA
ATOM     19  C   UNL A   1      38.404  34.208  32.154  1.00  0.00     0.031 C 
ATOM     20  C   UNL A   1      37.840  30.562  28.726  1.00  0.00     0.029 A 
ATOM     21  N   UNL A   1      39.585  30.407  30.115  1.00  0.00    -0.354 N 
ATOM     22  C   UNL A   1      40.325  33.412  33.117  1.00  0.00     0.074 A 
ATOM     23  C   UNL A   1      39.336  34.468  33.062  1.00  0.00     0.031 C 
ATOM     24  C   UNL A   1      38.468  29.411  28.450  1.00  0.00     0.029 A 
ATOM     25  C   UNL A   1      39.622  29.280  29.330  1.00  0.00     0.049 A 
ATOM     26  H   UNL A   1      40.260  30.609  30.803  1.00  0.00     0.167 HD
ATOM     27  C   UNL A   1      41.363  33.378  33.988  1.00  0.00     0.031 A 
ATOM     28  C   UNL A   1      40.489  28.252  29.315  1.00  0.00     0.031 A 
ATOM     29  C   UNL A   1      42.352  32.332  34.037  1.00  0.00     0.049 A 
ATOM     30  C   UNL A   1      41.628  28.243  30.289  1.00  0.00     0.074 A 
ATOM     31  C   UNL A   1      43.438  32.210  34.889  1.00  0.00     0.029 A 
ATOM     32  N   UNL A   1      42.376  31.226  33.202  1.00  0.00    -0.354 N 
ATOM     33  N   UNL A   1      41.917  29.113  31.226  1.00  0.00    -0.248 NA
ATOM     34  C   UNL A   1      42.557  27.109  30.206  1.00  0.00     0.031 C 
ATOM     35  C   UNL A   1      44.140  31.050  34.542  1.00  0.00     0.029 A 
ATOM     36  C   UNL A   1      43.463  30.425  33.508  1.00  0.00     0.049 A 
ATOM     37  H   UNL A   1      41.716  31.039  32.495  1.00  0.00     0.167 HD
ATOM     38  C   UNL A   1      43.061  28.632  31.844  1.00  0.00     0.074 A 
ATOM     39  C   UNL A   1      43.390  27.376  31.202  1.00  0.00     0.031 C 
ATOM     40  C   UNL A   1      43.784  29.187  32.847  1.00  0.00     0.031 A 
BRANCH  27  41
ATOM     41  C   UNL A   1      41.495  34.521  34.957  1.00  0.00    -0.014 A 
ATOM     42  C   UNL A   1      40.882  34.476  36.219  1.00  0.00     0.009 A 
ATOM     43  C   UNL A   1      42.293  35.629  34.629  1.00  0.00     0.009 A 
ATOM     44  C   UNL A   1      41.045  35.527  37.123  1.00  0.00     0.001 A 
ATOM     45  C   UNL A   1      42.472  36.669  35.544  1.00  0.00     0.001 A 
ATOM     46  C   UNL A   1      41.844  36.620  36.787  1.00  0.00     0.000 A 
ENDBRANCH  27  41
BRANCH  28  47
ATOM     47  C   UNL A   1      40.314  27.155  28.328  1.00  0.00    -0.014 A 
ATOM     48  C   UNL A   1      40.906  27.229  27.059  1.00  0.00     0.009 A 
ATOM     49  C   UNL A   1      39.559  26.020  28.663  1.00  0.00     0.009 A 
ATOM     50  C   UNL A   1      40.727  26.195  26.137  1.00  0.00     0.001 A 
ATOM     51  C   UNL A   1      39.408  24.974  27.750  1.00  0.00     0.001 A 
ATOM     52  C   UNL A   1      39.985  25.067  26.486  1.00  0.00     0.000 A 
ENDBRANCH  28  47
BRANCH  40  53
ATOM     53  C   UNL A   1      44.994  28.426  33.305  1.00  0.00    -0.014 A 
ATOM     54  C   UNL A   1      44.900  27.464  34.323  1.00  0.00     0.009 A 
ATOM     55  C   UNL A   1      46.242  28.674  32.713  1.00  0.00     0.009 A 
ATOM     56  C   UNL A   1      46.041  26.795  34.768  1.00  0.00     0.001 A 
ATOM     57  C   UNL A   1      47.376  27.984  33.143  1.00  0.00     0.001 A 
ATOM     58  C   UNL A   1      47.277  27.054  34.177  1.00  0.00     0.000 A 
ENDBRANCH  40  53
ENDBRANCH  14  15
ENDBRANCH   7   9
ENDBRANCH   4   5
ENDBRANCH   3   4
ENDBRANCH   2   3
ENDBRANCH   1   2
BRANCH   1  59
ATOM     59  C   UNL A   1      31.421  28.328  27.437  1.00  0.00     0.021 C 
BRANCH  59  60
ATOM     60  C   UNL A   1      31.388  27.248  26.356  1.00  0.00     0.116 C 
BRANCH  60  61
ATOM     61  N   UNL A   1      32.468  26.294  26.529  1.00  0.00    -0.352 N 
ATOM     62  C   UNL A   1      33.428  25.916  25.629  1.00  0.00     0.256 C 
ATOM     63  H   UNL A   1      32.516  25.860  27.412  1.00  0.00     0.163 HD
ATOM     64  O   UNL A   1      34.114  24.921  25.842  1.00  0.00    -0.269 OA
BRANCH  62  65
ATOM     65  C   UNL A   1      33.583  26.642  24.362  1.00  0.00     0.099 A 
ATOM     66  C   UNL A   1      34.139  27.925  24.380  1.00  0.00     0.138 A 
ATOM     67  C   UNL A   1      33.181  26.064  23.146  1.00  0.00     0.065 A 
ATOM     68  F   UNL A   1      34.540  28.485  25.530  1.00  0.00    -0.206 F 
ATOM     69  C   UNL A   1      34.249  28.670  23.212  1.00  0.00     0.040 A 
ATOM     70  C   UNL A   1      33.268  26.837  21.982  1.00  0.00     0.028 A 
ATOM     71  C   UNL A   1      33.805  28.128  22.011  1.00  0.00     0.005 A 
BRANCH  67  72
ATOM     72  N   UNL A   1      32.551  24.765  23.095  1.00  0.00    -0.275 N 
ATOM     73  H   UNL A   1      31.638  24.636  23.438  1.00  0.00     0.180 HD
BRANCH  72  74
ATOM     74  S   UNL A   1      33.428  23.455  22.422  1.00  0.00     0.333 S 
ATOM     75  O   UNL A   1      33.253  23.513  20.982  1.00  0.00    -0.197 OA
ATOM     76  O   UNL A   1      34.758  23.615  22.989  1.00  0.00    -0.197 OA
BRANCH  74  77
ATOM     77  C   UNL A   1      32.653  21.910  23.120  1.00  0.00     0.516 C 
ATOM     78  F   UNL A   1      31.666  22.188  24.020  1.00  0.00    -0.155 F 
ATOM     79  F   UNL A   1      32.078  21.143  22.146  1.00  0.00    -0.155 F 
ATOM     80  F   UNL A   1      33.555  21.113  23.757  1.00  0.00    -0.155 F 
ENDBRANCH  74  77
ENDBRANCH  72  74
ENDBRANCH  67  72
ENDBRANCH  62  65
ENDBRANCH  60  61
ENDBRANCH  59  60
ENDBRANCH   1  59
TORSDOF 16
ENDMDL
MODEL 3
REMARK VINA RESULT:     -10.9      2.455      3.948
REMARK SMILES O=C(NCCCCCCNC(=O)c1c(F)cccc1NS(=O)(=O)C(F)(F)F)c1ccc(-c2c3nc(c(-c4ccccc4)c4ccc([nH]4)c(-c4ccccc4)c4nc(c(-c5ccccc5)c5ccc2[nH]5)C=C4)C=C3)cc1
REMARK SMILES IDX 7 1 6 2 5 3 4 4 3 5 1 6 2 7 28 9 29 10 75 11 30 12 74 13
REMARK SMILES IDX 31 14 32 15 33 16 68 17 34 18 73 19 67 20 69 21 35 22 72 23
REMARK SMILES IDX 66 24 65 25 36 27 58 28 43 29 57 30 44 31 47 32 56 33 70 34
REMARK SMILES IDX 45 35 46 36 55 38 71 39 48 40 37 41 38 42 42 43 39 44 41 45
REMARK SMILES IDX 40 46 59 47 60 48 64 49 61 50 63 51 62 52 49 53 50 54 54 55
REMARK SMILES IDX 51 56 53 57 52 58 8 59 9 60 10 61 11 62 12 64 13 65 14 66
REMARK SMILES IDX 19 67 15 68 16 69 18 70 17 71 20 72 21 74 22 75 23 76 24 77
REMARK SMILES IDX 25 78 26 79 27 80
REMARK H PARENT 3 8 69 26 47 37 10 63 20 73
REMARK Flexibility Score: inf
ROOT
ATOM      1  C   UNL A   1      30.356  29.736  24.099  1.00  0.00     0.002 C 
ENDROOT
BRANCH   1   2
ATOM      2  C   UNL A   1      31.403  30.053  25.171  1.00  0.00     0.002 C 
BRANCH   2   3
ATOM      3  C   UNL A   1      31.134  31.303  26.007  1.00  0.00     0.021 C 
BRANCH   3   4
ATOM      4  C   UNL A   1      32.324  31.816  26.807  1.00  0.00     0.116 C 
BRANCH   4   5
ATOM      5  N   UNL A   1      32.133  33.163  27.319  1.00  0.00    -0.352 N 
ATOM      6  O   UNL A   1      32.574  34.976  28.595  1.00  0.00    -0.269 OA
ATOM      7  C   UNL A   1      32.944  33.888  28.159  1.00  0.00     0.251 C 
ATOM      8  H   UNL A   1      31.312  33.617  27.023  1.00  0.00     0.163 HD
BRANCH   7   9
ATOM      9  C   UNL A   1      34.256  33.339  28.568  1.00  0.00     0.039 A 
ATOM     10  C   UNL A   1      34.352  32.463  29.649  1.00  0.00     0.014 A 
ATOM     11  C   UNL A   1      35.405  33.711  27.864  1.00  0.00     0.014 A 
ATOM     12  C   UNL A   1      35.604  32.085  30.121  1.00  0.00     0.010 A 
ATOM     13  C   UNL A   1      36.659  33.253  28.284  1.00  0.00     0.010 A 
ATOM     14  C   UNL A   1      36.772  32.462  29.436  1.00  0.00    -0.014 A 
BRANCH  14  15
ATOM     15  C   UNL A   1      38.078  31.945  29.921  1.00  0.00     0.031 A 
ATOM     16  C   UNL A   1      38.826  32.615  31.039  1.00  0.00     0.074 A 
ATOM     17  C   UNL A   1      38.552  30.807  29.380  1.00  0.00     0.049 A 
ATOM     18  N   UNL A   1      39.923  32.224  31.641  1.00  0.00    -0.248 NA
ATOM     19  C   UNL A   1      38.287  33.886  31.547  1.00  0.00     0.031 C 
ATOM     20  C   UNL A   1      37.925  30.076  28.274  1.00  0.00     0.029 A 
ATOM     21  N   UNL A   1      39.641  30.042  29.707  1.00  0.00    -0.354 N 
ATOM     22  C   UNL A   1      40.210  33.199  32.587  1.00  0.00     0.074 A 
ATOM     23  C   UNL A   1      39.188  34.217  32.463  1.00  0.00     0.031 C 
ATOM     24  C   UNL A   1      38.598  28.936  28.064  1.00  0.00     0.029 A 
ATOM     25  C   UNL A   1      39.734  28.883  28.975  1.00  0.00     0.049 A 
ATOM     26  H   UNL A   1      40.293  30.297  30.400  1.00  0.00     0.167 HD
ATOM     27  C   UNL A   1      41.228  33.239  33.481  1.00  0.00     0.031 A 
ATOM     28  C   UNL A   1      40.635  27.886  29.024  1.00  0.00     0.031 A 
ATOM     29  C   UNL A   1      42.249  32.231  33.600  1.00  0.00     0.049 A 
ATOM     30  C   UNL A   1      41.750  27.959  30.023  1.00  0.00     0.074 A 
ATOM     31  C   UNL A   1      43.318  32.184  34.480  1.00  0.00     0.029 A 
ATOM     32  N   UNL A   1      42.330  31.091  32.815  1.00  0.00    -0.354 N 
ATOM     33  N   UNL A   1      41.988  28.879  30.926  1.00  0.00    -0.248 NA
ATOM     34  C   UNL A   1      42.718  26.855  30.011  1.00  0.00     0.031 C 
ATOM     35  C   UNL A   1      44.066  31.034  34.200  1.00  0.00     0.029 A 
ATOM     36  C   UNL A   1      43.436  30.341  33.180  1.00  0.00     0.049 A 
ATOM     37  H   UNL A   1      41.693  30.850  32.103  1.00  0.00     0.167 HD
ATOM     38  C   UNL A   1      43.133  28.465  31.590  1.00  0.00     0.074 A 
ATOM     39  C   UNL A   1      43.518  27.193  31.012  1.00  0.00     0.031 C 
ATOM     40  C   UNL A   1      43.813  29.087  32.582  1.00  0.00     0.031 A 
BRANCH  27  41
ATOM     41  C   UNL A   1      41.299  34.428  34.401  1.00  0.00    -0.014 A 
ATOM     42  C   UNL A   1      41.994  35.590  34.031  1.00  0.00     0.009 A 
ATOM     43  C   UNL A   1      40.613  34.408  35.625  1.00  0.00     0.009 A 
ATOM     44  C   UNL A   1      42.020  36.699  34.879  1.00  0.00     0.001 A 
ATOM     45  C   UNL A   1      40.621  35.527  36.461  1.00  0.00     0.001 A 
ATOM     46  C   UNL A   1      41.330  36.669  36.090  1.00  0.00     0.000 A 
ENDBRANCH  27  41
BRANCH  28  47
ATOM     47  C   UNL A   1      40.520  26.742  28.084  1.00  0.00    -0.014 A 
ATOM     48  C   UNL A   1      41.129  26.785  26.821  1.00  0.00     0.009 A 
ATOM     49  C   UNL A   1      39.806  25.591  28.457  1.00  0.00     0.009 A 
ATOM     50  C   UNL A   1      41.006  25.706  25.942  1.00  0.00     0.001 A 
ATOM     51  C   UNL A   1      39.712  24.503  27.589  1.00  0.00     0.001 A 
ATOM     52  C   UNL A   1      40.304  24.565  26.329  1.00  0.00     0.000 A 
ENDBRANCH  28  47
BRANCH  40  53
ATOM     53  C   UNL A   1      45.037  28.389  33.101  1.00  0.00    -0.014 A 
ATOM     54  C   UNL A   1      46.302  28.642  32.548  1.00  0.00     0.009 A 
ATOM     55  C   UNL A   1      44.923  27.468  34.153  1.00  0.00     0.009 A 
ATOM     56  C   UNL A   1      47.424  27.953  33.012  1.00  0.00     0.001 A 
ATOM     57  C   UNL A   1      46.051  26.801  34.632  1.00  0.00     0.001 A 
ATOM     58  C   UNL A   1      47.298  27.035  34.054  1.00  0.00     0.000 A 
ENDBRANCH  40  53
ENDBRANCH  14  15
ENDBRANCH   7   9
ENDBRANCH   4   5
ENDBRANCH   3   4
ENDBRANCH   2   3
ENDBRANCH   1   2
BRANCH   1  59
ATOM     59  C   UNL A   1      30.901  29.199  22.770  1.00  0.00     0.021 C 
BRANCH  59  60
ATOM     60  C   UNL A   1      30.594  27.729  22.490  1.00  0.00     0.116 C 
BRANCH  60  61
ATOM     61  N   UNL A   1      31.629  27.119  21.674  1.00  0.00    -0.352 N 
ATOM     62  C   UNL A   1      32.799  26.531  22.075  1.00  0.00     0.256 C 
ATOM     63  H   UNL A   1      31.469  27.131  20.703  1.00  0.00     0.163 HD
ATOM     64  O   UNL A   1      33.678  26.288  21.255  1.00  0.00    -0.269 OA
BRANCH  62  65
ATOM     65  C   UNL A   1      33.047  26.270  23.499  1.00  0.00     0.099 A 
ATOM     66  C   UNL A   1      33.663  27.259  24.272  1.00  0.00     0.138 A 
ATOM     67  C   UNL A   1      32.677  25.047  24.083  1.00  0.00     0.065 A 
ATOM     68  F   UNL A   1      34.010  28.437  23.733  1.00  0.00    -0.206 F 
ATOM     69  C   UNL A   1      33.970  27.032  25.608  1.00  0.00     0.040 A 
ATOM     70  C   UNL A   1      33.020  24.818  25.421  1.00  0.00     0.028 A 
ATOM     71  C   UNL A   1      33.654  25.805  26.182  1.00  0.00     0.005 A 
BRANCH  67  72
ATOM     72  N   UNL A   1      32.092  23.981  23.304  1.00  0.00    -0.275 N 
ATOM     73  H   UNL A   1      31.141  24.006  23.052  1.00  0.00     0.180 HD
BRANCH  72  74
ATOM     74  S   UNL A   1      33.089  22.670  22.827  1.00  0.00     0.333 S 
ATOM     75  O   UNL A   1      32.428  22.005  21.720  1.00  0.00    -0.197 OA
ATOM     76  O   UNL A   1      34.386  23.296  22.615  1.00  0.00    -0.197 OA
BRANCH  74  77
ATOM     77  C   UNL A   1      33.194  21.542  24.307  1.00  0.00     0.516 C 
ATOM     78  F   UNL A   1      34.295  21.796  25.073  1.00  0.00    -0.155 F 
ATOM     79  F   UNL A   1      32.115  21.681  25.132  1.00  0.00    -0.155 F 
ATOM     80  F   UNL A   1      33.249  20.227  23.961  1.00  0.00    -0.155 F 
ENDBRANCH  74  77
ENDBRANCH  72  74
ENDBRANCH  67  72
ENDBRANCH  62  65
ENDBRANCH  60  61
ENDBRANCH  59  60
ENDBRANCH   1  59
TORSDOF 16
ENDMDL
