MODEL 1
REMARK VINA RESULT:     -11.1      0.000      0.000
REMARK SMILES O=C(Nc1cccc(F)c1)N[C@@H]1C=C[C@@H](C(=O)NCCCCCCNC(=O)c2ccc(-c3c4nc(c(-c5ccccc5)c5ccc([nH]5)c(-c5ccccc5)c5nc(c(-c6ccccc6)c6ccc3[nH]6)C=C5)C=C4)cc2)C1
REMARK SMILES IDX 21 1 20 2 19 3 18 4 16 5 17 6 15 8 12 9 13 10 76 11 14 12
REMARK SMILES IDX 11 13 1 14 2 15 3 16 4 19 5 20 10 21 6 22 8 23 7 24 9 25
REMARK SMILES IDX 22 26 23 27 24 28 25 29 26 30 27 32 28 33 29 34 75 35 30 36
REMARK SMILES IDX 74 37 31 38 32 39 33 40 68 41 34 42 73 43 67 44 69 45 35 46
REMARK SMILES IDX 72 47 66 48 65 49 36 51 58 52 43 53 57 54 44 55 47 56 56 57
REMARK SMILES IDX 70 58 45 59 46 60 55 62 71 63 48 64 37 65 38 66 42 67 39 68
REMARK SMILES IDX 41 69 40 70 59 71 60 72 64 73 61 74 63 75 62 76 49 77 50 78
REMARK SMILES IDX 54 79 51 80 53 81 52 82
REMARK H PARENT 18 7 3 17 11 18 25 31 69 50 47 61
REMARK Flexibility Score: inf
ROOT
ATOM      1  C   UNL A   1      35.045  21.544  26.204  1.00  0.00     0.002 C 
ENDROOT
BRANCH   1   2
ATOM      2  C   UNL A   1      34.760  20.614  25.023  1.00  0.00     0.021 C 
BRANCH   2   3
ATOM      3  C   UNL A   1      33.357  20.018  25.025  1.00  0.00     0.116 C 
BRANCH   3   4
ATOM      4  N   UNL A   1      32.740  20.108  23.717  1.00  0.00    -0.356 N 
ATOM      5  C   UNL A   1      32.264  21.186  23.034  1.00  0.00     0.227 C 
ATOM      6  O   UNL A   1      31.781  20.978  21.917  1.00  0.00    -0.274 OA
ATOM      7  H   UNL A   1      32.652  19.249  23.244  1.00  0.00     0.163 HD
BRANCH   5   8
ATOM      8  C   UNL A   1      32.302  22.602  23.615  1.00  0.00     0.103 C 
ATOM      9  C   UNL A   1      31.871  24.820  22.668  1.00  0.00     0.107 C 
ATOM     10  C   UNL A   1      30.702  24.321  23.448  1.00  0.00    -0.006 C 
ATOM     11  C   UNL A   1      32.872  23.658  22.660  1.00  0.00     0.047 C 
ATOM     12  C   UNL A   1      30.938  23.114  23.975  1.00  0.00    -0.016 C 
BRANCH   9  13
ATOM     13  N   UNL A   1      32.404  26.044  23.216  1.00  0.00    -0.332 N 
ATOM     14  O   UNL A   1      33.895  26.629  21.574  1.00  0.00    -0.248 OA
ATOM     15  C   UNL A   1      33.367  26.831  22.662  1.00  0.00     0.319 C 
ATOM     16  N   UNL A   1      33.710  27.959  23.349  1.00  0.00    -0.308 N 
ATOM     17  H   UNL A   1      34.290  28.573  22.844  1.00  0.00     0.171 HD
ATOM     18  H   UNL A   1      32.033  26.341  24.078  1.00  0.00     0.165 HD
BRANCH  16  19
ATOM     19  C   UNL A   1      33.391  28.411  24.640  1.00  0.00     0.045 A 
ATOM     20  C   UNL A   1      33.825  27.792  25.818  1.00  0.00     0.026 A 
ATOM     21  C   UNL A   1      32.597  29.556  24.729  1.00  0.00     0.065 A 
ATOM     22  C   UNL A   1      33.391  28.251  27.065  1.00  0.00     0.005 A 
ATOM     23  C   UNL A   1      32.167  30.003  25.972  1.00  0.00     0.125 A 
ATOM     24  C   UNL A   1      32.542  29.352  27.141  1.00  0.00     0.039 A 
ATOM     25  F   UNL A   1      31.361  31.070  26.042  1.00  0.00    -0.207 F 
ENDBRANCH  16  19
ENDBRANCH   9  13
ENDBRANCH   5   8
ENDBRANCH   3   4
ENDBRANCH   2   3
ENDBRANCH   1   2
BRANCH   1  26
ATOM     26  C   UNL A   1      35.007  23.039  25.874  1.00  0.00     0.002 C 
BRANCH  26  27
ATOM     27  C   UNL A   1      36.313  23.794  26.123  1.00  0.00     0.021 C 
BRANCH  27  28
ATOM     28  C   UNL A   1      37.368  23.608  25.039  1.00  0.00     0.116 C 
BRANCH  28  29
ATOM     29  N   UNL A   1      38.412  22.679  25.440  1.00  0.00    -0.352 N 
ATOM     30  C   UNL A   1      39.554  22.928  26.161  1.00  0.00     0.251 C 
ATOM     31  H   UNL A   1      38.284  21.746  25.154  1.00  0.00     0.163 HD
ATOM     32  O   UNL A   1      40.429  22.076  26.267  1.00  0.00    -0.269 OA
BRANCH  30  33
ATOM     33  C   UNL A   1      39.726  24.250  26.795  1.00  0.00     0.039 A 
ATOM     34  C   UNL A   1      39.255  24.449  28.095  1.00  0.00     0.014 A 
ATOM     35  C   UNL A   1      40.381  25.277  26.112  1.00  0.00     0.014 A 
ATOM     36  C   UNL A   1      39.501  25.664  28.737  1.00  0.00     0.010 A 
ATOM     37  C   UNL A   1      40.688  26.456  26.778  1.00  0.00     0.010 A 
ATOM     38  C   UNL A   1      40.250  26.662  28.097  1.00  0.00    -0.014 A 
BRANCH  38  39
ATOM     39  C   UNL A   1      40.585  27.943  28.765  1.00  0.00     0.031 A 
ATOM     40  C   UNL A   1      41.914  28.099  29.450  1.00  0.00     0.074 A 
ATOM     41  C   UNL A   1      39.666  28.925  28.841  1.00  0.00     0.049 A 
ATOM     42  N   UNL A   1      42.342  29.070  30.215  1.00  0.00    -0.248 NA
ATOM     43  C   UNL A   1      42.878  27.001  29.273  1.00  0.00     0.031 C 
ATOM     44  C   UNL A   1      38.332  28.889  28.238  1.00  0.00     0.029 A 
ATOM     45  N   UNL A   1      39.709  30.140  29.480  1.00  0.00    -0.354 N 
ATOM     46  C   UNL A   1      43.613  28.690  30.627  1.00  0.00     0.074 A 
ATOM     47  C   UNL A   1      43.865  27.378  30.071  1.00  0.00     0.031 C 
ATOM     48  C   UNL A   1      37.689  30.033  28.526  1.00  0.00     0.029 A 
ATOM     49  C   UNL A   1      38.544  30.859  29.375  1.00  0.00     0.049 A 
ATOM     50  H   UNL A   1      40.502  30.466  29.966  1.00  0.00     0.167 HD
ATOM     51  C   UNL A   1      44.498  29.377  31.385  1.00  0.00     0.031 A 
ATOM     52  C   UNL A   1      38.191  32.040  29.919  1.00  0.00     0.031 A 
ATOM     53  C   UNL A   1      44.247  30.683  31.933  1.00  0.00     0.049 A 
ATOM     54  C   UNL A   1      39.177  32.770  30.792  1.00  0.00     0.074 A 
ATOM     55  C   UNL A   1      45.094  31.481  32.682  1.00  0.00     0.029 A 
ATOM     56  N   UNL A   1      43.058  31.382  31.790  1.00  0.00    -0.354 N 
ATOM     57  N   UNL A   1      40.393  32.418  31.136  1.00  0.00    -0.248 NA
ATOM     58  C   UNL A   1      38.745  34.061  31.346  1.00  0.00     0.031 C 
ATOM     59  C   UNL A   1      44.398  32.640  33.037  1.00  0.00     0.029 A 
ATOM     60  C   UNL A   1      43.142  32.592  32.455  1.00  0.00     0.049 A 
ATOM     61  H   UNL A   1      42.272  31.064  31.289  1.00  0.00     0.167 HD
ATOM     62  C   UNL A   1      40.883  33.460  31.913  1.00  0.00     0.074 A 
ATOM     63  C   UNL A   1      39.836  34.457  31.988  1.00  0.00     0.031 C 
ATOM     64  C   UNL A   1      42.095  33.581  32.506  1.00  0.00     0.031 A 
BRANCH  51  65
ATOM     65  C   UNL A   1      45.818  28.718  31.677  1.00  0.00    -0.014 A 
ATOM     66  C   UNL A   1      46.925  28.899  30.831  1.00  0.00     0.009 A 
ATOM     67  C   UNL A   1      45.965  27.927  32.826  1.00  0.00     0.009 A 
ATOM     68  C   UNL A   1      48.138  28.264  31.108  1.00  0.00     0.001 A 
ATOM     69  C   UNL A   1      47.189  27.320  33.117  1.00  0.00     0.001 A 
ATOM     70  C   UNL A   1      48.270  27.480  32.252  1.00  0.00     0.000 A 
ENDBRANCH  51  65
BRANCH  52  71
ATOM     71  C   UNL A   1      36.842  32.608  29.658  1.00  0.00    -0.014 A 
ATOM     72  C   UNL A   1      36.606  33.392  28.520  1.00  0.00     0.009 A 
ATOM     73  C   UNL A   1      35.782  32.368  30.548  1.00  0.00     0.009 A 
ATOM     74  C   UNL A   1      35.345  33.947  28.291  1.00  0.00     0.001 A 
ATOM     75  C   UNL A   1      34.515  32.900  30.300  1.00  0.00     0.001 A 
ATOM     76  C   UNL A   1      34.300  33.696  29.178  1.00  0.00     0.000 A 
ENDBRANCH  52  71
BRANCH  64  77
ATOM     77  C   UNL A   1      42.387  34.856  33.245  1.00  0.00    -0.014 A 
ATOM     78  C   UNL A   1      43.077  35.915  32.636  1.00  0.00     0.009 A 
ATOM     79  C   UNL A   1      41.886  35.028  34.546  1.00  0.00     0.009 A 
ATOM     80  C   UNL A   1      43.273  37.115  33.322  1.00  0.00     0.001 A 
ATOM     81  C   UNL A   1      42.059  36.238  35.218  1.00  0.00     0.001 A 
ATOM     82  C   UNL A   1      42.756  37.278  34.607  1.00  0.00     0.000 A 
ENDBRANCH  64  77
ENDBRANCH  38  39
ENDBRANCH  30  33
ENDBRANCH  28  29
ENDBRANCH  27  28
ENDBRANCH  26  27
ENDBRANCH   1  26
TORSDOF 15
ENDMDL
MODEL 2
REMARK VINA RESULT:     -10.9      2.536      7.758
REMARK SMILES O=C(Nc1cccc(F)c1)N[C@@H]1C=C[C@@H](C(=O)NCCCCCCNC(=O)c2ccc(-c3c4nc(c(-c5ccccc5)c5ccc([nH]5)c(-c5ccccc5)c5nc(c(-c6ccccc6)c6ccc3[nH]6)C=C5)C=C4)cc2)C1
REMARK SMILES IDX 21 1 20 2 19 3 18 4 16 5 17 6 15 8 12 9 13 10 76 11 14 12
REMARK SMILES IDX 11 13 1 14 2 15 3 16 4 19 5 20 10 21 6 22 8 23 7 24 9 25
REMARK SMILES IDX 22 26 23 27 24 28 25 29 26 30 27 32 28 33 29 34 75 35 30 36
REMARK SMILES IDX 74 37 31 38 32 39 33 40 68 41 34 42 73 43 67 44 69 45 35 46
REMARK SMILES IDX 72 47 66 48 65 49 36 51 58 52 43 53 57 54 44 55 47 56 56 57
REMARK SMILES IDX 70 58 45 59 46 60 55 62 71 63 48 64 37 65 38 66 42 67 39 68
REMARK SMILES IDX 41 69 40 70 59 71 60 72 64 73 61 74 63 75 62 76 49 77 50 78
REMARK SMILES IDX 54 79 51 80 53 81 52 82
REMARK H PARENT 18 7 3 17 11 18 25 31 69 50 47 61
REMARK Flexibility Score: inf
ROOT
ATOM      1  C   UNL A   1      31.054  27.949  25.423  1.00  0.00     0.002 C 
ENDROOT
BRANCH   1   2
ATOM      2  C   UNL A   1      30.627  28.741  24.187  1.00  0.00     0.021 C 
BRANCH   2   3
ATOM      3  C   UNL A   1      30.678  27.944  22.888  1.00  0.00     0.116 C 
BRANCH   3   4
ATOM      4  N   UNL A   1      31.994  27.996  22.285  1.00  0.00    -0.356 N 
ATOM      5  C   UNL A   1      33.010  27.088  22.296  1.00  0.00     0.227 C 
ATOM      6  O   UNL A   1      34.042  27.390  21.690  1.00  0.00    -0.274 OA
ATOM      7  H   UNL A   1      32.186  28.823  21.786  1.00  0.00     0.163 HD
BRANCH   5   8
ATOM      8  C   UNL A   1      32.902  25.750  23.033  1.00  0.00     0.103 C 
ATOM      9  C   UNL A   1      34.128  23.636  22.868  1.00  0.00     0.107 C 
ATOM     10  C   UNL A   1      34.602  24.456  24.021  1.00  0.00    -0.006 C 
ATOM     11  C   UNL A   1      33.109  24.522  22.139  1.00  0.00     0.047 C 
ATOM     12  C   UNL A   1      33.927  25.607  24.119  1.00  0.00    -0.016 C 
BRANCH   9  13
ATOM     13  N   UNL A   1      33.594  22.364  23.293  1.00  0.00    -0.332 N 
ATOM     14  O   UNL A   1      32.180  23.035  24.968  1.00  0.00    -0.248 OA
ATOM     15  C   UNL A   1      32.701  22.151  24.298  1.00  0.00     0.319 C 
ATOM     16  N   UNL A   1      32.319  20.860  24.518  1.00  0.00    -0.308 N 
ATOM     17  H   UNL A   1      31.563  20.769  25.142  1.00  0.00     0.171 HD
ATOM     18  H   UNL A   1      33.908  21.568  22.805  1.00  0.00     0.165 HD
BRANCH  16  19
ATOM     19  C   UNL A   1      32.798  19.636  24.022  1.00  0.00     0.045 A 
ATOM     20  C   UNL A   1      32.219  18.941  22.954  1.00  0.00     0.026 A 
ATOM     21  C   UNL A   1      33.928  19.103  24.645  1.00  0.00     0.065 A 
ATOM     22  C   UNL A   1      32.701  17.685  22.578  1.00  0.00     0.005 A 
ATOM     23  C   UNL A   1      34.398  17.851  24.268  1.00  0.00     0.125 A 
ATOM     24  C   UNL A   1      33.786  17.129  23.252  1.00  0.00     0.039 A 
ATOM     25  F   UNL A   1      35.450  17.326  24.909  1.00  0.00    -0.207 F 
ENDBRANCH  16  19
ENDBRANCH   9  13
ENDBRANCH   5   8
ENDBRANCH   3   4
ENDBRANCH   2   3
ENDBRANCH   1   2
BRANCH   1  26
ATOM     26  C   UNL A   1      31.794  28.763  26.490  1.00  0.00     0.002 C 
BRANCH  26  27
ATOM     27  C   UNL A   1      31.755  30.279  26.293  1.00  0.00     0.021 C 
BRANCH  27  28
ATOM     28  C   UNL A   1      32.791  31.048  27.104  1.00  0.00     0.116 C 
BRANCH  28  29
ATOM     29  N   UNL A   1      32.412  32.438  27.304  1.00  0.00    -0.352 N 
ATOM     30  C   UNL A   1      33.055  33.407  28.034  1.00  0.00     0.251 C 
ATOM     31  H   UNL A   1      31.582  32.721  26.857  1.00  0.00     0.163 HD
ATOM     32  O   UNL A   1      32.517  34.487  28.255  1.00  0.00    -0.269 OA
BRANCH  30  33
ATOM     33  C   UNL A   1      34.400  33.126  28.570  1.00  0.00     0.039 A 
ATOM     34  C   UNL A   1      34.522  32.452  29.788  1.00  0.00     0.014 A 
ATOM     35  C   UNL A   1      35.537  33.502  27.850  1.00  0.00     0.014 A 
ATOM     36  C   UNL A   1      35.789  32.096  30.253  1.00  0.00     0.010 A 
ATOM     37  C   UNL A   1      36.790  33.082  28.278  1.00  0.00     0.010 A 
ATOM     38  C   UNL A   1      36.929  32.376  29.484  1.00  0.00    -0.014 A 
BRANCH  38  39
ATOM     39  C   UNL A   1      38.287  31.963  29.914  1.00  0.00     0.031 A 
ATOM     40  C   UNL A   1      38.863  30.668  29.411  1.00  0.00     0.074 A 
ATOM     41  C   UNL A   1      38.960  32.694  30.822  1.00  0.00     0.049 A 
ATOM     42  N   UNL A   1      39.957  30.052  29.776  1.00  0.00    -0.248 NA
ATOM     43  C   UNL A   1      38.086  29.958  28.381  1.00  0.00     0.031 C 
ATOM     44  C   UNL A   1      38.502  33.958  31.404  1.00  0.00     0.029 A 
ATOM     45  N   UNL A   1      40.168  32.466  31.434  1.00  0.00    -0.354 N 
ATOM     46  C   UNL A   1      39.989  28.875  29.039  1.00  0.00     0.074 A 
ATOM     47  C   UNL A   1      38.780  28.838  28.246  1.00  0.00     0.031 C 
ATOM     48  C   UNL A   1      39.423  34.398  32.278  1.00  0.00     0.029 A 
ATOM     49  C   UNL A   1      40.508  33.425  32.357  1.00  0.00     0.049 A 
ATOM     50  H   UNL A   1      40.738  31.689  31.229  1.00  0.00     0.167 HD
ATOM     51  C   UNL A   1      40.947  27.919  29.011  1.00  0.00     0.031 A 
ATOM     52  C   UNL A   1      41.562  33.501  33.191  1.00  0.00     0.031 A 
ATOM     53  C   UNL A   1      42.150  27.961  29.797  1.00  0.00     0.049 A 
ATOM     54  C   UNL A   1      42.596  32.407  33.171  1.00  0.00     0.074 A 
ATOM     55  C   UNL A   1      43.201  27.061  29.811  1.00  0.00     0.029 A 
ATOM     56  N   UNL A   1      42.462  28.958  30.708  1.00  0.00    -0.354 N 
ATOM     57  N   UNL A   1      42.635  31.322  32.436  1.00  0.00    -0.248 NA
ATOM     58  C   UNL A   1      43.734  32.552  34.092  1.00  0.00     0.031 C 
ATOM     59  C   UNL A   1      44.124  27.486  30.771  1.00  0.00     0.029 A 
ATOM     60  C   UNL A   1      43.678  28.684  31.306  1.00  0.00     0.049 A 
ATOM     61  H   UNL A   1      41.900  29.744  30.900  1.00  0.00     0.167 HD
ATOM     62  C   UNL A   1      43.817  30.676  32.777  1.00  0.00     0.074 A 
ATOM     63  C   UNL A   1      44.467  31.490  33.782  1.00  0.00     0.031 C 
ATOM     64  C   UNL A   1      44.320  29.514  32.295  1.00  0.00     0.031 A 
BRANCH  51  65
ATOM     65  C   UNL A   1      40.720  26.739  28.107  1.00  0.00    -0.014 A 
ATOM     66  C   UNL A   1      40.045  25.593  28.560  1.00  0.00     0.009 A 
ATOM     67  C   UNL A   1      41.165  26.782  26.777  1.00  0.00     0.009 A 
ATOM     68  C   UNL A   1      39.860  24.500  27.712  1.00  0.00     0.001 A 
ATOM     69  C   UNL A   1      40.948  25.699  25.922  1.00  0.00     0.001 A 
ATOM     70  C   UNL A   1      40.307  24.555  26.393  1.00  0.00     0.000 A 
ENDBRANCH  51  65
BRANCH  52  71
ATOM     71  C   UNL A   1      41.696  34.655  34.120  1.00  0.00    -0.014 A 
ATOM     72  C   UNL A   1      42.377  35.815  33.723  1.00  0.00     0.009 A 
ATOM     73  C   UNL A   1      41.142  34.602  35.409  1.00  0.00     0.009 A 
ATOM     74  C   UNL A   1      42.525  36.887  34.606  1.00  0.00     0.001 A 
ATOM     75  C   UNL A   1      41.265  35.688  36.279  1.00  0.00     0.001 A 
ATOM     76  C   UNL A   1      41.964  36.825  35.881  1.00  0.00     0.000 A 
ENDBRANCH  52  71
BRANCH  64  77
ATOM     77  C   UNL A   1      45.664  29.071  32.799  1.00  0.00    -0.014 A 
ATOM     78  C   UNL A   1      45.788  28.208  33.897  1.00  0.00     0.009 A 
ATOM     79  C   UNL A   1      46.821  29.462  32.105  1.00  0.00     0.009 A 
ATOM     80  C   UNL A   1      47.046  27.757  34.300  1.00  0.00     0.001 A 
ATOM     81  C   UNL A   1      48.074  28.987  32.491  1.00  0.00     0.001 A 
ATOM     82  C   UNL A   1      48.186  28.139  33.591  1.00  0.00     0.000 A 
ENDBRANCH  64  77
ENDBRANCH  38  39
ENDBRANCH  30  33
ENDBRANCH  28  29
ENDBRANCH  27  28
ENDBRANCH  26  27
ENDBRANCH   1  26
TORSDOF 15
ENDMDL
MODEL 3
REMARK VINA RESULT:     -10.5      2.865      7.101
REMARK SMILES O=C(Nc1cccc(F)c1)N[C@@H]1C=C[C@@H](C(=O)NCCCCCCNC(=O)c2ccc(-c3c4nc(c(-c5ccccc5)c5ccc([nH]5)c(-c5ccccc5)c5nc(c(-c6ccccc6)c6ccc3[nH]6)C=C5)C=C4)cc2)C1
REMARK SMILES IDX 21 1 20 2 19 3 18 4 16 5 17 6 15 8 12 9 13 10 76 11 14 12
REMARK SMILES IDX 11 13 1 14 2 15 3 16 4 19 5 20 10 21 6 22 8 23 7 24 9 25
REMARK SMILES IDX 22 26 23 27 24 28 25 29 26 30 27 32 28 33 29 34 75 35 30 36
REMARK SMILES IDX 74 37 31 38 32 39 33 40 68 41 34 42 73 43 67 44 69 45 35 46
REMARK SMILES IDX 72 47 66 48 65 49 36 51 58 52 43 53 57 54 44 55 47 56 56 57
REMARK SMILES IDX 70 58 45 59 46 60 55 62 71 63 48 64 37 65 38 66 42 67 39 68
REMARK SMILES IDX 41 69 40 70 59 71 60 72 64 73 61 74 63 75 62 76 49 77 50 78
REMARK SMILES IDX 54 79 51 80 53 81 52 82
REMARK H PARENT 18 7 3 17 11 18 25 31 69 50 47 61
REMARK Flexibility Score: inf
ROOT
ATOM      1  C   UNL A   1      35.917  21.820  26.039  1.00  0.00     0.002 C 
ENDROOT
BRANCH   1   2
ATOM      2  C   UNL A   1      35.057  22.968  25.508  1.00  0.00     0.021 C 
BRANCH   2   3
ATOM      3  C   UNL A   1      34.077  22.558  24.415  1.00  0.00     0.116 C 
BRANCH   3   4
ATOM      4  N   UNL A   1      32.777  22.230  24.964  1.00  0.00    -0.356 N 
ATOM      5  C   UNL A   1      31.661  22.997  25.119  1.00  0.00     0.227 C 
ATOM      6  O   UNL A   1      30.672  22.458  25.622  1.00  0.00    -0.274 OA
ATOM      7  H   UNL A   1      32.684  21.301  25.275  1.00  0.00     0.163 HD
BRANCH   5   8
ATOM      8  C   UNL A   1      31.620  24.471  24.706  1.00  0.00     0.103 C 
ATOM      9  C   UNL A   1      29.846  26.160  24.679  1.00  0.00     0.107 C 
ATOM     10  C   UNL A   1      30.732  26.316  25.868  1.00  0.00    -0.006 C 
ATOM     11  C   UNL A   1      30.334  24.884  23.981  1.00  0.00     0.047 C 
ATOM     12  C   UNL A   1      31.708  25.401  25.881  1.00  0.00    -0.016 C 
BRANCH   9  13
ATOM     13  N   UNL A   1      29.864  27.330  23.834  1.00  0.00    -0.332 N 
ATOM     14  O   UNL A   1      31.630  26.831  22.458  1.00  0.00    -0.248 OA
ATOM     15  C   UNL A   1      30.741  27.591  22.826  1.00  0.00     0.319 C 
ATOM     16  N   UNL A   1      30.563  28.759  22.142  1.00  0.00    -0.308 N 
ATOM     17  H   UNL A   1      31.115  28.833  21.331  1.00  0.00     0.171 HD
ATOM     18  H   UNL A   1      29.171  28.008  24.003  1.00  0.00     0.165 HD
BRANCH  16  19
ATOM     19  C   UNL A   1      29.740  29.872  22.376  1.00  0.00     0.045 A 
ATOM     20  C   UNL A   1      29.535  30.447  23.636  1.00  0.00     0.026 A 
ATOM     21  C   UNL A   1      29.103  30.428  21.265  1.00  0.00     0.065 A 
ATOM     22  C   UNL A   1      28.631  31.500  23.799  1.00  0.00     0.005 A 
ATOM     23  C   UNL A   1      28.201  31.472  21.437  1.00  0.00     0.125 A 
ATOM     24  C   UNL A   1      27.946  32.003  22.695  1.00  0.00     0.039 A 
ATOM     25  F   UNL A   1      27.555  31.962  20.372  1.00  0.00    -0.207 F 
ENDBRANCH  16  19
ENDBRANCH   9  13
ENDBRANCH   5   8
ENDBRANCH   3   4
ENDBRANCH   2   3
ENDBRANCH   1   2
BRANCH   1  26
ATOM     26  C   UNL A   1      36.246  20.729  25.014  1.00  0.00     0.002 C 
BRANCH  26  27
ATOM     27  C   UNL A   1      37.713  20.655  24.591  1.00  0.00     0.021 C 
BRANCH  27  28
ATOM     28  C   UNL A   1      38.709  20.801  25.735  1.00  0.00     0.116 C 
BRANCH  28  29
ATOM     29  N   UNL A   1      39.689  19.727  25.752  1.00  0.00    -0.352 N 
ATOM     30  C   UNL A   1      41.027  19.789  26.055  1.00  0.00     0.251 C 
ATOM     31  H   UNL A   1      39.348  18.835  25.513  1.00  0.00     0.163 HD
ATOM     32  O   UNL A   1      41.763  18.829  25.851  1.00  0.00    -0.269 OA
BRANCH  30  33
ATOM     33  C   UNL A   1      41.578  21.039  26.614  1.00  0.00     0.039 A 
ATOM     34  C   UNL A   1      42.011  22.042  25.744  1.00  0.00     0.014 A 
ATOM     35  C   UNL A   1      41.634  21.226  27.998  1.00  0.00     0.014 A 
ATOM     36  C   UNL A   1      42.441  23.265  26.263  1.00  0.00     0.010 A 
ATOM     37  C   UNL A   1      41.991  22.467  28.507  1.00  0.00     0.010 A 
ATOM     38  C   UNL A   1      42.400  23.498  27.647  1.00  0.00    -0.014 A 
BRANCH  38  39
ATOM     39  C   UNL A   1      42.791  24.803  28.234  1.00  0.00     0.031 A 
ATOM     40  C   UNL A   1      41.747  25.863  28.450  1.00  0.00     0.074 A 
ATOM     41  C   UNL A   1      44.088  25.069  28.483  1.00  0.00     0.049 A 
ATOM     42  N   UNL A   1      41.899  27.112  28.806  1.00  0.00    -0.248 NA
ATOM     43  C   UNL A   1      40.350  25.471  28.203  1.00  0.00     0.031 C 
ATOM     44  C   UNL A   1      45.199  24.134  28.296  1.00  0.00     0.029 A 
ATOM     45  N   UNL A   1      44.693  26.219  28.928  1.00  0.00    -0.354 N 
ATOM     46  C   UNL A   1      40.622  27.660  28.804  1.00  0.00     0.074 A 
ATOM     47  C   UNL A   1      39.716  26.623  28.362  1.00  0.00     0.031 C 
ATOM     48  C   UNL A   1      46.347  24.744  28.634  1.00  0.00     0.029 A 
ATOM     49  C   UNL A   1      46.060  26.125  29.012  1.00  0.00     0.049 A 
ATOM     50  H   UNL A   1      44.193  27.034  29.165  1.00  0.00     0.167 HD
ATOM     51  C   UNL A   1      40.236  28.908  29.156  1.00  0.00     0.031 A 
ATOM     52  C   UNL A   1      46.984  27.051  29.332  1.00  0.00     0.031 A 
ATOM     53  C   UNL A   1      41.138  29.936  29.600  1.00  0.00     0.049 A 
ATOM     54  C   UNL A   1      46.535  28.445  29.683  1.00  0.00     0.074 A 
ATOM     55  C   UNL A   1      40.841  31.222  30.018  1.00  0.00     0.029 A 
ATOM     56  N   UNL A   1      42.515  29.793  29.685  1.00  0.00    -0.354 N 
ATOM     57  N   UNL A   1      45.319  28.935  29.720  1.00  0.00    -0.248 NA
ATOM     58  C   UNL A   1      47.585  29.410  30.041  1.00  0.00     0.031 C 
ATOM     59  C   UNL A   1      42.044  31.874  30.303  1.00  0.00     0.029 A 
ATOM     60  C   UNL A   1      43.083  30.975  30.126  1.00  0.00     0.049 A 
ATOM     61  H   UNL A   1      43.012  28.973  29.464  1.00  0.00     0.167 HD
ATOM     62  C   UNL A   1      45.455  30.252  30.142  1.00  0.00     0.074 A 
ATOM     63  C   UNL A   1      46.869  30.484  30.350  1.00  0.00     0.031 C 
ATOM     64  C   UNL A   1      44.492  31.184  30.343  1.00  0.00     0.031 A 
BRANCH  51  65
ATOM     65  C   UNL A   1      38.770  29.232  29.060  1.00  0.00    -0.014 A 
ATOM     66  C   UNL A   1      37.921  29.105  30.172  1.00  0.00     0.009 A 
ATOM     67  C   UNL A   1      38.235  29.695  27.848  1.00  0.00     0.009 A 
ATOM     68  C   UNL A   1      36.560  29.392  30.059  1.00  0.00     0.001 A 
ATOM     69  C   UNL A   1      36.879  30.013  27.748  1.00  0.00     0.001 A 
ATOM     70  C   UNL A   1      36.041  29.850  28.850  1.00  0.00     0.000 A 
ENDBRANCH  51  65
BRANCH  52  71
ATOM     71  C   UNL A   1      48.427  26.695  29.337  1.00  0.00    -0.014 A 
ATOM     72  C   UNL A   1      49.042  26.221  30.505  1.00  0.00     0.009 A 
ATOM     73  C   UNL A   1      49.199  26.827  28.171  1.00  0.00     0.009 A 
ATOM     74  C   UNL A   1      50.404  25.912  30.514  1.00  0.00     0.001 A 
ATOM     75  C   UNL A   1      50.554  26.489  28.175  1.00  0.00     0.001 A 
ATOM     76  C   UNL A   1      51.157  26.041  29.348  1.00  0.00     0.000 A 
ENDBRANCH  52  71
BRANCH  64  77
ATOM     77  C   UNL A   1      44.917  32.526  30.868  1.00  0.00    -0.014 A 
ATOM     78  C   UNL A   1      45.043  32.770  32.243  1.00  0.00     0.009 A 
ATOM     79  C   UNL A   1      45.279  33.535  29.960  1.00  0.00     0.009 A 
ATOM     80  C   UNL A   1      45.508  34.005  32.699  1.00  0.00     0.001 A 
ATOM     81  C   UNL A   1      45.770  34.757  30.418  1.00  0.00     0.001 A 
ATOM     82  C   UNL A   1      45.880  34.993  31.787  1.00  0.00     0.000 A 
ENDBRANCH  64  77
ENDBRANCH  38  39
ENDBRANCH  30  33
ENDBRANCH  28  29
ENDBRANCH  27  28
ENDBRANCH  26  27
ENDBRANCH   1  26
TORSDOF 15
ENDMDL
