MODEL 1
REMARK VINA RESULT:     -10.7      0.000      0.000
REMARK SMILES Cc1cccc(/C=C(/F)C(=O)NCCCCCCNC(=O)c2ccc(-c3c4nc(c(-c5ccccc5)c5ccc([nH]5)c(-c5ccccc5)c5nc(c(-c6ccccc6)c6ccc3[nH]6)C=C5)C=C4)cc2)c1C
REMARK SMILES IDX 16 1 15 2 14 3 13 4 12 5 10 6 11 7 8 9 7 10 9 11 6 12 1 13
REMARK SMILES IDX 2 14 3 15 70 16 4 17 71 18 5 19 17 20 18 21 19 22 20 23
REMARK SMILES IDX 21 25 22 26 23 27 69 28 24 29 68 30 25 31 26 32 27 33 62 34
REMARK SMILES IDX 28 35 67 36 61 37 63 38 29 39 66 40 60 41 59 42 30 44 52 45
REMARK SMILES IDX 37 46 51 47 38 48 41 49 50 50 64 51 39 52 40 53 49 55 65 56
REMARK SMILES IDX 42 57 31 58 32 59 36 60 33 61 35 62 34 63 53 64 54 65 58 66
REMARK SMILES IDX 55 67 57 68 56 69 43 70 44 71 48 72 45 73 47 74 46 75
REMARK H PARENT 12 8 19 24 63 43 41 54
REMARK Flexibility Score: inf
ROOT
ATOM      1  C   UNL A   1      36.302  20.823  24.943  1.00  0.00     0.002 C 
ENDROOT
BRANCH   1   2
ATOM      2  C   UNL A   1      34.959  20.095  25.029  1.00  0.00     0.002 C 
BRANCH   2   3
ATOM      3  C   UNL A   1      33.758  20.865  24.451  1.00  0.00     0.021 C 
BRANCH   3   4
ATOM      4  C   UNL A   1      32.507  20.843  25.337  1.00  0.00     0.116 C 
BRANCH   4   5
ATOM      5  N   UNL A   1      32.101  22.209  25.605  1.00  0.00    -0.350 N 
ATOM      6  C   UNL A   1      32.478  22.966  26.678  1.00  0.00     0.280 C 
ATOM      7  O   UNL A   1      31.625  23.560  27.330  1.00  0.00    -0.267 OA
ATOM      8  H   UNL A   1      31.497  22.630  24.952  1.00  0.00     0.163 HD
BRANCH   6   9
ATOM      9  C   UNL A   1      33.933  23.204  26.837  1.00  0.00     0.188 C 
ATOM     10  C   UNL A   1      34.619  24.180  26.223  1.00  0.00     0.053 C 
ATOM     11  F   UNL A   1      34.600  22.310  27.598  1.00  0.00    -0.201 F 
BRANCH  10  12
ATOM     12  C   UNL A   1      34.148  25.256  25.322  1.00  0.00    -0.019 A 
ATOM     13  C   UNL A   1      33.154  26.235  21.737  1.00  0.00     0.044 C 
ATOM     14  C   UNL A   1      33.478  26.301  23.209  1.00  0.00    -0.048 A 
ATOM     15  C   UNL A   1      33.263  27.511  23.882  1.00  0.00     0.004 A 
ATOM     16  C   UNL A   1      33.984  25.176  23.915  1.00  0.00    -0.041 A 
ATOM     17  C   UNL A   1      33.499  27.610  25.247  1.00  0.00     0.001 A 
ATOM     18  C   UNL A   1      34.303  23.929  23.128  1.00  0.00     0.045 C 
ATOM     19  C   UNL A   1      33.920  26.491  25.959  1.00  0.00     0.008 A 
ENDBRANCH  10  12
ENDBRANCH   6   9
ENDBRANCH   4   5
ENDBRANCH   3   4
ENDBRANCH   2   3
ENDBRANCH   1   2
BRANCH   1  20
ATOM     20  C   UNL A   1      37.525  19.909  24.850  1.00  0.00     0.021 C 
BRANCH  20  21
ATOM     21  C   UNL A   1      38.722  20.353  25.685  1.00  0.00     0.116 C 
BRANCH  21  22
ATOM     22  N   UNL A   1      39.784  19.362  25.719  1.00  0.00    -0.352 N 
ATOM     23  C   UNL A   1      41.100  19.533  26.071  1.00  0.00     0.251 C 
ATOM     24  H   UNL A   1      39.527  18.449  25.455  1.00  0.00     0.163 HD
ATOM     25  O   UNL A   1      41.910  18.622  25.921  1.00  0.00    -0.269 OA
BRANCH  23  26
ATOM     26  C   UNL A   1      41.549  20.838  26.601  1.00  0.00     0.039 A 
ATOM     27  C   UNL A   1      42.042  21.794  25.709  1.00  0.00     0.014 A 
ATOM     28  C   UNL A   1      41.467  21.124  27.968  1.00  0.00     0.014 A 
ATOM     29  C   UNL A   1      42.395  23.060  26.178  1.00  0.00     0.010 A 
ATOM     30  C   UNL A   1      41.762  22.406  28.425  1.00  0.00     0.010 A 
ATOM     31  C   UNL A   1      42.229  23.386  27.534  1.00  0.00    -0.014 A 
BRANCH  31  32
ATOM     32  C   UNL A   1      42.535  24.747  28.038  1.00  0.00     0.031 A 
ATOM     33  C   UNL A   1      43.936  25.106  28.447  1.00  0.00     0.074 A 
ATOM     34  C   UNL A   1      41.541  25.646  28.184  1.00  0.00     0.049 A 
ATOM     35  N   UNL A   1      44.386  26.225  28.958  1.00  0.00    -0.248 NA
ATOM     36  C   UNL A   1      44.963  24.066  28.279  1.00  0.00     0.031 C 
ATOM     37  C   UNL A   1      40.132  25.412  27.861  1.00  0.00     0.029 A 
ATOM     38  N   UNL A   1      41.566  26.936  28.651  1.00  0.00    -0.354 N 
ATOM     39  C   UNL A   1      45.738  26.017  29.189  1.00  0.00     0.074 A 
ATOM     40  C   UNL A   1      46.030  24.653  28.801  1.00  0.00     0.031 C 
ATOM     41  C   UNL A   1      39.432  26.529  28.118  1.00  0.00     0.029 A 
ATOM     42  C   UNL A   1      40.335  27.543  28.654  1.00  0.00     0.049 A 
ATOM     43  H   UNL A   1      42.389  27.383  28.955  1.00  0.00     0.167 HD
ATOM     44  C   UNL A   1      46.661  26.885  29.666  1.00  0.00     0.031 A 
ATOM     45  C   UNL A   1      39.971  28.778  29.048  1.00  0.00     0.031 A 
ATOM     46  C   UNL A   1      46.382  28.246  30.037  1.00  0.00     0.049 A 
ATOM     47  C   UNL A   1      41.014  29.722  29.579  1.00  0.00     0.074 A 
ATOM     48  C   UNL A   1      47.264  29.221  30.472  1.00  0.00     0.029 A 
ATOM     49  N   UNL A   1      45.123  28.824  30.019  1.00  0.00    -0.354 N 
ATOM     50  N   UNL A   1      42.300  29.529  29.730  1.00  0.00    -0.248 NA
ATOM     51  C   UNL A   1      40.550  31.057  29.986  1.00  0.00     0.031 C 
ATOM     52  C   UNL A   1      46.531  30.378  30.755  1.00  0.00     0.029 A 
ATOM     53  C   UNL A   1      45.201  30.136  30.455  1.00  0.00     0.049 A 
ATOM     54  H   UNL A   1      44.296  28.371  29.737  1.00  0.00     0.167 HD
ATOM     55  C   UNL A   1      42.804  30.722  30.228  1.00  0.00     0.074 A 
ATOM     56  C   UNL A   1      41.687  31.638  30.340  1.00  0.00     0.031 C 
ATOM     57  C   UNL A   1      44.081  31.032  30.563  1.00  0.00     0.031 A 
BRANCH  44  58
ATOM     58  C   UNL A   1      48.068  26.381  29.816  1.00  0.00    -0.014 A 
ATOM     59  C   UNL A   1      48.993  26.490  28.765  1.00  0.00     0.009 A 
ATOM     60  C   UNL A   1      48.485  25.823  31.033  1.00  0.00     0.009 A 
ATOM     61  C   UNL A   1      50.297  26.017  28.919  1.00  0.00     0.001 A 
ATOM     62  C   UNL A   1      49.797  25.373  31.193  1.00  0.00     0.001 A 
ATOM     63  C   UNL A   1      50.699  25.462  30.134  1.00  0.00     0.000 A 
ENDBRANCH  44  58
BRANCH  45  64
ATOM     64  C   UNL A   1      38.552  29.204  28.944  1.00  0.00    -0.014 A 
ATOM     65  C   UNL A   1      38.037  29.658  27.721  1.00  0.00     0.009 A 
ATOM     66  C   UNL A   1      37.710  29.165  30.066  1.00  0.00     0.009 A 
ATOM     67  C   UNL A   1      36.711  30.089  27.629  1.00  0.00     0.001 A 
ATOM     68  C   UNL A   1      36.378  29.572  29.965  1.00  0.00     0.001 A 
ATOM     69  C   UNL A   1      35.882  30.041  28.749  1.00  0.00     0.000 A 
ENDBRANCH  45  64
BRANCH  57  70
ATOM     70  C   UNL A   1      44.339  32.425  31.058  1.00  0.00    -0.014 A 
ATOM     71  C   UNL A   1      44.296  32.727  32.428  1.00  0.00     0.009 A 
ATOM     72  C   UNL A   1      44.668  33.440  30.146  1.00  0.00     0.009 A 
ATOM     73  C   UNL A   1      44.552  34.026  32.872  1.00  0.00     0.001 A 
ATOM     74  C   UNL A   1      44.946  34.731  30.595  1.00  0.00     0.001 A 
ATOM     75  C   UNL A   1      44.880  35.025  31.956  1.00  0.00     0.000 A 
ENDBRANCH  57  70
ENDBRANCH  31  32
ENDBRANCH  23  26
ENDBRANCH  21  22
ENDBRANCH  20  21
ENDBRANCH   1  20
TORSDOF 14
ENDMDL
MODEL 2
REMARK VINA RESULT:     -10.6      2.650      7.552
REMARK SMILES Cc1cccc(/C=C(/F)C(=O)NCCCCCCNC(=O)c2ccc(-c3c4nc(c(-c5ccccc5)c5ccc([nH]5)c(-c5ccccc5)c5nc(c(-c6ccccc6)c6ccc3[nH]6)C=C5)C=C4)cc2)c1C
REMARK SMILES IDX 16 1 15 2 14 3 13 4 12 5 10 6 11 7 8 9 7 10 9 11 6 12 1 13
REMARK SMILES IDX 2 14 3 15 70 16 4 17 71 18 5 19 17 20 18 21 19 22 20 23
REMARK SMILES IDX 21 25 22 26 23 27 69 28 24 29 68 30 25 31 26 32 27 33 62 34
REMARK SMILES IDX 28 35 67 36 61 37 63 38 29 39 66 40 60 41 59 42 30 44 52 45
REMARK SMILES IDX 37 46 51 47 38 48 41 49 50 50 64 51 39 52 40 53 49 55 65 56
REMARK SMILES IDX 42 57 31 58 32 59 36 60 33 61 35 62 34 63 53 64 54 65 58 66
REMARK SMILES IDX 55 67 57 68 56 69 43 70 44 71 48 72 45 73 47 74 46 75
REMARK H PARENT 12 8 19 24 63 43 41 54
REMARK Flexibility Score: inf
ROOT
ATOM      1  C   UNL A   1      32.349  27.175  25.607  1.00  0.00     0.002 C 
ENDROOT
BRANCH   1   2
ATOM      2  C   UNL A   1      30.858  27.404  25.354  1.00  0.00     0.002 C 
BRANCH   2   3
ATOM      3  C   UNL A   1      30.511  28.023  23.988  1.00  0.00     0.021 C 
BRANCH   3   4
ATOM      4  C   UNL A   1      30.622  27.053  22.806  1.00  0.00     0.116 C 
BRANCH   4   5
ATOM      5  N   UNL A   1      31.745  27.451  21.979  1.00  0.00    -0.350 N 
ATOM      6  C   UNL A   1      32.925  26.777  21.844  1.00  0.00     0.280 C 
ATOM      7  O   UNL A   1      33.985  27.382  21.964  1.00  0.00    -0.267 OA
ATOM      8  H   UNL A   1      31.646  28.286  21.467  1.00  0.00     0.163 HD
BRANCH   6   9
ATOM      9  C   UNL A   1      32.836  25.391  21.325  1.00  0.00     0.188 C 
ATOM     10  C   UNL A   1      33.005  24.286  22.066  1.00  0.00     0.053 C 
ATOM     11  F   UNL A   1      32.649  25.267  19.993  1.00  0.00    -0.201 F 
BRANCH  10  12
ATOM     12  C   UNL A   1      33.255  24.139  23.517  1.00  0.00    -0.019 A 
ATOM     13  C   UNL A   1      31.783  23.219  26.951  1.00  0.00     0.044 C 
ATOM     14  C   UNL A   1      32.724  23.681  25.866  1.00  0.00    -0.048 A 
ATOM     15  C   UNL A   1      34.051  23.967  26.216  1.00  0.00     0.004 A 
ATOM     16  C   UNL A   1      32.298  23.826  24.518  1.00  0.00    -0.041 A 
ATOM     17  C   UNL A   1      34.968  24.348  25.247  1.00  0.00     0.001 A 
ATOM     18  C   UNL A   1      30.837  23.615  24.208  1.00  0.00     0.045 C 
ATOM     19  C   UNL A   1      34.577  24.416  23.912  1.00  0.00     0.008 A 
ENDBRANCH  10  12
ENDBRANCH   6   9
ENDBRANCH   4   5
ENDBRANCH   3   4
ENDBRANCH   2   3
ENDBRANCH   1   2
BRANCH   1  20
ATOM     20  C   UNL A   1      33.166  28.447  25.835  1.00  0.00     0.021 C 
BRANCH  20  21
ATOM     21  C   UNL A   1      33.627  28.665  27.272  1.00  0.00     0.116 C 
BRANCH  21  22
ATOM     22  N   UNL A   1      33.594  30.062  27.670  1.00  0.00    -0.352 N 
ATOM     23  C   UNL A   1      34.581  30.800  28.274  1.00  0.00     0.251 C 
ATOM     24  H   UNL A   1      32.756  30.541  27.482  1.00  0.00     0.163 HD
ATOM     25  O   UNL A   1      34.354  31.941  28.670  1.00  0.00    -0.269 OA
BRANCH  23  26
ATOM     26  C   UNL A   1      35.917  30.202  28.480  1.00  0.00     0.039 A 
ATOM     27  C   UNL A   1      36.837  30.230  27.429  1.00  0.00     0.014 A 
ATOM     28  C   UNL A   1      36.268  29.634  29.709  1.00  0.00     0.014 A 
ATOM     29  C   UNL A   1      38.130  29.744  27.628  1.00  0.00     0.010 A 
ATOM     30  C   UNL A   1      37.575  29.206  29.925  1.00  0.00     0.010 A 
ATOM     31  C   UNL A   1      38.518  29.257  28.886  1.00  0.00    -0.014 A 
BRANCH  31  32
ATOM     32  C   UNL A   1      39.907  28.798  29.136  1.00  0.00     0.031 A 
ATOM     33  C   UNL A   1      40.905  29.719  29.781  1.00  0.00     0.074 A 
ATOM     34  C   UNL A   1      40.289  27.571  28.729  1.00  0.00     0.049 A 
ATOM     35  N   UNL A   1      42.173  29.516  30.032  1.00  0.00    -0.248 NA
ATOM     36  C   UNL A   1      40.419  31.050  30.177  1.00  0.00     0.031 C 
ATOM     37  C   UNL A   1      39.430  26.594  28.057  1.00  0.00     0.029 A 
ATOM     38  N   UNL A   1      41.505  26.941  28.817  1.00  0.00    -0.354 N 
ATOM     39  C   UNL A   1      42.640  30.695  30.596  1.00  0.00     0.074 A 
ATOM     40  C   UNL A   1      41.530  31.624  30.614  1.00  0.00     0.031 C 
ATOM     41  C   UNL A   1      40.140  25.480  27.814  1.00  0.00     0.029 A 
ATOM     42  C   UNL A   1      41.509  25.677  28.282  1.00  0.00     0.049 A 
ATOM     43  H   UNL A   1      42.299  27.356  29.225  1.00  0.00     0.167 HD
ATOM     44  C   UNL A   1      43.876  30.977  31.072  1.00  0.00     0.031 A 
ATOM     45  C   UNL A   1      42.504  24.777  28.175  1.00  0.00     0.031 A 
ATOM     46  C   UNL A   1      44.978  30.053  31.072  1.00  0.00     0.049 A 
ATOM     47  C   UNL A   1      43.868  25.116  28.706  1.00  0.00     0.074 A 
ATOM     48  C   UNL A   1      46.250  30.228  31.590  1.00  0.00     0.029 A 
ATOM     49  N   UNL A   1      44.938  28.780  30.527  1.00  0.00    -0.354 N 
ATOM     50  N   UNL A   1      44.274  26.213  29.295  1.00  0.00    -0.248 NA
ATOM     51  C   UNL A   1      44.908  24.086  28.563  1.00  0.00     0.031 C 
ATOM     52  C   UNL A   1      46.993  29.073  31.321  1.00  0.00     0.029 A 
ATOM     53  C   UNL A   1      46.169  28.165  30.676  1.00  0.00     0.049 A 
ATOM     54  H   UNL A   1      44.151  28.373  30.098  1.00  0.00     0.167 HD
ATOM     55  C   UNL A   1      45.608  25.999  29.612  1.00  0.00     0.074 A 
ATOM     56  C   UNL A   1      45.940  24.662  29.164  1.00  0.00     0.031 C 
ATOM     57  C   UNL A   1      46.483  26.837  30.222  1.00  0.00     0.031 A 
BRANCH  44  58
ATOM     58  C   UNL A   1      44.100  32.353  31.632  1.00  0.00    -0.014 A 
ATOM     59  C   UNL A   1      44.519  33.411  30.809  1.00  0.00     0.009 A 
ATOM     60  C   UNL A   1      43.859  32.602  32.991  1.00  0.00     0.009 A 
ATOM     61  C   UNL A   1      44.723  34.684  31.345  1.00  0.00     0.001 A 
ATOM     62  C   UNL A   1      44.041  33.882  33.519  1.00  0.00     0.001 A 
ATOM     63  C   UNL A   1      44.481  34.918  32.698  1.00  0.00     0.000 A 
ENDBRANCH  44  58
BRANCH  45  64
ATOM     64  C   UNL A   1      42.247  23.455  27.548  1.00  0.00    -0.014 A 
ATOM     65  C   UNL A   1      41.651  22.423  28.289  1.00  0.00     0.009 A 
ATOM     66  C   UNL A   1      42.600  23.217  26.211  1.00  0.00     0.009 A 
ATOM     67  C   UNL A   1      41.437  21.170  27.711  1.00  0.00     0.001 A 
ATOM     68  C   UNL A   1      42.362  21.970  25.628  1.00  0.00     0.001 A 
ATOM     69  C   UNL A   1      41.789  20.946  26.381  1.00  0.00     0.000 A 
ENDBRANCH  45  64
BRANCH  57  70
ATOM     70  C   UNL A   1      47.872  26.321  30.460  1.00  0.00    -0.014 A 
ATOM     71  C   UNL A   1      48.236  25.762  31.694  1.00  0.00     0.009 A 
ATOM     72  C   UNL A   1      48.817  26.359  29.423  1.00  0.00     0.009 A 
ATOM     73  C   UNL A   1      49.529  25.275  31.894  1.00  0.00     0.001 A 
ATOM     74  C   UNL A   1      50.101  25.850  29.617  1.00  0.00     0.001 A 
ATOM     75  C   UNL A   1      50.458  25.316  30.855  1.00  0.00     0.000 A 
ENDBRANCH  57  70
ENDBRANCH  31  32
ENDBRANCH  23  26
ENDBRANCH  21  22
ENDBRANCH  20  21
ENDBRANCH   1  20
TORSDOF 14
ENDMDL
MODEL 3
REMARK VINA RESULT:     -10.6      3.957      8.745
REMARK SMILES Cc1cccc(/C=C(/F)C(=O)NCCCCCCNC(=O)c2ccc(-c3c4nc(c(-c5ccccc5)c5ccc([nH]5)c(-c5ccccc5)c5nc(c(-c6ccccc6)c6ccc3[nH]6)C=C5)C=C4)cc2)c1C
REMARK SMILES IDX 16 1 15 2 14 3 13 4 12 5 10 6 11 7 8 9 7 10 9 11 6 12 1 13
REMARK SMILES IDX 2 14 3 15 70 16 4 17 71 18 5 19 17 20 18 21 19 22 20 23
REMARK SMILES IDX 21 25 22 26 23 27 69 28 24 29 68 30 25 31 26 32 27 33 62 34
REMARK SMILES IDX 28 35 67 36 61 37 63 38 29 39 66 40 60 41 59 42 30 44 52 45
REMARK SMILES IDX 37 46 51 47 38 48 41 49 50 50 64 51 39 52 40 53 49 55 65 56
REMARK SMILES IDX 42 57 31 58 32 59 36 60 33 61 35 62 34 63 53 64 54 65 58 66
REMARK SMILES IDX 55 67 57 68 56 69 43 70 44 71 48 72 45 73 47 74 46 75
REMARK H PARENT 12 8 19 24 63 43 41 54
REMARK Flexibility Score: inf
ROOT
ATOM      1  C   UNL A   1      31.996  30.217  25.743  1.00  0.00     0.002 C 
ENDROOT
BRANCH   1   2
ATOM      2  C   UNL A   1      31.453  28.888  26.273  1.00  0.00     0.002 C 
BRANCH   2   3
ATOM      3  C   UNL A   1      32.495  27.969  26.935  1.00  0.00     0.021 C 
BRANCH   3   4
ATOM      4  C   UNL A   1      32.690  26.622  26.232  1.00  0.00     0.116 C 
BRANCH   4   5
ATOM      5  N   UNL A   1      31.697  25.688  26.726  1.00  0.00    -0.350 N 
ATOM      6  C   UNL A   1      30.557  25.306  26.078  1.00  0.00     0.280 C 
ATOM      7  O   UNL A   1      29.484  25.336  26.672  1.00  0.00    -0.267 OA
ATOM      8  H   UNL A   1      31.861  25.292  27.612  1.00  0.00     0.163 HD
BRANCH   6   9
ATOM      9  C   UNL A   1      30.736  24.655  24.758  1.00  0.00     0.188 C 
ATOM     10  C   UNL A   1      30.652  25.286  23.578  1.00  0.00     0.053 C 
ATOM     11  F   UNL A   1      30.916  23.316  24.777  1.00  0.00    -0.201 F 
BRANCH  10  12
ATOM     12  C   UNL A   1      30.429  26.718  23.275  1.00  0.00    -0.019 A 
ATOM     13  C   UNL A   1      27.946  29.655  23.294  1.00  0.00     0.044 C 
ATOM     14  C   UNL A   1      29.183  28.818  23.080  1.00  0.00    -0.048 A 
ATOM     15  C   UNL A   1      30.332  29.448  22.584  1.00  0.00     0.004 A 
ATOM     16  C   UNL A   1      29.205  27.428  23.372  1.00  0.00    -0.041 A 
ATOM     17  C   UNL A   1      31.510  28.734  22.415  1.00  0.00     0.001 A 
ATOM     18  C   UNL A   1      27.916  26.771  23.799  1.00  0.00     0.045 C 
ATOM     19  C   UNL A   1      31.561  27.389  22.773  1.00  0.00     0.008 A 
ENDBRANCH  10  12
ENDBRANCH   6   9
ENDBRANCH   4   5
ENDBRANCH   3   4
ENDBRANCH   2   3
ENDBRANCH   1   2
BRANCH   1  20
ATOM     20  C   UNL A   1      31.633  31.441  26.583  1.00  0.00     0.021 C 
BRANCH  20  21
ATOM     21  C   UNL A   1      32.820  32.164  27.211  1.00  0.00     0.116 C 
BRANCH  21  22
ATOM     22  N   UNL A   1      32.505  33.525  27.611  1.00  0.00    -0.352 N 
ATOM     23  C   UNL A   1      33.186  34.337  28.483  1.00  0.00     0.251 C 
ATOM     24  H   UNL A   1      31.698  33.915  27.205  1.00  0.00     0.163 HD
ATOM     25  O   UNL A   1      32.718  35.421  28.822  1.00  0.00    -0.269 OA
BRANCH  23  26
ATOM     26  C   UNL A   1      34.477  33.885  29.044  1.00  0.00     0.039 A 
ATOM     27  C   UNL A   1      34.469  33.047  30.161  1.00  0.00     0.014 A 
ATOM     28  C   UNL A   1      35.688  34.270  28.460  1.00  0.00     0.014 A 
ATOM     29  C   UNL A   1      35.672  32.543  30.658  1.00  0.00     0.010 A 
ATOM     30  C   UNL A   1      36.882  33.719  28.918  1.00  0.00     0.010 A 
ATOM     31  C   UNL A   1      36.885  32.851  30.021  1.00  0.00    -0.014 A 
BRANCH  31  32
ATOM     32  C   UNL A   1      38.167  32.271  30.492  1.00  0.00     0.031 A 
ATOM     33  C   UNL A   1      38.676  30.983  29.911  1.00  0.00     0.074 A 
ATOM     34  C   UNL A   1      38.847  32.875  31.488  1.00  0.00     0.049 A 
ATOM     35  N   UNL A   1      39.745  30.298  30.231  1.00  0.00    -0.248 NA
ATOM     36  C   UNL A   1      37.868  30.372  28.844  1.00  0.00     0.031 C 
ATOM     37  C   UNL A   1      38.443  34.109  32.164  1.00  0.00     0.029 A 
ATOM     38  N   UNL A   1      40.020  32.523  32.107  1.00  0.00    -0.354 N 
ATOM     39  C   UNL A   1      39.727  29.171  29.421  1.00  0.00     0.074 A 
ATOM     40  C   UNL A   1      38.522  29.242  28.623  1.00  0.00     0.031 C 
ATOM     41  C   UNL A   1      39.365  34.424  33.089  1.00  0.00     0.029 A 
ATOM     42  C   UNL A   1      40.404  33.398  33.093  1.00  0.00     0.049 A 
ATOM     43  H   UNL A   1      40.537  31.721  31.867  1.00  0.00     0.167 HD
ATOM     44  C   UNL A   1      40.638  28.173  29.335  1.00  0.00     0.031 A 
ATOM     45  C   UNL A   1      41.472  33.375  33.913  1.00  0.00     0.031 A 
ATOM     46  C   UNL A   1      41.846  28.106  30.113  1.00  0.00     0.049 A 
ATOM     47  C   UNL A   1      42.466  32.254  33.802  1.00  0.00     0.074 A 
ATOM     48  C   UNL A   1      42.861  27.166  30.051  1.00  0.00     0.029 A 
ATOM     49  N   UNL A   1      42.201  29.015  31.096  1.00  0.00    -0.354 N 
ATOM     50  N   UNL A   1      42.466  31.231  32.985  1.00  0.00    -0.248 NA
ATOM     51  C   UNL A   1      43.612  32.294  34.723  1.00  0.00     0.031 C 
ATOM     52  C   UNL A   1      43.813  27.486  31.026  1.00  0.00     0.029 A 
ATOM     53  C   UNL A   1      43.409  28.648  31.663  1.00  0.00     0.049 A 
ATOM     54  H   UNL A   1      41.673  29.806  31.353  1.00  0.00     0.167 HD
ATOM     55  C   UNL A   1      43.620  30.516  33.277  1.00  0.00     0.074 A 
ATOM     56  C   UNL A   1      44.302  31.230  34.337  1.00  0.00     0.031 C 
ATOM     57  C   UNL A   1      44.073  29.367  32.718  1.00  0.00     0.031 A 
BRANCH  44  58
ATOM     58  C   UNL A   1      40.357  27.065  28.360  1.00  0.00    -0.014 A 
ATOM     59  C   UNL A   1      40.877  27.099  27.056  1.00  0.00     0.009 A 
ATOM     60  C   UNL A   1      39.593  25.960  28.760  1.00  0.00     0.009 A 
ATOM     61  C   UNL A   1      40.607  26.062  26.161  1.00  0.00     0.001 A 
ATOM     62  C   UNL A   1      39.346  24.912  27.871  1.00  0.00     0.001 A 
ATOM     63  C   UNL A   1      39.844  24.968  26.571  1.00  0.00     0.000 A 
ENDBRANCH  44  58
BRANCH  45  64
ATOM     64  C   UNL A   1      41.667  34.460  34.909  1.00  0.00    -0.014 A 
ATOM     65  C   UNL A   1      41.104  34.356  36.190  1.00  0.00     0.009 A 
ATOM     66  C   UNL A   1      42.410  35.605  34.582  1.00  0.00     0.009 A 
ATOM     67  C   UNL A   1      41.260  35.389  37.117  1.00  0.00     0.001 A 
ATOM     68  C   UNL A   1      42.586  36.625  35.520  1.00  0.00     0.001 A 
ATOM     69  C   UNL A   1      42.004  36.520  36.783  1.00  0.00     0.000 A 
ENDBRANCH  45  64
BRANCH  57  70
ATOM     70  C   UNL A   1      45.379  28.829  33.223  1.00  0.00    -0.014 A 
ATOM     71  C   UNL A   1      45.423  27.901  34.276  1.00  0.00     0.009 A 
ATOM     72  C   UNL A   1      46.580  29.225  32.614  1.00  0.00     0.009 A 
ATOM     73  C   UNL A   1      46.646  27.401  34.725  1.00  0.00     0.001 A 
ATOM     74  C   UNL A   1      47.799  28.706  33.049  1.00  0.00     0.001 A 
ATOM     75  C   UNL A   1      47.832  27.800  34.109  1.00  0.00     0.000 A 
ENDBRANCH  57  70
ENDBRANCH  31  32
ENDBRANCH  23  26
ENDBRANCH  21  22
ENDBRANCH  20  21
ENDBRANCH   1  20
TORSDOF 14
ENDMDL
