MODEL 1
REMARK VINA RESULT:     -12.4      0.000      0.000
REMARK SMILES Cc1ccccc1NC(=O)CSc1nc(C(=O)NCCCCCCNC(=O)c2ccc(-c3c4nc(c(-c5ccccc5)c5ccc([nH]5)c(-c5ccccc5)c5nc(c(-c6ccccc6)c6ccc3[nH]6)C=C5)C=C4)cc2)c2ccccc2n1
REMARK SMILES IDX 20 1 19 2 18 3 16 4 17 5 15 7 13 8 14 9 82 10 81 11 76 12
REMARK SMILES IDX 80 13 77 14 79 15 78 16 12 17 11 18 9 19 8 20 10 22 7 23
REMARK SMILES IDX 1 24 2 25 3 26 4 27 6 28 5 29 21 30 22 31 23 32 24 33 25 34
REMARK SMILES IDX 26 35 27 37 28 38 29 39 75 40 30 41 74 42 31 43 32 44 33 45
REMARK SMILES IDX 68 46 34 47 73 48 67 49 69 50 35 51 72 52 66 53 65 54 36 56
REMARK SMILES IDX 58 57 43 58 57 59 44 60 47 61 56 62 70 63 45 64 46 65 55 67
REMARK SMILES IDX 71 68 48 69 37 70 38 71 42 72 39 73 41 74 40 75 59 76 60 77
REMARK SMILES IDX 64 78 61 79 63 80 62 81 49 82 50 83 54 84 51 85 53 86 52 87
REMARK H PARENT 18 6 8 21 25 36 69 55 47 66
REMARK Flexibility Score: inf
ROOT
ATOM      1  C   UNL A   1      34.050  20.662  26.156  1.00  0.00     0.021 C 
ENDROOT
BRANCH   1   2
ATOM      2  C   UNL A   1      34.000  21.798  27.174  1.00  0.00     0.116 C 
BRANCH   2   3
ATOM      3  N   UNL A   1      32.686  22.259  27.568  1.00  0.00    -0.351 N 
ATOM      4  C   UNL A   1      31.884  23.236  26.998  1.00  0.00     0.270 C 
ATOM      5  O   UNL A   1      30.748  23.381  27.450  1.00  0.00    -0.267 OA
ATOM      6  H   UNL A   1      32.305  21.813  28.358  1.00  0.00     0.163 HD
BRANCH   4   7
ATOM      7  C   UNL A   1      32.383  24.167  25.925  1.00  0.00     0.140 A 
ATOM      8  C   UNL A   1      33.310  26.213  25.550  1.00  0.00     0.189 A 
ATOM      9  N   UNL A   1      32.742  25.379  26.416  1.00  0.00    -0.217 NA
ATOM     10  N   UNL A   1      33.652  25.900  24.295  1.00  0.00    -0.222 NA
ATOM     11  C   UNL A   1      33.272  24.711  23.826  1.00  0.00     0.076 A 
ATOM     12  C   UNL A   1      32.527  23.801  24.579  1.00  0.00     0.032 A 
ATOM     13  C   UNL A   1      33.645  24.364  22.534  1.00  0.00     0.029 A 
ATOM     14  C   UNL A   1      32.016  22.641  23.940  1.00  0.00     0.013 A 
ATOM     15  C   UNL A   1      33.247  23.161  21.948  1.00  0.00     0.002 A 
ATOM     16  C   UNL A   1      32.401  22.310  22.643  1.00  0.00     0.001 A 
BRANCH   8  17
ATOM     17  S   UNL A   1      33.765  27.826  26.109  1.00  0.00    -0.076 SA
BRANCH  17  18
ATOM     18  C   UNL A   1      32.364  28.789  25.472  1.00  0.00     0.178 C 
BRANCH  18  19
ATOM     19  C   UNL A   1      32.457  29.119  23.999  1.00  0.00     0.234 C 
ATOM     20  N   UNL A   1      31.403  29.240  23.145  1.00  0.00    -0.325 N 
ATOM     21  H   UNL A   1      31.698  29.392  22.218  1.00  0.00     0.169 HD
ATOM     22  O   UNL A   1      33.575  29.271  23.484  1.00  0.00    -0.274 OA
BRANCH  20  23
ATOM     23  C   UNL A   1      29.998  29.205  23.248  1.00  0.00     0.044 A 
ATOM     24  C   UNL A   1      30.049  26.616  23.455  1.00  0.00     0.046 C 
ATOM     25  C   UNL A   1      29.351  27.947  23.330  1.00  0.00    -0.027 A 
ATOM     26  C   UNL A   1      27.942  27.885  23.262  1.00  0.00     0.005 A 
ATOM     27  C   UNL A   1      27.174  29.039  23.172  1.00  0.00     0.000 A 
ATOM     28  C   UNL A   1      29.198  30.351  23.244  1.00  0.00     0.026 A 
ATOM     29  C   UNL A   1      27.803  30.273  23.192  1.00  0.00     0.002 A 
ENDBRANCH  20  23
ENDBRANCH  18  19
ENDBRANCH  17  18
ENDBRANCH   8  17
ENDBRANCH   4   7
ENDBRANCH   2   3
ENDBRANCH   1   2
BRANCH   1  30
ATOM     30  C   UNL A   1      35.013  20.759  24.963  1.00  0.00     0.002 C 
BRANCH  30  31
ATOM     31  C   UNL A   1      35.966  21.955  24.825  1.00  0.00     0.002 C 
BRANCH  31  32
ATOM     32  C   UNL A   1      37.447  21.748  25.139  1.00  0.00     0.021 C 
BRANCH  32  33
ATOM     33  C   UNL A   1      38.068  22.744  26.107  1.00  0.00     0.116 C 
BRANCH  33  34
ATOM     34  N   UNL A   1      39.521  22.649  26.224  1.00  0.00    -0.352 N 
ATOM     35  C   UNL A   1      40.409  23.618  26.671  1.00  0.00     0.251 C 
ATOM     36  H   UNL A   1      39.920  21.791  25.951  1.00  0.00     0.163 HD
ATOM     37  O   UNL A   1      41.600  23.388  26.784  1.00  0.00    -0.269 OA
BRANCH  35  38
ATOM     38  C   UNL A   1      39.849  24.912  27.125  1.00  0.00     0.039 A 
ATOM     39  C   UNL A   1      40.157  26.049  26.377  1.00  0.00     0.014 A 
ATOM     40  C   UNL A   1      39.289  25.018  28.396  1.00  0.00     0.014 A 
ATOM     41  C   UNL A   1      40.154  27.288  27.009  1.00  0.00     0.010 A 
ATOM     42  C   UNL A   1      39.372  26.233  29.049  1.00  0.00     0.010 A 
ATOM     43  C   UNL A   1      39.886  27.348  28.377  1.00  0.00    -0.014 A 
BRANCH  43  44
ATOM     44  C   UNL A   1      40.291  28.480  29.203  1.00  0.00     0.031 A 
ATOM     45  C   UNL A   1      39.340  29.545  29.560  1.00  0.00     0.074 A 
ATOM     46  C   UNL A   1      41.557  28.545  29.674  1.00  0.00     0.049 A 
ATOM     47  N   UNL A   1      39.690  30.742  29.896  1.00  0.00    -0.248 NA
ATOM     48  C   UNL A   1      37.898  29.358  29.502  1.00  0.00     0.031 C 
ATOM     49  C   UNL A   1      42.086  29.437  30.701  1.00  0.00     0.029 A 
ATOM     50  N   UNL A   1      42.688  27.956  29.109  1.00  0.00    -0.354 N 
ATOM     51  C   UNL A   1      38.576  31.372  30.391  1.00  0.00     0.074 A 
ATOM     52  C   UNL A   1      37.472  30.513  30.023  1.00  0.00     0.031 C 
ATOM     53  C   UNL A   1      43.413  29.547  30.533  1.00  0.00     0.029 A 
ATOM     54  C   UNL A   1      43.758  28.849  29.307  1.00  0.00     0.049 A 
ATOM     55  H   UNL A   1      42.729  27.083  28.657  1.00  0.00     0.167 HD
ATOM     56  C   UNL A   1      38.727  32.473  31.182  1.00  0.00     0.031 A 
ATOM     57  C   UNL A   1      44.404  29.404  28.240  1.00  0.00     0.031 A 
ATOM     58  C   UNL A   1      40.119  32.929  31.247  1.00  0.00     0.049 A 
ATOM     59  C   UNL A   1      44.309  30.917  28.156  1.00  0.00     0.074 A 
ATOM     60  C   UNL A   1      41.110  32.910  32.216  1.00  0.00     0.029 A 
ATOM     61  N   UNL A   1      40.752  33.298  30.069  1.00  0.00    -0.354 N 
ATOM     62  N   UNL A   1      43.644  31.672  28.986  1.00  0.00    -0.248 NA
ATOM     63  C   UNL A   1      44.872  31.684  27.044  1.00  0.00     0.031 C 
ATOM     64  C   UNL A   1      42.344  33.284  31.605  1.00  0.00     0.029 A 
ATOM     65  C   UNL A   1      42.098  33.538  30.270  1.00  0.00     0.049 A 
ATOM     66  H   UNL A   1      40.299  33.379  29.198  1.00  0.00     0.167 HD
ATOM     67  C   UNL A   1      43.620  32.960  28.517  1.00  0.00     0.074 A 
ATOM     68  C   UNL A   1      44.408  32.919  27.300  1.00  0.00     0.031 C 
ATOM     69  C   UNL A   1      42.906  33.950  29.133  1.00  0.00     0.031 A 
BRANCH  56  70
ATOM     70  C   UNL A   1      37.638  32.986  32.099  1.00  0.00    -0.014 A 
ATOM     71  C   UNL A   1      37.163  34.303  31.950  1.00  0.00     0.009 A 
ATOM     72  C   UNL A   1      37.083  32.258  33.165  1.00  0.00     0.009 A 
ATOM     73  C   UNL A   1      36.279  34.885  32.869  1.00  0.00     0.001 A 
ATOM     74  C   UNL A   1      36.227  32.842  34.109  1.00  0.00     0.001 A 
ATOM     75  C   UNL A   1      35.834  34.164  33.968  1.00  0.00     0.000 A 
ENDBRANCH  56  70
BRANCH  57  76
ATOM     76  C   UNL A   1      44.477  28.495  27.060  1.00  0.00    -0.014 A 
ATOM     77  C   UNL A   1      45.410  27.437  27.086  1.00  0.00     0.009 A 
ATOM     78  C   UNL A   1      43.447  28.455  26.112  1.00  0.00     0.009 A 
ATOM     79  C   UNL A   1      45.246  26.319  26.265  1.00  0.00     0.001 A 
ATOM     80  C   UNL A   1      43.299  27.340  25.278  1.00  0.00     0.001 A 
ATOM     81  C   UNL A   1      44.175  26.259  25.379  1.00  0.00     0.000 A 
ENDBRANCH  57  76
BRANCH  69  82
ATOM     82  C   UNL A   1      42.843  35.392  28.685  1.00  0.00    -0.014 A 
ATOM     83  C   UNL A   1      42.169  35.827  27.535  1.00  0.00     0.009 A 
ATOM     84  C   UNL A   1      43.578  36.374  29.388  1.00  0.00     0.009 A 
ATOM     85  C   UNL A   1      42.158  37.180  27.161  1.00  0.00     0.001 A 
ATOM     86  C   UNL A   1      43.591  37.718  29.006  1.00  0.00     0.001 A 
ATOM     87  C   UNL A   1      42.863  38.125  27.899  1.00  0.00     0.000 A 
ENDBRANCH  69  82
ENDBRANCH  43  44
ENDBRANCH  35  38
ENDBRANCH  33  34
ENDBRANCH  32  33
ENDBRANCH  31  32
ENDBRANCH  30  31
ENDBRANCH   1  30
TORSDOF 17
ENDMDL
MODEL 2
REMARK VINA RESULT:     -12.2      2.897      8.827
REMARK SMILES Cc1ccccc1NC(=O)CSc1nc(C(=O)NCCCCCCNC(=O)c2ccc(-c3c4nc(c(-c5ccccc5)c5ccc([nH]5)c(-c5ccccc5)c5nc(c(-c6ccccc6)c6ccc3[nH]6)C=C5)C=C4)cc2)c2ccccc2n1
REMARK SMILES IDX 20 1 19 2 18 3 16 4 17 5 15 7 13 8 14 9 82 10 81 11 76 12
REMARK SMILES IDX 80 13 77 14 79 15 78 16 12 17 11 18 9 19 8 20 10 22 7 23
REMARK SMILES IDX 1 24 2 25 3 26 4 27 6 28 5 29 21 30 22 31 23 32 24 33 25 34
REMARK SMILES IDX 26 35 27 37 28 38 29 39 75 40 30 41 74 42 31 43 32 44 33 45
REMARK SMILES IDX 68 46 34 47 73 48 67 49 69 50 35 51 72 52 66 53 65 54 36 56
REMARK SMILES IDX 58 57 43 58 57 59 44 60 47 61 56 62 70 63 45 64 46 65 55 67
REMARK SMILES IDX 71 68 48 69 37 70 38 71 42 72 39 73 41 74 40 75 59 76 60 77
REMARK SMILES IDX 64 78 61 79 63 80 62 81 49 82 50 83 54 84 51 85 53 86 52 87
REMARK H PARENT 18 6 8 21 25 36 69 55 47 66
REMARK Flexibility Score: inf
ROOT
ATOM      1  C   UNL A   1      32.374  29.210  26.895  1.00  0.00     0.021 C 
ENDROOT
BRANCH   1   2
ATOM      2  C   UNL A   1      32.267  30.100  25.659  1.00  0.00     0.116 C 
BRANCH   2   3
ATOM      3  N   UNL A   1      33.042  29.703  24.504  1.00  0.00    -0.351 N 
ATOM      4  C   UNL A   1      32.690  28.885  23.441  1.00  0.00     0.270 C 
ATOM      5  O   UNL A   1      33.489  28.776  22.511  1.00  0.00    -0.267 OA
ATOM      6  H   UNL A   1      33.955  30.067  24.467  1.00  0.00     0.163 HD
BRANCH   4   7
ATOM      7  C   UNL A   1      31.423  28.070  23.432  1.00  0.00     0.140 A 
ATOM      8  C   UNL A   1      30.497  26.102  24.106  1.00  0.00     0.189 A 
ATOM      9  N   UNL A   1      31.598  26.835  23.963  1.00  0.00    -0.217 NA
ATOM     10  N   UNL A   1      29.252  26.536  23.882  1.00  0.00    -0.222 NA
ATOM     11  C   UNL A   1      29.104  27.746  23.341  1.00  0.00     0.076 A 
ATOM     12  C   UNL A   1      30.185  28.558  22.991  1.00  0.00     0.032 A 
ATOM     13  C   UNL A   1      27.815  28.218  23.128  1.00  0.00     0.029 A 
ATOM     14  C   UNL A   1      29.937  29.749  22.259  1.00  0.00     0.013 A 
ATOM     15  C   UNL A   1      27.572  29.452  22.522  1.00  0.00     0.002 A 
ATOM     16  C   UNL A   1      28.637  30.206  22.055  1.00  0.00     0.001 A 
BRANCH   8  17
ATOM     17  S   UNL A   1      30.654  24.465  24.752  1.00  0.00    -0.076 SA
BRANCH  17  18
ATOM     18  C   UNL A   1      32.086  24.691  25.846  1.00  0.00     0.178 C 
BRANCH  18  19
ATOM     19  C   UNL A   1      32.357  23.518  26.761  1.00  0.00     0.234 C 
ATOM     20  N   UNL A   1      33.455  22.713  26.716  1.00  0.00    -0.325 N 
ATOM     21  H   UNL A   1      33.393  21.972  27.360  1.00  0.00     0.169 HD
ATOM     22  O   UNL A   1      31.516  23.216  27.622  1.00  0.00    -0.274 OA
BRANCH  20  23
ATOM     23  C   UNL A   1      34.658  22.672  25.983  1.00  0.00     0.044 A 
ATOM     24  C   UNL A   1      34.027  20.341  25.024  1.00  0.00     0.046 C 
ATOM     25  C   UNL A   1      34.958  21.510  25.228  1.00  0.00    -0.027 A 
ATOM     26  C   UNL A   1      36.229  21.381  24.629  1.00  0.00     0.005 A 
ATOM     27  C   UNL A   1      37.174  22.396  24.717  1.00  0.00     0.000 A 
ATOM     28  C   UNL A   1      35.594  23.710  25.983  1.00  0.00     0.026 A 
ATOM     29  C   UNL A   1      36.844  23.572  25.371  1.00  0.00     0.002 A 
ENDBRANCH  20  23
ENDBRANCH  18  19
ENDBRANCH  17  18
ENDBRANCH   8  17
ENDBRANCH   4   7
ENDBRANCH   2   3
ENDBRANCH   1   2
BRANCH   1  30
ATOM     30  C   UNL A   1      33.670  28.426  27.151  1.00  0.00     0.002 C 
BRANCH  30  31
ATOM     31  C   UNL A   1      35.006  29.163  27.322  1.00  0.00     0.002 C 
BRANCH  31  32
ATOM     32  C   UNL A   1      35.066  30.355  28.275  1.00  0.00     0.021 C 
BRANCH  32  33
ATOM     33  C   UNL A   1      35.012  31.730  27.626  1.00  0.00     0.116 C 
BRANCH  33  34
ATOM     34  N   UNL A   1      34.019  32.633  28.203  1.00  0.00    -0.352 N 
ATOM     35  C   UNL A   1      34.163  33.479  29.293  1.00  0.00     0.251 C 
ATOM     36  H   UNL A   1      33.138  32.642  27.763  1.00  0.00     0.163 HD
ATOM     37  O   UNL A   1      33.272  34.236  29.636  1.00  0.00    -0.269 OA
BRANCH  35  38
ATOM     38  C   UNL A   1      35.483  33.523  29.964  1.00  0.00     0.039 A 
ATOM     39  C   UNL A   1      36.530  34.158  29.294  1.00  0.00     0.014 A 
ATOM     40  C   UNL A   1      35.726  32.715  31.073  1.00  0.00     0.014 A 
ATOM     41  C   UNL A   1      37.837  33.768  29.568  1.00  0.00     0.010 A 
ATOM     42  C   UNL A   1      37.014  32.261  31.284  1.00  0.00     0.010 A 
ATOM     43  C   UNL A   1      38.055  32.727  30.472  1.00  0.00    -0.014 A 
BRANCH  43  44
ATOM     44  C   UNL A   1      39.293  31.955  30.490  1.00  0.00     0.031 A 
ATOM     45  C   UNL A   1      39.406  30.676  29.772  1.00  0.00     0.074 A 
ATOM     46  C   UNL A   1      40.367  32.431  31.158  1.00  0.00     0.049 A 
ATOM     47  N   UNL A   1      40.260  29.755  30.070  1.00  0.00    -0.248 NA
ATOM     48  C   UNL A   1      38.510  30.305  28.687  1.00  0.00     0.031 C 
ATOM     49  C   UNL A   1      41.746  31.954  31.095  1.00  0.00     0.029 A 
ATOM     50  N   UNL A   1      40.355  33.311  32.240  1.00  0.00    -0.354 N 
ATOM     51  C   UNL A   1      40.243  28.834  29.052  1.00  0.00     0.074 A 
ATOM     52  C   UNL A   1      39.066  29.161  28.278  1.00  0.00     0.031 C 
ATOM     53  C   UNL A   1      42.381  32.321  32.218  1.00  0.00     0.029 A 
ATOM     54  C   UNL A   1      41.394  32.916  33.103  1.00  0.00     0.049 A 
ATOM     55  H   UNL A   1      39.736  34.063  32.375  1.00  0.00     0.167 HD
ATOM     56  C   UNL A   1      41.304  27.991  28.896  1.00  0.00     0.031 A 
ATOM     57  C   UNL A   1      41.120  32.494  34.372  1.00  0.00     0.031 A 
ATOM     58  C   UNL A   1      42.270  28.097  29.994  1.00  0.00     0.049 A 
ATOM     59  C   UNL A   1      41.516  31.058  34.666  1.00  0.00     0.074 A 
ATOM     60  C   UNL A   1      43.548  28.619  30.125  1.00  0.00     0.029 A 
ATOM     61  N   UNL A   1      41.840  27.826  31.285  1.00  0.00    -0.354 N 
ATOM     62  N   UNL A   1      42.043  30.236  33.800  1.00  0.00    -0.248 NA
ATOM     63  C   UNL A   1      41.234  30.405  35.944  1.00  0.00     0.031 C 
ATOM     64  C   UNL A   1      43.883  28.646  31.512  1.00  0.00     0.029 A 
ATOM     65  C   UNL A   1      42.812  28.133  32.218  1.00  0.00     0.049 A 
ATOM     66  H   UNL A   1      40.954  27.460  31.509  1.00  0.00     0.167 HD
ATOM     67  C   UNL A   1      42.108  28.978  34.342  1.00  0.00     0.074 A 
ATOM     68  C   UNL A   1      41.594  29.136  35.689  1.00  0.00     0.031 C 
ATOM     69  C   UNL A   1      42.524  27.893  33.623  1.00  0.00     0.031 A 
BRANCH  56  70
ATOM     70  C   UNL A   1      41.584  27.246  27.609  1.00  0.00    -0.014 A 
ATOM     71  C   UNL A   1      40.983  25.994  27.382  1.00  0.00     0.009 A 
ATOM     72  C   UNL A   1      42.472  27.682  26.611  1.00  0.00     0.009 A 
ATOM     73  C   UNL A   1      41.331  25.188  26.289  1.00  0.00     0.001 A 
ATOM     74  C   UNL A   1      42.853  26.868  25.535  1.00  0.00     0.001 A 
ATOM     75  C   UNL A   1      42.291  25.611  25.381  1.00  0.00     0.000 A 
ENDBRANCH  56  70
BRANCH  57  76
ATOM     76  C   UNL A   1      39.949  33.188  34.981  1.00  0.00    -0.014 A 
ATOM     77  C   UNL A   1      38.663  32.648  34.764  1.00  0.00     0.009 A 
ATOM     78  C   UNL A   1      40.115  34.124  36.010  1.00  0.00     0.009 A 
ATOM     79  C   UNL A   1      37.605  32.951  35.625  1.00  0.00     0.001 A 
ATOM     80  C   UNL A   1      39.047  34.439  36.858  1.00  0.00     0.001 A 
ATOM     81  C   UNL A   1      37.805  33.826  36.688  1.00  0.00     0.000 A 
ENDBRANCH  57  76
BRANCH  69  82
ATOM     82  C   UNL A   1      42.636  26.481  34.154  1.00  0.00    -0.014 A 
ATOM     83  C   UNL A   1      41.752  25.923  35.088  1.00  0.00     0.009 A 
ATOM     84  C   UNL A   1      43.741  25.683  33.784  1.00  0.00     0.009 A 
ATOM     85  C   UNL A   1      41.916  24.610  35.557  1.00  0.00     0.001 A 
ATOM     86  C   UNL A   1      43.924  24.384  34.266  1.00  0.00     0.001 A 
ATOM     87  C   UNL A   1      42.997  23.839  35.141  1.00  0.00     0.000 A 
ENDBRANCH  69  82
ENDBRANCH  43  44
ENDBRANCH  35  38
ENDBRANCH  33  34
ENDBRANCH  32  33
ENDBRANCH  31  32
ENDBRANCH  30  31
ENDBRANCH   1  30
TORSDOF 17
ENDMDL
MODEL 3
REMARK VINA RESULT:     -11.8      3.338      8.713
REMARK SMILES Cc1ccccc1NC(=O)CSc1nc(C(=O)NCCCCCCNC(=O)c2ccc(-c3c4nc(c(-c5ccccc5)c5ccc([nH]5)c(-c5ccccc5)c5nc(c(-c6ccccc6)c6ccc3[nH]6)C=C5)C=C4)cc2)c2ccccc2n1
REMARK SMILES IDX 20 1 19 2 18 3 16 4 17 5 15 7 13 8 14 9 82 10 81 11 76 12
REMARK SMILES IDX 80 13 77 14 79 15 78 16 12 17 11 18 9 19 8 20 10 22 7 23
REMARK SMILES IDX 1 24 2 25 3 26 4 27 6 28 5 29 21 30 22 31 23 32 24 33 25 34
REMARK SMILES IDX 26 35 27 37 28 38 29 39 75 40 30 41 74 42 31 43 32 44 33 45
REMARK SMILES IDX 68 46 34 47 73 48 67 49 69 50 35 51 72 52 66 53 65 54 36 56
REMARK SMILES IDX 58 57 43 58 57 59 44 60 47 61 56 62 70 63 45 64 46 65 55 67
REMARK SMILES IDX 71 68 48 69 37 70 38 71 42 72 39 73 41 74 40 75 59 76 60 77
REMARK SMILES IDX 64 78 61 79 63 80 62 81 49 82 50 83 54 84 51 85 53 86 52 87
REMARK H PARENT 18 6 8 21 25 36 69 55 47 66
REMARK Flexibility Score: inf
ROOT
ATOM      1  C   UNL A   1      35.385  29.164  27.295  1.00  0.00     0.021 C 
ENDROOT
BRANCH   1   2
ATOM      2  C   UNL A   1      34.086  28.586  26.742  1.00  0.00     0.116 C 
BRANCH   2   3
ATOM      3  N   UNL A   1      32.913  28.705  27.581  1.00  0.00    -0.351 N 
ATOM      4  C   UNL A   1      31.723  27.995  27.545  1.00  0.00     0.270 C 
ATOM      5  O   UNL A   1      30.903  28.203  28.438  1.00  0.00    -0.267 OA
ATOM      6  H   UNL A   1      32.968  29.394  28.283  1.00  0.00     0.163 HD
BRANCH   4   7
ATOM      7  C   UNL A   1      31.373  27.061  26.417  1.00  0.00     0.140 A 
ATOM      8  C   UNL A   1      30.961  24.884  25.891  1.00  0.00     0.189 A 
ATOM      9  N   UNL A   1      31.382  25.760  26.798  1.00  0.00    -0.217 NA
ATOM     10  N   UNL A   1      30.430  25.203  24.706  1.00  0.00    -0.222 NA
ATOM     11  C   UNL A   1      30.449  26.486  24.341  1.00  0.00     0.076 A 
ATOM     12  C   UNL A   1      31.010  27.491  25.132  1.00  0.00     0.032 A 
ATOM     13  C   UNL A   1      29.876  26.832  23.124  1.00  0.00     0.029 A 
ATOM     14  C   UNL A   1      31.146  28.794  24.587  1.00  0.00     0.013 A 
ATOM     15  C   UNL A   1      29.897  28.144  22.646  1.00  0.00     0.002 A 
ATOM     16  C   UNL A   1      30.565  29.123  23.365  1.00  0.00     0.001 A 
BRANCH   8  17
ATOM     17  S   UNL A   1      30.985  23.166  26.303  1.00  0.00    -0.076 SA
BRANCH  17  18
ATOM     18  C   UNL A   1      32.621  23.051  27.086  1.00  0.00     0.178 C 
BRANCH  18  19
ATOM     19  C   UNL A   1      33.679  22.406  26.218  1.00  0.00     0.234 C 
ATOM     20  N   UNL A   1      34.078  22.848  24.994  1.00  0.00    -0.325 N 
ATOM     21  H   UNL A   1      34.730  22.238  24.579  1.00  0.00     0.169 HD
ATOM     22  O   UNL A   1      34.232  21.368  26.612  1.00  0.00    -0.274 OA
BRANCH  20  23
ATOM     23  C   UNL A   1      33.798  23.955  24.168  1.00  0.00     0.044 A 
ATOM     24  C   UNL A   1      32.528  22.425  22.496  1.00  0.00     0.046 C 
ATOM     25  C   UNL A   1      33.114  23.740  22.945  1.00  0.00    -0.027 A 
ATOM     26  C   UNL A   1      32.976  24.806  22.030  1.00  0.00     0.005 A 
ATOM     27  C   UNL A   1      33.449  26.078  22.329  1.00  0.00     0.000 A 
ATOM     28  C   UNL A   1      34.185  25.262  24.478  1.00  0.00     0.026 A 
ATOM     29  C   UNL A   1      34.028  26.311  23.566  1.00  0.00     0.002 A 
ENDBRANCH  20  23
ENDBRANCH  18  19
ENDBRANCH  17  18
ENDBRANCH   8  17
ENDBRANCH   4   7
ENDBRANCH   2   3
ENDBRANCH   1   2
BRANCH   1  30
ATOM     30  C   UNL A   1      35.598  30.685  27.292  1.00  0.00     0.002 C 
BRANCH  30  31
ATOM     31  C   UNL A   1      35.101  31.544  28.464  1.00  0.00     0.002 C 
BRANCH  31  32
ATOM     32  C   UNL A   1      34.336  32.829  28.156  1.00  0.00     0.021 C 
BRANCH  32  33
ATOM     33  C   UNL A   1      34.775  34.067  28.924  1.00  0.00     0.116 C 
BRANCH  33  34
ATOM     34  N   UNL A   1      33.746  34.641  29.788  1.00  0.00    -0.352 N 
ATOM     35  C   UNL A   1      33.679  34.613  31.174  1.00  0.00     0.251 C 
ATOM     36  H   UNL A   1      33.007  35.103  29.329  1.00  0.00     0.163 HD
ATOM     37  O   UNL A   1      32.795  35.190  31.781  1.00  0.00    -0.269 OA
BRANCH  35  38
ATOM     38  C   UNL A   1      34.787  33.957  31.906  1.00  0.00     0.039 A 
ATOM     39  C   UNL A   1      35.942  34.706  32.141  1.00  0.00     0.014 A 
ATOM     40  C   UNL A   1      34.778  32.576  32.086  1.00  0.00     0.014 A 
ATOM     41  C   UNL A   1      37.153  34.040  32.295  1.00  0.00     0.010 A 
ATOM     42  C   UNL A   1      35.990  31.915  32.148  1.00  0.00     0.010 A 
ATOM     43  C   UNL A   1      37.181  32.650  32.167  1.00  0.00    -0.014 A 
BRANCH  43  44
ATOM     44  C   UNL A   1      38.405  31.919  31.861  1.00  0.00     0.031 A 
ATOM     45  C   UNL A   1      38.364  30.594  31.221  1.00  0.00     0.074 A 
ATOM     46  C   UNL A   1      39.604  32.474  32.146  1.00  0.00     0.049 A 
ATOM     47  N   UNL A   1      39.313  29.723  31.305  1.00  0.00    -0.248 NA
ATOM     48  C   UNL A   1      37.205  30.118  30.479  1.00  0.00     0.031 C 
ATOM     49  C   UNL A   1      40.924  32.034  31.701  1.00  0.00     0.029 A 
ATOM     50  N   UNL A   1      39.870  33.429  33.126  1.00  0.00    -0.354 N 
ATOM     51  C   UNL A   1      39.041  28.729  30.398  1.00  0.00     0.074 A 
ATOM     52  C   UNL A   1      37.672  28.964  29.993  1.00  0.00     0.031 C 
ATOM     53  C   UNL A   1      41.845  32.501  32.558  1.00  0.00     0.029 A 
ATOM     54  C   UNL A   1      41.137  33.130  33.660  1.00  0.00     0.049 A 
ATOM     55  H   UNL A   1      39.282  34.171  33.394  1.00  0.00     0.167 HD
ATOM     56  C   UNL A   1      40.048  27.909  29.983  1.00  0.00     0.031 A 
ATOM     57  C   UNL A   1      41.273  32.794  34.976  1.00  0.00     0.031 A 
ATOM     58  C   UNL A   1      41.290  28.123  30.732  1.00  0.00     0.049 A 
ATOM     59  C   UNL A   1      41.809  31.396  35.225  1.00  0.00     0.074 A 
ATOM     60  C   UNL A   1      42.521  28.691  30.443  1.00  0.00     0.029 A 
ATOM     61  N   UNL A   1      41.277  27.935  32.107  1.00  0.00    -0.354 N 
ATOM     62  N   UNL A   1      42.096  30.529  34.294  1.00  0.00    -0.248 NA
ATOM     63  C   UNL A   1      41.952  30.830  36.567  1.00  0.00     0.031 C 
ATOM     64  C   UNL A   1      43.251  28.830  31.661  1.00  0.00     0.029 A 
ATOM     65  C   UNL A   1      42.465  28.338  32.685  1.00  0.00     0.049 A 
ATOM     66  H   UNL A   1      40.516  27.561  32.608  1.00  0.00     0.167 HD
ATOM     67  C   UNL A   1      42.382  29.316  34.867  1.00  0.00     0.074 A 
ATOM     68  C   UNL A   1      42.284  29.557  36.294  1.00  0.00     0.031 C 
ATOM     69  C   UNL A   1      42.620  28.194  34.124  1.00  0.00     0.031 A 
BRANCH  56  70
ATOM     70  C   UNL A   1      39.971  27.081  28.719  1.00  0.00    -0.014 A 
ATOM     71  C   UNL A   1      39.277  25.856  28.729  1.00  0.00     0.009 A 
ATOM     72  C   UNL A   1      40.604  27.409  27.508  1.00  0.00     0.009 A 
ATOM     73  C   UNL A   1      39.310  24.972  27.641  1.00  0.00     0.001 A 
ATOM     74  C   UNL A   1      40.673  26.517  26.429  1.00  0.00     0.001 A 
ATOM     75  C   UNL A   1      40.035  25.288  26.501  1.00  0.00     0.000 A 
ENDBRANCH  56  70
BRANCH  57  76
ATOM     76  C   UNL A   1      40.302  33.496  35.864  1.00  0.00    -0.014 A 
ATOM     77  C   UNL A   1      39.197  32.769  36.355  1.00  0.00     0.009 A 
ATOM     78  C   UNL A   1      40.631  34.710  36.482  1.00  0.00     0.009 A 
ATOM     79  C   UNL A   1      38.515  33.190  37.500  1.00  0.00     0.001 A 
ATOM     80  C   UNL A   1      39.932  35.136  37.618  1.00  0.00     0.001 A 
ATOM     81  C   UNL A   1      38.901  34.360  38.146  1.00  0.00     0.000 A 
ENDBRANCH  57  76
BRANCH  69  82
ATOM     82  C   UNL A   1      42.954  26.829  34.682  1.00  0.00    -0.014 A 
ATOM     83  C   UNL A   1      42.032  26.006  35.345  1.00  0.00     0.009 A 
ATOM     84  C   UNL A   1      44.288  26.366  34.641  1.00  0.00     0.009 A 
ATOM     85  C   UNL A   1      42.406  24.753  35.856  1.00  0.00     0.001 A 
ATOM     86  C   UNL A   1      44.672  25.131  35.170  1.00  0.00     0.001 A 
ATOM     87  C   UNL A   1      43.722  24.314  35.763  1.00  0.00     0.000 A 
ENDBRANCH  69  82
ENDBRANCH  43  44
ENDBRANCH  35  38
ENDBRANCH  33  34
ENDBRANCH  32  33
ENDBRANCH  31  32
ENDBRANCH  30  31
ENDBRANCH   1  30
TORSDOF 17
ENDMDL
