MODEL 1
REMARK VINA RESULT:     -12.2      0.000      0.000
REMARK SMILES O=C(NCCCCCCNC(=O)[C@H]1[C@H]2CC[C@H](C2)[C@@H]1C(=O)N1CCN(c2cccc(Cl)c2)CC1)c1ccc(-c2c3nc(c(-c4ccccc4)c4ccc([nH]4)c(-c4ccccc4)c4nc(c(-c5ccccc5)c5ccc2[nH]5)C=C4)C=C3)cc1
REMARK SMILES IDX 6 1 5 2 4 3 3 4 1 5 2 6 35 8 36 9 82 10 37 11 81 12 38 13
REMARK SMILES IDX 39 14 40 15 75 16 41 17 80 18 74 19 76 20 42 21 79 22 73 23
REMARK SMILES IDX 72 24 43 26 65 27 50 28 64 29 51 30 54 31 63 32 77 33 52 34
REMARK SMILES IDX 53 35 62 37 78 38 55 39 44 40 45 41 49 42 46 43 48 44 47 45
REMARK SMILES IDX 66 46 67 47 71 48 68 49 70 50 69 51 56 52 57 53 61 54 58 55
REMARK SMILES IDX 60 56 59 57 7 58 8 59 9 60 10 61 11 62 12 64 13 65 14 66
REMARK SMILES IDX 19 67 15 68 18 69 17 70 16 71 20 72 21 73 22 74 23 75 34 76
REMARK SMILES IDX 24 77 33 78 25 79 26 80 27 81 32 82 28 83 30 84 29 85 31 86
REMARK H PARENT 3 7 76 25 54 36 10 63
REMARK Flexibility Score: inf
ROOT
ATOM      1  C   UNL A   1      31.594  30.732  26.002  1.00  0.00     0.002 C 
ENDROOT
BRANCH   1   2
ATOM      2  C   UNL A   1      31.367  32.136  26.564  1.00  0.00     0.021 C 
BRANCH   2   3
ATOM      3  C   UNL A   1      32.597  32.761  27.207  1.00  0.00     0.116 C 
BRANCH   3   4
ATOM      4  N   UNL A   1      32.353  34.119  27.664  1.00  0.00    -0.352 N 
ATOM      5  O   UNL A   1      32.579  35.913  29.020  1.00  0.00    -0.269 OA
ATOM      6  C   UNL A   1      33.017  34.834  28.631  1.00  0.00     0.251 C 
ATOM      7  H   UNL A   1      31.612  34.590  27.220  1.00  0.00     0.163 HD
BRANCH   6   8
ATOM      8  C   UNL A   1      34.257  34.284  29.220  1.00  0.00     0.039 A 
ATOM      9  C   UNL A   1      35.501  34.603  28.673  1.00  0.00     0.014 A 
ATOM     10  C   UNL A   1      34.172  33.438  30.330  1.00  0.00     0.014 A 
ATOM     11  C   UNL A   1      36.643  33.971  29.145  1.00  0.00     0.010 A 
ATOM     12  C   UNL A   1      35.334  32.871  30.861  1.00  0.00     0.010 A 
ATOM     13  C   UNL A   1      36.576  33.112  30.256  1.00  0.00    -0.014 A 
BRANCH  13  14
ATOM     14  C   UNL A   1      37.838  32.546  30.796  1.00  0.00     0.031 A 
ATOM     15  C   UNL A   1      38.467  33.079  32.051  1.00  0.00     0.074 A 
ATOM     16  C   UNL A   1      38.384  31.489  30.161  1.00  0.00     0.049 A 
ATOM     17  N   UNL A   1      39.524  32.639  32.690  1.00  0.00    -0.248 NA
ATOM     18  C   UNL A   1      37.841  34.258  32.669  1.00  0.00     0.031 C 
ATOM     19  C   UNL A   1      37.871  30.893  28.923  1.00  0.00     0.029 A 
ATOM     20  N   UNL A   1      39.463  30.709  30.484  1.00  0.00    -0.354 N 
ATOM     21  C   UNL A   1      39.693  33.487  33.776  1.00  0.00     0.074 A 
ATOM     22  C   UNL A   1      38.649  34.487  33.696  1.00  0.00     0.031 C 
ATOM     23  C   UNL A   1      38.597  29.805  28.628  1.00  0.00     0.029 A 
ATOM     24  C   UNL A   1      39.658  29.662  29.617  1.00  0.00     0.049 A 
ATOM     25  H   UNL A   1      40.043  30.882  31.260  1.00  0.00     0.167 HD
ATOM     26  C   UNL A   1      40.629  33.432  34.755  1.00  0.00     0.031 A 
ATOM     27  C   UNL A   1      40.589  28.692  29.611  1.00  0.00     0.031 A 
ATOM     28  C   UNL A   1      41.672  32.441  34.830  1.00  0.00     0.049 A 
ATOM     29  C   UNL A   1      41.617  28.663  30.701  1.00  0.00     0.074 A 
ATOM     30  C   UNL A   1      42.665  32.304  35.784  1.00  0.00     0.029 A 
ATOM     31  N   UNL A   1      41.854  31.417  33.914  1.00  0.00    -0.354 N 
ATOM     32  N   UNL A   1      41.749  29.463  31.730  1.00  0.00    -0.248 NA
ATOM     33  C   UNL A   1      42.623  27.596  30.629  1.00  0.00     0.031 C 
ATOM     34  C   UNL A   1      43.472  31.219  35.425  1.00  0.00     0.029 A 
ATOM     35  C   UNL A   1      42.951  30.652  34.273  1.00  0.00     0.049 A 
ATOM     36  H   UNL A   1      41.287  31.256  33.126  1.00  0.00     0.167 HD
ATOM     37  C   UNL A   1      42.848  28.994  32.433  1.00  0.00     0.074 A 
ATOM     38  C   UNL A   1      43.326  27.820  31.730  1.00  0.00     0.031 C 
ATOM     39  C   UNL A   1      43.419  29.495  33.555  1.00  0.00     0.031 A 
BRANCH  26  40
ATOM     40  C   UNL A   1      40.578  34.488  35.825  1.00  0.00    -0.014 A 
ATOM     41  C   UNL A   1      39.779  34.324  36.967  1.00  0.00     0.009 A 
ATOM     42  C   UNL A   1      41.381  35.634  35.716  1.00  0.00     0.009 A 
ATOM     43  C   UNL A   1      39.768  35.299  37.967  1.00  0.00     0.001 A 
ATOM     44  C   UNL A   1      41.385  36.595  36.729  1.00  0.00     0.001 A 
ATOM     45  C   UNL A   1      40.574  36.431  37.851  1.00  0.00     0.000 A 
ENDBRANCH  26  40
BRANCH  27  46
ATOM     46  C   UNL A   1      40.594  27.680  28.524  1.00  0.00    -0.014 A 
ATOM     47  C   UNL A   1      41.186  27.959  27.284  1.00  0.00     0.009 A 
ATOM     48  C   UNL A   1      40.011  26.419  28.731  1.00  0.00     0.009 A 
ATOM     49  C   UNL A   1      41.173  27.004  26.265  1.00  0.00     0.001 A 
ATOM     50  C   UNL A   1      40.027  25.456  27.721  1.00  0.00     0.001 A 
ATOM     51  C   UNL A   1      40.599  25.752  26.487  1.00  0.00     0.000 A 
ENDBRANCH  27  46
BRANCH  39  52
ATOM     52  C   UNL A   1      44.614  28.761  34.089  1.00  0.00    -0.014 A 
ATOM     53  C   UNL A   1      45.915  29.116  33.702  1.00  0.00     0.009 A 
ATOM     54  C   UNL A   1      44.436  27.702  34.993  1.00  0.00     0.009 A 
ATOM     55  C   UNL A   1      47.014  28.400  34.179  1.00  0.00     0.001 A 
ATOM     56  C   UNL A   1      45.538  27.004  35.489  1.00  0.00     0.001 A 
ATOM     57  C   UNL A   1      46.824  27.346  35.073  1.00  0.00     0.000 A 
ENDBRANCH  39  52
ENDBRANCH  13  14
ENDBRANCH   6   8
ENDBRANCH   3   4
ENDBRANCH   2   3
ENDBRANCH   1   2
BRANCH   1  58
ATOM     58  C   UNL A   1      32.964  30.120  26.321  1.00  0.00     0.002 C 
BRANCH  58  59
ATOM     59  C   UNL A   1      32.924  28.696  26.893  1.00  0.00     0.021 C 
BRANCH  59  60
ATOM     60  C   UNL A   1      31.575  27.999  26.711  1.00  0.00     0.116 C 
BRANCH  60  61
ATOM     61  N   UNL A   1      31.620  26.656  27.257  1.00  0.00    -0.356 N 
ATOM     62  C   UNL A   1      31.815  25.470  26.613  1.00  0.00     0.224 C 
ATOM     63  H   UNL A   1      31.490  26.591  28.231  1.00  0.00     0.163 HD
ATOM     64  O   UNL A   1      31.624  24.424  27.229  1.00  0.00    -0.275 OA
BRANCH  62  65
ATOM     65  C   UNL A   1      32.345  25.511  25.194  1.00  0.00     0.094 C 
ATOM     66  C   UNL A   1      33.889  25.625  25.168  1.00  0.00     0.002 C 
ATOM     67  C   UNL A   1      32.070  24.243  24.353  1.00  0.00     0.094 C 
ATOM     68  C   UNL A   1      34.562  24.436  25.879  1.00  0.00     0.005 C 
ATOM     69  C   UNL A   1      34.174  25.278  23.713  1.00  0.00     0.009 C 
ATOM     70  C   UNL A   1      33.471  23.918  23.790  1.00  0.00     0.002 C 
ATOM     71  C   UNL A   1      34.285  23.260  24.928  1.00  0.00     0.005 C 
BRANCH  67  72
ATOM     72  C   UNL A   1      30.899  24.504  23.393  1.00  0.00     0.226 C 
ATOM     73  O   UNL A   1      30.177  23.568  23.043  1.00  0.00    -0.275 OA
ATOM     74  N   UNL A   1      30.512  25.813  23.167  1.00  0.00    -0.339 N 
ATOM     75  C   UNL A   1      29.074  26.100  23.180  1.00  0.00     0.141 C 
ATOM     76  C   UNL A   1      31.267  26.708  22.288  1.00  0.00     0.141 C 
ATOM     77  C   UNL A   1      28.802  27.562  23.579  1.00  0.00     0.138 C 
ATOM     78  C   UNL A   1      31.014  28.194  22.615  1.00  0.00     0.138 C 
ATOM     79  N   UNL A   1      29.568  28.473  22.714  1.00  0.00    -0.368 N 
BRANCH  79  80
ATOM     80  C   UNL A   1      29.193  29.806  22.595  1.00  0.00     0.038 A 
ATOM     81  C   UNL A   1      29.246  30.636  23.726  1.00  0.00     0.026 A 
ATOM     82  C   UNL A   1      28.760  30.371  21.390  1.00  0.00     0.046 A 
ATOM     83  C   UNL A   1      28.883  31.983  23.663  1.00  0.00     0.004 A 
ATOM     84  C   UNL A   1      28.385  31.716  21.328  1.00  0.00     0.043 A 
ATOM     85  C   UNL A   1      28.448  32.526  22.459  1.00  0.00     0.020 A 
ATOM     86  Cl  UNL A   1      27.831  32.378  19.839  1.00  0.00    -0.084 Cl
ENDBRANCH  79  80
ENDBRANCH  67  72
ENDBRANCH  62  65
ENDBRANCH  60  61
ENDBRANCH  59  60
ENDBRANCH  58  59
ENDBRANCH   1  58
TORSDOF 15
ENDMDL
MODEL 2
REMARK VINA RESULT:     -12.0      0.617      5.689
REMARK SMILES O=C(NCCCCCCNC(=O)[C@H]1[C@H]2CC[C@H](C2)[C@@H]1C(=O)N1CCN(c2cccc(Cl)c2)CC1)c1ccc(-c2c3nc(c(-c4ccccc4)c4ccc([nH]4)c(-c4ccccc4)c4nc(c(-c5ccccc5)c5ccc2[nH]5)C=C4)C=C3)cc1
REMARK SMILES IDX 6 1 5 2 4 3 3 4 1 5 2 6 35 8 36 9 82 10 37 11 81 12 38 13
REMARK SMILES IDX 39 14 40 15 75 16 41 17 80 18 74 19 76 20 42 21 79 22 73 23
REMARK SMILES IDX 72 24 43 26 65 27 50 28 64 29 51 30 54 31 63 32 77 33 52 34
REMARK SMILES IDX 53 35 62 37 78 38 55 39 44 40 45 41 49 42 46 43 48 44 47 45
REMARK SMILES IDX 66 46 67 47 71 48 68 49 70 50 69 51 56 52 57 53 61 54 58 55
REMARK SMILES IDX 60 56 59 57 7 58 8 59 9 60 10 61 11 62 12 64 13 65 14 66
REMARK SMILES IDX 19 67 15 68 18 69 17 70 16 71 20 72 21 73 22 74 23 75 34 76
REMARK SMILES IDX 24 77 33 78 25 79 26 80 27 81 32 82 28 83 30 84 29 85 31 86
REMARK H PARENT 3 7 76 25 54 36 10 63
REMARK Flexibility Score: inf
ROOT
ATOM      1  C   UNL A   1      31.718  30.768  26.488  1.00  0.00     0.002 C 
ENDROOT
BRANCH   1   2
ATOM      2  C   UNL A   1      31.560  32.240  26.867  1.00  0.00     0.021 C 
BRANCH   2   3
ATOM      3  C   UNL A   1      32.859  32.928  27.267  1.00  0.00     0.116 C 
BRANCH   3   4
ATOM      4  N   UNL A   1      32.631  34.217  27.897  1.00  0.00    -0.352 N 
ATOM      5  O   UNL A   1      32.851  35.803  29.492  1.00  0.00    -0.269 OA
ATOM      6  C   UNL A   1      33.277  34.775  28.974  1.00  0.00     0.251 C 
ATOM      7  H   UNL A   1      31.918  34.766  27.499  1.00  0.00     0.163 HD
BRANCH   6   8
ATOM      8  C   UNL A   1      34.482  34.114  29.521  1.00  0.00     0.039 A 
ATOM      9  C   UNL A   1      35.736  34.349  28.953  1.00  0.00     0.014 A 
ATOM     10  C   UNL A   1      34.355  33.250  30.613  1.00  0.00     0.014 A 
ATOM     11  C   UNL A   1      36.834  33.617  29.384  1.00  0.00     0.010 A 
ATOM     12  C   UNL A   1      35.479  32.580  31.103  1.00  0.00     0.010 A 
ATOM     13  C   UNL A   1      36.723  32.739  30.475  1.00  0.00    -0.014 A 
BRANCH  13  14
ATOM     14  C   UNL A   1      37.948  32.062  30.972  1.00  0.00     0.031 A 
ATOM     15  C   UNL A   1      38.498  30.837  30.299  1.00  0.00     0.074 A 
ATOM     16  C   UNL A   1      38.599  32.611  32.017  1.00  0.00     0.049 A 
ATOM     17  N   UNL A   1      39.600  30.180  30.567  1.00  0.00    -0.248 NA
ATOM     18  C   UNL A   1      37.716  30.268  29.191  1.00  0.00     0.031 C 
ATOM     19  C   UNL A   1      38.152  33.793  32.761  1.00  0.00     0.029 A 
ATOM     20  N   UNL A   1      39.787  32.274  32.610  1.00  0.00    -0.354 N 
ATOM     21  C   UNL A   1      39.640  29.121  29.669  1.00  0.00     0.074 A 
ATOM     22  C   UNL A   1      38.438  29.203  28.868  1.00  0.00     0.031 C 
ATOM     23  C   UNL A   1      39.084  34.118  33.668  1.00  0.00     0.029 A 
ATOM     24  C   UNL A   1      40.162  33.138  33.610  1.00  0.00     0.049 A 
ATOM     25  H   UNL A   1      40.321  31.490  32.346  1.00  0.00     0.167 HD
ATOM     26  C   UNL A   1      40.596  28.172  29.523  1.00  0.00     0.031 A 
ATOM     27  C   UNL A   1      41.249  33.143  34.401  1.00  0.00     0.031 A 
ATOM     28  C   UNL A   1      41.789  28.086  30.326  1.00  0.00     0.049 A 
ATOM     29  C   UNL A   1      42.284  32.074  34.221  1.00  0.00     0.074 A 
ATOM     30  C   UNL A   1      42.815  27.160  30.251  1.00  0.00     0.029 A 
ATOM     31  N   UNL A   1      42.115  28.961  31.350  1.00  0.00    -0.354 N 
ATOM     32  N   UNL A   1      42.313  31.092  33.354  1.00  0.00    -0.248 NA
ATOM     33  C   UNL A   1      43.438  32.116  35.129  1.00  0.00     0.031 C 
ATOM     34  C   UNL A   1      43.744  27.452  31.256  1.00  0.00     0.029 A 
ATOM     35  C   UNL A   1      43.320  28.589  31.924  1.00  0.00     0.049 A 
ATOM     36  H   UNL A   1      41.572  29.733  31.628  1.00  0.00     0.167 HD
ATOM     37  C   UNL A   1      43.489  30.402  33.606  1.00  0.00     0.074 A 
ATOM     38  C   UNL A   1      44.161  31.098  34.685  1.00  0.00     0.031 C 
ATOM     39  C   UNL A   1      43.966  29.286  33.006  1.00  0.00     0.031 A 
BRANCH  26  40
ATOM     40  C   UNL A   1      40.385  27.132  28.456  1.00  0.00    -0.014 A 
ATOM     41  C   UNL A   1      40.949  27.279  27.179  1.00  0.00     0.009 A 
ATOM     42  C   UNL A   1      39.661  25.966  28.749  1.00  0.00     0.009 A 
ATOM     43  C   UNL A   1      40.771  26.289  26.210  1.00  0.00     0.001 A 
ATOM     44  C   UNL A   1      39.505  24.968  27.785  1.00  0.00     0.001 A 
ATOM     45  C   UNL A   1      40.054  25.133  26.515  1.00  0.00     0.000 A 
ENDBRANCH  26  40
BRANCH  27  46
ATOM     46  C   UNL A   1      41.400  34.191  35.442  1.00  0.00    -0.014 A 
ATOM     47  C   UNL A   1      41.968  35.435  35.132  1.00  0.00     0.009 A 
ATOM     48  C   UNL A   1      40.964  33.950  36.755  1.00  0.00     0.009 A 
ATOM     49  C   UNL A   1      42.117  36.409  36.122  1.00  0.00     0.001 A 
ATOM     50  C   UNL A   1      41.086  34.936  37.734  1.00  0.00     0.001 A 
ATOM     51  C   UNL A   1      41.670  36.160  37.420  1.00  0.00     0.000 A 
ENDBRANCH  27  46
BRANCH  39  52
ATOM     52  C   UNL A   1      45.284  28.764  33.501  1.00  0.00    -0.014 A 
ATOM     53  C   UNL A   1      45.347  27.842  34.557  1.00  0.00     0.009 A 
ATOM     54  C   UNL A   1      46.476  29.199  32.902  1.00  0.00     0.009 A 
ATOM     55  C   UNL A   1      46.582  27.395  35.030  1.00  0.00     0.001 A 
ATOM     56  C   UNL A   1      47.708  28.730  33.360  1.00  0.00     0.001 A 
ATOM     57  C   UNL A   1      47.760  27.839  34.430  1.00  0.00     0.000 A 
ENDBRANCH  39  52
ENDBRANCH  13  14
ENDBRANCH   6   8
ENDBRANCH   3   4
ENDBRANCH   2   3
ENDBRANCH   1   2
BRANCH   1  58
ATOM     58  C   UNL A   1      33.059  30.137  26.883  1.00  0.00     0.002 C 
BRANCH  58  59
ATOM     59  C   UNL A   1      32.995  28.647  27.248  1.00  0.00     0.021 C 
BRANCH  59  60
ATOM     60  C   UNL A   1      31.764  27.930  26.691  1.00  0.00     0.116 C 
BRANCH  60  61
ATOM     61  N   UNL A   1      31.655  26.598  27.254  1.00  0.00    -0.356 N 
ATOM     62  C   UNL A   1      31.769  25.388  26.633  1.00  0.00     0.224 C 
ATOM     63  H   UNL A   1      31.471  26.560  28.220  1.00  0.00     0.163 HD
ATOM     64  O   UNL A   1      31.450  24.375  27.250  1.00  0.00    -0.275 OA
BRANCH  62  65
ATOM     65  C   UNL A   1      32.371  25.358  25.243  1.00  0.00     0.094 C 
ATOM     66  C   UNL A   1      33.919  25.364  25.295  1.00  0.00     0.002 C 
ATOM     67  C   UNL A   1      32.050  24.091  24.416  1.00  0.00     0.094 C 
ATOM     68  C   UNL A   1      34.471  24.150  26.064  1.00  0.00     0.005 C 
ATOM     69  C   UNL A   1      34.251  24.962  23.864  1.00  0.00     0.009 C 
ATOM     70  C   UNL A   1      33.451  23.656  23.934  1.00  0.00     0.002 C 
ATOM     71  C   UNL A   1      34.159  22.972  25.126  1.00  0.00     0.005 C 
BRANCH  67  72
ATOM     72  C   UNL A   1      30.950  24.408  23.392  1.00  0.00     0.226 C 
ATOM     73  O   UNL A   1      30.253  23.496  22.943  1.00  0.00    -0.275 OA
ATOM     74  N   UNL A   1      30.582  25.729  23.209  1.00  0.00    -0.339 N 
ATOM     75  C   UNL A   1      29.147  26.023  23.136  1.00  0.00     0.141 C 
ATOM     76  C   UNL A   1      31.399  26.665  22.433  1.00  0.00     0.141 C 
ATOM     77  C   UNL A   1      28.850  27.463  23.591  1.00  0.00     0.138 C 
ATOM     78  C   UNL A   1      31.126  28.133  22.819  1.00  0.00     0.138 C 
ATOM     79  N   UNL A   1      29.677  28.415  22.831  1.00  0.00    -0.368 N 
BRANCH  79  80
ATOM     80  C   UNL A   1      29.313  29.753  22.756  1.00  0.00     0.038 A 
ATOM     81  C   UNL A   1      29.504  30.578  23.876  1.00  0.00     0.026 A 
ATOM     82  C   UNL A   1      28.759  30.330  21.608  1.00  0.00     0.046 A 
ATOM     83  C   UNL A   1      29.160  31.932  23.856  1.00  0.00     0.004 A 
ATOM     84  C   UNL A   1      28.403  31.681  21.590  1.00  0.00     0.043 A 
ATOM     85  C   UNL A   1      28.603  32.486  22.709  1.00  0.00     0.020 A 
ATOM     86  Cl  UNL A   1      27.698  32.358  20.172  1.00  0.00    -0.084 Cl
ENDBRANCH  79  80
ENDBRANCH  67  72
ENDBRANCH  62  65
ENDBRANCH  60  61
ENDBRANCH  59  60
ENDBRANCH  58  59
ENDBRANCH   1  58
TORSDOF 15
ENDMDL
MODEL 3
REMARK VINA RESULT:     -11.9      2.883      4.976
REMARK SMILES O=C(NCCCCCCNC(=O)[C@H]1[C@H]2CC[C@H](C2)[C@@H]1C(=O)N1CCN(c2cccc(Cl)c2)CC1)c1ccc(-c2c3nc(c(-c4ccccc4)c4ccc([nH]4)c(-c4ccccc4)c4nc(c(-c5ccccc5)c5ccc2[nH]5)C=C4)C=C3)cc1
REMARK SMILES IDX 6 1 5 2 4 3 3 4 1 5 2 6 35 8 36 9 82 10 37 11 81 12 38 13
REMARK SMILES IDX 39 14 40 15 75 16 41 17 80 18 74 19 76 20 42 21 79 22 73 23
REMARK SMILES IDX 72 24 43 26 65 27 50 28 64 29 51 30 54 31 63 32 77 33 52 34
REMARK SMILES IDX 53 35 62 37 78 38 55 39 44 40 45 41 49 42 46 43 48 44 47 45
REMARK SMILES IDX 66 46 67 47 71 48 68 49 70 50 69 51 56 52 57 53 61 54 58 55
REMARK SMILES IDX 60 56 59 57 7 58 8 59 9 60 10 61 11 62 12 64 13 65 14 66
REMARK SMILES IDX 19 67 15 68 18 69 17 70 16 71 20 72 21 73 22 74 23 75 34 76
REMARK SMILES IDX 24 77 33 78 25 79 26 80 27 81 32 82 28 83 30 84 29 85 31 86
REMARK H PARENT 3 7 76 25 54 36 10 63
REMARK Flexibility Score: inf
ROOT
ATOM      1  C   UNL A   1      31.743  30.669  26.810  1.00  0.00     0.002 C 
ENDROOT
BRANCH   1   2
ATOM      2  C   UNL A   1      31.490  32.177  26.799  1.00  0.00     0.021 C 
BRANCH   2   3
ATOM      3  C   UNL A   1      32.728  33.024  27.060  1.00  0.00     0.116 C 
BRANCH   3   4
ATOM      4  N   UNL A   1      32.439  34.190  27.877  1.00  0.00    -0.352 N 
ATOM      5  O   UNL A   1      32.639  35.562  29.662  1.00  0.00    -0.269 OA
ATOM      6  C   UNL A   1      33.111  34.657  28.981  1.00  0.00     0.251 C 
ATOM      7  H   UNL A   1      31.655  34.718  27.603  1.00  0.00     0.163 HD
BRANCH   6   8
ATOM      8  C   UNL A   1      34.403  34.044  29.358  1.00  0.00     0.039 A 
ATOM      9  C   UNL A   1      34.458  33.076  30.363  1.00  0.00     0.014 A 
ATOM     10  C   UNL A   1      35.570  34.443  28.700  1.00  0.00     0.014 A 
ATOM     11  C   UNL A   1      35.691  32.613  30.805  1.00  0.00     0.010 A 
ATOM     12  C   UNL A   1      36.803  33.908  29.086  1.00  0.00     0.010 A 
ATOM     13  C   UNL A   1      36.875  33.008  30.159  1.00  0.00    -0.014 A 
BRANCH  13  14
ATOM     14  C   UNL A   1      38.159  32.401  30.592  1.00  0.00     0.031 A 
ATOM     15  C   UNL A   1      38.963  32.981  31.721  1.00  0.00     0.074 A 
ATOM     16  C   UNL A   1      38.564  31.269  29.984  1.00  0.00     0.049 A 
ATOM     17  N   UNL A   1      40.062  32.520  32.266  1.00  0.00    -0.248 NA
ATOM     18  C   UNL A   1      38.483  34.239  32.313  1.00  0.00     0.031 C 
ATOM     19  C   UNL A   1      37.875  30.620  28.865  1.00  0.00     0.029 A 
ATOM     20  N   UNL A   1      39.629  30.445  30.240  1.00  0.00    -0.354 N 
ATOM     21  C   UNL A   1      40.407  33.431  33.256  1.00  0.00     0.074 A 
ATOM     22  C   UNL A   1      39.420  34.488  33.218  1.00  0.00     0.031 C 
ATOM     23  C   UNL A   1      38.497  29.469  28.574  1.00  0.00     0.029 A 
ATOM     24  C   UNL A   1      39.659  29.328  29.442  1.00  0.00     0.049 A 
ATOM     25  H   UNL A   1      40.307  30.635  30.929  1.00  0.00     0.167 HD
ATOM     26  C   UNL A   1      41.450  33.385  34.121  1.00  0.00     0.031 A 
ATOM     27  C   UNL A   1      40.528  28.302  29.404  1.00  0.00     0.031 A 
ATOM     28  C   UNL A   1      42.437  32.336  34.153  1.00  0.00     0.049 A 
ATOM     29  C   UNL A   1      41.675  28.284  30.367  1.00  0.00     0.074 A 
ATOM     30  C   UNL A   1      43.528  32.203  34.994  1.00  0.00     0.029 A 
ATOM     31  N   UNL A   1      42.450  31.239  33.306  1.00  0.00    -0.354 N 
ATOM     32  N   UNL A   1      41.975  29.146  31.309  1.00  0.00    -0.248 NA
ATOM     33  C   UNL A   1      42.605  27.152  30.264  1.00  0.00     0.031 C 
ATOM     34  C   UNL A   1      44.225  31.046  34.630  1.00  0.00     0.029 A 
ATOM     35  C   UNL A   1      43.538  30.432  33.595  1.00  0.00     0.049 A 
ATOM     36  H   UNL A   1      41.785  31.060  32.603  1.00  0.00     0.167 HD
ATOM     37  C   UNL A   1      43.122  28.658  31.915  1.00  0.00     0.074 A 
ATOM     38  C   UNL A   1      43.445  27.407  31.255  1.00  0.00     0.031 C 
ATOM     39  C   UNL A   1      43.851  29.199  32.920  1.00  0.00     0.031 A 
BRANCH  26  40
ATOM     40  C   UNL A   1      41.587  34.516  35.104  1.00  0.00    -0.014 A 
ATOM     41  C   UNL A   1      40.981  34.454  36.368  1.00  0.00     0.009 A 
ATOM     42  C   UNL A   1      42.376  35.631  34.782  1.00  0.00     0.009 A 
ATOM     43  C   UNL A   1      41.146  35.498  37.282  1.00  0.00     0.001 A 
ATOM     44  C   UNL A   1      42.557  36.662  35.706  1.00  0.00     0.001 A 
ATOM     45  C   UNL A   1      41.937  36.598  36.953  1.00  0.00     0.000 A 
ENDBRANCH  26  40
BRANCH  27  46
ATOM     46  C   UNL A   1      40.345  27.217  28.407  1.00  0.00    -0.014 A 
ATOM     47  C   UNL A   1      39.566  26.090  28.705  1.00  0.00     0.009 A 
ATOM     48  C   UNL A   1      40.948  27.312  27.142  1.00  0.00     0.009 A 
ATOM     49  C   UNL A   1      39.412  25.070  27.765  1.00  0.00     0.001 A 
ATOM     50  C   UNL A   1      40.766  26.305  26.193  1.00  0.00     0.001 A 
ATOM     51  C   UNL A   1      40.007  25.181  26.508  1.00  0.00     0.000 A 
ENDBRANCH  27  46
BRANCH  39  52
ATOM     52  C   UNL A   1      45.058  28.429  33.369  1.00  0.00    -0.014 A 
ATOM     53  C   UNL A   1      46.319  28.659  32.795  1.00  0.00     0.009 A 
ATOM     54  C   UNL A   1      44.934  27.463  34.380  1.00  0.00     0.009 A 
ATOM     55  C   UNL A   1      47.425  27.909  33.198  1.00  0.00     0.001 A 
ATOM     56  C   UNL A   1      46.046  26.733  34.799  1.00  0.00     0.001 A 
ATOM     57  C   UNL A   1      47.287  26.948  34.200  1.00  0.00     0.000 A 
ENDBRANCH  39  52
ENDBRANCH  13  14
ENDBRANCH   6   8
ENDBRANCH   3   4
ENDBRANCH   2   3
ENDBRANCH   1   2
BRANCH   1  58
ATOM     58  C   UNL A   1      33.083  30.242  27.423  1.00  0.00     0.002 C 
BRANCH  58  59
ATOM     59  C   UNL A   1      33.323  28.726  27.470  1.00  0.00     0.021 C 
BRANCH  59  60
ATOM     60  C   UNL A   1      34.428  28.250  26.526  1.00  0.00     0.116 C 
BRANCH  60  61
ATOM     61  N   UNL A   1      34.261  28.837  25.211  1.00  0.00    -0.356 N 
ATOM     62  C   UNL A   1      33.370  28.513  24.229  1.00  0.00     0.224 C 
ATOM     63  H   UNL A   1      34.878  29.573  24.994  1.00  0.00     0.163 HD
ATOM     64  O   UNL A   1      33.519  29.002  23.112  1.00  0.00    -0.275 OA
BRANCH  62  65
ATOM     65  C   UNL A   1      32.192  27.637  24.601  1.00  0.00     0.094 C 
ATOM     66  C   UNL A   1      30.868  28.186  24.013  1.00  0.00     0.002 C 
ATOM     67  C   UNL A   1      32.250  26.192  24.054  1.00  0.00     0.094 C 
ATOM     68  C   UNL A   1      30.917  28.268  22.476  1.00  0.00     0.005 C 
ATOM     69  C   UNL A   1      29.955  26.981  24.199  1.00  0.00     0.009 C 
ATOM     70  C   UNL A   1      30.861  26.038  23.397  1.00  0.00     0.002 C 
ATOM     71  C   UNL A   1      30.902  26.791  22.047  1.00  0.00     0.005 C 
BRANCH  67  72
ATOM     72  C   UNL A   1      32.679  25.232  25.174  1.00  0.00     0.226 C 
ATOM     73  O   UNL A   1      32.635  25.606  26.348  1.00  0.00    -0.275 OA
ATOM     74  N   UNL A   1      32.836  23.892  24.868  1.00  0.00    -0.339 N 
ATOM     75  C   UNL A   1      32.272  22.919  25.810  1.00  0.00     0.141 C 
ATOM     76  C   UNL A   1      34.013  23.388  24.158  1.00  0.00     0.141 C 
ATOM     77  C   UNL A   1      31.917  21.599  25.099  1.00  0.00     0.138 C 
ATOM     78  C   UNL A   1      33.734  22.048  23.448  1.00  0.00     0.138 C 
ATOM     79  N   UNL A   1      33.087  21.089  24.366  1.00  0.00    -0.368 N 
BRANCH  79  80
ATOM     80  C   UNL A   1      33.154  19.751  23.998  1.00  0.00     0.038 A 
ATOM     81  C   UNL A   1      32.402  19.304  22.900  1.00  0.00     0.026 A 
ATOM     82  C   UNL A   1      33.941  18.813  24.676  1.00  0.00     0.046 A 
ATOM     83  C   UNL A   1      32.433  17.971  22.485  1.00  0.00     0.004 A 
ATOM     84  C   UNL A   1      33.964  17.476  24.268  1.00  0.00     0.043 A 
ATOM     85  C   UNL A   1      33.215  17.051  23.174  1.00  0.00     0.020 A 
ATOM     86  Cl  UNL A   1      34.921  16.338  25.137  1.00  0.00    -0.084 Cl
ENDBRANCH  79  80
ENDBRANCH  67  72
ENDBRANCH  62  65
ENDBRANCH  60  61
ENDBRANCH  59  60
ENDBRANCH  58  59
ENDBRANCH   1  58
TORSDOF 15
ENDMDL
