MODEL 1
REMARK VINA RESULT:     -10.8      0.000      0.000
REMARK SMILES C[C@@H]1CCC[C@@H](N(C)C(=O)N2CCC(CC(=O)NCCCCCCNC(=O)c3ccc(-c4c5nc(c(-c6ccccc6)c6ccc([nH]6)c(-c6ccccc6)c6nc(c(-c7ccccc7)c7ccc4[nH]7)C=C6)C=C5)cc3)CC2)C1
REMARK SMILES IDX 21 1 20 2 19 3 18 4 16 5 17 6 15 8 14 9 9 10 10 11 11 12
REMARK SMILES IDX 12 13 77 14 13 15 76 16 7 17 8 18 6 19 1 20 2 21 3 22 78 23
REMARK SMILES IDX 4 24 5 25 22 26 23 27 24 28 25 29 26 30 27 32 28 33 29 34
REMARK SMILES IDX 75 35 30 36 74 37 31 38 32 39 33 40 68 41 34 42 73 43 67 44
REMARK SMILES IDX 69 45 35 46 72 47 66 48 65 49 36 51 58 52 43 53 57 54 44 55
REMARK SMILES IDX 47 56 56 57 70 58 45 59 46 60 55 62 71 63 48 64 37 65 38 66
REMARK SMILES IDX 42 67 39 68 41 69 40 70 59 71 60 72 64 73 61 74 63 75 62 76
REMARK SMILES IDX 49 77 50 78 54 79 51 80 53 81 52 82
REMARK H PARENT 18 7 25 31 69 50 47 61
REMARK Flexibility Score: inf
ROOT
ATOM      1  C   UNL A   1      34.003  24.247  22.782  1.00  0.00     0.002 C 
ENDROOT
BRANCH   1   2
ATOM      2  C   UNL A   1      33.065  25.371  22.347  1.00  0.00     0.021 C 
BRANCH   2   3
ATOM      3  C   UNL A   1      33.690  26.773  22.354  1.00  0.00     0.116 C 
BRANCH   3   4
ATOM      4  N   UNL A   1      32.706  27.771  21.969  1.00  0.00    -0.356 N 
ATOM      5  C   UNL A   1      31.992  28.654  22.722  1.00  0.00     0.220 C 
ATOM      6  O   UNL A   1      31.112  29.313  22.165  1.00  0.00    -0.275 OA
ATOM      7  H   UNL A   1      32.527  27.818  21.002  1.00  0.00     0.163 HD
BRANCH   5   8
ATOM      8  C   UNL A   1      32.275  28.839  24.207  1.00  0.00     0.103 C 
BRANCH   8   9
ATOM      9  C   UNL A   1      31.477  27.897  25.130  1.00  0.00     0.002 C 
ATOM     10  C   UNL A   1      30.699  23.965  25.069  1.00  0.00     0.319 C 
ATOM     11  O   UNL A   1      30.702  23.870  23.844  1.00  0.00    -0.248 OA
ATOM     12  N   UNL A   1      30.548  25.191  25.693  1.00  0.00    -0.325 N 
ATOM     13  C   UNL A   1      29.614  26.147  25.152  1.00  0.00     0.121 C 
ATOM     14  C   UNL A   1      31.614  25.748  26.514  1.00  0.00     0.121 C 
ATOM     15  C   UNL A   1      30.329  27.228  24.370  1.00  0.00     0.026 C 
ATOM     16  C   UNL A   1      32.397  26.820  25.742  1.00  0.00     0.026 C 
BRANCH  10  17
ATOM     17  N   UNL A   1      30.795  22.880  25.932  1.00  0.00    -0.325 N 
ATOM     18  C   UNL A   1      29.787  22.621  26.955  1.00  0.00     0.149 C 
BRANCH  17  19
ATOM     19  C   UNL A   1      31.875  21.890  25.818  1.00  0.00     0.086 C 
ATOM     20  C   UNL A   1      32.634  18.994  24.775  1.00  0.00     0.008 C 
ATOM     21  C   UNL A   1      33.247  20.328  24.342  1.00  0.00    -0.012 C 
ATOM     22  C   UNL A   1      34.490  20.682  25.178  1.00  0.00     0.003 C 
ATOM     23  C   UNL A   1      32.214  21.469  24.380  1.00  0.00     0.028 C 
ATOM     24  C   UNL A   1      34.165  21.190  26.584  1.00  0.00     0.002 C 
ATOM     25  C   UNL A   1      33.142  22.325  26.564  1.00  0.00     0.025 C 
ENDBRANCH  17  19
ENDBRANCH  10  17
ENDBRANCH   8   9
ENDBRANCH   5   8
ENDBRANCH   3   4
ENDBRANCH   2   3
ENDBRANCH   1   2
BRANCH   1  26
ATOM     26  C   UNL A   1      34.663  24.450  24.145  1.00  0.00     0.002 C 
BRANCH  26  27
ATOM     27  C   UNL A   1      36.043  23.804  24.310  1.00  0.00     0.021 C 
BRANCH  27  28
ATOM     28  C   UNL A   1      36.581  23.786  25.739  1.00  0.00     0.116 C 
BRANCH  28  29
ATOM     29  N   UNL A   1      37.546  22.717  25.943  1.00  0.00    -0.352 N 
ATOM     30  C   UNL A   1      38.854  22.791  26.354  1.00  0.00     0.251 C 
ATOM     31  H   UNL A   1      37.213  21.809  25.761  1.00  0.00     0.163 HD
ATOM     32  O   UNL A   1      39.594  21.819  26.251  1.00  0.00    -0.269 OA
BRANCH  30  33
ATOM     33  C   UNL A   1      39.371  24.055  26.914  1.00  0.00     0.039 A 
ATOM     34  C   UNL A   1      40.025  24.956  26.072  1.00  0.00     0.014 A 
ATOM     35  C   UNL A   1      39.216  24.342  28.273  1.00  0.00     0.014 A 
ATOM     36  C   UNL A   1      40.470  26.177  26.581  1.00  0.00     0.010 A 
ATOM     37  C   UNL A   1      39.595  25.588  28.763  1.00  0.00     0.010 A 
ATOM     38  C   UNL A   1      40.229  26.516  27.922  1.00  0.00    -0.014 A 
BRANCH  38  39
ATOM     39  C   UNL A   1      40.627  27.837  28.470  1.00  0.00     0.031 A 
ATOM     40  C   UNL A   1      42.044  28.072  28.917  1.00  0.00     0.074 A 
ATOM     41  C   UNL A   1      39.699  28.799  28.631  1.00  0.00     0.049 A 
ATOM     42  N   UNL A   1      42.564  29.128  29.490  1.00  0.00    -0.248 NA
ATOM     43  C   UNL A   1      42.994  26.967  28.716  1.00  0.00     0.031 C 
ATOM     44  C   UNL A   1      38.284  28.682  28.270  1.00  0.00     0.029 A 
ATOM     45  N   UNL A   1      39.805  30.064  29.153  1.00  0.00    -0.354 N 
ATOM     46  C   UNL A   1      43.893  28.808  29.733  1.00  0.00     0.074 A 
ATOM     47  C   UNL A   1      44.088  27.444  29.291  1.00  0.00     0.031 C 
ATOM     48  C   UNL A   1      37.660  29.835  28.559  1.00  0.00     0.029 A 
ATOM     49  C   UNL A   1      38.617  30.755  29.167  1.00  0.00     0.049 A 
ATOM     50  H   UNL A   1      40.651  30.441  29.486  1.00  0.00     0.167 HD
ATOM     51  C   UNL A   1      44.870  29.583  30.261  1.00  0.00     0.031 A 
ATOM     52  C   UNL A   1      38.328  31.986  29.628  1.00  0.00     0.031 A 
ATOM     53  C   UNL A   1      44.675  30.941  30.696  1.00  0.00     0.049 A 
ATOM     54  C   UNL A   1      39.423  32.818  30.235  1.00  0.00     0.074 A 
ATOM     55  C   UNL A   1      45.612  31.829  31.195  1.00  0.00     0.029 A 
ATOM     56  N   UNL A   1      43.458  31.604  30.689  1.00  0.00    -0.354 N 
ATOM     57  N   UNL A   1      40.692  32.526  30.396  1.00  0.00    -0.248 NA
ATOM     58  C   UNL A   1      39.049  34.156  30.715  1.00  0.00     0.031 C 
ATOM     59  C   UNL A   1      44.951  33.011  31.542  1.00  0.00     0.029 A 
ATOM     60  C   UNL A   1      43.615  32.883  31.200  1.00  0.00     0.049 A 
ATOM     61  H   UNL A   1      42.608  31.225  30.368  1.00  0.00     0.167 HD
ATOM     62  C   UNL A   1      41.271  33.652  30.965  1.00  0.00     0.074 A 
ATOM     63  C   UNL A   1      40.219  34.637  31.109  1.00  0.00     0.031 C 
ATOM     64  C   UNL A   1      42.560  33.853  31.333  1.00  0.00     0.031 A 
BRANCH  51  65
ATOM     65  C   UNL A   1      46.237  28.975  30.408  1.00  0.00    -0.014 A 
ATOM     66  C   UNL A   1      47.222  29.150  29.421  1.00  0.00     0.009 A 
ATOM     67  C   UNL A   1      46.558  28.247  31.563  1.00  0.00     0.009 A 
ATOM     68  C   UNL A   1      48.485  28.575  29.572  1.00  0.00     0.001 A 
ATOM     69  C   UNL A   1      47.832  27.699  31.727  1.00  0.00     0.001 A 
ATOM     70  C   UNL A   1      48.791  27.854  30.727  1.00  0.00     0.000 A 
ENDBRANCH  51  65
BRANCH  52  71
ATOM     71  C   UNL A   1      36.942  32.514  29.526  1.00  0.00    -0.014 A 
ATOM     72  C   UNL A   1      36.027  32.318  30.570  1.00  0.00     0.009 A 
ATOM     73  C   UNL A   1      36.524  33.209  28.379  1.00  0.00     0.009 A 
ATOM     74  C   UNL A   1      34.714  32.784  30.460  1.00  0.00     0.001 A 
ATOM     75  C   UNL A   1      35.221  33.700  28.284  1.00  0.00     0.001 A 
ATOM     76  C   UNL A   1      34.313  33.479  29.318  1.00  0.00     0.000 A 
ENDBRANCH  52  71
BRANCH  64  77
ATOM     77  C   UNL A   1      42.916  35.203  31.888  1.00  0.00    -0.014 A 
ATOM     78  C   UNL A   1      42.683  35.527  33.233  1.00  0.00     0.009 A 
ATOM     79  C   UNL A   1      43.543  36.147  31.060  1.00  0.00     0.009 A 
ATOM     80  C   UNL A   1      43.044  36.782  33.729  1.00  0.00     0.001 A 
ATOM     81  C   UNL A   1      43.930  37.389  31.565  1.00  0.00     0.001 A 
ATOM     82  C   UNL A   1      43.673  37.708  32.896  1.00  0.00     0.000 A 
ENDBRANCH  64  77
ENDBRANCH  38  39
ENDBRANCH  30  33
ENDBRANCH  28  29
ENDBRANCH  27  28
ENDBRANCH  26  27
ENDBRANCH   1  26
TORSDOF 16
ENDMDL
MODEL 2
REMARK VINA RESULT:     -10.3      2.229      4.770
REMARK SMILES C[C@@H]1CCC[C@@H](N(C)C(=O)N2CCC(CC(=O)NCCCCCCNC(=O)c3ccc(-c4c5nc(c(-c6ccccc6)c6ccc([nH]6)c(-c6ccccc6)c6nc(c(-c7ccccc7)c7ccc4[nH]7)C=C6)C=C5)cc3)CC2)C1
REMARK SMILES IDX 21 1 20 2 19 3 18 4 16 5 17 6 15 8 14 9 9 10 10 11 11 12
REMARK SMILES IDX 12 13 77 14 13 15 76 16 7 17 8 18 6 19 1 20 2 21 3 22 78 23
REMARK SMILES IDX 4 24 5 25 22 26 23 27 24 28 25 29 26 30 27 32 28 33 29 34
REMARK SMILES IDX 75 35 30 36 74 37 31 38 32 39 33 40 68 41 34 42 73 43 67 44
REMARK SMILES IDX 69 45 35 46 72 47 66 48 65 49 36 51 58 52 43 53 57 54 44 55
REMARK SMILES IDX 47 56 56 57 70 58 45 59 46 60 55 62 71 63 48 64 37 65 38 66
REMARK SMILES IDX 42 67 39 68 41 69 40 70 59 71 60 72 64 73 61 74 63 75 62 76
REMARK SMILES IDX 49 77 50 78 54 79 51 80 53 81 52 82
REMARK H PARENT 18 7 25 31 69 50 47 61
REMARK Flexibility Score: inf
ROOT
ATOM      1  C   UNL A   1      37.154  21.795  25.283  1.00  0.00     0.002 C 
ENDROOT
BRANCH   1   2
ATOM      2  C   UNL A   1      35.805  21.138  25.569  1.00  0.00     0.021 C 
BRANCH   2   3
ATOM      3  C   UNL A   1      35.520  19.868  24.757  1.00  0.00     0.116 C 
BRANCH   3   4
ATOM      4  N   UNL A   1      34.336  19.193  25.263  1.00  0.00    -0.356 N 
ATOM      5  C   UNL A   1      33.026  19.306  24.906  1.00  0.00     0.220 C 
ATOM      6  O   UNL A   1      32.186  18.715  25.588  1.00  0.00    -0.275 OA
ATOM      7  H   UNL A   1      34.510  18.546  25.985  1.00  0.00     0.163 HD
BRANCH   5   8
ATOM      8  C   UNL A   1      32.603  20.123  23.693  1.00  0.00     0.103 C 
BRANCH   8   9
ATOM      9  C   UNL A   1      31.998  21.500  24.031  1.00  0.00     0.002 C 
ATOM     10  C   UNL A   1      33.543  25.173  24.472  1.00  0.00     0.319 C 
ATOM     11  O   UNL A   1      34.628  24.785  24.900  1.00  0.00    -0.248 OA
ATOM     12  N   UNL A   1      32.433  24.348  24.484  1.00  0.00    -0.325 N 
ATOM     13  C   UNL A   1      32.202  23.491  25.621  1.00  0.00     0.121 C 
ATOM     14  C   UNL A   1      31.800  23.926  23.241  1.00  0.00     0.121 C 
ATOM     15  C   UNL A   1      32.603  22.063  25.320  1.00  0.00     0.026 C 
ATOM     16  C   UNL A   1      32.215  22.495  22.873  1.00  0.00     0.026 C 
BRANCH  10  17
ATOM     17  N   UNL A   1      33.311  26.455  23.990  1.00  0.00    -0.325 N 
ATOM     18  C   UNL A   1      33.671  26.841  22.630  1.00  0.00     0.149 C 
BRANCH  17  19
ATOM     19  C   UNL A   1      32.624  27.474  24.795  1.00  0.00     0.086 C 
ATOM     20  C   UNL A   1      31.557  28.201  27.690  1.00  0.00     0.008 C 
ATOM     21  C   UNL A   1      32.603  28.958  26.868  1.00  0.00    -0.012 C 
ATOM     22  C   UNL A   1      31.964  30.075  26.023  1.00  0.00     0.003 C 
ATOM     23  C   UNL A   1      33.433  28.006  25.987  1.00  0.00     0.028 C 
ATOM     24  C   UNL A   1      31.230  29.567  24.780  1.00  0.00     0.002 C 
ATOM     25  C   UNL A   1      32.101  28.634  23.939  1.00  0.00     0.025 C 
ENDBRANCH  17  19
ENDBRANCH  10  17
ENDBRANCH   8   9
ENDBRANCH   5   8
ENDBRANCH   3   4
ENDBRANCH   2   3
ENDBRANCH   1   2
BRANCH   1  26
ATOM     26  C   UNL A   1      38.343  20.836  25.254  1.00  0.00     0.002 C 
BRANCH  26  27
ATOM     27  C   UNL A   1      39.623  21.357  25.914  1.00  0.00     0.021 C 
BRANCH  27  28
ATOM     28  C   UNL A   1      40.378  20.331  26.757  1.00  0.00     0.116 C 
BRANCH  28  29
ATOM     29  N   UNL A   1      41.595  19.877  26.101  1.00  0.00    -0.352 N 
ATOM     30  C   UNL A   1      42.716  20.590  25.755  1.00  0.00     0.251 C 
ATOM     31  H   UNL A   1      41.617  18.920  25.872  1.00  0.00     0.163 HD
ATOM     32  O   UNL A   1      43.553  20.106  25.001  1.00  0.00    -0.269 OA
BRANCH  30  33
ATOM     33  C   UNL A   1      42.907  21.953  26.289  1.00  0.00     0.039 A 
ATOM     34  C   UNL A   1      43.025  23.023  25.400  1.00  0.00     0.014 A 
ATOM     35  C   UNL A   1      42.976  22.169  27.668  1.00  0.00     0.014 A 
ATOM     36  C   UNL A   1      43.152  24.322  25.896  1.00  0.00     0.010 A 
ATOM     37  C   UNL A   1      43.030  23.468  28.162  1.00  0.00     0.010 A 
ATOM     38  C   UNL A   1      43.121  24.557  27.280  1.00  0.00    -0.014 A 
BRANCH  38  39
ATOM     39  C   UNL A   1      43.181  25.934  27.832  1.00  0.00     0.031 A 
ATOM     40  C   UNL A   1      44.497  26.512  28.275  1.00  0.00     0.074 A 
ATOM     41  C   UNL A   1      42.044  26.635  27.999  1.00  0.00     0.049 A 
ATOM     42  N   UNL A   1      44.741  27.662  28.850  1.00  0.00    -0.248 NA
ATOM     43  C   UNL A   1      45.691  25.678  28.067  1.00  0.00     0.031 C 
ATOM     44  C   UNL A   1      40.701  26.171  27.641  1.00  0.00     0.029 A 
ATOM     45  N   UNL A   1      41.834  27.885  28.526  1.00  0.00    -0.354 N 
ATOM     46  C   UNL A   1      46.109  27.682  29.088  1.00  0.00     0.074 A 
ATOM     47  C   UNL A   1      46.635  26.410  28.641  1.00  0.00     0.031 C 
ATOM     48  C   UNL A   1      39.812  27.133  27.937  1.00  0.00     0.029 A 
ATOM     49  C   UNL A   1      40.512  28.259  28.545  1.00  0.00     0.049 A 
ATOM     50  H   UNL A   1      42.562  28.459  28.857  1.00  0.00     0.167 HD
ATOM     51  C   UNL A   1      46.864  28.674  29.617  1.00  0.00     0.031 A 
ATOM     52  C   UNL A   1      39.928  29.378  29.012  1.00  0.00     0.031 A 
ATOM     53  C   UNL A   1      46.339  29.940  30.058  1.00  0.00     0.049 A 
ATOM     54  C   UNL A   1      40.784  30.455  29.619  1.00  0.00     0.074 A 
ATOM     55  C   UNL A   1      47.029  31.031  30.558  1.00  0.00     0.029 A 
ATOM     56  N   UNL A   1      44.996  30.280  30.056  1.00  0.00    -0.354 N 
ATOM     57  N   UNL A   1      42.087  30.486  29.775  1.00  0.00    -0.248 NA
ATOM     58  C   UNL A   1      40.091  31.656  30.105  1.00  0.00     0.031 C 
ATOM     59  C   UNL A   1      46.096  32.011  30.911  1.00  0.00     0.029 A 
ATOM     60  C   UNL A   1      44.833  31.555  30.572  1.00  0.00     0.049 A 
ATOM     61  H   UNL A   1      44.266  29.702  29.737  1.00  0.00     0.167 HD
ATOM     62  C   UNL A   1      42.371  31.719  30.347  1.00  0.00     0.074 A 
ATOM     63  C   UNL A   1      41.107  32.412  30.498  1.00  0.00     0.031 C 
ATOM     64  C   UNL A   1      43.570  32.233  30.712  1.00  0.00     0.031 A 
BRANCH  51  65
ATOM     65  C   UNL A   1      48.340  28.424  29.757  1.00  0.00    -0.014 A 
ATOM     66  C   UNL A   1      49.237  28.756  28.728  1.00  0.00     0.009 A 
ATOM     67  C   UNL A   1      48.847  27.881  30.948  1.00  0.00     0.009 A 
ATOM     68  C   UNL A   1      50.604  28.514  28.874  1.00  0.00     0.001 A 
ATOM     69  C   UNL A   1      50.218  27.669  31.104  1.00  0.00     0.001 A 
ATOM     70  C   UNL A   1      51.094  27.975  30.064  1.00  0.00     0.000 A 
ENDBRANCH  51  65
BRANCH  52  71
ATOM     71  C   UNL A   1      38.454  29.546  28.916  1.00  0.00    -0.014 A 
ATOM     72  C   UNL A   1      37.860  29.937  27.707  1.00  0.00     0.009 A 
ATOM     73  C   UNL A   1      37.634  29.322  30.034  1.00  0.00     0.009 A 
ATOM     74  C   UNL A   1      36.478  30.128  27.625  1.00  0.00     0.001 A 
ATOM     75  C   UNL A   1      36.251  29.483  29.941  1.00  0.00     0.001 A 
ATOM     76  C   UNL A   1      35.674  29.897  28.742  1.00  0.00     0.000 A 
ENDBRANCH  52  71
BRANCH  64  77
ATOM     77  C   UNL A   1      43.582  33.627  31.270  1.00  0.00    -0.014 A 
ATOM     78  C   UNL A   1      43.543  33.863  32.653  1.00  0.00     0.009 A 
ATOM     79  C   UNL A   1      43.686  34.722  30.397  1.00  0.00     0.009 A 
ATOM     80  C   UNL A   1      43.577  35.169  33.147  1.00  0.00     0.001 A 
ATOM     81  C   UNL A   1      43.751  36.024  30.894  1.00  0.00     0.001 A 
ATOM     82  C   UNL A   1      43.688  36.247  32.268  1.00  0.00     0.000 A 
ENDBRANCH  64  77
ENDBRANCH  38  39
ENDBRANCH  30  33
ENDBRANCH  28  29
ENDBRANCH  27  28
ENDBRANCH  26  27
ENDBRANCH   1  26
TORSDOF 16
ENDMDL
MODEL 3
REMARK VINA RESULT:     -10.3      4.137      8.347
REMARK SMILES C[C@@H]1CCC[C@@H](N(C)C(=O)N2CCC(CC(=O)NCCCCCCNC(=O)c3ccc(-c4c5nc(c(-c6ccccc6)c6ccc([nH]6)c(-c6ccccc6)c6nc(c(-c7ccccc7)c7ccc4[nH]7)C=C6)C=C5)cc3)CC2)C1
REMARK SMILES IDX 21 1 20 2 19 3 18 4 16 5 17 6 15 8 14 9 9 10 10 11 11 12
REMARK SMILES IDX 12 13 77 14 13 15 76 16 7 17 8 18 6 19 1 20 2 21 3 22 78 23
REMARK SMILES IDX 4 24 5 25 22 26 23 27 24 28 25 29 26 30 27 32 28 33 29 34
REMARK SMILES IDX 75 35 30 36 74 37 31 38 32 39 33 40 68 41 34 42 73 43 67 44
REMARK SMILES IDX 69 45 35 46 72 47 66 48 65 49 36 51 58 52 43 53 57 54 44 55
REMARK SMILES IDX 47 56 56 57 70 58 45 59 46 60 55 62 71 63 48 64 37 65 38 66
REMARK SMILES IDX 42 67 39 68 41 69 40 70 59 71 60 72 64 73 61 74 63 75 62 76
REMARK SMILES IDX 49 77 50 78 54 79 51 80 53 81 52 82
REMARK H PARENT 18 7 25 31 69 50 47 61
REMARK Flexibility Score: inf
ROOT
ATOM      1  C   UNL A   1      34.600  32.534  29.421  1.00  0.00     0.002 C 
ENDROOT
BRANCH   1   2
ATOM      2  C   UNL A   1      34.981  31.400  28.472  1.00  0.00     0.021 C 
BRANCH   2   3
ATOM      3  C   UNL A   1      33.955  31.108  27.369  1.00  0.00     0.116 C 
BRANCH   3   4
ATOM      4  N   UNL A   1      33.234  29.879  27.655  1.00  0.00    -0.356 N 
ATOM      5  C   UNL A   1      32.115  29.350  27.084  1.00  0.00     0.220 C 
ATOM      6  O   UNL A   1      31.618  28.349  27.603  1.00  0.00    -0.275 OA
ATOM      7  H   UNL A   1      33.618  29.339  28.383  1.00  0.00     0.163 HD
BRANCH   5   8
ATOM      8  C   UNL A   1      31.500  29.962  25.833  1.00  0.00     0.103 C 
BRANCH   8   9
ATOM      9  C   UNL A   1      31.729  29.145  24.545  1.00  0.00     0.002 C 
ATOM     10  C   UNL A   1      33.563  25.668  23.761  1.00  0.00     0.319 C 
ATOM     11  O   UNL A   1      34.404  25.783  24.649  1.00  0.00    -0.248 OA
ATOM     12  N   UNL A   1      32.855  26.763  23.297  1.00  0.00    -0.325 N 
ATOM     13  C   UNL A   1      33.536  28.023  23.128  1.00  0.00     0.121 C 
ATOM     14  C   UNL A   1      31.411  26.847  23.466  1.00  0.00     0.121 C 
ATOM     15  C   UNL A   1      33.224  28.970  24.267  1.00  0.00     0.026 C 
ATOM     16  C   UNL A   1      31.049  27.764  24.643  1.00  0.00     0.026 C 
BRANCH  10  17
ATOM     17  N   UNL A   1      33.275  24.472  23.114  1.00  0.00    -0.325 N 
ATOM     18  C   UNL A   1      33.144  24.395  21.663  1.00  0.00     0.149 C 
BRANCH  17  19
ATOM     19  C   UNL A   1      33.158  23.203  23.846  1.00  0.00     0.086 C 
ATOM     20  C   UNL A   1      33.955  21.660  26.499  1.00  0.00     0.008 C 
ATOM     21  C   UNL A   1      32.544  21.981  25.998  1.00  0.00    -0.012 C 
ATOM     22  C   UNL A   1      31.968  20.836  25.146  1.00  0.00     0.003 C 
ATOM     23  C   UNL A   1      32.502  23.315  25.230  1.00  0.00     0.028 C 
ATOM     24  C   UNL A   1      32.547  20.766  23.731  1.00  0.00     0.002 C 
ATOM     25  C   UNL A   1      32.474  22.113  23.012  1.00  0.00     0.025 C 
ENDBRANCH  17  19
ENDBRANCH  10  17
ENDBRANCH   8   9
ENDBRANCH   5   8
ENDBRANCH   3   4
ENDBRANCH   2   3
ENDBRANCH   1   2
BRANCH   1  26
ATOM     26  C   UNL A   1      34.693  33.936  28.819  1.00  0.00     0.002 C 
BRANCH  26  27
ATOM     27  C   UNL A   1      33.417  34.778  28.914  1.00  0.00     0.021 C 
BRANCH  27  28
ATOM     28  C   UNL A   1      33.542  36.048  29.753  1.00  0.00     0.116 C 
BRANCH  28  29
ATOM     29  N   UNL A   1      32.583  36.075  30.847  1.00  0.00    -0.352 N 
ATOM     30  C   UNL A   1      32.631  35.440  32.063  1.00  0.00     0.251 C 
ATOM     31  H   UNL A   1      31.784  36.628  30.691  1.00  0.00     0.163 HD
ATOM     32  O   UNL A   1      31.633  35.383  32.774  1.00  0.00    -0.269 OA
BRANCH  30  33
ATOM     33  C   UNL A   1      33.891  34.816  32.510  1.00  0.00     0.039 A 
ATOM     34  C   UNL A   1      33.876  33.492  32.953  1.00  0.00     0.014 A 
ATOM     35  C   UNL A   1      35.084  35.544  32.498  1.00  0.00     0.014 A 
ATOM     36  C   UNL A   1      35.072  32.876  33.327  1.00  0.00     0.010 A 
ATOM     37  C   UNL A   1      36.284  34.908  32.803  1.00  0.00     0.010 A 
ATOM     38  C   UNL A   1      36.289  33.568  33.222  1.00  0.00    -0.014 A 
BRANCH  38  39
ATOM     39  C   UNL A   1      37.581  32.914  33.544  1.00  0.00     0.031 A 
ATOM     40  C   UNL A   1      38.171  31.904  32.599  1.00  0.00     0.074 A 
ATOM     41  C   UNL A   1      38.186  33.175  34.719  1.00  0.00     0.049 A 
ATOM     42  N   UNL A   1      39.247  31.171  32.740  1.00  0.00    -0.248 NA
ATOM     43  C   UNL A   1      37.443  31.667  31.342  1.00  0.00     0.031 C 
ATOM     44  C   UNL A   1      37.696  34.108  35.736  1.00  0.00     0.029 A 
ATOM     45  N   UNL A   1      39.340  32.668  35.261  1.00  0.00    -0.354 N 
ATOM     46  C   UNL A   1      39.314  30.378  31.602  1.00  0.00     0.074 A 
ATOM     47  C   UNL A   1      38.147  30.682  30.804  1.00  0.00     0.031 C 
ATOM     48  C   UNL A   1      38.556  34.124  36.767  1.00  0.00     0.029 A 
ATOM     49  C   UNL A   1      39.631  33.172  36.506  1.00  0.00     0.049 A 
ATOM     50  H   UNL A   1      39.907  32.008  34.801  1.00  0.00     0.167 HD
ATOM     51  C   UNL A   1      40.270  29.488  31.244  1.00  0.00     0.031 A 
ATOM     52  C   UNL A   1      40.643  32.890  37.348  1.00  0.00     0.031 A 
ATOM     53  C   UNL A   1      41.433  29.190  32.038  1.00  0.00     0.049 A 
ATOM     54  C   UNL A   1      41.677  31.878  36.940  1.00  0.00     0.074 A 
ATOM     55  C   UNL A   1      42.487  28.344  31.738  1.00  0.00     0.029 A 
ATOM     56  N   UNL A   1      41.692  29.725  33.290  1.00  0.00    -0.354 N 
ATOM     57  N   UNL A   1      41.763  31.186  35.829  1.00  0.00    -0.248 NA
ATOM     58  C   UNL A   1      42.761  31.617  37.897  1.00  0.00     0.031 C 
ATOM     59  C   UNL A   1      43.355  28.324  32.834  1.00  0.00     0.029 A 
ATOM     60  C   UNL A   1      42.876  29.207  33.788  1.00  0.00     0.049 A 
ATOM     61  H   UNL A   1      41.120  30.377  33.756  1.00  0.00     0.167 HD
ATOM     62  C   UNL A   1      42.924  30.432  35.941  1.00  0.00     0.074 A 
ATOM     63  C   UNL A   1      43.515  30.762  37.222  1.00  0.00     0.031 C 
ATOM     64  C   UNL A   1      43.454  29.548  35.062  1.00  0.00     0.031 A 
BRANCH  51  65
ATOM     65  C   UNL A   1      40.090  28.763  29.939  1.00  0.00    -0.014 A 
ATOM     66  C   UNL A   1      39.442  27.518  29.880  1.00  0.00     0.009 A 
ATOM     67  C   UNL A   1      40.544  29.347  28.747  1.00  0.00     0.009 A 
ATOM     68  C   UNL A   1      39.287  26.858  28.660  1.00  0.00     0.001 A 
ATOM     69  C   UNL A   1      40.361  28.699  27.524  1.00  0.00     0.001 A 
ATOM     70  C   UNL A   1      39.742  27.451  27.482  1.00  0.00     0.000 A 
ENDBRANCH  51  65
BRANCH  52  71
ATOM     71  C   UNL A   1      40.735  33.582  38.660  1.00  0.00    -0.014 A 
ATOM     72  C   UNL A   1      41.448  34.784  38.782  1.00  0.00     0.009 A 
ATOM     73  C   UNL A   1      40.116  33.042  39.799  1.00  0.00     0.009 A 
ATOM     74  C   UNL A   1      41.564  35.417  40.023  1.00  0.00     0.001 A 
ATOM     75  C   UNL A   1      40.208  33.692  41.031  1.00  0.00     0.001 A 
ATOM     76  C   UNL A   1      40.940  34.872  41.145  1.00  0.00     0.000 A 
ENDBRANCH  52  71
BRANCH  64  77
ATOM     77  C   UNL A   1      44.760  28.905  35.432  1.00  0.00    -0.014 A 
ATOM     78  C   UNL A   1      45.988  29.504  35.114  1.00  0.00     0.009 A 
ATOM     79  C   UNL A   1      44.758  27.703  36.159  1.00  0.00     0.009 A 
ATOM     80  C   UNL A   1      47.188  28.896  35.489  1.00  0.00     0.001 A 
ATOM     81  C   UNL A   1      45.957  27.113  36.559  1.00  0.00     0.001 A 
ATOM     82  C   UNL A   1      47.171  27.706  36.217  1.00  0.00     0.000 A 
ENDBRANCH  64  77
ENDBRANCH  38  39
ENDBRANCH  30  33
ENDBRANCH  28  29
ENDBRANCH  27  28
ENDBRANCH  26  27
ENDBRANCH   1  26
TORSDOF 16
ENDMDL
