MODEL 1
REMARK VINA RESULT:     -11.7      0.000      0.000
REMARK SMILES CC1=C[C@H](C)[C@H](CN2C[C@@]34C=C[C@@H](O3)[C@@H](C(=O)NCCCCCCNC(=O)c3ccc(-c5c6nc(c(-c7ccccc7)c7ccc([nH]7)c(-c7ccccc7)c7nc(c(-c8ccccc8)c8ccc5[nH]8)C=C7)C=C6)cc3)[C@@H]4C2=O)[C@H](C)C1
REMARK SMILES IDX 21 1 20 2 19 3 18 4 16 5 17 6 15 8 8 9 9 10 77 11 10 12
REMARK SMILES IDX 76 13 78 14 11 15 14 16 12 17 13 18 7 19 6 20 1 21 2 22 3 23
REMARK SMILES IDX 81 24 4 25 79 26 5 27 80 28 22 29 23 30 24 31 25 32 26 33
REMARK SMILES IDX 27 35 28 36 29 37 75 38 30 39 74 40 31 41 32 42 33 43 68 44
REMARK SMILES IDX 34 45 73 46 67 47 69 48 35 49 72 50 66 51 65 52 36 54 58 55
REMARK SMILES IDX 43 56 57 57 44 58 47 59 56 60 70 61 45 62 46 63 55 65 71 66
REMARK SMILES IDX 48 67 37 68 38 69 42 70 39 71 41 72 40 73 59 74 60 75 64 76
REMARK SMILES IDX 61 77 63 78 62 79 49 80 50 81 54 82 51 83 53 84 52 85
REMARK H PARENT 18 7 25 34 69 53 47 64
REMARK Flexibility Score: inf
ROOT
ATOM      1  C   UNL A   1      37.966  22.070  25.484  1.00  0.00     0.002 C 
ENDROOT
BRANCH   1   2
ATOM      2  C   UNL A   1      36.972  23.236  25.422  1.00  0.00     0.021 C 
BRANCH   2   3
ATOM      3  C   UNL A   1      35.914  23.245  26.522  1.00  0.00     0.116 C 
BRANCH   3   4
ATOM      4  N   UNL A   1      35.365  21.936  26.756  1.00  0.00    -0.356 N 
ATOM      5  C   UNL A   1      34.006  21.864  27.071  1.00  0.00     0.227 C 
ATOM      6  O   UNL A   1      33.588  22.166  28.181  1.00  0.00    -0.275 OA
ATOM      7  H   UNL A   1      35.922  21.126  26.697  1.00  0.00     0.163 HD
BRANCH   5   8
ATOM      8  C   UNL A   1      33.206  21.154  25.984  1.00  0.00     0.127 C 
ATOM      9  N   UNL A   1      32.195  23.923  23.706  1.00  0.00    -0.339 N 
ATOM     10  C   UNL A   1      33.252  23.220  22.941  1.00  0.00     0.160 C 
ATOM     11  C   UNL A   1      31.719  23.101  24.742  1.00  0.00     0.230 C 
ATOM     12  C   UNL A   1      33.259  21.860  23.638  1.00  0.00     0.117 C 
ATOM     13  C   UNL A   1      32.927  22.324  25.062  1.00  0.00     0.132 C 
ATOM     14  O   UNL A   1      30.634  23.091  25.299  1.00  0.00    -0.274 OA
ATOM     15  C   UNL A   1      32.305  20.773  23.229  1.00  0.00     0.009 C 
ATOM     16  O   UNL A   1      34.431  21.105  23.944  1.00  0.00    -0.360 OA
ATOM     17  C   UNL A   1      32.587  19.759  24.060  1.00  0.00     0.004 C 
ATOM     18  C   UNL A   1      33.780  20.212  24.913  1.00  0.00     0.155 C 
BRANCH   9  19
ATOM     19  C   UNL A   1      31.828  25.311  23.574  1.00  0.00     0.124 C 
BRANCH  19  20
ATOM     20  C   UNL A   1      31.401  26.087  24.867  1.00  0.00     0.018 C 
ATOM     21  C   UNL A   1      31.711  30.498  25.727  1.00  0.00     0.039 C 
ATOM     22  C   UNL A   1      31.637  29.015  25.478  1.00  0.00    -0.077 C 
ATOM     23  C   UNL A   1      32.496  28.158  26.048  1.00  0.00    -0.025 C 
ATOM     24  C   UNL A   1      30.528  28.541  24.588  1.00  0.00     0.034 C 
ATOM     25  C   UNL A   1      32.471  26.657  25.878  1.00  0.00     0.014 C 
ATOM     26  C   UNL A   1      30.177  27.053  24.768  1.00  0.00    -0.005 C 
ATOM     27  C   UNL A   1      33.914  26.184  25.758  1.00  0.00     0.012 C 
ATOM     28  C   UNL A   1      29.102  26.644  23.761  1.00  0.00     0.008 C 
ENDBRANCH  19  20
ENDBRANCH   9  19
ENDBRANCH   5   8
ENDBRANCH   3   4
ENDBRANCH   2   3
ENDBRANCH   1   2
BRANCH   1  29
ATOM     29  C   UNL A   1      37.602  20.840  24.646  1.00  0.00     0.002 C 
BRANCH  29  30
ATOM     30  C   UNL A   1      38.382  19.567  24.975  1.00  0.00     0.021 C 
BRANCH  30  31
ATOM     31  C   UNL A   1      39.368  19.701  26.127  1.00  0.00     0.116 C 
BRANCH  31  32
ATOM     32  N   UNL A   1      40.613  18.999  25.873  1.00  0.00    -0.352 N 
ATOM     33  C   UNL A   1      41.900  19.475  25.936  1.00  0.00     0.251 C 
ATOM     34  H   UNL A   1      40.523  18.052  25.621  1.00  0.00     0.163 HD
ATOM     35  O   UNL A   1      42.831  18.792  25.519  1.00  0.00    -0.269 OA
BRANCH  33  36
ATOM     36  C   UNL A   1      42.167  20.824  26.484  1.00  0.00     0.039 A 
ATOM     37  C   UNL A   1      42.465  21.864  25.599  1.00  0.00     0.014 A 
ATOM     38  C   UNL A   1      42.144  21.066  27.861  1.00  0.00     0.014 A 
ATOM     39  C   UNL A   1      42.699  23.151  26.091  1.00  0.00     0.010 A 
ATOM     40  C   UNL A   1      42.294  22.364  28.343  1.00  0.00     0.010 A 
ATOM     41  C   UNL A   1      42.594  23.417  27.467  1.00  0.00    -0.014 A 
BRANCH  41  42
ATOM     42  C   UNL A   1      42.841  24.780  28.006  1.00  0.00     0.031 A 
ATOM     43  C   UNL A   1      44.237  25.189  28.402  1.00  0.00     0.074 A 
ATOM     44  C   UNL A   1      41.817  25.639  28.172  1.00  0.00     0.049 A 
ATOM     45  N   UNL A   1      44.651  26.316  28.928  1.00  0.00    -0.248 NA
ATOM     46  C   UNL A   1      45.305  24.195  28.202  1.00  0.00     0.031 C 
ATOM     47  C   UNL A   1      40.414  25.361  27.857  1.00  0.00     0.029 A 
ATOM     48  N   UNL A   1      41.800  26.926  28.651  1.00  0.00    -0.354 N 
ATOM     49  C   UNL A   1      46.017  26.158  29.130  1.00  0.00     0.074 A 
ATOM     50  C   UNL A   1      46.353  24.810  28.729  1.00  0.00     0.031 C 
ATOM     51  C   UNL A   1      39.679  26.455  28.120  1.00  0.00     0.029 A 
ATOM     52  C   UNL A   1      40.548  27.495  28.660  1.00  0.00     0.049 A 
ATOM     53  H   UNL A   1      42.607  27.397  28.958  1.00  0.00     0.167 HD
ATOM     54  C   UNL A   1      46.919  27.060  29.584  1.00  0.00     0.031 A 
ATOM     55  C   UNL A   1      40.147  28.716  29.061  1.00  0.00     0.031 A 
ATOM     56  C   UNL A   1      46.594  28.406  29.972  1.00  0.00     0.049 A 
ATOM     57  C   UNL A   1      41.168  29.690  29.587  1.00  0.00     0.074 A 
ATOM     58  C   UNL A   1      47.444  29.407  30.409  1.00  0.00     0.029 A 
ATOM     59  N   UNL A   1      45.315  28.940  29.965  1.00  0.00    -0.354 N 
ATOM     60  N   UNL A   1      42.465  29.542  29.718  1.00  0.00    -0.248 NA
ATOM     61  C   UNL A   1      40.668  31.007  30.006  1.00  0.00     0.031 C 
ATOM     62  C   UNL A   1      46.673  30.533  30.715  1.00  0.00     0.029 A 
ATOM     63  C   UNL A   1      45.351  30.253  30.408  1.00  0.00     0.049 A 
ATOM     64  H   UNL A   1      44.503  28.460  29.689  1.00  0.00     0.167 HD
ATOM     65  C   UNL A   1      42.937  30.758  30.196  1.00  0.00     0.074 A 
ATOM     66  C   UNL A   1      41.792  31.636  30.314  1.00  0.00     0.031 C 
ATOM     67  C   UNL A   1      44.206  31.117  30.510  1.00  0.00     0.031 A 
BRANCH  54  68
ATOM     68  C   UNL A   1      48.354  26.619  29.679  1.00  0.00    -0.014 A 
ATOM     69  C   UNL A   1      49.248  26.820  28.615  1.00  0.00     0.009 A 
ATOM     70  C   UNL A   1      48.832  26.038  30.864  1.00  0.00     0.009 A 
ATOM     71  C   UNL A   1      50.581  26.418  28.723  1.00  0.00     0.001 A 
ATOM     72  C   UNL A   1      50.172  25.666  30.982  1.00  0.00     0.001 A 
ATOM     73  C   UNL A   1      51.043  25.848  29.908  1.00  0.00     0.000 A 
ENDBRANCH  54  68
BRANCH  55  74
ATOM     74  C   UNL A   1      38.714  29.106  28.979  1.00  0.00    -0.014 A 
ATOM     75  C   UNL A   1      38.191  29.660  27.799  1.00  0.00     0.009 A 
ATOM     76  C   UNL A   1      37.872  28.971  30.093  1.00  0.00     0.009 A 
ATOM     77  C   UNL A   1      36.870  30.110  27.752  1.00  0.00     0.001 A 
ATOM     78  C   UNL A   1      36.541  29.390  30.032  1.00  0.00     0.001 A 
ATOM     79  C   UNL A   1      36.045  29.974  28.867  1.00  0.00     0.000 A 
ENDBRANCH  55  74
BRANCH  67  80
ATOM     80  C   UNL A   1      44.429  32.535  30.957  1.00  0.00    -0.014 A 
ATOM     81  C   UNL A   1      44.396  32.891  32.314  1.00  0.00     0.009 A 
ATOM     82  C   UNL A   1      44.702  33.526  30.000  1.00  0.00     0.009 A 
ATOM     83  C   UNL A   1      44.588  34.221  32.700  1.00  0.00     0.001 A 
ATOM     84  C   UNL A   1      44.927  34.847  30.391  1.00  0.00     0.001 A 
ATOM     85  C   UNL A   1      44.857  35.195  31.738  1.00  0.00     0.000 A 
ENDBRANCH  67  80
ENDBRANCH  41  42
ENDBRANCH  33  36
ENDBRANCH  31  32
ENDBRANCH  30  31
ENDBRANCH  29  30
ENDBRANCH   1  29
TORSDOF 15
ENDMDL
MODEL 2
REMARK VINA RESULT:     -11.6      3.750      8.973
REMARK SMILES CC1=C[C@H](C)[C@H](CN2C[C@@]34C=C[C@@H](O3)[C@@H](C(=O)NCCCCCCNC(=O)c3ccc(-c5c6nc(c(-c7ccccc7)c7ccc([nH]7)c(-c7ccccc7)c7nc(c(-c8ccccc8)c8ccc5[nH]8)C=C7)C=C6)cc3)[C@@H]4C2=O)[C@H](C)C1
REMARK SMILES IDX 21 1 20 2 19 3 18 4 16 5 17 6 15 8 8 9 9 10 77 11 10 12
REMARK SMILES IDX 76 13 78 14 11 15 14 16 12 17 13 18 7 19 6 20 1 21 2 22 3 23
REMARK SMILES IDX 81 24 4 25 79 26 5 27 80 28 22 29 23 30 24 31 25 32 26 33
REMARK SMILES IDX 27 35 28 36 29 37 75 38 30 39 74 40 31 41 32 42 33 43 68 44
REMARK SMILES IDX 34 45 73 46 67 47 69 48 35 49 72 50 66 51 65 52 36 54 58 55
REMARK SMILES IDX 43 56 57 57 44 58 47 59 56 60 70 61 45 62 46 63 55 65 71 66
REMARK SMILES IDX 48 67 37 68 38 69 42 70 39 71 41 72 40 73 59 74 60 75 64 76
REMARK SMILES IDX 61 77 63 78 62 79 49 80 50 81 54 82 51 83 53 84 52 85
REMARK H PARENT 18 7 25 34 69 53 47 64
REMARK Flexibility Score: inf
ROOT
ATOM      1  C   UNL A   1      34.727  30.027  27.973  1.00  0.00     0.002 C 
ENDROOT
BRANCH   1   2
ATOM      2  C   UNL A   1      33.690  29.235  27.168  1.00  0.00     0.021 C 
BRANCH   2   3
ATOM      3  C   UNL A   1      34.140  28.811  25.772  1.00  0.00     0.116 C 
BRANCH   3   4
ATOM      4  N   UNL A   1      33.435  29.522  24.737  1.00  0.00    -0.356 N 
ATOM      5  C   UNL A   1      33.364  28.912  23.483  1.00  0.00     0.227 C 
ATOM      6  O   UNL A   1      34.324  28.891  22.725  1.00  0.00    -0.275 OA
ATOM      7  H   UNL A   1      33.022  30.399  24.906  1.00  0.00     0.163 HD
BRANCH   5   8
ATOM      8  C   UNL A   1      31.935  28.529  23.116  1.00  0.00     0.127 C 
ATOM      9  N   UNL A   1      31.943  24.812  23.364  1.00  0.00    -0.339 N 
ATOM     10  C   UNL A   1      31.183  25.232  24.565  1.00  0.00     0.160 C 
ATOM     11  C   UNL A   1      32.011  25.868  22.439  1.00  0.00     0.230 C 
ATOM     12  C   UNL A   1      30.766  26.647  24.164  1.00  0.00     0.117 C 
ATOM     13  C   UNL A   1      32.002  27.032  23.340  1.00  0.00     0.132 C 
ATOM     14  O   UNL A   1      32.141  25.842  21.227  1.00  0.00    -0.274 OA
ATOM     15  C   UNL A   1      29.526  26.890  23.351  1.00  0.00     0.009 C 
ATOM     16  O   UNL A   1      30.753  27.774  25.040  1.00  0.00    -0.360 OA
ATOM     17  C   UNL A   1      29.499  28.219  23.180  1.00  0.00     0.004 C 
ATOM     18  C   UNL A   1      30.685  28.785  23.975  1.00  0.00     0.155 C 
BRANCH   9  19
ATOM     19  C   UNL A   1      32.692  23.589  23.215  1.00  0.00     0.124 C 
BRANCH  19  20
ATOM     20  C   UNL A   1      33.251  22.905  24.511  1.00  0.00     0.018 C 
ATOM     21  C   UNL A   1      37.068  20.571  25.030  1.00  0.00     0.039 C 
ATOM     22  C   UNL A   1      35.767  21.310  24.869  1.00  0.00    -0.077 C 
ATOM     23  C   UNL A   1      34.591  20.670  24.811  1.00  0.00    -0.025 C 
ATOM     24  C   UNL A   1      35.851  22.806  24.817  1.00  0.00     0.034 C 
ATOM     25  C   UNL A   1      33.241  21.337  24.684  1.00  0.00     0.014 C 
ATOM     26  C   UNL A   1      34.531  23.518  25.165  1.00  0.00    -0.005 C 
ATOM     27  C   UNL A   1      32.404  20.500  23.724  1.00  0.00     0.012 C 
ATOM     28  C   UNL A   1      34.691  25.029  24.998  1.00  0.00     0.008 C 
ENDBRANCH  19  20
ENDBRANCH   9  19
ENDBRANCH   5   8
ENDBRANCH   3   4
ENDBRANCH   2   3
ENDBRANCH   1   2
BRANCH   1  29
ATOM     29  C   UNL A   1      34.799  31.527  27.673  1.00  0.00     0.002 C 
BRANCH  29  30
ATOM     30  C   UNL A   1      33.531  32.321  27.985  1.00  0.00     0.021 C 
BRANCH  30  31
ATOM     31  C   UNL A   1      33.679  33.832  27.871  1.00  0.00     0.116 C 
BRANCH  31  32
ATOM     32  N   UNL A   1      33.234  34.524  29.066  1.00  0.00    -0.352 N 
ATOM     33  C   UNL A   1      33.702  34.411  30.353  1.00  0.00     0.251 C 
ATOM     34  H   UNL A   1      32.495  35.162  28.938  1.00  0.00     0.163 HD
ATOM     35  O   UNL A   1      33.095  34.941  31.278  1.00  0.00    -0.269 OA
BRANCH  33  36
ATOM     36  C   UNL A   1      34.928  33.628  30.631  1.00  0.00     0.039 A 
ATOM     37  C   UNL A   1      36.143  34.069  30.100  1.00  0.00     0.014 A 
ATOM     38  C   UNL A   1      34.884  32.456  31.392  1.00  0.00     0.014 A 
ATOM     39  C   UNL A   1      37.316  33.359  30.365  1.00  0.00     0.010 A 
ATOM     40  C   UNL A   1      36.065  31.798  31.726  1.00  0.00     0.010 A 
ATOM     41  C   UNL A   1      37.292  32.229  31.200  1.00  0.00    -0.014 A 
BRANCH  41  42
ATOM     42  C   UNL A   1      38.531  31.462  31.491  1.00  0.00     0.031 A 
ATOM     43  C   UNL A   1      39.377  31.826  32.684  1.00  0.00     0.074 A 
ATOM     44  C   UNL A   1      38.919  30.464  30.672  1.00  0.00     0.049 A 
ATOM     45  N   UNL A   1      40.512  31.306  33.083  1.00  0.00    -0.248 NA
ATOM     46  C   UNL A   1      38.898  32.934  33.527  1.00  0.00     0.031 C 
ATOM     47  C   UNL A   1      38.209  30.028  29.468  1.00  0.00     0.029 A 
ATOM     48  N   UNL A   1      40.010  29.634  30.732  1.00  0.00    -0.354 N 
ATOM     49  C   UNL A   1      40.882  32.030  34.210  1.00  0.00     0.074 A 
ATOM     50  C   UNL A   1      39.888  33.063  34.398  1.00  0.00     0.031 C 
ATOM     51  C   UNL A   1      38.866  28.991  28.922  1.00  0.00     0.029 A 
ATOM     52  C   UNL A   1      40.061  28.715  29.710  1.00  0.00     0.049 A 
ATOM     53  H   UNL A   1      40.692  29.691  31.439  1.00  0.00     0.167 HD
ATOM     54  C   UNL A   1      41.940  31.840  35.034  1.00  0.00     0.031 A 
ATOM     55  C   UNL A   1      40.973  27.761  29.439  1.00  0.00     0.031 A 
ATOM     56  C   UNL A   1      42.925  30.807  34.861  1.00  0.00     0.049 A 
ATOM     57  C   UNL A   1      42.153  27.589  30.357  1.00  0.00     0.074 A 
ATOM     58  C   UNL A   1      44.013  30.509  35.663  1.00  0.00     0.029 A 
ATOM     59  N   UNL A   1      42.939  29.899  33.814  1.00  0.00    -0.354 N 
ATOM     60  N   UNL A   1      42.457  28.246  31.450  1.00  0.00    -0.248 NA
ATOM     61  C   UNL A   1      43.109  26.528  30.008  1.00  0.00     0.031 C 
ATOM     62  C   UNL A   1      44.714  29.452  35.075  1.00  0.00     0.029 A 
ATOM     63  C   UNL A   1      44.027  29.051  33.940  1.00  0.00     0.049 A 
ATOM     64  H   UNL A   1      42.276  29.862  33.088  1.00  0.00     0.167 HD
ATOM     65  C   UNL A   1      43.615  27.654  31.939  1.00  0.00     0.074 A 
ATOM     66  C   UNL A   1      43.948  26.574  31.034  1.00  0.00     0.031 C 
ATOM     67  C   UNL A   1      44.340  27.975  33.038  1.00  0.00     0.031 A 
BRANCH  54  68
ATOM     68  C   UNL A   1      42.083  32.770  36.207  1.00  0.00    -0.014 A 
ATOM     69  C   UNL A   1      42.862  33.936  36.119  1.00  0.00     0.009 A 
ATOM     70  C   UNL A   1      41.394  32.505  37.401  1.00  0.00     0.009 A 
ATOM     71  C   UNL A   1      42.974  34.798  37.212  1.00  0.00     0.001 A 
ATOM     72  C   UNL A   1      41.483  33.385  38.481  1.00  0.00     0.001 A 
ATOM     73  C   UNL A   1      42.279  34.525  38.389  1.00  0.00     0.000 A 
ENDBRANCH  54  68
BRANCH  55  74
ATOM     74  C   UNL A   1      40.812  26.879  28.252  1.00  0.00    -0.014 A 
ATOM     75  C   UNL A   1      41.386  27.229  27.019  1.00  0.00     0.009 A 
ATOM     76  C   UNL A   1      40.046  25.706  28.333  1.00  0.00     0.009 A 
ATOM     77  C   UNL A   1      41.158  26.447  25.884  1.00  0.00     0.001 A 
ATOM     78  C   UNL A   1      39.849  24.907  27.204  1.00  0.00     0.001 A 
ATOM     79  C   UNL A   1      40.392  25.286  25.977  1.00  0.00     0.000 A 
ENDBRANCH  55  74
BRANCH  67  80
ATOM     80  C   UNL A   1      45.530  27.112  33.352  1.00  0.00    -0.014 A 
ATOM     81  C   UNL A   1      45.413  25.957  34.140  1.00  0.00     0.009 A 
ATOM     82  C   UNL A   1      46.787  27.453  32.826  1.00  0.00     0.009 A 
ATOM     83  C   UNL A   1      46.541  25.184  34.431  1.00  0.00     0.001 A 
ATOM     84  C   UNL A   1      47.905  26.659  33.091  1.00  0.00     0.001 A 
ATOM     85  C   UNL A   1      47.783  25.535  33.903  1.00  0.00     0.000 A 
ENDBRANCH  67  80
ENDBRANCH  41  42
ENDBRANCH  33  36
ENDBRANCH  31  32
ENDBRANCH  30  31
ENDBRANCH  29  30
ENDBRANCH   1  29
TORSDOF 15
ENDMDL
MODEL 3
REMARK VINA RESULT:     -11.6      3.604      8.990
REMARK SMILES CC1=C[C@H](C)[C@H](CN2C[C@@]34C=C[C@@H](O3)[C@@H](C(=O)NCCCCCCNC(=O)c3ccc(-c5c6nc(c(-c7ccccc7)c7ccc([nH]7)c(-c7ccccc7)c7nc(c(-c8ccccc8)c8ccc5[nH]8)C=C7)C=C6)cc3)[C@@H]4C2=O)[C@H](C)C1
REMARK SMILES IDX 21 1 20 2 19 3 18 4 16 5 17 6 15 8 8 9 9 10 77 11 10 12
REMARK SMILES IDX 76 13 78 14 11 15 14 16 12 17 13 18 7 19 6 20 1 21 2 22 3 23
REMARK SMILES IDX 81 24 4 25 79 26 5 27 80 28 22 29 23 30 24 31 25 32 26 33
REMARK SMILES IDX 27 35 28 36 29 37 75 38 30 39 74 40 31 41 32 42 33 43 68 44
REMARK SMILES IDX 34 45 73 46 67 47 69 48 35 49 72 50 66 51 65 52 36 54 58 55
REMARK SMILES IDX 43 56 57 57 44 58 47 59 56 60 70 61 45 62 46 63 55 65 71 66
REMARK SMILES IDX 48 67 37 68 38 69 42 70 39 71 41 72 40 73 59 74 60 75 64 76
REMARK SMILES IDX 61 77 63 78 62 79 49 80 50 81 54 82 51 83 53 84 52 85
REMARK H PARENT 18 7 25 34 69 53 47 64
REMARK Flexibility Score: inf
ROOT
ATOM      1  C   UNL A   1      35.071  29.881  27.936  1.00  0.00     0.002 C 
ENDROOT
BRANCH   1   2
ATOM      2  C   UNL A   1      33.867  29.287  27.196  1.00  0.00     0.021 C 
BRANCH   2   3
ATOM      3  C   UNL A   1      34.167  28.737  25.805  1.00  0.00     0.116 C 
BRANCH   3   4
ATOM      4  N   UNL A   1      33.451  29.445  24.776  1.00  0.00    -0.356 N 
ATOM      5  C   UNL A   1      33.367  28.832  23.524  1.00  0.00     0.227 C 
ATOM      6  O   UNL A   1      34.319  28.811  22.756  1.00  0.00    -0.275 OA
ATOM      7  H   UNL A   1      33.040  30.323  24.947  1.00  0.00     0.163 HD
BRANCH   5   8
ATOM      8  C   UNL A   1      31.933  28.449  23.172  1.00  0.00     0.127 C 
ATOM      9  N   UNL A   1      31.952  24.730  23.403  1.00  0.00    -0.339 N 
ATOM     10  C   UNL A   1      31.206  25.144  24.615  1.00  0.00     0.160 C 
ATOM     11  C   UNL A   1      32.007  25.791  22.482  1.00  0.00     0.230 C 
ATOM     12  C   UNL A   1      30.782  26.559  24.226  1.00  0.00     0.117 C 
ATOM     13  C   UNL A   1      32.007  26.951  23.389  1.00  0.00     0.132 C 
ATOM     14  O   UNL A   1      32.122  25.771  21.269  1.00  0.00    -0.274 OA
ATOM     15  C   UNL A   1      29.531  26.804  23.430  1.00  0.00     0.009 C 
ATOM     16  O   UNL A   1      30.778  27.682  25.107  1.00  0.00    -0.360 OA
ATOM     17  C   UNL A   1      29.500  28.134  23.266  1.00  0.00     0.004 C 
ATOM     18  C   UNL A   1      30.694  28.698  24.048  1.00  0.00     0.155 C 
BRANCH   9  19
ATOM     19  C   UNL A   1      32.702  23.510  23.239  1.00  0.00     0.124 C 
BRANCH  19  20
ATOM     20  C   UNL A   1      33.287  22.827  24.523  1.00  0.00     0.018 C 
ATOM     21  C   UNL A   1      37.092  20.456  24.956  1.00  0.00     0.039 C 
ATOM     22  C   UNL A   1      35.795  21.208  24.825  1.00  0.00    -0.077 C 
ATOM     23  C   UNL A   1      34.612  20.580  24.800  1.00  0.00    -0.025 C 
ATOM     24  C   UNL A   1      35.893  22.703  24.762  1.00  0.00     0.034 C 
ATOM     25  C   UNL A   1      33.265  21.259  24.705  1.00  0.00     0.014 C 
ATOM     26  C   UNL A   1      34.590  23.429  25.141  1.00  0.00    -0.005 C 
ATOM     27  C   UNL A   1      32.395  20.427  23.772  1.00  0.00     0.012 C 
ATOM     28  C   UNL A   1      34.761  24.938  24.961  1.00  0.00     0.008 C 
ENDBRANCH  19  20
ENDBRANCH   9  19
ENDBRANCH   5   8
ENDBRANCH   3   4
ENDBRANCH   2   3
ENDBRANCH   1   2
BRANCH   1  29
ATOM     29  C   UNL A   1      35.237  31.400  27.827  1.00  0.00     0.002 C 
BRANCH  29  30
ATOM     30  C   UNL A   1      33.951  32.213  27.966  1.00  0.00     0.021 C 
BRANCH  30  31
ATOM     31  C   UNL A   1      34.147  33.723  27.976  1.00  0.00     0.116 C 
BRANCH  31  32
ATOM     32  N   UNL A   1      33.612  34.342  29.175  1.00  0.00    -0.352 N 
ATOM     33  C   UNL A   1      34.029  34.205  30.476  1.00  0.00     0.251 C 
ATOM     34  H   UNL A   1      32.844  34.943  29.036  1.00  0.00     0.163 HD
ATOM     35  O   UNL A   1      33.354  34.666  31.392  1.00  0.00    -0.269 OA
BRANCH  33  36
ATOM     36  C   UNL A   1      35.284  33.481  30.781  1.00  0.00     0.039 A 
ATOM     37  C   UNL A   1      35.217  32.305  31.532  1.00  0.00     0.014 A 
ATOM     38  C   UNL A   1      36.524  33.963  30.350  1.00  0.00     0.014 A 
ATOM     39  C   UNL A   1      36.385  31.592  31.815  1.00  0.00     0.010 A 
ATOM     40  C   UNL A   1      37.676  33.209  30.560  1.00  0.00     0.010 A 
ATOM     41  C   UNL A   1      37.624  32.026  31.312  1.00  0.00    -0.014 A 
BRANCH  41  42
ATOM     42  C   UNL A   1      38.875  31.280  31.605  1.00  0.00     0.031 A 
ATOM     43  C   UNL A   1      39.282  30.122  30.730  1.00  0.00     0.074 A 
ATOM     44  C   UNL A   1      39.630  31.616  32.669  1.00  0.00     0.049 A 
ATOM     45  N   UNL A   1      40.313  29.322  30.843  1.00  0.00    -0.248 NA
ATOM     46  C   UNL A   1      38.402  29.805  29.592  1.00  0.00     0.031 C 
ATOM     47  C   UNL A   1      39.338  32.697  33.612  1.00  0.00     0.029 A 
ATOM     48  N   UNL A   1      40.804  31.077  33.135  1.00  0.00    -0.354 N 
ATOM     49  C   UNL A   1      40.197  28.407  29.804  1.00  0.00     0.074 A 
ATOM     50  C   UNL A   1      38.967  28.710  29.107  1.00  0.00     0.031 C 
ATOM     51  C   UNL A   1      40.322  32.762  34.525  1.00  0.00     0.029 A 
ATOM     52  C   UNL A   1      41.291  31.705  34.257  1.00  0.00     0.049 A 
ATOM     53  H   UNL A   1      41.255  30.315  32.707  1.00  0.00     0.167 HD
ATOM     54  C   UNL A   1      41.049  27.419  29.441  1.00  0.00     0.031 A 
ATOM     55  C   UNL A   1      42.394  31.454  34.989  1.00  0.00     0.031 A 
ATOM     56  C   UNL A   1      42.280  27.120  30.121  1.00  0.00     0.049 A 
ATOM     57  C   UNL A   1      43.309  30.331  34.579  1.00  0.00     0.074 A 
ATOM     58  C   UNL A   1      43.229  26.162  29.808  1.00  0.00     0.029 A 
ATOM     59  N   UNL A   1      42.734  27.780  31.252  1.00  0.00    -0.354 N 
ATOM     60  N   UNL A   1      43.212  29.513  33.559  1.00  0.00    -0.248 NA
ATOM     61  C   UNL A   1      44.497  30.110  35.416  1.00  0.00     0.031 C 
ATOM     62  C   UNL A   1      44.235  26.210  30.778  1.00  0.00     0.029 A 
ATOM     63  C   UNL A   1      43.943  27.238  31.659  1.00  0.00     0.049 A 
ATOM     64  H   UNL A   1      42.269  28.522  31.700  1.00  0.00     0.167 HD
ATOM     65  C   UNL A   1      44.343  28.708  33.610  1.00  0.00     0.074 A 
ATOM     66  C   UNL A   1      45.120  29.149  34.750  1.00  0.00     0.031 C 
ATOM     67  C   UNL A   1      44.708  27.694  32.789  1.00  0.00     0.031 A 
BRANCH  54  68
ATOM     68  C   UNL A   1      40.678  26.587  28.244  1.00  0.00    -0.014 A 
ATOM     69  C   UNL A   1      41.253  26.829  26.985  1.00  0.00     0.009 A 
ATOM     70  C   UNL A   1      39.778  25.519  28.383  1.00  0.00     0.009 A 
ATOM     71  C   UNL A   1      40.910  26.039  25.885  1.00  0.00     0.001 A 
ATOM     72  C   UNL A   1      39.461  24.711  27.289  1.00  0.00     0.001 A 
ATOM     73  C   UNL A   1      40.019  24.978  26.041  1.00  0.00     0.000 A 
ENDBRANCH  54  68
BRANCH  55  74
ATOM     74  C   UNL A   1      42.712  32.280  36.185  1.00  0.00    -0.014 A 
ATOM     75  C   UNL A   1      42.222  31.922  37.451  1.00  0.00     0.009 A 
ATOM     76  C   UNL A   1      43.468  33.456  36.059  1.00  0.00     0.009 A 
ATOM     77  C   UNL A   1      42.445  32.748  38.556  1.00  0.00     0.001 A 
ATOM     78  C   UNL A   1      43.719  34.261  37.173  1.00  0.00     0.001 A 
ATOM     79  C   UNL A   1      43.194  33.915  38.417  1.00  0.00     0.000 A 
ENDBRANCH  55  74
BRANCH  67  80
ATOM     80  C   UNL A   1      46.030  27.030  33.060  1.00  0.00    -0.014 A 
ATOM     81  C   UNL A   1      46.127  25.893  33.876  1.00  0.00     0.009 A 
ATOM     82  C   UNL A   1      47.195  27.542  32.465  1.00  0.00     0.009 A 
ATOM     83  C   UNL A   1      47.372  25.308  34.126  1.00  0.00     0.001 A 
ATOM     84  C   UNL A   1      48.431  26.934  32.689  1.00  0.00     0.001 A 
ATOM     85  C   UNL A   1      48.520  25.827  33.529  1.00  0.00     0.000 A 
ENDBRANCH  67  80
ENDBRANCH  41  42
ENDBRANCH  33  36
ENDBRANCH  31  32
ENDBRANCH  30  31
ENDBRANCH  29  30
ENDBRANCH   1  29
TORSDOF 15
ENDMDL
