MODEL 1
REMARK VINA RESULT:     -10.8      0.000      0.000
REMARK SMILES O=C(C[C@H](CNC(=O)c1ccccn1)c1ccc(Cl)cc1)NCCCCCCNC(=O)c1ccc(-c2c3nc(c(-c4ccccc4)c4ccc([nH]4)c(-c4ccccc4)c4nc(c(-c5ccccc5)c5ccc2[nH]5)C=C4)C=C3)cc1
REMARK SMILES IDX 24 1 23 2 22 3 1 4 2 5 3 7 4 8 15 9 16 10 21 11 17 12 20 13
REMARK SMILES IDX 18 14 19 15 5 16 6 17 7 18 8 20 9 21 10 22 14 23 11 24 13 25
REMARK SMILES IDX 12 26 25 27 26 28 27 29 28 30 29 31 30 32 31 34 32 35 33 36
REMARK SMILES IDX 79 37 34 38 78 39 35 40 36 41 37 42 72 43 38 44 77 45 71 46
REMARK SMILES IDX 73 47 39 48 76 49 70 50 69 51 40 53 62 54 47 55 61 56 48 57
REMARK SMILES IDX 51 58 60 59 74 60 49 61 50 62 59 64 75 65 52 66 41 67 42 68
REMARK SMILES IDX 46 69 43 70 45 71 44 72 63 73 64 74 68 75 65 76 67 77 66 78
REMARK SMILES IDX 53 79 54 80 58 81 55 82 57 83 56 84
REMARK H PARENT 22 6 6 19 29 33 73 52 51 63
REMARK Flexibility Score: inf
ROOT
ATOM      1  C   UNL A   1      35.146  32.135  28.244  1.00  0.00     0.021 C 
ENDROOT
BRANCH   1   2
ATOM      2  C   UNL A   1      33.825  31.711  27.609  1.00  0.00     0.116 C 
BRANCH   2   3
ATOM      3  N   UNL A   1      33.584  30.291  27.754  1.00  0.00    -0.356 N 
ATOM      4  O   UNL A   1      32.686  29.997  25.659  1.00  0.00    -0.275 OA
ATOM      5  C   UNL A   1      33.072  29.531  26.724  1.00  0.00     0.220 C 
ATOM      6  H   UNL A   1      33.792  29.856  28.612  1.00  0.00     0.163 HD
BRANCH   5   7
ATOM      7  C   UNL A   1      33.145  28.044  26.984  1.00  0.00     0.110 C 
BRANCH   7   8
ATOM      8  C   UNL A   1      32.652  27.171  25.801  1.00  0.00     0.048 C 
BRANCH   8   9
ATOM      9  C   UNL A   1      33.143  25.735  25.990  1.00  0.00    -0.043 A 
ATOM     10  C   UNL A   1      32.269  24.783  26.544  1.00  0.00     0.005 A 
ATOM     11  C   UNL A   1      34.416  25.307  25.579  1.00  0.00     0.005 A 
ATOM     12  C   UNL A   1      32.669  23.455  26.720  1.00  0.00     0.021 A 
ATOM     13  C   UNL A   1      34.824  23.983  25.773  1.00  0.00     0.021 A 
ATOM     14  C   UNL A   1      33.950  23.064  26.345  1.00  0.00     0.041 A 
ATOM     15  Cl  UNL A   1      34.455  21.436  26.579  1.00  0.00    -0.084 Cl
ENDBRANCH   8   9
BRANCH   8  16
ATOM     16  C   UNL A   1      31.140  27.287  25.476  1.00  0.00     0.125 C 
BRANCH  16  17
ATOM     17  N   UNL A   1      30.876  27.692  24.104  1.00  0.00    -0.350 N 
ATOM     18  C   UNL A   1      30.932  26.989  22.924  1.00  0.00     0.269 C 
ATOM     19  H   UNL A   1      30.612  28.634  24.002  1.00  0.00     0.163 HD
ATOM     20  O   UNL A   1      30.570  27.552  21.892  1.00  0.00    -0.268 OA
BRANCH  18  21
ATOM     21  C   UNL A   1      31.426  25.585  22.888  1.00  0.00     0.128 A 
ATOM     22  C   UNL A   1      30.636  24.529  23.327  1.00  0.00     0.034 A 
ATOM     23  N   UNL A   1      32.671  25.423  22.370  1.00  0.00    -0.251 NA
ATOM     24  C   UNL A   1      31.174  23.246  23.291  1.00  0.00     0.004 A 
ATOM     25  C   UNL A   1      33.150  24.165  22.319  1.00  0.00     0.112 A 
ATOM     26  C   UNL A   1      32.454  23.058  22.777  1.00  0.00     0.020 A 
ENDBRANCH  18  21
ENDBRANCH  16  17
ENDBRANCH   8  16
ENDBRANCH   7   8
ENDBRANCH   5   7
ENDBRANCH   2   3
ENDBRANCH   1   2
BRANCH   1  27
ATOM     27  C   UNL A   1      35.062  33.377  29.144  1.00  0.00     0.002 C 
BRANCH  27  28
ATOM     28  C   UNL A   1      34.722  34.691  28.434  1.00  0.00     0.002 C 
BRANCH  28  29
ATOM     29  C   UNL A   1      33.397  35.335  28.843  1.00  0.00     0.021 C 
BRANCH  29  30
ATOM     30  C   UNL A   1      33.504  36.426  29.905  1.00  0.00     0.116 C 
BRANCH  30  31
ATOM     31  N   UNL A   1      32.451  36.347  30.905  1.00  0.00    -0.352 N 
ATOM     32  C   UNL A   1      32.430  35.644  32.085  1.00  0.00     0.251 C 
ATOM     33  H   UNL A   1      31.641  36.871  30.710  1.00  0.00     0.163 HD
ATOM     34  O   UNL A   1      31.398  35.575  32.748  1.00  0.00    -0.269 OA
BRANCH  32  35
ATOM     35  C   UNL A   1      33.647  34.940  32.543  1.00  0.00     0.039 A 
ATOM     36  C   UNL A   1      33.542  33.612  32.967  1.00  0.00     0.014 A 
ATOM     37  C   UNL A   1      34.889  35.580  32.541  1.00  0.00     0.014 A 
ATOM     38  C   UNL A   1      34.694  32.906  33.322  1.00  0.00     0.010 A 
ATOM     39  C   UNL A   1      36.043  34.853  32.824  1.00  0.00     0.010 A 
ATOM     40  C   UNL A   1      35.958  33.508  33.215  1.00  0.00    -0.014 A 
BRANCH  40  41
ATOM     41  C   UNL A   1      37.204  32.747  33.497  1.00  0.00     0.031 A 
ATOM     42  C   UNL A   1      37.988  33.016  34.753  1.00  0.00     0.074 A 
ATOM     43  C   UNL A   1      37.669  31.866  32.589  1.00  0.00     0.049 A 
ATOM     44  N   UNL A   1      39.131  32.506  35.137  1.00  0.00    -0.248 NA
ATOM     45  C   UNL A   1      37.428  34.004  35.691  1.00  0.00     0.031 C 
ATOM     46  C   UNL A   1      37.023  31.537  31.315  1.00  0.00     0.029 A 
ATOM     47  N   UNL A   1      38.801  31.089  32.594  1.00  0.00    -0.354 N 
ATOM     48  C   UNL A   1      39.438  33.127  36.341  1.00  0.00     0.074 A 
ATOM     49  C   UNL A   1      38.382  34.079  36.607  1.00  0.00     0.031 C 
ATOM     50  C   UNL A   1      37.755  30.608  30.677  1.00  0.00     0.029 A 
ATOM     51  C   UNL A   1      38.944  30.311  31.468  1.00  0.00     0.049 A 
ATOM     52  H   UNL A   1      39.450  31.088  33.334  1.00  0.00     0.167 HD
ATOM     53  C   UNL A   1      40.495  32.915  37.159  1.00  0.00     0.031 A 
ATOM     54  C   UNL A   1      39.927  29.465  31.107  1.00  0.00     0.031 A 
ATOM     55  C   UNL A   1      41.533  31.952  36.907  1.00  0.00     0.049 A 
ATOM     56  C   UNL A   1      41.101  29.267  32.029  1.00  0.00     0.074 A 
ATOM     57  C   UNL A   1      42.604  31.610  37.716  1.00  0.00     0.029 A 
ATOM     58  N   UNL A   1      41.638  31.183  35.759  1.00  0.00    -0.354 N 
ATOM     59  N   UNL A   1      41.329  29.798  33.205  1.00  0.00    -0.248 NA
ATOM     60  C   UNL A   1      42.151  28.345  31.573  1.00  0.00     0.031 C 
ATOM     61  C   UNL A   1      43.392  30.683  37.028  1.00  0.00     0.029 A 
ATOM     62  C   UNL A   1      42.775  30.396  35.823  1.00  0.00     0.049 A 
ATOM     63  H   UNL A   1      40.998  31.194  35.011  1.00  0.00     0.167 HD
ATOM     64  C   UNL A   1      42.525  29.246  33.645  1.00  0.00     0.074 A 
ATOM     65  C   UNL A   1      42.967  28.328  32.617  1.00  0.00     0.031 C 
ATOM     66  C   UNL A   1      43.198  29.478  34.798  1.00  0.00     0.031 A 
BRANCH  53  67
ATOM     67  C   UNL A   1      40.600  33.749  38.406  1.00  0.00    -0.014 A 
ATOM     68  C   UNL A   1      41.261  34.987  38.406  1.00  0.00     0.009 A 
ATOM     69  C   UNL A   1      39.963  33.320  39.581  1.00  0.00     0.009 A 
ATOM     70  C   UNL A   1      41.303  35.765  39.565  1.00  0.00     0.001 A 
ATOM     71  C   UNL A   1      39.982  34.114  40.730  1.00  0.00     0.001 A 
ATOM     72  C   UNL A   1      40.657  35.332  40.722  1.00  0.00     0.000 A 
ENDBRANCH  53  67
BRANCH  54  73
ATOM     73  C   UNL A   1      39.860  28.733  29.813  1.00  0.00    -0.014 A 
ATOM     74  C   UNL A   1      39.363  27.421  29.760  1.00  0.00     0.009 A 
ATOM     75  C   UNL A   1      40.337  29.324  28.632  1.00  0.00     0.009 A 
ATOM     76  C   UNL A   1      39.386  26.701  28.562  1.00  0.00     0.001 A 
ATOM     77  C   UNL A   1      40.327  28.614  27.429  1.00  0.00     0.001 A 
ATOM     78  C   UNL A   1      39.866  27.298  27.398  1.00  0.00     0.000 A 
ENDBRANCH  54  73
BRANCH  66  79
ATOM     79  C   UNL A   1      44.455  28.689  35.036  1.00  0.00    -0.014 A 
ATOM     80  C   UNL A   1      45.700  29.132  34.565  1.00  0.00     0.009 A 
ATOM     81  C   UNL A   1      44.396  27.506  35.790  1.00  0.00     0.009 A 
ATOM     82  C   UNL A   1      46.854  28.386  34.813  1.00  0.00     0.001 A 
ATOM     83  C   UNL A   1      45.555  26.780  36.066  1.00  0.00     0.001 A 
ATOM     84  C   UNL A   1      46.782  27.216  35.567  1.00  0.00     0.000 A 
ENDBRANCH  66  79
ENDBRANCH  40  41
ENDBRANCH  32  35
ENDBRANCH  30  31
ENDBRANCH  29  30
ENDBRANCH  28  29
ENDBRANCH  27  28
ENDBRANCH   1  27
TORSDOF 18
ENDMDL
MODEL 2
REMARK VINA RESULT:     -10.5      3.691      8.591
REMARK SMILES O=C(C[C@H](CNC(=O)c1ccccn1)c1ccc(Cl)cc1)NCCCCCCNC(=O)c1ccc(-c2c3nc(c(-c4ccccc4)c4ccc([nH]4)c(-c4ccccc4)c4nc(c(-c5ccccc5)c5ccc2[nH]5)C=C4)C=C3)cc1
REMARK SMILES IDX 24 1 23 2 22 3 1 4 2 5 3 7 4 8 15 9 16 10 21 11 17 12 20 13
REMARK SMILES IDX 18 14 19 15 5 16 6 17 7 18 8 20 9 21 10 22 14 23 11 24 13 25
REMARK SMILES IDX 12 26 25 27 26 28 27 29 28 30 29 31 30 32 31 34 32 35 33 36
REMARK SMILES IDX 79 37 34 38 78 39 35 40 36 41 37 42 72 43 38 44 77 45 71 46
REMARK SMILES IDX 73 47 39 48 76 49 70 50 69 51 40 53 62 54 47 55 61 56 48 57
REMARK SMILES IDX 51 58 60 59 74 60 49 61 50 62 59 64 75 65 52 66 41 67 42 68
REMARK SMILES IDX 46 69 43 70 45 71 44 72 63 73 64 74 68 75 65 76 67 77 66 78
REMARK SMILES IDX 53 79 54 80 58 81 55 82 57 83 56 84
REMARK H PARENT 22 6 6 19 29 33 73 52 51 63
REMARK Flexibility Score: inf
ROOT
ATOM      1  C   UNL A   1      34.019  21.255  27.301  1.00  0.00     0.021 C 
ENDROOT
BRANCH   1   2
ATOM      2  C   UNL A   1      32.919  22.247  27.669  1.00  0.00     0.116 C 
BRANCH   2   3
ATOM      3  N   UNL A   1      32.437  22.974  26.513  1.00  0.00    -0.356 N 
ATOM      4  O   UNL A   1      30.385  23.491  27.411  1.00  0.00    -0.275 OA
ATOM      5  C   UNL A   1      31.204  23.590  26.505  1.00  0.00     0.220 C 
ATOM      6  H   UNL A   1      33.005  23.030  25.711  1.00  0.00     0.163 HD
BRANCH   5   7
ATOM      7  C   UNL A   1      31.001  24.508  25.321  1.00  0.00     0.110 C 
BRANCH   7   8
ATOM      8  C   UNL A   1      30.337  25.863  25.677  1.00  0.00     0.048 C 
BRANCH   8   9
ATOM      9  C   UNL A   1      31.409  26.849  26.142  1.00  0.00    -0.043 A 
ATOM     10  C   UNL A   1      31.064  27.842  27.075  1.00  0.00     0.005 A 
ATOM     11  C   UNL A   1      32.747  26.771  25.720  1.00  0.00     0.005 A 
ATOM     12  C   UNL A   1      32.016  28.755  27.540  1.00  0.00     0.021 A 
ATOM     13  C   UNL A   1      33.696  27.695  26.170  1.00  0.00     0.021 A 
ATOM     14  C   UNL A   1      33.325  28.684  27.076  1.00  0.00     0.041 A 
ATOM     15  Cl  UNL A   1      34.495  29.818  27.629  1.00  0.00    -0.084 Cl
ENDBRANCH   8   9
BRANCH   8  16
ATOM     16  C   UNL A   1      29.375  26.433  24.602  1.00  0.00     0.125 C 
BRANCH  16  17
ATOM     17  N   UNL A   1      30.022  26.680  23.323  1.00  0.00    -0.350 N 
ATOM     18  C   UNL A   1      30.118  27.818  22.560  1.00  0.00     0.269 C 
ATOM     19  H   UNL A   1      30.472  25.893  22.937  1.00  0.00     0.163 HD
ATOM     20  O   UNL A   1      30.809  27.782  21.543  1.00  0.00    -0.268 OA
BRANCH  18  21
ATOM     21  C   UNL A   1      29.398  29.064  22.942  1.00  0.00     0.128 A 
ATOM     22  C   UNL A   1      28.078  29.281  22.564  1.00  0.00     0.034 A 
ATOM     23  N   UNL A   1      30.111  29.934  23.701  1.00  0.00    -0.251 NA
ATOM     24  C   UNL A   1      27.478  30.481  22.932  1.00  0.00     0.004 A 
ATOM     25  C   UNL A   1      29.491  31.072  24.068  1.00  0.00     0.112 A 
ATOM     26  C   UNL A   1      28.195  31.395  23.699  1.00  0.00     0.020 A 
ENDBRANCH  18  21
ENDBRANCH  16  17
ENDBRANCH   8  16
ENDBRANCH   7   8
ENDBRANCH   5   7
ENDBRANCH   2   3
ENDBRANCH   1   2
BRANCH   1  27
ATOM     27  C   UNL A   1      35.235  21.869  26.593  1.00  0.00     0.002 C 
BRANCH  27  28
ATOM     28  C   UNL A   1      35.293  21.669  25.076  1.00  0.00     0.002 C 
BRANCH  28  29
ATOM     29  C   UNL A   1      36.282  22.567  24.332  1.00  0.00     0.021 C 
BRANCH  29  30
ATOM     30  C   UNL A   1      37.321  23.258  25.211  1.00  0.00     0.116 C 
BRANCH  30  31
ATOM     31  N   UNL A   1      38.473  22.417  25.493  1.00  0.00    -0.352 N 
ATOM     32  C   UNL A   1      39.649  22.742  26.125  1.00  0.00     0.251 C 
ATOM     33  H   UNL A   1      38.400  21.483  25.190  1.00  0.00     0.163 HD
ATOM     34  O   UNL A   1      40.580  21.942  26.153  1.00  0.00    -0.269 OA
BRANCH  32  35
ATOM     35  C   UNL A   1      39.806  24.075  26.745  1.00  0.00     0.039 A 
ATOM     36  C   UNL A   1      39.303  24.287  28.031  1.00  0.00     0.014 A 
ATOM     37  C   UNL A   1      40.460  25.108  26.069  1.00  0.00     0.014 A 
ATOM     38  C   UNL A   1      39.517  25.513  28.666  1.00  0.00     0.010 A 
ATOM     39  C   UNL A   1      40.736  26.302  26.730  1.00  0.00     0.010 A 
ATOM     40  C   UNL A   1      40.270  26.517  28.036  1.00  0.00    -0.014 A 
BRANCH  40  41
ATOM     41  C   UNL A   1      40.590  27.793  28.729  1.00  0.00     0.031 A 
ATOM     42  C   UNL A   1      41.921  27.973  29.409  1.00  0.00     0.074 A 
ATOM     43  C   UNL A   1      39.657  28.762  28.808  1.00  0.00     0.049 A 
ATOM     44  N   UNL A   1      42.353  28.983  30.121  1.00  0.00    -0.248 NA
ATOM     45  C   UNL A   1      42.884  26.865  29.295  1.00  0.00     0.031 C 
ATOM     46  C   UNL A   1      38.316  28.702  28.221  1.00  0.00     0.029 A 
ATOM     47  N   UNL A   1      39.692  29.990  29.423  1.00  0.00    -0.354 N 
ATOM     48  C   UNL A   1      43.621  28.622  30.559  1.00  0.00     0.074 A 
ATOM     49  C   UNL A   1      43.875  27.286  30.066  1.00  0.00     0.031 C 
ATOM     50  C   UNL A   1      37.668  29.849  28.482  1.00  0.00     0.029 A 
ATOM     51  C   UNL A   1      38.524  30.707  29.293  1.00  0.00     0.049 A 
ATOM     52  H   UNL A   1      40.478  30.326  29.911  1.00  0.00     0.167 HD
ATOM     53  C   UNL A   1      44.501  29.343  31.293  1.00  0.00     0.031 A 
ATOM     54  C   UNL A   1      38.178  31.912  29.784  1.00  0.00     0.031 A 
ATOM     55  C   UNL A   1      44.258  30.680  31.765  1.00  0.00     0.049 A 
ATOM     56  C   UNL A   1      39.172  32.679  30.616  1.00  0.00     0.074 A 
ATOM     57  C   UNL A   1      45.120  31.520  32.449  1.00  0.00     0.029 A 
ATOM     58  N   UNL A   1      43.067  31.370  31.608  1.00  0.00    -0.354 N 
ATOM     59  N   UNL A   1      40.399  32.359  30.945  1.00  0.00    -0.248 NA
ATOM     60  C   UNL A   1      38.730  33.980  31.139  1.00  0.00     0.031 C 
ATOM     61  C   UNL A   1      44.428  32.692  32.766  1.00  0.00     0.029 A 
ATOM     62  C   UNL A   1      43.159  32.610  32.217  1.00  0.00     0.049 A 
ATOM     63  H   UNL A   1      42.274  31.029  31.134  1.00  0.00     0.167 HD
ATOM     64  C   UNL A   1      40.888  33.433  31.678  1.00  0.00     0.074 A 
ATOM     65  C   UNL A   1      39.830  34.420  31.732  1.00  0.00     0.031 C 
ATOM     66  C   UNL A   1      42.104  33.588  32.254  1.00  0.00     0.031 A 
BRANCH  53  67
ATOM     67  C   UNL A   1      45.812  28.699  31.653  1.00  0.00    -0.014 A 
ATOM     68  C   UNL A   1      46.940  28.824  30.829  1.00  0.00     0.009 A 
ATOM     69  C   UNL A   1      45.936  28.018  32.875  1.00  0.00     0.009 A 
ATOM     70  C   UNL A   1      48.159  28.257  31.208  1.00  0.00     0.001 A 
ATOM     71  C   UNL A   1      47.162  27.477  33.265  1.00  0.00     0.001 A 
ATOM     72  C   UNL A   1      48.270  27.591  32.429  1.00  0.00     0.000 A 
ENDBRANCH  53  67
BRANCH  54  73
ATOM     73  C   UNL A   1      36.831  32.483  29.512  1.00  0.00    -0.014 A 
ATOM     74  C   UNL A   1      36.591  33.214  28.337  1.00  0.00     0.009 A 
ATOM     75  C   UNL A   1      35.792  32.342  30.446  1.00  0.00     0.009 A 
ATOM     76  C   UNL A   1      35.353  33.828  28.125  1.00  0.00     0.001 A 
ATOM     77  C   UNL A   1      34.546  32.927  30.214  1.00  0.00     0.001 A 
ATOM     78  C   UNL A   1      34.332  33.682  29.062  1.00  0.00     0.000 A 
ENDBRANCH  54  73
BRANCH  66  79
ATOM     79  C   UNL A   1      42.379  34.893  32.948  1.00  0.00    -0.014 A 
ATOM     80  C   UNL A   1      41.944  35.133  34.261  1.00  0.00     0.009 A 
ATOM     81  C   UNL A   1      43.132  35.880  32.290  1.00  0.00     0.009 A 
ATOM     82  C   UNL A   1      42.226  36.349  34.886  1.00  0.00     0.001 A 
ATOM     83  C   UNL A   1      43.441  37.081  32.930  1.00  0.00     0.001 A 
ATOM     84  C   UNL A   1      42.979  37.318  34.223  1.00  0.00     0.000 A 
ENDBRANCH  66  79
ENDBRANCH  40  41
ENDBRANCH  32  35
ENDBRANCH  30  31
ENDBRANCH  29  30
ENDBRANCH  28  29
ENDBRANCH  27  28
ENDBRANCH   1  27
TORSDOF 18
ENDMDL
MODEL 3
REMARK VINA RESULT:     -10.5      1.972      2.800
REMARK SMILES O=C(C[C@H](CNC(=O)c1ccccn1)c1ccc(Cl)cc1)NCCCCCCNC(=O)c1ccc(-c2c3nc(c(-c4ccccc4)c4ccc([nH]4)c(-c4ccccc4)c4nc(c(-c5ccccc5)c5ccc2[nH]5)C=C4)C=C3)cc1
REMARK SMILES IDX 24 1 23 2 22 3 1 4 2 5 3 7 4 8 15 9 16 10 21 11 17 12 20 13
REMARK SMILES IDX 18 14 19 15 5 16 6 17 7 18 8 20 9 21 10 22 14 23 11 24 13 25
REMARK SMILES IDX 12 26 25 27 26 28 27 29 28 30 29 31 30 32 31 34 32 35 33 36
REMARK SMILES IDX 79 37 34 38 78 39 35 40 36 41 37 42 72 43 38 44 77 45 71 46
REMARK SMILES IDX 73 47 39 48 76 49 70 50 69 51 40 53 62 54 47 55 61 56 48 57
REMARK SMILES IDX 51 58 60 59 74 60 49 61 50 62 59 64 75 65 52 66 41 67 42 68
REMARK SMILES IDX 46 69 43 70 45 71 44 72 63 73 64 74 68 75 65 76 67 77 66 78
REMARK SMILES IDX 53 79 54 80 58 81 55 82 57 83 56 84
REMARK H PARENT 22 6 6 19 29 33 73 52 51 63
REMARK Flexibility Score: inf
ROOT
ATOM      1  C   UNL A   1      35.359  30.397  27.576  1.00  0.00     0.021 C 
ENDROOT
BRANCH   1   2
ATOM      2  C   UNL A   1      33.937  30.094  27.112  1.00  0.00     0.116 C 
BRANCH   2   3
ATOM      3  N   UNL A   1      33.675  28.670  27.062  1.00  0.00    -0.356 N 
ATOM      4  O   UNL A   1      33.759  28.505  24.771  1.00  0.00    -0.275 OA
ATOM      5  C   UNL A   1      33.660  27.976  25.871  1.00  0.00     0.220 C 
ATOM      6  H   UNL A   1      33.503  28.186  27.901  1.00  0.00     0.163 HD
BRANCH   5   7
ATOM      7  C   UNL A   1      33.633  26.475  26.055  1.00  0.00     0.110 C 
BRANCH   7   8
ATOM      8  C   UNL A   1      33.568  25.677  24.727  1.00  0.00     0.048 C 
BRANCH   8   9
ATOM      9  C   UNL A   1      34.631  24.578  24.741  1.00  0.00    -0.043 A 
ATOM     10  C   UNL A   1      34.737  23.718  23.634  1.00  0.00     0.005 A 
ATOM     11  C   UNL A   1      35.551  24.425  25.791  1.00  0.00     0.005 A 
ATOM     12  C   UNL A   1      35.704  22.709  23.597  1.00  0.00     0.021 A 
ATOM     13  C   UNL A   1      36.507  23.404  25.763  1.00  0.00     0.021 A 
ATOM     14  C   UNL A   1      36.577  22.549  24.667  1.00  0.00     0.041 A 
ATOM     15  Cl  UNL A   1      37.756  21.295  24.635  1.00  0.00    -0.084 Cl
ENDBRANCH   8   9
BRANCH   8  16
ATOM     16  C   UNL A   1      32.154  25.187  24.316  1.00  0.00     0.125 C 
BRANCH  16  17
ATOM     17  N   UNL A   1      31.289  24.911  25.452  1.00  0.00    -0.350 N 
ATOM     18  C   UNL A   1      31.220  23.831  26.298  1.00  0.00     0.269 C 
ATOM     19  H   UNL A   1      30.638  25.624  25.650  1.00  0.00     0.163 HD
ATOM     20  O   UNL A   1      30.444  23.886  27.252  1.00  0.00    -0.268 OA
BRANCH  18  21
ATOM     21  C   UNL A   1      32.054  22.619  26.069  1.00  0.00     0.128 A 
ATOM     22  C   UNL A   1      32.996  22.203  27.002  1.00  0.00     0.034 A 
ATOM     23  N   UNL A   1      31.798  21.952  24.914  1.00  0.00    -0.251 NA
ATOM     24  C   UNL A   1      33.760  21.078  26.707  1.00  0.00     0.004 A 
ATOM     25  C   UNL A   1      32.533  20.849  24.674  1.00  0.00     0.112 A 
ATOM     26  C   UNL A   1      33.525  20.385  25.522  1.00  0.00     0.020 A 
ENDBRANCH  18  21
ENDBRANCH  16  17
ENDBRANCH   8  16
ENDBRANCH   7   8
ENDBRANCH   5   7
ENDBRANCH   2   3
ENDBRANCH   1   2
BRANCH   1  27
ATOM     27  C   UNL A   1      35.479  31.553  28.580  1.00  0.00     0.002 C 
BRANCH  27  28
ATOM     28  C   UNL A   1      35.950  32.891  28.000  1.00  0.00     0.002 C 
BRANCH  28  29
ATOM     29  C   UNL A   1      35.008  34.073  28.229  1.00  0.00     0.021 C 
BRANCH  29  30
ATOM     30  C   UNL A   1      33.645  33.715  28.815  1.00  0.00     0.116 C 
BRANCH  30  31
ATOM     31  N   UNL A   1      33.237  34.611  29.885  1.00  0.00    -0.352 N 
ATOM     32  C   UNL A   1      33.748  34.732  31.155  1.00  0.00     0.251 C 
ATOM     33  H   UNL A   1      32.490  35.216  29.670  1.00  0.00     0.163 HD
ATOM     34  O   UNL A   1      33.189  35.446  31.984  1.00  0.00    -0.269 OA
BRANCH  32  35
ATOM     35  C   UNL A   1      34.960  33.975  31.535  1.00  0.00     0.039 A 
ATOM     36  C   UNL A   1      34.815  32.710  32.109  1.00  0.00     0.014 A 
ATOM     37  C   UNL A   1      36.234  34.503  31.312  1.00  0.00     0.014 A 
ATOM     38  C   UNL A   1      35.949  31.945  32.395  1.00  0.00     0.010 A 
ATOM     39  C   UNL A   1      37.359  33.711  31.528  1.00  0.00     0.010 A 
ATOM     40  C   UNL A   1      37.229  32.423  32.070  1.00  0.00    -0.014 A 
BRANCH  40  41
ATOM     41  C   UNL A   1      38.442  31.590  32.279  1.00  0.00     0.031 A 
ATOM     42  C   UNL A   1      39.372  31.878  33.427  1.00  0.00     0.074 A 
ATOM     43  C   UNL A   1      38.746  30.619  31.394  1.00  0.00     0.049 A 
ATOM     44  N   UNL A   1      40.511  31.308  33.729  1.00  0.00    -0.248 NA
ATOM     45  C   UNL A   1      38.984  32.964  34.343  1.00  0.00     0.031 C 
ATOM     46  C   UNL A   1      37.949  30.259  30.219  1.00  0.00     0.029 A 
ATOM     47  N   UNL A   1      39.817  29.761  31.340  1.00  0.00    -0.354 N 
ATOM     48  C   UNL A   1      40.986  31.981  34.849  1.00  0.00     0.074 A 
ATOM     49  C   UNL A   1      40.032  33.025  35.151  1.00  0.00     0.031 C 
ATOM     50  C   UNL A   1      38.543  29.239  29.578  1.00  0.00     0.029 A 
ATOM     51  C   UNL A   1      39.785  28.904  30.264  1.00  0.00     0.049 A 
ATOM     52  H   UNL A   1      40.539  29.758  32.009  1.00  0.00     0.167 HD
ATOM     53  C   UNL A   1      42.106  31.741  35.569  1.00  0.00     0.031 A 
ATOM     54  C   UNL A   1      40.665  27.964  29.867  1.00  0.00     0.031 A 
ATOM     55  C   UNL A   1      43.043  30.688  35.282  1.00  0.00     0.049 A 
ATOM     56  C   UNL A   1      41.913  27.737  30.678  1.00  0.00     0.074 A 
ATOM     57  C   UNL A   1      44.167  30.319  36.001  1.00  0.00     0.029 A 
ATOM     58  N   UNL A   1      42.972  29.841  34.188  1.00  0.00    -0.354 N 
ATOM     59  N   UNL A   1      42.300  28.324  31.784  1.00  0.00    -0.248 NA
ATOM     60  C   UNL A   1      42.843  26.711  30.185  1.00  0.00     0.031 C 
ATOM     61  C   UNL A   1      44.813  29.293  35.306  1.00  0.00     0.029 A 
ATOM     62  C   UNL A   1      44.053  28.976  34.192  1.00  0.00     0.049 A 
ATOM     63  H   UNL A   1      42.259  29.854  33.509  1.00  0.00     0.167 HD
ATOM     64  C   UNL A   1      43.496  27.711  32.139  1.00  0.00     0.074 A 
ATOM     65  C   UNL A   1      43.762  26.699  31.139  1.00  0.00     0.031 C 
ATOM     66  C   UNL A   1      44.301  27.965  33.198  1.00  0.00     0.031 A 
BRANCH  53  67
ATOM     67  C   UNL A   1      42.400  32.644  36.736  1.00  0.00    -0.014 A 
ATOM     68  C   UNL A   1      43.125  33.835  36.577  1.00  0.00     0.009 A 
ATOM     69  C   UNL A   1      41.878  32.330  38.001  1.00  0.00     0.009 A 
ATOM     70  C   UNL A   1      43.343  34.679  37.667  1.00  0.00     0.001 A 
ATOM     71  C   UNL A   1      42.073  33.191  39.083  1.00  0.00     0.001 A 
ATOM     72  C   UNL A   1      42.811  34.361  38.917  1.00  0.00     0.000 A 
ENDBRANCH  53  67
BRANCH  54  73
ATOM     73  C   UNL A   1      40.411  27.158  28.642  1.00  0.00    -0.014 A 
ATOM     74  C   UNL A   1      39.643  25.985  28.707  1.00  0.00     0.009 A 
ATOM     75  C   UNL A   1      40.975  27.531  27.411  1.00  0.00     0.009 A 
ATOM     76  C   UNL A   1      39.482  25.179  27.576  1.00  0.00     0.001 A 
ATOM     77  C   UNL A   1      40.783  26.742  26.275  1.00  0.00     0.001 A 
ATOM     78  C   UNL A   1      40.050  25.559  26.362  1.00  0.00     0.000 A 
ENDBRANCH  54  73
BRANCH  66  79
ATOM     79  C   UNL A   1      45.519  27.100  33.365  1.00  0.00    -0.014 A 
ATOM     80  C   UNL A   1      45.466  25.883  34.061  1.00  0.00     0.009 A 
ATOM     81  C   UNL A   1      46.730  27.491  32.769  1.00  0.00     0.009 A 
ATOM     82  C   UNL A   1      46.610  25.093  34.189  1.00  0.00     0.001 A 
ATOM     83  C   UNL A   1      47.863  26.683  32.869  1.00  0.00     0.001 A 
ATOM     84  C   UNL A   1      47.805  25.490  33.588  1.00  0.00     0.000 A 
ENDBRANCH  66  79
ENDBRANCH  40  41
ENDBRANCH  32  35
ENDBRANCH  30  31
ENDBRANCH  29  30
ENDBRANCH  28  29
ENDBRANCH  27  28
ENDBRANCH   1  27
TORSDOF 18
ENDMDL
