MODEL 1
REMARK VINA RESULT:     -12.5      0.000      0.000
REMARK SMILES Cc1ccc2[nH]cc([C@@H](C(=O)NCCCCCCNC(=O)c3ccc(-c4c5nc(c(-c6ccccc6)c6ccc([nH]6)c(-c6ccccc6)c6nc(c(-c7ccccc7)c7ccc4[nH]7)C=C6)C=C5)cc3)[NH+]3CCN(c4ccc(F)cc4)CC3)c2c1
REMARK SMILES IDX 15 1 14 2 13 3 12 4 10 5 11 6 9 8 8 9 1 10 2 11 3 12 84 13
REMARK SMILES IDX 4 14 83 15 5 16 6 17 7 18 70 20 71 21 82 22 72 24 81 25
REMARK SMILES IDX 73 26 74 27 75 28 80 29 76 30 79 31 77 32 78 33 16 34 17 35
REMARK SMILES IDX 18 36 19 37 20 38 21 40 22 41 23 42 69 43 24 44 68 45 25 46
REMARK SMILES IDX 26 47 27 48 62 49 28 50 67 51 61 52 63 53 29 54 66 55 60 56
REMARK SMILES IDX 59 57 30 59 52 60 37 61 51 62 38 63 41 64 50 65 64 66 39 67
REMARK SMILES IDX 40 68 49 70 65 71 42 72 31 73 32 74 36 75 33 76 35 77 34 78
REMARK SMILES IDX 53 79 54 80 58 81 55 82 57 83 56 84 43 85 44 86 48 87 45 88
REMARK SMILES IDX 47 89 46 90
REMARK H PARENT 12 7 6 19 70 23 19 39 63 58 41 69
REMARK Flexibility Score: inf
ROOT
ATOM      1  C   UNL A   1      36.589  21.918  25.334  1.00  0.00     0.002 C 
ENDROOT
BRANCH   1   2
ATOM      2  C   UNL A   1      36.670  23.275  24.630  1.00  0.00     0.021 C 
BRANCH   2   3
ATOM      3  C   UNL A   1      35.301  23.876  24.311  1.00  0.00     0.116 C 
BRANCH   3   4
ATOM      4  N   UNL A   1      35.049  25.039  25.130  1.00  0.00    -0.351 N 
ATOM      5  C   UNL A   1      33.850  25.540  25.566  1.00  0.00     0.283 C 
ATOM      6  O   UNL A   1      33.907  26.627  26.149  1.00  0.00    -0.268 OA
ATOM      7  H   UNL A   1      35.848  25.539  25.416  1.00  0.00     0.163 HD
BRANCH   5   8
ATOM      8  C   UNL A   1      32.543  24.696  25.382  1.00  0.00     0.307 C 
BRANCH   8   9
ATOM      9  C   UNL A   1      32.686  23.255  25.820  1.00  0.00     0.044 A 
ATOM     10  C   UNL A   1      31.900  20.409  21.615  1.00  0.00     0.044 C 
ATOM     11  C   UNL A   1      32.309  20.605  23.046  1.00  0.00    -0.050 A 
ATOM     12  C   UNL A   1      32.580  19.509  23.868  1.00  0.00     0.005 A 
ATOM     13  C   UNL A   1      32.373  21.905  23.579  1.00  0.00     0.014 A 
ATOM     14  C   UNL A   1      32.862  19.671  25.228  1.00  0.00     0.027 A 
ATOM     15  C   UNL A   1      32.623  22.097  24.958  1.00  0.00     0.009 A 
ATOM     16  C   UNL A   1      32.837  20.969  25.748  1.00  0.00     0.046 A 
ATOM     17  N   UNL A   1      32.989  21.405  27.040  1.00  0.00    -0.361 N 
ATOM     18  C   UNL A   1      32.808  22.760  27.106  1.00  0.00     0.094 A 
ATOM     19  H   UNL A   1      33.196  20.827  27.809  1.00  0.00     0.166 HD
ENDBRANCH   8   9
BRANCH   8  20
ATOM     20  N   UNL A   1      31.958  24.857  24.030  1.00  0.00    -0.318 N 
ATOM     21  C   UNL A   1      30.498  24.744  23.880  1.00  0.00     0.284 C 
ATOM     22  C   UNL A   1      32.462  26.006  23.261  1.00  0.00     0.284 C 
ATOM     23  H   UNL A   1      32.324  24.000  23.616  1.00  0.00     0.349 HD
ATOM     24  C   UNL A   1      29.661  26.030  24.024  1.00  0.00     0.178 C 
ATOM     25  C   UNL A   1      31.720  27.347  23.460  1.00  0.00     0.178 C 
ATOM     26  N   UNL A   1      30.267  27.177  23.342  1.00  0.00    -0.360 N 
BRANCH  26  27
ATOM     27  C   UNL A   1      29.521  28.352  23.309  1.00  0.00     0.037 A 
ATOM     28  C   UNL A   1      30.077  29.613  23.568  1.00  0.00     0.029 A 
ATOM     29  C   UNL A   1      28.152  28.270  23.030  1.00  0.00     0.029 A 
ATOM     30  C   UNL A   1      29.276  30.757  23.595  1.00  0.00     0.041 A 
ATOM     31  C   UNL A   1      27.346  29.407  23.061  1.00  0.00     0.041 A 
ATOM     32  C   UNL A   1      27.914  30.639  23.352  1.00  0.00     0.123 A 
ATOM     33  F   UNL A   1      27.138  31.730  23.402  1.00  0.00    -0.207 F 
ENDBRANCH  26  27
ENDBRANCH   8  20
ENDBRANCH   5   8
ENDBRANCH   3   4
ENDBRANCH   2   3
ENDBRANCH   1   2
BRANCH   1  34
ATOM     34  C   UNL A   1      36.801  20.715  24.412  1.00  0.00     0.002 C 
BRANCH  34  35
ATOM     35  C   UNL A   1      37.791  19.679  24.948  1.00  0.00     0.021 C 
BRANCH  35  36
ATOM     36  C   UNL A   1      38.976  20.284  25.690  1.00  0.00     0.116 C 
BRANCH  36  37
ATOM     37  N   UNL A   1      40.085  19.346  25.779  1.00  0.00    -0.352 N 
ATOM     38  C   UNL A   1      41.407  19.593  26.041  1.00  0.00     0.251 C 
ATOM     39  H   UNL A   1      39.852  18.401  25.628  1.00  0.00     0.163 HD
ATOM     40  O   UNL A   1      42.254  18.733  25.835  1.00  0.00    -0.269 OA
BRANCH  38  41
ATOM     41  C   UNL A   1      41.803  20.913  26.568  1.00  0.00     0.039 A 
ATOM     42  C   UNL A   1      42.270  21.885  25.682  1.00  0.00     0.014 A 
ATOM     43  C   UNL A   1      41.714  21.186  27.937  1.00  0.00     0.014 A 
ATOM     44  C   UNL A   1      42.600  23.152  26.164  1.00  0.00     0.010 A 
ATOM     45  C   UNL A   1      41.967  22.470  28.402  1.00  0.00     0.010 A 
ATOM     46  C   UNL A   1      42.421  23.463  27.523  1.00  0.00    -0.014 A 
BRANCH  46  47
ATOM     47  C   UNL A   1      42.714  24.821  28.044  1.00  0.00     0.031 A 
ATOM     48  C   UNL A   1      44.117  25.192  28.436  1.00  0.00     0.074 A 
ATOM     49  C   UNL A   1      41.707  25.699  28.216  1.00  0.00     0.049 A 
ATOM     50  N   UNL A   1      44.562  26.309  28.952  1.00  0.00    -0.248 NA
ATOM     51  C   UNL A   1      45.154  24.164  28.245  1.00  0.00     0.031 C 
ATOM     52  C   UNL A   1      40.299  25.448  27.903  1.00  0.00     0.029 A 
ATOM     53  N   UNL A   1      41.718  26.983  28.698  1.00  0.00    -0.354 N 
ATOM     54  C   UNL A   1      45.921  26.116  29.157  1.00  0.00     0.074 A 
ATOM     55  C   UNL A   1      46.219  24.754  28.767  1.00  0.00     0.031 C 
ATOM     56  C   UNL A   1      39.587  26.555  28.167  1.00  0.00     0.029 A 
ATOM     57  C   UNL A   1      40.478  27.575  28.711  1.00  0.00     0.049 A 
ATOM     58  H   UNL A   1      42.535  27.438  29.005  1.00  0.00     0.167 HD
ATOM     59  C   UNL A   1      46.847  26.996  29.608  1.00  0.00     0.031 A 
ATOM     60  C   UNL A   1      40.100  28.800  29.120  1.00  0.00     0.031 A 
ATOM     61  C   UNL A   1      46.549  28.349  29.998  1.00  0.00     0.049 A 
ATOM     62  C   UNL A   1      41.139  29.746  29.656  1.00  0.00     0.074 A 
ATOM     63  C   UNL A   1      47.421  29.334  30.426  1.00  0.00     0.029 A 
ATOM     64  N   UNL A   1      45.279  28.905  30.009  1.00  0.00    -0.354 N 
ATOM     65  N   UNL A   1      42.432  29.569  29.784  1.00  0.00    -0.248 NA
ATOM     66  C   UNL A   1      40.665  31.065  30.096  1.00  0.00     0.031 C 
ATOM     67  C   UNL A   1      46.671  30.468  30.756  1.00  0.00     0.029 A 
ATOM     68  C   UNL A   1      45.340  30.210  30.467  1.00  0.00     0.049 A 
ATOM     69  H   UNL A   1      44.456  28.440  29.734  1.00  0.00     0.167 HD
ATOM     70  C   UNL A   1      42.931  30.764  30.286  1.00  0.00     0.074 A 
ATOM     71  C   UNL A   1      41.803  31.662  30.425  1.00  0.00     0.031 C 
ATOM     72  C   UNL A   1      44.208  31.091  30.601  1.00  0.00     0.031 A 
BRANCH  59  73
ATOM     73  C   UNL A   1      48.268  26.512  29.714  1.00  0.00    -0.014 A 
ATOM     74  C   UNL A   1      48.724  25.835  30.858  1.00  0.00     0.009 A 
ATOM     75  C   UNL A   1      49.158  26.714  28.649  1.00  0.00     0.009 A 
ATOM     76  C   UNL A   1      50.051  25.412  30.950  1.00  0.00     0.001 A 
ATOM     77  C   UNL A   1      50.476  26.262  28.730  1.00  0.00     0.001 A 
ATOM     78  C   UNL A   1      50.925  25.621  29.884  1.00  0.00     0.000 A 
ENDBRANCH  59  73
BRANCH  60  79
ATOM     79  C   UNL A   1      38.676  29.215  29.024  1.00  0.00    -0.014 A 
ATOM     80  C   UNL A   1      37.813  29.056  30.119  1.00  0.00     0.009 A 
ATOM     81  C   UNL A   1      38.167  29.761  27.836  1.00  0.00     0.009 A 
ATOM     82  C   UNL A   1      36.466  29.406  30.017  1.00  0.00     0.001 A 
ATOM     83  C   UNL A   1      36.826  30.142  27.747  1.00  0.00     0.001 A 
ATOM     84  C   UNL A   1      35.973  29.953  28.833  1.00  0.00     0.000 A 
ENDBRANCH  60  79
BRANCH  72  85
ATOM     85  C   UNL A   1      44.459  32.491  31.089  1.00  0.00    -0.014 A 
ATOM     86  C   UNL A   1      44.444  32.804  32.457  1.00  0.00     0.009 A 
ATOM     87  C   UNL A   1      44.755  33.504  30.162  1.00  0.00     0.009 A 
ATOM     88  C   UNL A   1      44.682  34.113  32.884  1.00  0.00     0.001 A 
ATOM     89  C   UNL A   1      45.026  34.803  30.594  1.00  0.00     0.001 A 
ATOM     90  C   UNL A   1      44.979  35.109  31.953  1.00  0.00     0.000 A 
ENDBRANCH  72  85
ENDBRANCH  46  47
ENDBRANCH  38  41
ENDBRANCH  36  37
ENDBRANCH  35  36
ENDBRANCH  34  35
ENDBRANCH   1  34
TORSDOF 16
ENDMDL
MODEL 2
REMARK VINA RESULT:     -12.4      1.680      2.772
REMARK SMILES Cc1ccc2[nH]cc([C@@H](C(=O)NCCCCCCNC(=O)c3ccc(-c4c5nc(c(-c6ccccc6)c6ccc([nH]6)c(-c6ccccc6)c6nc(c(-c7ccccc7)c7ccc4[nH]7)C=C6)C=C5)cc3)[NH+]3CCN(c4ccc(F)cc4)CC3)c2c1
REMARK SMILES IDX 15 1 14 2 13 3 12 4 10 5 11 6 9 8 8 9 1 10 2 11 3 12 84 13
REMARK SMILES IDX 4 14 83 15 5 16 6 17 7 18 70 20 71 21 82 22 72 24 81 25
REMARK SMILES IDX 73 26 74 27 75 28 80 29 76 30 79 31 77 32 78 33 16 34 17 35
REMARK SMILES IDX 18 36 19 37 20 38 21 40 22 41 23 42 69 43 24 44 68 45 25 46
REMARK SMILES IDX 26 47 27 48 62 49 28 50 67 51 61 52 63 53 29 54 66 55 60 56
REMARK SMILES IDX 59 57 30 59 52 60 37 61 51 62 38 63 41 64 50 65 64 66 39 67
REMARK SMILES IDX 40 68 49 70 65 71 42 72 31 73 32 74 36 75 33 76 35 77 34 78
REMARK SMILES IDX 53 79 54 80 58 81 55 82 57 83 56 84 43 85 44 86 48 87 45 88
REMARK SMILES IDX 47 89 46 90
REMARK H PARENT 12 7 6 19 70 23 19 39 63 58 41 69
REMARK Flexibility Score: inf
ROOT
ATOM      1  C   UNL A   1      37.243  22.040  25.712  1.00  0.00     0.002 C 
ENDROOT
BRANCH   1   2
ATOM      2  C   UNL A   1      37.211  23.507  25.274  1.00  0.00     0.021 C 
BRANCH   2   3
ATOM      3  C   UNL A   1      35.799  24.089  25.205  1.00  0.00     0.116 C 
BRANCH   3   4
ATOM      4  N   UNL A   1      35.031  23.444  24.165  1.00  0.00    -0.351 N 
ATOM      5  C   UNL A   1      33.933  23.913  23.490  1.00  0.00     0.283 C 
ATOM      6  O   UNL A   1      33.386  23.103  22.736  1.00  0.00    -0.268 OA
ATOM      7  H   UNL A   1      35.338  22.546  23.904  1.00  0.00     0.163 HD
BRANCH   5   8
ATOM      8  C   UNL A   1      33.510  25.413  23.646  1.00  0.00     0.307 C 
BRANCH   8   9
ATOM      9  C   UNL A   1      32.605  25.667  24.831  1.00  0.00     0.044 A 
ATOM     10  C   UNL A   1      33.973  30.252  26.703  1.00  0.00     0.044 C 
ATOM     11  C   UNL A   1      33.078  29.049  26.618  1.00  0.00    -0.050 A 
ATOM     12  C   UNL A   1      32.039  28.866  27.533  1.00  0.00     0.005 A 
ATOM     13  C   UNL A   1      33.319  28.072  25.636  1.00  0.00     0.014 A 
ATOM     14  C   UNL A   1      31.263  27.702  27.529  1.00  0.00     0.027 A 
ATOM     15  C   UNL A   1      32.572  26.870  25.630  1.00  0.00     0.009 A 
ATOM     16  C   UNL A   1      31.579  26.711  26.594  1.00  0.00     0.046 A 
ATOM     17  N   UNL A   1      31.050  25.457  26.425  1.00  0.00    -0.361 N 
ATOM     18  C   UNL A   1      31.719  24.792  25.434  1.00  0.00     0.094 A 
ATOM     19  H   UNL A   1      30.298  25.088  26.942  1.00  0.00     0.166 HD
ENDBRANCH   8   9
BRANCH   8  20
ATOM     20  N   UNL A   1      33.011  25.989  22.375  1.00  0.00    -0.318 N 
ATOM     21  C   UNL A   1      31.576  25.879  22.071  1.00  0.00     0.284 C 
ATOM     22  C   UNL A   1      33.495  27.345  22.068  1.00  0.00     0.284 C 
ATOM     23  H   UNL A   1      33.458  25.330  21.737  1.00  0.00     0.349 HD
ATOM     24  C   UNL A   1      30.651  27.015  22.554  1.00  0.00     0.178 C 
ATOM     25  C   UNL A   1      32.659  28.517  22.629  1.00  0.00     0.178 C 
ATOM     26  N   UNL A   1      31.230  28.344  22.337  1.00  0.00    -0.360 N 
BRANCH  26  27
ATOM     27  C   UNL A   1      30.417  29.436  22.625  1.00  0.00     0.037 A 
ATOM     28  C   UNL A   1      30.291  29.971  23.915  1.00  0.00     0.029 A 
ATOM     29  C   UNL A   1      29.674  30.011  21.587  1.00  0.00     0.029 A 
ATOM     30  C   UNL A   1      29.408  31.023  24.171  1.00  0.00     0.041 A 
ATOM     31  C   UNL A   1      28.786  31.056  21.837  1.00  0.00     0.041 A 
ATOM     32  C   UNL A   1      28.656  31.547  23.128  1.00  0.00     0.123 A 
ATOM     33  F   UNL A   1      27.789  32.538  23.374  1.00  0.00    -0.207 F 
ENDBRANCH  26  27
ENDBRANCH   8  20
ENDBRANCH   5   8
ENDBRANCH   3   4
ENDBRANCH   2   3
ENDBRANCH   1   2
BRANCH   1  34
ATOM     34  C   UNL A   1      37.382  21.042  24.560  1.00  0.00     0.002 C 
BRANCH  34  35
ATOM     35  C   UNL A   1      38.279  19.843  24.872  1.00  0.00     0.021 C 
BRANCH  35  36
ATOM     36  C   UNL A   1      39.266  20.089  26.006  1.00  0.00     0.116 C 
BRANCH  36  37
ATOM     37  N   UNL A   1      40.409  19.193  25.923  1.00  0.00    -0.352 N 
ATOM     38  C   UNL A   1      41.746  19.490  25.980  1.00  0.00     0.251 C 
ATOM     39  H   UNL A   1      40.191  18.240  25.807  1.00  0.00     0.163 HD
ATOM     40  O   UNL A   1      42.583  18.662  25.645  1.00  0.00    -0.269 OA
BRANCH  38  41
ATOM     41  C   UNL A   1      42.168  20.826  26.443  1.00  0.00     0.039 A 
ATOM     42  C   UNL A   1      42.536  21.787  25.499  1.00  0.00     0.014 A 
ATOM     43  C   UNL A   1      42.202  21.125  27.809  1.00  0.00     0.014 A 
ATOM     44  C   UNL A   1      42.890  23.067  25.924  1.00  0.00     0.010 A 
ATOM     45  C   UNL A   1      42.476  22.422  28.224  1.00  0.00     0.010 A 
ATOM     46  C   UNL A   1      42.832  23.403  27.288  1.00  0.00    -0.014 A 
BRANCH  46  47
ATOM     47  C   UNL A   1      43.151  24.775  27.754  1.00  0.00     0.031 A 
ATOM     48  C   UNL A   1      44.582  25.194  27.945  1.00  0.00     0.074 A 
ATOM     49  C   UNL A   1      42.150  25.624  28.058  1.00  0.00     0.049 A 
ATOM     50  N   UNL A   1      45.058  26.330  28.387  1.00  0.00    -0.248 NA
ATOM     51  C   UNL A   1      45.615  24.195  27.620  1.00  0.00     0.031 C 
ATOM     52  C   UNL A   1      40.721  25.326  27.945  1.00  0.00     0.029 A 
ATOM     53  N   UNL A   1      42.186  26.913  28.524  1.00  0.00    -0.354 N 
ATOM     54  C   UNL A   1      46.438  26.180  28.403  1.00  0.00     0.074 A 
ATOM     55  C   UNL A   1      46.722  24.824  27.985  1.00  0.00     0.031 C 
ATOM     56  C   UNL A   1      40.018  26.414  28.298  1.00  0.00     0.029 A 
ATOM     57  C   UNL A   1      40.942  27.466  28.705  1.00  0.00     0.049 A 
ATOM     58  H   UNL A   1      43.023  27.396  28.713  1.00  0.00     0.167 HD
ATOM     59  C   UNL A   1      47.389  27.093  28.715  1.00  0.00     0.031 A 
ATOM     60  C   UNL A   1      40.585  28.684  29.154  1.00  0.00     0.031 A 
ATOM     61  C   UNL A   1      47.105  28.441  29.133  1.00  0.00     0.049 A 
ATOM     62  C   UNL A   1      41.658  29.667  29.534  1.00  0.00     0.074 A 
ATOM     63  C   UNL A   1      47.995  29.457  29.430  1.00  0.00     0.029 A 
ATOM     64  N   UNL A   1      45.831  28.958  29.317  1.00  0.00    -0.354 N 
ATOM     65  N   UNL A   1      42.961  29.532  29.483  1.00  0.00    -0.248 NA
ATOM     66  C   UNL A   1      41.207  30.976  30.027  1.00  0.00     0.031 C 
ATOM     67  C   UNL A   1      47.263  30.571  29.852  1.00  0.00     0.029 A 
ATOM     68  C   UNL A   1      45.914  30.270  29.752  1.00  0.00     0.049 A 
ATOM     69  H   UNL A   1      44.994  28.465  29.161  1.00  0.00     0.167 HD
ATOM     70  C   UNL A   1      43.486  30.747  29.903  1.00  0.00     0.074 A 
ATOM     71  C   UNL A   1      42.359  31.612  30.191  1.00  0.00     0.031 C 
ATOM     72  C   UNL A   1      44.783  31.117  30.036  1.00  0.00     0.031 A 
BRANCH  59  73
ATOM     73  C   UNL A   1      48.825  26.654  28.627  1.00  0.00    -0.014 A 
ATOM     74  C   UNL A   1      49.528  26.227  29.766  1.00  0.00     0.009 A 
ATOM     75  C   UNL A   1      49.480  26.645  27.386  1.00  0.00     0.009 A 
ATOM     76  C   UNL A   1      50.868  25.844  29.670  1.00  0.00     0.001 A 
ATOM     77  C   UNL A   1      50.809  26.231  27.287  1.00  0.00     0.001 A 
ATOM     78  C   UNL A   1      51.505  25.841  28.430  1.00  0.00     0.000 A 
ENDBRANCH  59  73
BRANCH  60  79
ATOM     79  C   UNL A   1      39.149  29.054  29.254  1.00  0.00    -0.014 A 
ATOM     80  C   UNL A   1      38.419  28.765  30.417  1.00  0.00     0.009 A 
ATOM     81  C   UNL A   1      38.496  29.687  28.185  1.00  0.00     0.009 A 
ATOM     82  C   UNL A   1      37.060  29.074  30.496  1.00  0.00     0.001 A 
ATOM     83  C   UNL A   1      37.144  30.026  28.279  1.00  0.00     0.001 A 
ATOM     84  C   UNL A   1      36.424  29.708  29.429  1.00  0.00     0.000 A 
ENDBRANCH  60  79
BRANCH  72  85
ATOM     85  C   UNL A   1      45.055  32.529  30.474  1.00  0.00    -0.014 A 
ATOM     86  C   UNL A   1      45.245  32.853  31.826  1.00  0.00     0.009 A 
ATOM     87  C   UNL A   1      45.160  33.545  29.510  1.00  0.00     0.009 A 
ATOM     88  C   UNL A   1      45.498  34.173  32.207  1.00  0.00     0.001 A 
ATOM     89  C   UNL A   1      45.446  34.856  29.890  1.00  0.00     0.001 A 
ATOM     90  C   UNL A   1      45.604  35.172  31.239  1.00  0.00     0.000 A 
ENDBRANCH  72  85
ENDBRANCH  46  47
ENDBRANCH  38  41
ENDBRANCH  36  37
ENDBRANCH  35  36
ENDBRANCH  34  35
ENDBRANCH   1  34
TORSDOF 16
ENDMDL
MODEL 3
REMARK VINA RESULT:     -12.4      1.891      6.252
REMARK SMILES Cc1ccc2[nH]cc([C@@H](C(=O)NCCCCCCNC(=O)c3ccc(-c4c5nc(c(-c6ccccc6)c6ccc([nH]6)c(-c6ccccc6)c6nc(c(-c7ccccc7)c7ccc4[nH]7)C=C6)C=C5)cc3)[NH+]3CCN(c4ccc(F)cc4)CC3)c2c1
REMARK SMILES IDX 15 1 14 2 13 3 12 4 10 5 11 6 9 8 8 9 1 10 2 11 3 12 84 13
REMARK SMILES IDX 4 14 83 15 5 16 6 17 7 18 70 20 71 21 82 22 72 24 81 25
REMARK SMILES IDX 73 26 74 27 75 28 80 29 76 30 79 31 77 32 78 33 16 34 17 35
REMARK SMILES IDX 18 36 19 37 20 38 21 40 22 41 23 42 69 43 24 44 68 45 25 46
REMARK SMILES IDX 26 47 27 48 62 49 28 50 67 51 61 52 63 53 29 54 66 55 60 56
REMARK SMILES IDX 59 57 30 59 52 60 37 61 51 62 38 63 41 64 50 65 64 66 39 67
REMARK SMILES IDX 40 68 49 70 65 71 42 72 31 73 32 74 36 75 33 76 35 77 34 78
REMARK SMILES IDX 53 79 54 80 58 81 55 82 57 83 56 84 43 85 44 86 48 87 45 88
REMARK SMILES IDX 47 89 46 90
REMARK H PARENT 12 7 6 19 70 23 19 39 63 58 41 69
REMARK Flexibility Score: inf
ROOT
ATOM      1  C   UNL A   1      37.003  21.954  25.765  1.00  0.00     0.002 C 
ENDROOT
BRANCH   1   2
ATOM      2  C   UNL A   1      37.137  23.363  25.179  1.00  0.00     0.021 C 
BRANCH   2   3
ATOM      3  C   UNL A   1      35.798  24.084  25.021  1.00  0.00     0.116 C 
BRANCH   3   4
ATOM      4  N   UNL A   1      35.014  23.482  23.967  1.00  0.00    -0.351 N 
ATOM      5  C   UNL A   1      33.921  23.988  23.312  1.00  0.00     0.283 C 
ATOM      6  O   UNL A   1      33.356  23.210  22.539  1.00  0.00    -0.268 OA
ATOM      7  H   UNL A   1      35.305  22.586  23.680  1.00  0.00     0.163 HD
BRANCH   5   8
ATOM      8  C   UNL A   1      33.525  25.491  23.512  1.00  0.00     0.307 C 
BRANCH   8   9
ATOM      9  C   UNL A   1      32.583  25.718  24.674  1.00  0.00     0.044 A 
ATOM     10  C   UNL A   1      34.175  30.033  26.965  1.00  0.00     0.044 C 
ATOM     11  C   UNL A   1      33.204  28.909  26.745  1.00  0.00    -0.050 A 
ATOM     12  C   UNL A   1      32.111  28.733  27.597  1.00  0.00     0.005 A 
ATOM     13  C   UNL A   1      33.424  27.995  25.700  1.00  0.00     0.014 A 
ATOM     14  C   UNL A   1      31.257  27.633  27.467  1.00  0.00     0.027 A 
ATOM     15  C   UNL A   1      32.595  26.856  25.565  1.00  0.00     0.009 A 
ATOM     16  C   UNL A   1      31.548  26.697  26.470  1.00  0.00     0.046 A 
ATOM     17  N   UNL A   1      30.941  25.502  26.178  1.00  0.00    -0.361 N 
ATOM     18  C   UNL A   1      31.610  24.867  25.167  1.00  0.00     0.094 A 
ATOM     19  H   UNL A   1      30.141  25.150  26.631  1.00  0.00     0.166 HD
ENDBRANCH   8   9
BRANCH   8  20
ATOM     20  N   UNL A   1      33.085  26.127  22.249  1.00  0.00    -0.318 N 
ATOM     21  C   UNL A   1      31.675  25.989  21.848  1.00  0.00     0.284 C 
ATOM     22  C   UNL A   1      33.536  27.514  22.055  1.00  0.00     0.284 C 
ATOM     23  H   UNL A   1      33.594  25.524  21.603  1.00  0.00     0.349 HD
ATOM     24  C   UNL A   1      30.682  27.061  22.337  1.00  0.00     0.178 C 
ATOM     25  C   UNL A   1      32.624  28.622  22.629  1.00  0.00     0.178 C 
ATOM     26  N   UNL A   1      31.224  28.419  22.237  1.00  0.00    -0.360 N 
BRANCH  26  27
ATOM     27  C   UNL A   1      30.354  29.464  22.536  1.00  0.00     0.037 A 
ATOM     28  C   UNL A   1      29.541  30.077  21.572  1.00  0.00     0.029 A 
ATOM     29  C   UNL A   1      30.307  29.941  23.852  1.00  0.00     0.029 A 
ATOM     30  C   UNL A   1      28.736  31.170  21.904  1.00  0.00     0.041 A 
ATOM     31  C   UNL A   1      29.511  31.035  24.188  1.00  0.00     0.041 A 
ATOM     32  C   UNL A   1      28.739  31.644  23.208  1.00  0.00     0.123 A 
ATOM     33  F   UNL A   1      27.989  32.708  23.525  1.00  0.00    -0.207 F 
ENDBRANCH  26  27
ENDBRANCH   8  20
ENDBRANCH   5   8
ENDBRANCH   3   4
ENDBRANCH   2   3
ENDBRANCH   1   2
BRANCH   1  34
ATOM     34  C   UNL A   1      37.048  20.833  24.725  1.00  0.00     0.002 C 
BRANCH  34  35
ATOM     35  C   UNL A   1      38.084  19.746  25.017  1.00  0.00     0.021 C 
BRANCH  35  36
ATOM     36  C   UNL A   1      39.299  20.243  25.790  1.00  0.00     0.116 C 
BRANCH  36  37
ATOM     37  N   UNL A   1      40.321  19.214  25.896  1.00  0.00    -0.352 N 
ATOM     38  C   UNL A   1      41.673  19.354  26.079  1.00  0.00     0.251 C 
ATOM     39  H   UNL A   1      39.997  18.287  25.824  1.00  0.00     0.163 HD
ATOM     40  O   UNL A   1      42.427  18.407  25.898  1.00  0.00    -0.269 OA
BRANCH  38  41
ATOM     41  C   UNL A   1      42.212  20.664  26.491  1.00  0.00     0.039 A 
ATOM     42  C   UNL A   1      42.692  21.538  25.514  1.00  0.00     0.014 A 
ATOM     43  C   UNL A   1      42.245  21.025  27.842  1.00  0.00     0.014 A 
ATOM     44  C   UNL A   1      43.159  22.798  25.888  1.00  0.00     0.010 A 
ATOM     45  C   UNL A   1      42.635  22.308  28.204  1.00  0.00     0.010 A 
ATOM     46  C   UNL A   1      43.105  23.204  27.233  1.00  0.00    -0.014 A 
BRANCH  46  47
ATOM     47  C   UNL A   1      43.544  24.560  27.643  1.00  0.00     0.031 A 
ATOM     48  C   UNL A   1      42.527  25.604  28.009  1.00  0.00     0.074 A 
ATOM     49  C   UNL A   1      44.856  24.866  27.631  1.00  0.00     0.049 A 
ATOM     50  N   UNL A   1      42.712  26.855  28.347  1.00  0.00    -0.248 NA
ATOM     51  C   UNL A   1      41.113  25.197  27.967  1.00  0.00     0.031 C 
ATOM     52  C   UNL A   1      45.939  23.950  27.264  1.00  0.00     0.029 A 
ATOM     53  N   UNL A   1      45.500  26.038  27.937  1.00  0.00    -0.354 N 
ATOM     54  C   UNL A   1      41.444  27.384  28.547  1.00  0.00     0.074 A 
ATOM     55  C   UNL A   1      40.495  26.338  28.233  1.00  0.00     0.031 C 
ATOM     56  C   UNL A   1      47.114  24.584  27.401  1.00  0.00     0.029 A 
ATOM     57  C   UNL A   1      46.867  25.960  27.818  1.00  0.00     0.049 A 
ATOM     58  H   UNL A   1      45.029  26.857  28.214  1.00  0.00     0.167 HD
ATOM     59  C   UNL A   1      41.097  28.621  28.974  1.00  0.00     0.031 A 
ATOM     60  C   UNL A   1      47.814  26.896  28.018  1.00  0.00     0.031 A 
ATOM     61  C   UNL A   1      42.042  29.662  29.283  1.00  0.00     0.049 A 
ATOM     62  C   UNL A   1      47.402  28.275  28.452  1.00  0.00     0.074 A 
ATOM     63  C   UNL A   1      41.796  30.935  29.765  1.00  0.00     0.029 A 
ATOM     64  N   UNL A   1      43.417  29.547  29.137  1.00  0.00    -0.354 N 
ATOM     65  N   UNL A   1      46.201  28.741  28.698  1.00  0.00    -0.248 NA
ATOM     66  C   UNL A   1      48.480  29.255  28.644  1.00  0.00     0.031 C 
ATOM     67  C   UNL A   1      43.016  31.612  29.852  1.00  0.00     0.029 A 
ATOM     68  C   UNL A   1      44.029  30.738  29.490  1.00  0.00     0.049 A 
ATOM     69  H   UNL A   1      43.887  28.739  28.827  1.00  0.00     0.167 HD
ATOM     70  C   UNL A   1      46.381  30.056  29.106  1.00  0.00     0.074 A 
ATOM     71  C   UNL A   1      47.808  30.308  29.089  1.00  0.00     0.031 C 
ATOM     72  C   UNL A   1      45.450  30.973  29.466  1.00  0.00     0.031 A 
BRANCH  59  73
ATOM     73  C   UNL A   1      39.629  28.917  29.117  1.00  0.00    -0.014 A 
ATOM     74  C   UNL A   1      38.934  28.609  30.299  1.00  0.00     0.009 A 
ATOM     75  C   UNL A   1      38.933  29.532  28.066  1.00  0.00     0.009 A 
ATOM     76  C   UNL A   1      37.567  28.869  30.407  1.00  0.00     0.001 A 
ATOM     77  C   UNL A   1      37.573  29.822  28.188  1.00  0.00     0.001 A 
ATOM     78  C   UNL A   1      36.888  29.480  29.353  1.00  0.00     0.000 A 
ENDBRANCH  59  73
BRANCH  60  79
ATOM     79  C   UNL A   1      49.249  26.558  27.828  1.00  0.00    -0.014 A 
ATOM     80  C   UNL A   1      50.039  26.167  28.920  1.00  0.00     0.009 A 
ATOM     81  C   UNL A   1      49.842  26.634  26.558  1.00  0.00     0.009 A 
ATOM     82  C   UNL A   1      51.397  25.889  28.751  1.00  0.00     0.001 A 
ATOM     83  C   UNL A   1      51.192  26.323  26.385  1.00  0.00     0.001 A 
ATOM     84  C   UNL A   1      51.972  25.964  27.482  1.00  0.00     0.000 A 
ENDBRANCH  60  79
BRANCH  72  85
ATOM     85  C   UNL A   1      45.948  32.321  29.910  1.00  0.00    -0.014 A 
ATOM     86  C   UNL A   1      46.282  32.574  31.249  1.00  0.00     0.009 A 
ATOM     87  C   UNL A   1      46.120  33.341  28.961  1.00  0.00     0.009 A 
ATOM     88  C   UNL A   1      46.744  33.835  31.635  1.00  0.00     0.001 A 
ATOM     89  C   UNL A   1      46.614  34.589  29.343  1.00  0.00     0.001 A 
ATOM     90  C   UNL A   1      46.914  34.839  30.682  1.00  0.00     0.000 A 
ENDBRANCH  72  85
ENDBRANCH  46  47
ENDBRANCH  38  41
ENDBRANCH  36  37
ENDBRANCH  35  36
ENDBRANCH  34  35
ENDBRANCH   1  34
TORSDOF 16
ENDMDL
