MODEL 1
REMARK VINA RESULT:     -11.9      0.000      0.000
REMARK SMILES COC(=O)c1ccc2c(c1)=N[C@H](c1cn(CCC(=O)NCCCCCCNC(=O)c3ccc(-c4c5nc(c(-c6ccccc6)c6ccc([nH]6)c(-c6ccccc6)c6nc(c(-c7ccccc7)c7ccc4[nH]7)C=C6)C=C5)cc3)c3ccccc13)N=2
REMARK SMILES IDX 22 1 21 2 20 3 18 4 19 5 17 7 16 8 15 9 13 10 14 11 83 12
REMARK SMILES IDX 78 13 82 14 79 15 81 16 80 17 12 18 5 19 6 20 10 21 7 22
REMARK SMILES IDX 9 23 8 24 11 25 84 26 3 27 4 28 2 29 1 30 23 31 24 32 25 33
REMARK SMILES IDX 26 34 27 35 28 36 29 38 30 39 31 40 77 41 32 42 76 43 33 44
REMARK SMILES IDX 34 45 35 46 70 47 36 48 75 49 69 50 71 51 37 52 74 53 68 54
REMARK SMILES IDX 67 55 38 57 60 58 45 59 59 60 46 61 49 62 58 63 72 64 47 65
REMARK SMILES IDX 48 66 57 68 73 69 50 70 39 71 40 72 44 73 41 74 43 75 42 76
REMARK SMILES IDX 61 77 62 78 66 79 63 80 65 81 64 82 51 83 52 84 56 85 53 86
REMARK SMILES IDX 55 87 54 88
REMARK H PARENT 20 6 27 37 71 56 49 67
REMARK Flexibility Score: inf
ROOT
ATOM      1  C   UNL A   1      40.224  21.421  26.086  1.00  0.00     0.021 C 
ENDROOT
BRANCH   1   2
ATOM      2  C   UNL A   1      38.808  22.030  26.172  1.00  0.00     0.116 C 
BRANCH   2   3
ATOM      3  N   UNL A   1      38.131  22.251  24.903  1.00  0.00    -0.356 N 
ATOM      4  C   UNL A   1      36.822  22.176  24.524  1.00  0.00     0.221 C 
ATOM      5  O   UNL A   1      36.541  22.561  23.384  1.00  0.00    -0.275 OA
ATOM      6  H   UNL A   1      38.738  22.506  24.171  1.00  0.00     0.163 HD
BRANCH   4   7
ATOM      7  C   UNL A   1      35.721  21.722  25.465  1.00  0.00     0.122 C 
BRANCH   7   8
ATOM      8  C   UNL A   1      34.703  20.773  24.784  1.00  0.00     0.132 C 
BRANCH   8   9
ATOM      9  N   UNL A   1      33.449  21.419  24.354  1.00  0.00    -0.347 N 
ATOM     10  C   UNL A   1      33.122  23.410  23.450  1.00  0.00     0.024 A 
ATOM     11  C   UNL A   1      33.385  22.071  23.144  1.00  0.00     0.094 A 
ATOM     12  C   UNL A   1      33.182  23.464  24.898  1.00  0.00     0.007 A 
ATOM     13  C   UNL A   1      32.675  22.203  25.185  1.00  0.00     0.048 A 
ATOM     14  C   UNL A   1      33.002  24.401  25.922  1.00  0.00     0.011 A 
ATOM     15  C   UNL A   1      31.451  22.098  25.860  1.00  0.00     0.027 A 
ATOM     16  C   UNL A   1      31.905  24.295  26.766  1.00  0.00     0.001 A 
ATOM     17  C   UNL A   1      31.045  23.220  26.606  1.00  0.00     0.002 A 
BRANCH  10  18
ATOM     18  C   UNL A   1      32.742  24.414  22.400  1.00  0.00     0.255 C 
ATOM     19  C   UNL A   1      31.182  28.581  23.214  1.00  0.00     0.062 A 
ATOM     20  C   UNL A   1      32.463  28.907  22.603  1.00  0.00     0.018 A 
ATOM     21  C   UNL A   1      30.754  27.311  23.337  1.00  0.00     0.046 A 
ATOM     22  C   UNL A   1      33.367  27.983  22.252  1.00  0.00     0.031 A 
ATOM     23  C   UNL A   1      31.645  26.242  22.876  1.00  0.00     0.087 A 
ATOM     24  C   UNL A   1      33.011  26.570  22.426  1.00  0.00     0.086 A 
ATOM     25  N   UNL A   1      31.412  24.981  22.796  1.00  0.00    -0.252 NA
ATOM     26  N   UNL A   1      33.714  25.517  22.191  1.00  0.00    -0.252 NA
BRANCH  19  27
ATOM     27  C   UNL A   1      30.307  29.643  23.781  1.00  0.00     0.337 C 
ATOM     28  O   UNL A   1      30.626  30.366  24.729  1.00  0.00    -0.246 OA
BRANCH  27  29
ATOM     29  O   UNL A   1      29.138  29.706  23.102  1.00  0.00    -0.465 OA
ATOM     30  C   UNL A   1      28.313  30.825  23.433  1.00  0.00     0.282 C 
ENDBRANCH  27  29
ENDBRANCH  19  27
ENDBRANCH  10  18
ENDBRANCH   8   9
ENDBRANCH   7   8
ENDBRANCH   4   7
ENDBRANCH   2   3
ENDBRANCH   1   2
BRANCH   1  31
ATOM     31  C   UNL A   1      40.951  21.113  27.407  1.00  0.00     0.002 C 
BRANCH  31  32
ATOM     32  C   UNL A   1      41.809  19.850  27.445  1.00  0.00     0.002 C 
BRANCH  32  33
ATOM     33  C   UNL A   1      42.019  19.144  26.108  1.00  0.00     0.021 C 
BRANCH  33  34
ATOM     34  C   UNL A   1      43.355  18.424  25.926  1.00  0.00     0.116 C 
BRANCH  34  35
ATOM     35  N   UNL A   1      44.081  18.637  24.682  1.00  0.00    -0.352 N 
ATOM     36  C   UNL A   1      44.852  19.666  24.203  1.00  0.00     0.251 C 
ATOM     37  H   UNL A   1      44.001  17.884  24.052  1.00  0.00     0.163 HD
ATOM     38  O   UNL A   1      45.534  19.472  23.196  1.00  0.00    -0.269 OA
BRANCH  36  39
ATOM     39  C   UNL A   1      44.815  21.024  24.786  1.00  0.00     0.039 A 
ATOM     40  C   UNL A   1      45.709  21.465  25.750  1.00  0.00     0.014 A 
ATOM     41  C   UNL A   1      43.770  21.873  24.376  1.00  0.00     0.014 A 
ATOM     42  C   UNL A   1      45.432  22.619  26.457  1.00  0.00     0.010 A 
ATOM     43  C   UNL A   1      43.545  23.087  25.020  1.00  0.00     0.010 A 
ATOM     44  C   UNL A   1      44.338  23.429  26.109  1.00  0.00    -0.014 A 
BRANCH  44  45
ATOM     45  C   UNL A   1      44.213  24.684  26.849  1.00  0.00     0.031 A 
ATOM     46  C   UNL A   1      45.408  25.553  26.709  1.00  0.00     0.074 A 
ATOM     47  C   UNL A   1      43.163  25.095  27.588  1.00  0.00     0.049 A 
ATOM     48  N   UNL A   1      46.280  25.816  27.623  1.00  0.00    -0.248 NA
ATOM     49  C   UNL A   1      45.777  26.021  25.364  1.00  0.00     0.031 C 
ATOM     50  C   UNL A   1      41.818  24.523  27.637  1.00  0.00     0.029 A 
ATOM     51  N   UNL A   1      43.064  26.190  28.404  1.00  0.00    -0.354 N 
ATOM     52  C   UNL A   1      47.210  26.653  27.022  1.00  0.00     0.074 A 
ATOM     53  C   UNL A   1      46.947  26.611  25.607  1.00  0.00     0.031 C 
ATOM     54  C   UNL A   1      40.980  25.404  28.231  1.00  0.00     0.029 A 
ATOM     55  C   UNL A   1      41.762  26.509  28.761  1.00  0.00     0.049 A 
ATOM     56  H   UNL A   1      43.846  26.703  28.711  1.00  0.00     0.167 HD
ATOM     57  C   UNL A   1      47.926  27.534  27.770  1.00  0.00     0.031 A 
ATOM     58  C   UNL A   1      41.347  27.613  29.425  1.00  0.00     0.031 A 
ATOM     59  C   UNL A   1      47.905  27.189  29.168  1.00  0.00     0.049 A 
ATOM     60  C   UNL A   1      42.470  28.123  30.237  1.00  0.00     0.074 A 
ATOM     61  C   UNL A   1      48.548  26.299  29.998  1.00  0.00     0.029 A 
ATOM     62  N   UNL A   1      46.784  27.619  29.822  1.00  0.00    -0.354 N 
ATOM     63  N   UNL A   1      42.961  27.484  31.258  1.00  0.00    -0.248 NA
ATOM     64  C   UNL A   1      43.265  29.249  29.757  1.00  0.00     0.031 C 
ATOM     65  C   UNL A   1      47.691  26.110  31.126  1.00  0.00     0.029 A 
ATOM     66  C   UNL A   1      46.566  26.917  30.978  1.00  0.00     0.049 A 
ATOM     67  H   UNL A   1      46.203  28.347  29.502  1.00  0.00     0.167 HD
ATOM     68  C   UNL A   1      44.295  27.831  31.260  1.00  0.00     0.074 A 
ATOM     69  C   UNL A   1      44.381  29.047  30.462  1.00  0.00     0.031 C 
ATOM     70  C   UNL A   1      45.257  26.928  31.600  1.00  0.00     0.031 A 
BRANCH  57  71
ATOM     71  C   UNL A   1      48.168  28.957  27.316  1.00  0.00    -0.014 A 
ATOM     72  C   UNL A   1      47.128  29.875  27.066  1.00  0.00     0.009 A 
ATOM     73  C   UNL A   1      49.465  29.491  27.417  1.00  0.00     0.009 A 
ATOM     74  C   UNL A   1      47.359  31.245  26.920  1.00  0.00     0.001 A 
ATOM     75  C   UNL A   1      49.696  30.869  27.305  1.00  0.00     0.001 A 
ATOM     76  C   UNL A   1      48.644  31.745  27.057  1.00  0.00     0.000 A 
ENDBRANCH  57  71
BRANCH  58  77
ATOM     77  C   UNL A   1      40.138  28.429  29.193  1.00  0.00    -0.014 A 
ATOM     78  C   UNL A   1      39.081  28.388  30.120  1.00  0.00     0.009 A 
ATOM     79  C   UNL A   1      39.881  28.975  27.925  1.00  0.00     0.009 A 
ATOM     80  C   UNL A   1      37.796  28.814  29.768  1.00  0.00     0.001 A 
ATOM     81  C   UNL A   1      38.593  29.398  27.572  1.00  0.00     0.001 A 
ATOM     82  C   UNL A   1      37.548  29.297  28.487  1.00  0.00     0.000 A 
ENDBRANCH  58  77
BRANCH  70  83
ATOM     83  C   UNL A   1      44.878  25.790  32.505  1.00  0.00    -0.014 A 
ATOM     84  C   UNL A   1      44.954  26.006  33.890  1.00  0.00     0.009 A 
ATOM     85  C   UNL A   1      44.510  24.513  32.051  1.00  0.00     0.009 A 
ATOM     86  C   UNL A   1      44.683  24.981  34.797  1.00  0.00     0.001 A 
ATOM     87  C   UNL A   1      44.211  23.491  32.961  1.00  0.00     0.001 A 
ATOM     88  C   UNL A   1      44.307  23.724  34.333  1.00  0.00     0.000 A 
ENDBRANCH  70  83
ENDBRANCH  44  45
ENDBRANCH  36  39
ENDBRANCH  34  35
ENDBRANCH  33  34
ENDBRANCH  32  33
ENDBRANCH  31  32
ENDBRANCH   1  31
TORSDOF 18
ENDMDL
MODEL 2
REMARK VINA RESULT:     -11.6      2.807      4.057
REMARK SMILES COC(=O)c1ccc2c(c1)=N[C@H](c1cn(CCC(=O)NCCCCCCNC(=O)c3ccc(-c4c5nc(c(-c6ccccc6)c6ccc([nH]6)c(-c6ccccc6)c6nc(c(-c7ccccc7)c7ccc4[nH]7)C=C6)C=C5)cc3)c3ccccc13)N=2
REMARK SMILES IDX 22 1 21 2 20 3 18 4 19 5 17 7 16 8 15 9 13 10 14 11 83 12
REMARK SMILES IDX 78 13 82 14 79 15 81 16 80 17 12 18 5 19 6 20 10 21 7 22
REMARK SMILES IDX 9 23 8 24 11 25 84 26 3 27 4 28 2 29 1 30 23 31 24 32 25 33
REMARK SMILES IDX 26 34 27 35 28 36 29 38 30 39 31 40 77 41 32 42 76 43 33 44
REMARK SMILES IDX 34 45 35 46 70 47 36 48 75 49 69 50 71 51 37 52 74 53 68 54
REMARK SMILES IDX 67 55 38 57 60 58 45 59 59 60 46 61 49 62 58 63 72 64 47 65
REMARK SMILES IDX 48 66 57 68 73 69 50 70 39 71 40 72 44 73 41 74 43 75 42 76
REMARK SMILES IDX 61 77 62 78 66 79 63 80 65 81 64 82 51 83 52 84 56 85 53 86
REMARK SMILES IDX 55 87 54 88
REMARK H PARENT 20 6 27 37 71 56 49 67
REMARK Flexibility Score: inf
ROOT
ATOM      1  C   UNL A   1      38.061  23.998  26.820  1.00  0.00     0.021 C 
ENDROOT
BRANCH   1   2
ATOM      2  C   UNL A   1      37.634  23.694  25.369  1.00  0.00     0.116 C 
BRANCH   2   3
ATOM      3  N   UNL A   1      37.545  22.286  25.010  1.00  0.00    -0.356 N 
ATOM      4  C   UNL A   1      36.590  21.334  25.216  1.00  0.00     0.221 C 
ATOM      5  O   UNL A   1      36.753  20.241  24.663  1.00  0.00    -0.275 OA
ATOM      6  H   UNL A   1      38.333  21.953  24.523  1.00  0.00     0.163 HD
BRANCH   4   7
ATOM      7  C   UNL A   1      35.328  21.599  26.016  1.00  0.00     0.122 C 
BRANCH   7   8
ATOM      8  C   UNL A   1      34.133  20.723  25.561  1.00  0.00     0.132 C 
BRANCH   8   9
ATOM      9  N   UNL A   1      33.069  21.453  24.849  1.00  0.00    -0.347 N 
ATOM     10  C   UNL A   1      33.160  23.372  23.754  1.00  0.00     0.024 A 
ATOM     11  C   UNL A   1      33.311  21.990  23.604  1.00  0.00     0.094 A 
ATOM     12  C   UNL A   1      32.957  23.557  25.177  1.00  0.00     0.007 A 
ATOM     13  C   UNL A   1      32.256  22.390  25.452  1.00  0.00     0.048 A 
ATOM     14  C   UNL A   1      32.705  24.602  26.074  1.00  0.00     0.011 A 
ATOM     15  C   UNL A   1      30.924  22.480  25.881  1.00  0.00     0.027 A 
ATOM     16  C   UNL A   1      31.466  24.694  26.694  1.00  0.00     0.001 A 
ATOM     17  C   UNL A   1      30.527  23.705  26.448  1.00  0.00     0.002 A 
BRANCH  10  18
ATOM     18  C   UNL A   1      33.106  24.305  22.579  1.00  0.00     0.255 C 
ATOM     19  C   UNL A   1      31.218  28.416  22.592  1.00  0.00     0.062 A 
ATOM     20  C   UNL A   1      32.616  28.782  22.409  1.00  0.00     0.018 A 
ATOM     21  C   UNL A   1      30.819  27.132  22.647  1.00  0.00     0.046 A 
ATOM     22  C   UNL A   1      33.617  27.892  22.425  1.00  0.00     0.031 A 
ATOM     23  C   UNL A   1      31.850  26.092  22.564  1.00  0.00     0.087 A 
ATOM     24  C   UNL A   1      33.275  26.472  22.560  1.00  0.00     0.086 A 
ATOM     25  N   UNL A   1      31.701  24.818  22.489  1.00  0.00    -0.252 NA
ATOM     26  N   UNL A   1      34.053  25.448  22.628  1.00  0.00    -0.252 NA
BRANCH  19  27
ATOM     27  C   UNL A   1      30.169  29.454  22.781  1.00  0.00     0.337 C 
ATOM     28  O   UNL A   1      29.986  30.065  23.838  1.00  0.00    -0.246 OA
BRANCH  27  29
ATOM     29  O   UNL A   1      29.471  29.637  21.636  1.00  0.00    -0.465 OA
ATOM     30  C   UNL A   1      28.091  29.954  21.821  1.00  0.00     0.282 C 
ENDBRANCH  27  29
ENDBRANCH  19  27
ENDBRANCH  10  18
ENDBRANCH   8   9
ENDBRANCH   7   8
ENDBRANCH   4   7
ENDBRANCH   2   3
ENDBRANCH   1   2
BRANCH   1  31
ATOM     31  C   UNL A   1      39.569  24.032  27.129  1.00  0.00     0.002 C 
BRANCH  31  32
ATOM     32  C   UNL A   1      40.251  22.692  27.390  1.00  0.00     0.002 C 
BRANCH  32  33
ATOM     33  C   UNL A   1      40.819  21.980  26.166  1.00  0.00     0.021 C 
BRANCH  33  34
ATOM     34  C   UNL A   1      42.324  21.715  26.175  1.00  0.00     0.116 C 
BRANCH  34  35
ATOM     35  N   UNL A   1      43.150  22.431  25.213  1.00  0.00    -0.352 N 
ATOM     36  C   UNL A   1      43.602  23.724  25.135  1.00  0.00     0.251 C 
ATOM     37  H   UNL A   1      43.444  21.870  24.459  1.00  0.00     0.163 HD
ATOM     38  O   UNL A   1      44.480  23.993  24.315  1.00  0.00    -0.269 OA
BRANCH  36  39
ATOM     39  C   UNL A   1      43.003  24.824  25.921  1.00  0.00     0.039 A 
ATOM     40  C   UNL A   1      42.076  25.715  25.402  1.00  0.00     0.014 A 
ATOM     41  C   UNL A   1      43.463  24.998  27.239  1.00  0.00     0.014 A 
ATOM     42  C   UNL A   1      41.794  26.880  26.090  1.00  0.00     0.010 A 
ATOM     43  C   UNL A   1      43.102  26.123  27.976  1.00  0.00     0.010 A 
ATOM     44  C   UNL A   1      42.320  27.100  27.374  1.00  0.00    -0.014 A 
BRANCH  44  45
ATOM     45  C   UNL A   1      41.859  28.311  28.052  1.00  0.00     0.031 A 
ATOM     46  C   UNL A   1      42.824  29.433  27.940  1.00  0.00     0.074 A 
ATOM     47  C   UNL A   1      40.699  28.484  28.716  1.00  0.00     0.049 A 
ATOM     48  N   UNL A   1      43.552  29.921  28.889  1.00  0.00    -0.248 NA
ATOM     49  C   UNL A   1      43.157  29.937  26.598  1.00  0.00     0.031 C 
ATOM     50  C   UNL A   1      39.524  27.612  28.716  1.00  0.00     0.029 A 
ATOM     51  N   UNL A   1      40.296  29.547  29.479  1.00  0.00    -0.354 N 
ATOM     52  C   UNL A   1      44.296  30.936  28.303  1.00  0.00     0.074 A 
ATOM     53  C   UNL A   1      44.139  30.793  26.879  1.00  0.00     0.031 C 
ATOM     54  C   UNL A   1      38.468  28.287  29.227  1.00  0.00     0.029 A 
ATOM     55  C   UNL A   1      38.935  29.560  29.751  1.00  0.00     0.049 A 
ATOM     56  H   UNL A   1      40.915  30.239  29.805  1.00  0.00     0.167 HD
ATOM     57  C   UNL A   1      44.738  31.982  29.051  1.00  0.00     0.031 A 
ATOM     58  C   UNL A   1      38.234  30.554  30.345  1.00  0.00     0.031 A 
ATOM     59  C   UNL A   1      44.712  31.682  30.459  1.00  0.00     0.049 A 
ATOM     60  C   UNL A   1      39.153  31.337  31.193  1.00  0.00     0.074 A 
ATOM     61  C   UNL A   1      45.492  30.992  31.360  1.00  0.00     0.029 A 
ATOM     62  N   UNL A   1      43.483  31.853  31.033  1.00  0.00    -0.354 N 
ATOM     63  N   UNL A   1      39.715  30.861  32.266  1.00  0.00    -0.248 NA
ATOM     64  C   UNL A   1      39.691  32.604  30.710  1.00  0.00     0.031 C 
ATOM     65  C   UNL A   1      44.634  30.639  32.447  1.00  0.00     0.029 A 
ATOM     66  C   UNL A   1      43.363  31.153  32.204  1.00  0.00     0.049 A 
ATOM     67  H   UNL A   1      42.768  32.414  30.652  1.00  0.00     0.167 HD
ATOM     68  C   UNL A   1      40.928  31.513  32.325  1.00  0.00     0.074 A 
ATOM     69  C   UNL A   1      40.777  32.691  31.482  1.00  0.00     0.031 C 
ATOM     70  C   UNL A   1      42.052  30.872  32.754  1.00  0.00     0.031 A 
BRANCH  57  71
ATOM     71  C   UNL A   1      44.669  33.408  28.550  1.00  0.00    -0.014 A 
ATOM     72  C   UNL A   1      45.782  34.097  28.028  1.00  0.00     0.009 A 
ATOM     73  C   UNL A   1      43.409  33.987  28.320  1.00  0.00     0.009 A 
ATOM     74  C   UNL A   1      45.655  35.295  27.321  1.00  0.00     0.001 A 
ATOM     75  C   UNL A   1      43.274  35.171  27.582  1.00  0.00     0.001 A 
ATOM     76  C   UNL A   1      44.397  35.824  27.083  1.00  0.00     0.000 A 
ENDBRANCH  57  71
BRANCH  58  77
ATOM     77  C   UNL A   1      36.883  31.054  30.014  1.00  0.00    -0.014 A 
ATOM     78  C   UNL A   1      36.579  31.416  28.690  1.00  0.00     0.009 A 
ATOM     79  C   UNL A   1      36.017  31.488  31.031  1.00  0.00     0.009 A 
ATOM     80  C   UNL A   1      35.486  32.239  28.400  1.00  0.00     0.001 A 
ATOM     81  C   UNL A   1      34.925  32.315  30.740  1.00  0.00     0.001 A 
ATOM     82  C   UNL A   1      34.674  32.707  29.427  1.00  0.00     0.000 A 
ENDBRANCH  58  77
BRANCH  70  83
ATOM     83  C   UNL A   1      41.894  29.703  33.685  1.00  0.00    -0.014 A 
ATOM     84  C   UNL A   1      41.888  29.965  35.064  1.00  0.00     0.009 A 
ATOM     85  C   UNL A   1      41.810  28.366  33.261  1.00  0.00     0.009 A 
ATOM     86  C   UNL A   1      41.812  28.929  35.995  1.00  0.00     0.001 A 
ATOM     87  C   UNL A   1      41.707  27.327  34.195  1.00  0.00     0.001 A 
ATOM     88  C   UNL A   1      41.717  27.609  35.561  1.00  0.00     0.000 A 
ENDBRANCH  70  83
ENDBRANCH  44  45
ENDBRANCH  36  39
ENDBRANCH  34  35
ENDBRANCH  33  34
ENDBRANCH  32  33
ENDBRANCH  31  32
ENDBRANCH   1  31
TORSDOF 18
ENDMDL
MODEL 3
REMARK VINA RESULT:     -11.4      3.303      5.874
REMARK SMILES COC(=O)c1ccc2c(c1)=N[C@H](c1cn(CCC(=O)NCCCCCCNC(=O)c3ccc(-c4c5nc(c(-c6ccccc6)c6ccc([nH]6)c(-c6ccccc6)c6nc(c(-c7ccccc7)c7ccc4[nH]7)C=C6)C=C5)cc3)c3ccccc13)N=2
REMARK SMILES IDX 22 1 21 2 20 3 18 4 19 5 17 7 16 8 15 9 13 10 14 11 83 12
REMARK SMILES IDX 78 13 82 14 79 15 81 16 80 17 12 18 5 19 6 20 10 21 7 22
REMARK SMILES IDX 9 23 8 24 11 25 84 26 3 27 4 28 2 29 1 30 23 31 24 32 25 33
REMARK SMILES IDX 26 34 27 35 28 36 29 38 30 39 31 40 77 41 32 42 76 43 33 44
REMARK SMILES IDX 34 45 35 46 70 47 36 48 75 49 69 50 71 51 37 52 74 53 68 54
REMARK SMILES IDX 67 55 38 57 60 58 45 59 59 60 46 61 49 62 58 63 72 64 47 65
REMARK SMILES IDX 48 66 57 68 73 69 50 70 39 71 40 72 44 73 41 74 43 75 42 76
REMARK SMILES IDX 61 77 62 78 66 79 63 80 65 81 64 82 51 83 52 84 56 85 53 86
REMARK SMILES IDX 55 87 54 88
REMARK H PARENT 20 6 27 37 71 56 49 67
REMARK Flexibility Score: inf
ROOT
ATOM      1  C   UNL A   1      33.036  22.746  24.264  1.00  0.00     0.021 C 
ENDROOT
BRANCH   1   2
ATOM      2  C   UNL A   1      33.480  22.827  22.788  1.00  0.00     0.116 C 
BRANCH   2   3
ATOM      3  N   UNL A   1      32.742  23.762  21.950  1.00  0.00    -0.356 N 
ATOM      4  C   UNL A   1      32.814  25.114  21.782  1.00  0.00     0.221 C 
ATOM      5  O   UNL A   1      32.129  25.608  20.880  1.00  0.00    -0.275 OA
ATOM      6  H   UNL A   1      32.052  23.333  21.394  1.00  0.00     0.163 HD
BRANCH   4   7
ATOM      7  C   UNL A   1      33.747  25.992  22.596  1.00  0.00     0.122 C 
BRANCH   7   8
ATOM      8  C   UNL A   1      33.539  27.504  22.322  1.00  0.00     0.132 C 
BRANCH   8   9
ATOM      9  N   UNL A   1      32.579  28.168  23.221  1.00  0.00    -0.347 N 
ATOM     10  C   UNL A   1      32.550  28.271  25.430  1.00  0.00     0.024 A 
ATOM     11  C   UNL A   1      33.030  28.915  24.286  1.00  0.00     0.094 A 
ATOM     12  C   UNL A   1      31.930  27.062  24.925  1.00  0.00     0.007 A 
ATOM     13  C   UNL A   1      31.450  27.550  23.717  1.00  0.00     0.048 A 
ATOM     14  C   UNL A   1      31.223  25.959  25.419  1.00  0.00     0.011 A 
ATOM     15  C   UNL A   1      30.064  27.605  23.506  1.00  0.00     0.027 A 
ATOM     16  C   UNL A   1      29.873  25.821  25.129  1.00  0.00     0.001 A 
ATOM     17  C   UNL A   1      29.272  26.756  24.302  1.00  0.00     0.002 A 
BRANCH  10  18
ATOM     18  C   UNL A   1      32.618  28.897  26.793  1.00  0.00     0.255 C 
ATOM     19  C   UNL A   1      36.102  31.299  28.392  1.00  0.00     0.062 A 
ATOM     20  C   UNL A   1      35.090  32.344  28.315  1.00  0.00     0.018 A 
ATOM     21  C   UNL A   1      35.828  30.018  28.084  1.00  0.00     0.046 A 
ATOM     22  C   UNL A   1      33.868  32.148  27.804  1.00  0.00     0.031 A 
ATOM     23  C   UNL A   1      34.474  29.703  27.616  1.00  0.00     0.087 A 
ATOM     24  C   UNL A   1      33.511  30.793  27.370  1.00  0.00     0.086 A 
ATOM     25  N   UNL A   1      33.958  28.553  27.368  1.00  0.00    -0.252 NA
ATOM     26  N   UNL A   1      32.423  30.370  26.828  1.00  0.00    -0.252 NA
BRANCH  19  27
ATOM     27  C   UNL A   1      37.508  31.614  28.766  1.00  0.00     0.337 C 
ATOM     28  O   UNL A   1      38.347  30.763  29.072  1.00  0.00    -0.246 OA
BRANCH  27  29
ATOM     29  O   UNL A   1      37.727  32.948  28.704  1.00  0.00    -0.465 OA
ATOM     30  C   UNL A   1      38.420  33.493  29.828  1.00  0.00     0.282 C 
ENDBRANCH  27  29
ENDBRANCH  19  27
ENDBRANCH  10  18
ENDBRANCH   8   9
ENDBRANCH   7   8
ENDBRANCH   4   7
ENDBRANCH   2   3
ENDBRANCH   1   2
BRANCH   1  31
ATOM     31  C   UNL A   1      33.953  23.386  25.322  1.00  0.00     0.002 C 
BRANCH  31  32
ATOM     32  C   UNL A   1      34.817  22.439  26.151  1.00  0.00     0.002 C 
BRANCH  32  33
ATOM     33  C   UNL A   1      36.059  21.886  25.457  1.00  0.00     0.021 C 
BRANCH  33  34
ATOM     34  C   UNL A   1      37.322  22.743  25.545  1.00  0.00     0.116 C 
BRANCH  34  35
ATOM     35  N   UNL A   1      38.595  22.065  25.741  1.00  0.00    -0.352 N 
ATOM     36  C   UNL A   1      39.709  22.346  26.492  1.00  0.00     0.251 C 
ATOM     37  H   UNL A   1      38.675  21.230  25.225  1.00  0.00     0.163 HD
ATOM     38  O   UNL A   1      40.558  21.466  26.639  1.00  0.00    -0.269 OA
BRANCH  36  39
ATOM     39  C   UNL A   1      39.977  23.691  27.043  1.00  0.00     0.039 A 
ATOM     40  C   UNL A   1      41.132  24.013  27.741  1.00  0.00     0.014 A 
ATOM     41  C   UNL A   1      38.967  24.660  26.899  1.00  0.00     0.014 A 
ATOM     42  C   UNL A   1      41.178  25.182  28.475  1.00  0.00     0.010 A 
ATOM     43  C   UNL A   1      39.055  25.883  27.558  1.00  0.00     0.010 A 
ATOM     44  C   UNL A   1      40.132  26.117  28.404  1.00  0.00    -0.014 A 
BRANCH  44  45
ATOM     45  C   UNL A   1      40.345  27.369  29.130  1.00  0.00     0.031 A 
ATOM     46  C   UNL A   1      41.311  28.268  28.451  1.00  0.00     0.074 A 
ATOM     47  C   UNL A   1      39.762  27.752  30.283  1.00  0.00     0.049 A 
ATOM     48  N   UNL A   1      42.506  28.554  28.846  1.00  0.00    -0.248 NA
ATOM     49  C   UNL A   1      40.987  28.746  27.097  1.00  0.00     0.031 C 
ATOM     50  C   UNL A   1      38.614  27.146  30.957  1.00  0.00     0.029 A 
ATOM     51  N   UNL A   1      40.038  28.844  31.063  1.00  0.00    -0.354 N 
ATOM     52  C   UNL A   1      43.021  29.414  27.886  1.00  0.00     0.074 A 
ATOM     53  C   UNL A   1      42.119  29.366  26.764  1.00  0.00     0.031 C 
ATOM     54  C   UNL A   1      38.139  28.004  31.889  1.00  0.00     0.029 A 
ATOM     55  C   UNL A   1      39.054  29.129  31.998  1.00  0.00     0.049 A 
ATOM     56  H   UNL A   1      40.860  29.377  30.968  1.00  0.00     0.167 HD
ATOM     57  C   UNL A   1      43.985  30.313  28.216  1.00  0.00     0.031 A 
ATOM     58  C   UNL A   1      38.979  30.222  32.793  1.00  0.00     0.031 A 
ATOM     59  C   UNL A   1      44.638  29.968  29.452  1.00  0.00     0.049 A 
ATOM     60  C   UNL A   1      40.340  30.761  32.981  1.00  0.00     0.074 A 
ATOM     61  C   UNL A   1      45.618  29.094  29.868  1.00  0.00     0.029 A 
ATOM     62  N   UNL A   1      43.952  30.368  30.565  1.00  0.00    -0.354 N 
ATOM     63  N   UNL A   1      41.271  30.134  33.640  1.00  0.00    -0.248 NA
ATOM     64  C   UNL A   1      40.787  31.907  32.197  1.00  0.00     0.031 C 
ATOM     65  C   UNL A   1      45.403  28.883  31.265  1.00  0.00     0.029 A 
ATOM     66  C   UNL A   1      44.324  29.660  31.677  1.00  0.00     0.049 A 
ATOM     67  H   UNL A   1      43.272  31.081  30.568  1.00  0.00     0.167 HD
ATOM     68  C   UNL A   1      42.438  30.516  33.014  1.00  0.00     0.074 A 
ATOM     69  C   UNL A   1      42.108  31.733  32.285  1.00  0.00     0.031 C 
ATOM     70  C   UNL A   1      43.467  29.638  32.846  1.00  0.00     0.031 A 
BRANCH  57  71
ATOM     71  C   UNL A   1      43.951  31.742  27.719  1.00  0.00    -0.014 A 
ATOM     72  C   UNL A   1      43.687  32.844  28.556  1.00  0.00     0.009 A 
ATOM     73  C   UNL A   1      44.480  32.032  26.449  1.00  0.00     0.009 A 
ATOM     74  C   UNL A   1      43.928  34.161  28.157  1.00  0.00     0.001 A 
ATOM     75  C   UNL A   1      44.755  33.350  26.058  1.00  0.00     0.001 A 
ATOM     76  C   UNL A   1      44.480  34.413  26.912  1.00  0.00     0.000 A 
ENDBRANCH  57  71
BRANCH  58  77
ATOM     77  C   UNL A   1      37.786  31.007  33.173  1.00  0.00    -0.014 A 
ATOM     78  C   UNL A   1      36.721  31.140  32.264  1.00  0.00     0.009 A 
ATOM     79  C   UNL A   1      37.832  31.885  34.268  1.00  0.00     0.009 A 
ATOM     80  C   UNL A   1      35.774  32.160  32.407  1.00  0.00     0.001 A 
ATOM     81  C   UNL A   1      36.885  32.908  34.408  1.00  0.00     0.001 A 
ATOM     82  C   UNL A   1      35.870  33.057  33.466  1.00  0.00     0.000 A 
ENDBRANCH  58  77
BRANCH  70  83
ATOM     83  C   UNL A   1      43.588  28.490  33.808  1.00  0.00    -0.014 A 
ATOM     84  C   UNL A   1      42.973  27.278  33.456  1.00  0.00     0.009 A 
ATOM     85  C   UNL A   1      44.226  28.573  35.057  1.00  0.00     0.009 A 
ATOM     86  C   UNL A   1      42.983  26.185  34.323  1.00  0.00     0.001 A 
ATOM     87  C   UNL A   1      44.259  27.469  35.916  1.00  0.00     0.001 A 
ATOM     88  C   UNL A   1      43.630  26.278  35.552  1.00  0.00     0.000 A 
ENDBRANCH  70  83
ENDBRANCH  44  45
ENDBRANCH  36  39
ENDBRANCH  34  35
ENDBRANCH  33  34
ENDBRANCH  32  33
ENDBRANCH  31  32
ENDBRANCH   1  31
TORSDOF 18
ENDMDL
