MODEL 1
REMARK VINA RESULT:     -10.6      0.000      0.000
REMARK SMILES CC(C)COc1cccc(N2C[C@@H](C(=O)NCCCCCCNC(=O)c3ccc(-c4c5nc(c(-c6ccccc6)c6ccc([nH]6)c(-c6ccccc6)c6nc(c(-c7ccccc7)c7ccc4[nH]7)C=C6)C=C5)cc3)CC2=O)c1
REMARK SMILES IDX 18 1 17 2 16 3 14 4 15 5 13 7 11 8 12 9 75 10 74 11 76 12
REMARK SMILES IDX 10 13 6 14 7 15 77 16 8 17 9 18 5 19 4 20 2 21 1 22 3 23
REMARK SMILES IDX 19 24 20 25 21 26 22 27 23 28 24 29 25 31 26 32 27 33 73 34
REMARK SMILES IDX 28 35 72 36 29 37 30 38 31 39 66 40 32 41 71 42 65 43 67 44
REMARK SMILES IDX 33 45 70 46 64 47 63 48 34 50 56 51 41 52 55 53 42 54 45 55
REMARK SMILES IDX 54 56 68 57 43 58 44 59 53 61 69 62 46 63 35 64 36 65 40 66
REMARK SMILES IDX 37 67 39 68 38 69 57 70 58 71 62 72 59 73 61 74 60 75 47 76
REMARK SMILES IDX 48 77 52 78 49 79 51 80 50 81
REMARK H PARENT 16 6 23 30 67 49 45 60
REMARK Flexibility Score: inf
ROOT
ATOM      1  C   UNL A   1      35.772  32.295  28.109  1.00  0.00     0.021 C 
ENDROOT
BRANCH   1   2
ATOM      2  C   UNL A   1      35.145  30.961  27.693  1.00  0.00     0.116 C 
BRANCH   2   3
ATOM      3  N   UNL A   1      33.733  31.106  27.389  1.00  0.00    -0.356 N 
ATOM      4  C   UNL A   1      32.762  30.209  27.088  1.00  0.00     0.225 C 
ATOM      5  O   UNL A   1      31.632  30.659  26.875  1.00  0.00    -0.275 OA
ATOM      6  H   UNL A   1      33.418  32.038  27.405  1.00  0.00     0.163 HD
BRANCH   4   7
ATOM      7  C   UNL A   1      32.985  28.712  27.034  1.00  0.00     0.107 C 
ATOM      8  N   UNL A   1      32.807  26.944  25.489  1.00  0.00    -0.311 N 
ATOM      9  C   UNL A   1      33.437  28.231  25.669  1.00  0.00     0.139 C 
ATOM     10  C   UNL A   1      31.825  26.704  26.454  1.00  0.00     0.227 C 
ATOM     11  C   UNL A   1      31.792  27.858  27.418  1.00  0.00     0.116 C 
ATOM     12  O   UNL A   1      31.069  25.747  26.556  1.00  0.00    -0.274 OA
BRANCH   8  13
ATOM     13  C   UNL A   1      32.999  26.190  24.302  1.00  0.00     0.047 A 
ATOM     14  C   UNL A   1      33.694  24.103  23.299  1.00  0.00     0.121 A 
ATOM     15  C   UNL A   1      33.069  24.427  22.103  1.00  0.00     0.046 A 
ATOM     16  C   UNL A   1      33.768  25.027  24.333  1.00  0.00     0.072 A 
ATOM     17  C   UNL A   1      32.412  25.652  21.998  1.00  0.00     0.006 A 
ATOM     18  C   UNL A   1      32.333  26.505  23.109  1.00  0.00     0.026 A 
BRANCH  14  19
ATOM     19  O   UNL A   1      34.241  22.865  23.494  1.00  0.00    -0.493 OA
BRANCH  19  20
ATOM     20  C   UNL A   1      33.756  22.256  24.712  1.00  0.00     0.232 C 
BRANCH  20  21
ATOM     21  C   UNL A   1      32.379  21.557  24.562  1.00  0.00     0.020 C 
ATOM     22  C   UNL A   1      32.461  20.029  24.725  1.00  0.00     0.011 C 
ATOM     23  C   UNL A   1      31.391  22.082  25.608  1.00  0.00     0.011 C 
ENDBRANCH  20  21
ENDBRANCH  19  20
ENDBRANCH  14  19
ENDBRANCH   8  13
ENDBRANCH   4   7
ENDBRANCH   2   3
ENDBRANCH   1   2
BRANCH   1  24
ATOM     24  C   UNL A   1      34.856  33.213  28.932  1.00  0.00     0.002 C 
BRANCH  24  25
ATOM     25  C   UNL A   1      34.362  34.474  28.214  1.00  0.00     0.002 C 
BRANCH  25  26
ATOM     26  C   UNL A   1      33.155  35.159  28.856  1.00  0.00     0.021 C 
BRANCH  26  27
ATOM     27  C   UNL A   1      33.497  36.327  29.773  1.00  0.00     0.116 C 
BRANCH  27  28
ATOM     28  N   UNL A   1      32.522  36.502  30.839  1.00  0.00    -0.352 N 
ATOM     29  C   UNL A   1      32.501  35.932  32.090  1.00  0.00     0.251 C 
ATOM     30  H   UNL A   1      31.775  37.111  30.636  1.00  0.00     0.163 HD
ATOM     31  O   UNL A   1      31.517  36.046  32.812  1.00  0.00    -0.269 OA
BRANCH  29  32
ATOM     32  C   UNL A   1      33.671  35.155  32.551  1.00  0.00     0.039 A 
ATOM     33  C   UNL A   1      33.493  33.833  32.964  1.00  0.00     0.014 A 
ATOM     34  C   UNL A   1      34.943  35.731  32.555  1.00  0.00     0.014 A 
ATOM     35  C   UNL A   1      34.604  33.065  33.322  1.00  0.00     0.010 A 
ATOM     36  C   UNL A   1      36.054  34.945  32.838  1.00  0.00     0.010 A 
ATOM     37  C   UNL A   1      35.896  33.606  33.229  1.00  0.00    -0.014 A 
BRANCH  37  38
ATOM     38  C   UNL A   1      37.107  32.812  33.561  1.00  0.00     0.031 A 
ATOM     39  C   UNL A   1      37.837  33.077  34.849  1.00  0.00     0.074 A 
ATOM     40  C   UNL A   1      37.598  31.924  32.675  1.00  0.00     0.049 A 
ATOM     41  N   UNL A   1      38.983  32.602  35.263  1.00  0.00    -0.248 NA
ATOM     42  C   UNL A   1      37.206  34.025  35.782  1.00  0.00     0.031 C 
ATOM     43  C   UNL A   1      36.995  31.584  31.385  1.00  0.00     0.029 A 
ATOM     44  N   UNL A   1      38.733  31.153  32.723  1.00  0.00    -0.354 N 
ATOM     45  C   UNL A   1      39.221  33.212  36.489  1.00  0.00     0.074 A 
ATOM     46  C   UNL A   1      38.127  34.126  36.728  1.00  0.00     0.031 C 
ATOM     47  C   UNL A   1      37.757  30.662  30.773  1.00  0.00     0.029 A 
ATOM     48  C   UNL A   1      38.926  30.383  31.601  1.00  0.00     0.049 A 
ATOM     49  H   UNL A   1      39.352  31.152  33.490  1.00  0.00     0.167 HD
ATOM     50  C   UNL A   1      40.249  33.016  37.348  1.00  0.00     0.031 A 
ATOM     51  C   UNL A   1      39.939  29.560  31.269  1.00  0.00     0.031 A 
ATOM     52  C   UNL A   1      41.331  32.098  37.115  1.00  0.00     0.049 A 
ATOM     53  C   UNL A   1      41.090  29.388  32.224  1.00  0.00     0.074 A 
ATOM     54  C   UNL A   1      42.398  31.797  37.942  1.00  0.00     0.029 A 
ATOM     55  N   UNL A   1      41.480  31.332  35.969  1.00  0.00    -0.354 N 
ATOM     56  N   UNL A   1      41.278  29.937  33.399  1.00  0.00    -0.248 NA
ATOM     57  C   UNL A   1      42.166  28.476  31.807  1.00  0.00     0.031 C 
ATOM     58  C   UNL A   1      43.223  30.887  37.274  1.00  0.00     0.029 A 
ATOM     59  C   UNL A   1      42.633  30.572  36.060  1.00  0.00     0.049 A 
ATOM     60  H   UNL A   1      40.860  31.329  35.205  1.00  0.00     0.167 HD
ATOM     61  C   UNL A   1      42.468  29.405  33.881  1.00  0.00     0.074 A 
ATOM     62  C   UNL A   1      42.956  28.488  32.872  1.00  0.00     0.031 C 
ATOM     63  C   UNL A   1      43.094  29.648  35.056  1.00  0.00     0.031 A 
BRANCH  50  64
ATOM     64  C   UNL A   1      40.255  33.820  38.618  1.00  0.00    -0.014 A 
ATOM     65  C   UNL A   1      39.637  33.345  39.785  1.00  0.00     0.009 A 
ATOM     66  C   UNL A   1      40.920  35.057  38.659  1.00  0.00     0.009 A 
ATOM     67  C   UNL A   1      39.648  34.108  40.954  1.00  0.00     0.001 A 
ATOM     68  C   UNL A   1      40.959  35.802  39.838  1.00  0.00     0.001 A 
ATOM     69  C   UNL A   1      40.314  35.333  40.981  1.00  0.00     0.000 A 
ENDBRANCH  50  64
BRANCH  51  70
ATOM     70  C   UNL A   1      39.915  28.824  29.976  1.00  0.00    -0.014 A 
ATOM     71  C   UNL A   1      40.403  29.426  28.807  1.00  0.00     0.009 A 
ATOM     72  C   UNL A   1      39.385  27.526  29.899  1.00  0.00     0.009 A 
ATOM     73  C   UNL A   1      40.332  28.757  27.582  1.00  0.00     0.001 A 
ATOM     74  C   UNL A   1      39.346  26.847  28.680  1.00  0.00     0.001 A 
ATOM     75  C   UNL A   1      39.808  27.468  27.521  1.00  0.00     0.000 A 
ENDBRANCH  51  70
BRANCH  63  76
ATOM     76  C   UNL A   1      44.343  28.869  35.358  1.00  0.00    -0.014 A 
ATOM     77  C   UNL A   1      45.616  29.363  35.034  1.00  0.00     0.009 A 
ATOM     78  C   UNL A   1      44.241  27.650  36.050  1.00  0.00     0.009 A 
ATOM     79  C   UNL A   1      46.760  28.640  35.380  1.00  0.00     0.001 A 
ATOM     80  C   UNL A   1      45.387  26.947  36.422  1.00  0.00     0.001 A 
ATOM     81  C   UNL A   1      46.645  27.439  36.081  1.00  0.00     0.000 A 
ENDBRANCH  63  76
ENDBRANCH  37  38
ENDBRANCH  29  32
ENDBRANCH  27  28
ENDBRANCH  26  27
ENDBRANCH  25  26
ENDBRANCH  24  25
ENDBRANCH   1  24
TORSDOF 17
ENDMDL
MODEL 2
REMARK VINA RESULT:     -10.5      2.275      6.946
REMARK SMILES CC(C)COc1cccc(N2C[C@@H](C(=O)NCCCCCCNC(=O)c3ccc(-c4c5nc(c(-c6ccccc6)c6ccc([nH]6)c(-c6ccccc6)c6nc(c(-c7ccccc7)c7ccc4[nH]7)C=C6)C=C5)cc3)CC2=O)c1
REMARK SMILES IDX 18 1 17 2 16 3 14 4 15 5 13 7 11 8 12 9 75 10 74 11 76 12
REMARK SMILES IDX 10 13 6 14 7 15 77 16 8 17 9 18 5 19 4 20 2 21 1 22 3 23
REMARK SMILES IDX 19 24 20 25 21 26 22 27 23 28 24 29 25 31 26 32 27 33 73 34
REMARK SMILES IDX 28 35 72 36 29 37 30 38 31 39 66 40 32 41 71 42 65 43 67 44
REMARK SMILES IDX 33 45 70 46 64 47 63 48 34 50 56 51 41 52 55 53 42 54 45 55
REMARK SMILES IDX 54 56 68 57 43 58 44 59 53 61 69 62 46 63 35 64 36 65 40 66
REMARK SMILES IDX 37 67 39 68 38 69 57 70 58 71 62 72 59 73 61 74 60 75 47 76
REMARK SMILES IDX 48 77 52 78 49 79 51 80 50 81
REMARK H PARENT 16 6 23 30 67 49 45 60
REMARK Flexibility Score: inf
ROOT
ATOM      1  C   UNL A   1      32.612  27.794  25.782  1.00  0.00     0.021 C 
ENDROOT
BRANCH   1   2
ATOM      2  C   UNL A   1      31.750  26.547  26.000  1.00  0.00     0.116 C 
BRANCH   2   3
ATOM      3  N   UNL A   1      30.444  26.685  25.380  1.00  0.00    -0.356 N 
ATOM      4  C   UNL A   1      29.866  26.081  24.313  1.00  0.00     0.225 C 
ATOM      5  O   UNL A   1      28.714  26.427  24.033  1.00  0.00    -0.275 OA
ATOM      6  H   UNL A   1      29.865  27.346  25.823  1.00  0.00     0.163 HD
BRANCH   4   7
ATOM      7  C   UNL A   1      30.538  25.004  23.488  1.00  0.00     0.107 C 
ATOM      8  N   UNL A   1      32.205  23.359  23.735  1.00  0.00    -0.311 N 
ATOM      9  C   UNL A   1      30.959  23.805  24.315  1.00  0.00     0.139 C 
ATOM     10  C   UNL A   1      32.723  24.291  22.833  1.00  0.00     0.227 C 
ATOM     11  C   UNL A   1      31.765  25.443  22.712  1.00  0.00     0.116 C 
ATOM     12  O   UNL A   1      33.780  24.254  22.218  1.00  0.00    -0.274 OA
BRANCH   8  13
ATOM     13  C   UNL A   1      32.906  22.244  24.265  1.00  0.00     0.047 A 
ATOM     14  C   UNL A   1      32.933  19.866  24.698  1.00  0.00     0.121 A 
ATOM     15  C   UNL A   1      34.305  19.883  24.906  1.00  0.00     0.046 A 
ATOM     16  C   UNL A   1      32.230  21.050  24.512  1.00  0.00     0.072 A 
ATOM     17  C   UNL A   1      34.987  21.094  24.806  1.00  0.00     0.006 A 
ATOM     18  C   UNL A   1      34.298  22.259  24.436  1.00  0.00     0.026 A 
BRANCH  14  19
ATOM     19  O   UNL A   1      32.242  18.688  24.660  1.00  0.00    -0.493 OA
BRANCH  19  20
ATOM     20  C   UNL A   1      32.891  17.664  25.448  1.00  0.00     0.232 C 
BRANCH  20  21
ATOM     21  C   UNL A   1      33.415  16.465  24.614  1.00  0.00     0.020 C 
ATOM     22  C   UNL A   1      33.735  16.842  23.156  1.00  0.00     0.011 C 
ATOM     23  C   UNL A   1      34.692  15.894  25.236  1.00  0.00     0.011 C 
ENDBRANCH  20  21
ENDBRANCH  19  20
ENDBRANCH  14  19
ENDBRANCH   8  13
ENDBRANCH   4   7
ENDBRANCH   2   3
ENDBRANCH   1   2
BRANCH   1  24
ATOM     24  C   UNL A   1      31.828  29.109  25.650  1.00  0.00     0.002 C 
BRANCH  24  25
ATOM     25  C   UNL A   1      31.716  29.946  26.929  1.00  0.00     0.002 C 
BRANCH  25  26
ATOM     26  C   UNL A   1      31.642  31.458  26.715  1.00  0.00     0.021 C 
BRANCH  26  27
ATOM     27  C   UNL A   1      32.866  32.230  27.194  1.00  0.00     0.116 C 
BRANCH  27  28
ATOM     28  N   UNL A   1      32.539  33.583  27.617  1.00  0.00    -0.352 N 
ATOM     29  C   UNL A   1      33.176  34.374  28.544  1.00  0.00     0.251 C 
ATOM     30  H   UNL A   1      31.755  33.988  27.181  1.00  0.00     0.163 HD
ATOM     31  O   UNL A   1      32.675  35.429  28.915  1.00  0.00    -0.269 OA
BRANCH  29  32
ATOM     32  C   UNL A   1      34.466  33.927  29.112  1.00  0.00     0.039 A 
ATOM     33  C   UNL A   1      34.469  33.153  30.274  1.00  0.00     0.014 A 
ATOM     34  C   UNL A   1      35.667  34.261  28.483  1.00  0.00     0.014 A 
ATOM     35  C   UNL A   1      35.677  32.656  30.771  1.00  0.00     0.010 A 
ATOM     36  C   UNL A   1      36.858  33.704  28.934  1.00  0.00     0.010 A 
ATOM     37  C   UNL A   1      36.877  32.901  30.085  1.00  0.00    -0.014 A 
BRANCH  37  38
ATOM     38  C   UNL A   1      38.177  32.358  30.556  1.00  0.00     0.031 A 
ATOM     39  C   UNL A   1      38.706  31.082  29.960  1.00  0.00     0.074 A 
ATOM     40  C   UNL A   1      38.833  32.955  31.569  1.00  0.00     0.049 A 
ATOM     41  N   UNL A   1      39.738  30.366  30.324  1.00  0.00    -0.248 NA
ATOM     42  C   UNL A   1      37.955  30.522  28.825  1.00  0.00     0.031 C 
ATOM     43  C   UNL A   1      38.421  34.188  32.242  1.00  0.00     0.029 A 
ATOM     44  N   UNL A   1      39.986  32.591  32.221  1.00  0.00    -0.354 N 
ATOM     45  C   UNL A   1      39.746  29.262  29.479  1.00  0.00     0.074 A 
ATOM     46  C   UNL A   1      38.588  29.377  28.620  1.00  0.00     0.031 C 
ATOM     47  C   UNL A   1      39.315  34.486  33.199  1.00  0.00     0.029 A 
ATOM     48  C   UNL A   1      40.334  33.442  33.243  1.00  0.00     0.049 A 
ATOM     49  H   UNL A   1      40.513  31.795  31.979  1.00  0.00     0.167 HD
ATOM     50  C   UNL A   1      40.644  28.252  29.412  1.00  0.00     0.031 A 
ATOM     51  C   UNL A   1      41.349  33.378  34.126  1.00  0.00     0.031 A 
ATOM     52  C   UNL A   1      41.801  28.144  30.259  1.00  0.00     0.049 A 
ATOM     53  C   UNL A   1      42.313  32.224  34.055  1.00  0.00     0.074 A 
ATOM     54  C   UNL A   1      42.794  27.181  30.242  1.00  0.00     0.029 A 
ATOM     55  N   UNL A   1      42.120  29.033  31.273  1.00  0.00    -0.354 N 
ATOM     56  N   UNL A   1      42.332  31.212  33.223  1.00  0.00    -0.248 NA
ATOM     57  C   UNL A   1      43.401  32.208  35.045  1.00  0.00     0.031 C 
ATOM     58  C   UNL A   1      43.686  27.457  31.282  1.00  0.00     0.029 A 
ATOM     59  C   UNL A   1      43.285  28.630  31.902  1.00  0.00     0.049 A 
ATOM     60  H   UNL A   1      41.596  29.832  31.512  1.00  0.00     0.167 HD
ATOM     61  C   UNL A   1      43.454  30.465  33.558  1.00  0.00     0.074 A 
ATOM     62  C   UNL A   1      44.092  31.141  34.668  1.00  0.00     0.031 C 
ATOM     63  C   UNL A   1      43.918  29.326  32.992  1.00  0.00     0.031 A 
BRANCH  50  64
ATOM     64  C   UNL A   1      40.402  27.175  28.391  1.00  0.00    -0.014 A 
ATOM     65  C   UNL A   1      40.949  27.258  27.101  1.00  0.00     0.009 A 
ATOM     66  C   UNL A   1      39.646  26.043  28.735  1.00  0.00     0.009 A 
ATOM     67  C   UNL A   1      40.711  26.251  26.164  1.00  0.00     0.001 A 
ATOM     68  C   UNL A   1      39.437  25.021  27.807  1.00  0.00     0.001 A 
ATOM     69  C   UNL A   1      39.959  25.131  26.520  1.00  0.00     0.000 A 
ENDBRANCH  50  64
BRANCH  51  70
ATOM     70  C   UNL A   1      41.517  34.440  35.153  1.00  0.00    -0.014 A 
ATOM     71  C   UNL A   1      40.869  34.339  36.394  1.00  0.00     0.009 A 
ATOM     72  C   UNL A   1      42.309  35.571  34.893  1.00  0.00     0.009 A 
ATOM     73  C   UNL A   1      40.983  35.362  37.339  1.00  0.00     0.001 A 
ATOM     74  C   UNL A   1      42.448  36.575  35.854  1.00  0.00     0.001 A 
ATOM     75  C   UNL A   1      41.775  36.475  37.070  1.00  0.00     0.000 A 
ENDBRANCH  51  70
BRANCH  63  76
ATOM     76  C   UNL A   1      45.212  28.764  33.510  1.00  0.00    -0.014 A 
ATOM     77  C   UNL A   1      46.451  29.184  33.004  1.00  0.00     0.009 A 
ATOM     78  C   UNL A   1      45.186  27.854  34.579  1.00  0.00     0.009 A 
ATOM     79  C   UNL A   1      47.638  28.686  33.547  1.00  0.00     0.001 A 
ATOM     80  C   UNL A   1      46.373  27.382  35.140  1.00  0.00     0.001 A 
ATOM     81  C   UNL A   1      47.598  27.793  34.620  1.00  0.00     0.000 A 
ENDBRANCH  63  76
ENDBRANCH  37  38
ENDBRANCH  29  32
ENDBRANCH  27  28
ENDBRANCH  26  27
ENDBRANCH  25  26
ENDBRANCH  24  25
ENDBRANCH   1  24
TORSDOF 17
ENDMDL
MODEL 3
REMARK VINA RESULT:     -10.5      5.914     10.861
REMARK SMILES CC(C)COc1cccc(N2C[C@@H](C(=O)NCCCCCCNC(=O)c3ccc(-c4c5nc(c(-c6ccccc6)c6ccc([nH]6)c(-c6ccccc6)c6nc(c(-c7ccccc7)c7ccc4[nH]7)C=C6)C=C5)cc3)CC2=O)c1
REMARK SMILES IDX 18 1 17 2 16 3 14 4 15 5 13 7 11 8 12 9 75 10 74 11 76 12
REMARK SMILES IDX 10 13 6 14 7 15 77 16 8 17 9 18 5 19 4 20 2 21 1 22 3 23
REMARK SMILES IDX 19 24 20 25 21 26 22 27 23 28 24 29 25 31 26 32 27 33 73 34
REMARK SMILES IDX 28 35 72 36 29 37 30 38 31 39 66 40 32 41 71 42 65 43 67 44
REMARK SMILES IDX 33 45 70 46 64 47 63 48 34 50 56 51 41 52 55 53 42 54 45 55
REMARK SMILES IDX 54 56 68 57 43 58 44 59 53 61 69 62 46 63 35 64 36 65 40 66
REMARK SMILES IDX 37 67 39 68 38 69 57 70 58 71 62 72 59 73 61 74 60 75 47 76
REMARK SMILES IDX 48 77 52 78 49 79 51 80 50 81
REMARK H PARENT 16 6 23 30 67 49 45 60
REMARK Flexibility Score: inf
ROOT
ATOM      1  C   UNL A   1      34.323  20.438  25.077  1.00  0.00     0.021 C 
ENDROOT
BRANCH   1   2
ATOM      2  C   UNL A   1      33.645  20.946  26.353  1.00  0.00     0.116 C 
BRANCH   2   3
ATOM      3  N   UNL A   1      32.299  21.424  26.089  1.00  0.00    -0.356 N 
ATOM      4  C   UNL A   1      31.814  22.621  25.675  1.00  0.00     0.225 C 
ATOM      5  O   UNL A   1      30.590  22.712  25.543  1.00  0.00    -0.275 OA
ATOM      6  H   UNL A   1      31.602  20.746  26.241  1.00  0.00     0.163 HD
BRANCH   4   7
ATOM      7  C   UNL A   1      32.687  23.813  25.342  1.00  0.00     0.107 C 
ATOM      8  N   UNL A   1      32.470  25.969  24.421  1.00  0.00    -0.311 N 
ATOM      9  C   UNL A   1      31.957  25.135  25.483  1.00  0.00     0.139 C 
ATOM     10  C   UNL A   1      33.219  25.237  23.497  1.00  0.00     0.227 C 
ATOM     11  C   UNL A   1      33.302  23.807  23.956  1.00  0.00     0.116 C 
ATOM     12  O   UNL A   1      33.741  25.619  22.459  1.00  0.00    -0.274 OA
BRANCH   8  13
ATOM     13  C   UNL A   1      32.001  27.296  24.236  1.00  0.00     0.047 A 
ATOM     14  C   UNL A   1      30.476  28.783  23.093  1.00  0.00     0.121 A 
ATOM     15  C   UNL A   1      30.691  29.784  24.030  1.00  0.00     0.046 A 
ATOM     16  C   UNL A   1      31.220  27.610  23.125  1.00  0.00     0.072 A 
ATOM     17  C   UNL A   1      31.582  29.546  25.076  1.00  0.00     0.006 A 
ATOM     18  C   UNL A   1      32.192  28.290  25.207  1.00  0.00     0.026 A 
BRANCH  14  19
ATOM     19  O   UNL A   1      29.521  28.920  22.125  1.00  0.00    -0.493 OA
BRANCH  19  20
ATOM     20  C   UNL A   1      28.203  29.084  22.697  1.00  0.00     0.232 C 
BRANCH  20  21
ATOM     21  C   UNL A   1      27.543  30.450  22.372  1.00  0.00     0.020 C 
ATOM     22  C   UNL A   1      27.590  31.437  23.553  1.00  0.00     0.011 C 
ATOM     23  C   UNL A   1      28.241  31.118  21.184  1.00  0.00     0.011 C 
ENDBRANCH  20  21
ENDBRANCH  19  20
ENDBRANCH  14  19
ENDBRANCH   8  13
ENDBRANCH   4   7
ENDBRANCH   2   3
ENDBRANCH   1   2
BRANCH   1  24
ATOM     24  C   UNL A   1      35.838  20.686  25.006  1.00  0.00     0.002 C 
BRANCH  24  25
ATOM     25  C   UNL A   1      36.716  19.430  24.988  1.00  0.00     0.002 C 
BRANCH  25  26
ATOM     26  C   UNL A   1      38.187  19.668  24.650  1.00  0.00     0.021 C 
BRANCH  26  27
ATOM     27  C   UNL A   1      39.091  19.897  25.856  1.00  0.00     0.116 C 
BRANCH  27  28
ATOM     28  N   UNL A   1      40.245  19.012  25.863  1.00  0.00    -0.352 N 
ATOM     29  C   UNL A   1      41.568  19.322  26.070  1.00  0.00     0.251 C 
ATOM     30  H   UNL A   1      40.053  18.060  25.696  1.00  0.00     0.163 HD
ATOM     31  O   UNL A   1      42.444  18.487  25.873  1.00  0.00    -0.269 OA
BRANCH  29  32
ATOM     32  C   UNL A   1      41.931  20.685  26.511  1.00  0.00     0.039 A 
ATOM     33  C   UNL A   1      42.058  20.951  27.876  1.00  0.00     0.014 A 
ATOM     34  C   UNL A   1      42.162  21.692  25.571  1.00  0.00     0.014 A 
ATOM     35  C   UNL A   1      42.482  22.213  28.298  1.00  0.00     0.010 A 
ATOM     36  C   UNL A   1      42.656  22.923  25.988  1.00  0.00     0.010 A 
ATOM     37  C   UNL A   1      42.816  23.198  27.355  1.00  0.00    -0.014 A 
BRANCH  37  38
ATOM     38  C   UNL A   1      43.309  24.540  27.761  1.00  0.00     0.031 A 
ATOM     39  C   UNL A   1      42.321  25.605  28.150  1.00  0.00     0.074 A 
ATOM     40  C   UNL A   1      44.624  24.826  27.696  1.00  0.00     0.049 A 
ATOM     41  N   UNL A   1      42.528  26.873  28.397  1.00  0.00    -0.248 NA
ATOM     42  C   UNL A   1      40.911  25.195  28.245  1.00  0.00     0.031 C 
ATOM     43  C   UNL A   1      45.683  23.888  27.320  1.00  0.00     0.029 A 
ATOM     44  N   UNL A   1      45.291  26.003  27.930  1.00  0.00    -0.354 N 
ATOM     45  C   UNL A   1      41.273  27.415  28.651  1.00  0.00     0.074 A 
ATOM     46  C   UNL A   1      40.309  26.351  28.480  1.00  0.00     0.031 C 
ATOM     47  C   UNL A   1      46.867  24.521  27.366  1.00  0.00     0.029 A 
ATOM     48  C   UNL A   1      46.648  25.919  27.724  1.00  0.00     0.049 A 
ATOM     49  H   UNL A   1      44.840  26.830  28.219  1.00  0.00     0.167 HD
ATOM     50  C   UNL A   1      40.953  28.679  29.012  1.00  0.00     0.031 A 
ATOM     51  C   UNL A   1      47.603  26.865  27.797  1.00  0.00     0.031 A 
ATOM     52  C   UNL A   1      41.913  29.733  29.193  1.00  0.00     0.049 A 
ATOM     53  C   UNL A   1      47.217  28.273  28.163  1.00  0.00     0.074 A 
ATOM     54  C   UNL A   1      41.694  31.038  29.597  1.00  0.00     0.029 A 
ATOM     55  N   UNL A   1      43.277  29.601  28.983  1.00  0.00    -0.354 N 
ATOM     56  N   UNL A   1      46.033  28.760  28.443  1.00  0.00    -0.248 NA
ATOM     57  C   UNL A   1      48.303  29.263  28.227  1.00  0.00     0.031 C 
ATOM     58  C   UNL A   1      42.919  31.711  29.581  1.00  0.00     0.029 A 
ATOM     59  C   UNL A   1      43.909  30.807  29.231  1.00  0.00     0.049 A 
ATOM     60  H   UNL A   1      43.729  28.774  28.699  1.00  0.00     0.167 HD
ATOM     61  C   UNL A   1      46.236  30.096  28.761  1.00  0.00     0.074 A 
ATOM     62  C   UNL A   1      47.657  30.345  28.640  1.00  0.00     0.031 C 
ATOM     63  C   UNL A   1      45.328  31.032  29.126  1.00  0.00     0.031 A 
BRANCH  50  64
ATOM     64  C   UNL A   1      39.498  28.993  29.225  1.00  0.00    -0.014 A 
ATOM     65  C   UNL A   1      38.705  29.509  28.188  1.00  0.00     0.009 A 
ATOM     66  C   UNL A   1      38.902  28.736  30.469  1.00  0.00     0.009 A 
ATOM     67  C   UNL A   1      37.357  29.800  28.404  1.00  0.00     0.001 A 
ATOM     68  C   UNL A   1      37.546  28.995  30.674  1.00  0.00     0.001 A 
ATOM     69  C   UNL A   1      36.777  29.537  29.646  1.00  0.00     0.000 A 
ENDBRANCH  50  64
BRANCH  51  70
ATOM     70  C   UNL A   1      49.024  26.519  27.526  1.00  0.00    -0.014 A 
ATOM     71  C   UNL A   1      49.563  26.679  26.240  1.00  0.00     0.009 A 
ATOM     72  C   UNL A   1      49.844  26.006  28.544  1.00  0.00     0.009 A 
ATOM     73  C   UNL A   1      50.882  26.304  25.972  1.00  0.00     0.001 A 
ATOM     74  C   UNL A   1      51.172  25.664  28.280  1.00  0.00     0.001 A 
ATOM     75  C   UNL A   1      51.686  25.801  26.992  1.00  0.00     0.000 A 
ENDBRANCH  51  70
BRANCH  63  76
ATOM     76  C   UNL A   1      45.838  32.398  29.491  1.00  0.00    -0.014 A 
ATOM     77  C   UNL A   1      45.928  33.427  28.542  1.00  0.00     0.009 A 
ATOM     78  C   UNL A   1      46.161  32.675  30.830  1.00  0.00     0.009 A 
ATOM     79  C   UNL A   1      46.351  34.701  28.926  1.00  0.00     0.001 A 
ATOM     80  C   UNL A   1      46.554  33.957  31.215  1.00  0.00     0.001 A 
ATOM     81  C   UNL A   1      46.655  34.968  30.262  1.00  0.00     0.000 A 
ENDBRANCH  63  76
ENDBRANCH  37  38
ENDBRANCH  29  32
ENDBRANCH  27  28
ENDBRANCH  26  27
ENDBRANCH  25  26
ENDBRANCH  24  25
ENDBRANCH   1  24
TORSDOF 17
ENDMDL
