MODEL 1
REMARK VINA RESULT:     -10.9      0.000      0.000
REMARK SMILES C[C@@H](C(=O)NCCCCCCNC(=O)c1ccc(-c2c3nc(c(-c4ccccc4)c4ccc([nH]4)c(-c4ccccc4)c4nc(c(-c5ccccc5)c5ccc2[nH]5)C=C4)C=C3)cc1)c1ccc(Cc2ccco2)cc1F
REMARK SMILES IDX 8 1 7 2 6 3 5 4 3 5 4 6 2 8 1 9 63 10 64 11 74 12 65 13
REMARK SMILES IDX 73 14 75 15 66 16 67 17 68 18 69 19 72 20 70 21 71 22 9 23
REMARK SMILES IDX 10 24 11 25 12 26 13 27 14 29 15 30 16 31 62 32 17 33 61 34
REMARK SMILES IDX 18 35 19 36 20 37 55 38 21 39 60 40 54 41 56 42 22 43 59 44
REMARK SMILES IDX 53 45 52 46 23 48 45 49 30 50 44 51 31 52 34 53 43 54 57 55
REMARK SMILES IDX 32 56 33 57 42 59 58 60 35 61 24 62 25 63 29 64 26 65 28 66
REMARK SMILES IDX 27 67 46 68 47 69 51 70 48 71 50 72 49 73 36 74 37 75 41 76
REMARK SMILES IDX 38 77 40 78 39 79
REMARK H PARENT 5 7 12 28 56 47 34 58
REMARK Flexibility Score: inf
ROOT
ATOM      1  C   UNL A   1      32.332  28.679  26.623  1.00  0.00     0.002 C 
ENDROOT
BRANCH   1   2
ATOM      2  C   UNL A   1      33.791  28.291  26.352  1.00  0.00     0.021 C 
BRANCH   2   3
ATOM      3  C   UNL A   1      33.948  26.989  25.553  1.00  0.00     0.116 C 
BRANCH   3   4
ATOM      4  N   UNL A   1      34.003  27.291  24.137  1.00  0.00    -0.356 N 
ATOM      5  C   UNL A   1      33.448  26.562  23.117  1.00  0.00     0.227 C 
ATOM      6  O   UNL A   1      34.066  26.519  22.053  1.00  0.00    -0.274 OA
ATOM      7  H   UNL A   1      34.491  28.105  23.879  1.00  0.00     0.163 HD
BRANCH   5   8
ATOM      8  C   UNL A   1      32.130  25.820  23.378  1.00  0.00     0.108 C 
ATOM      9  C   UNL A   1      32.126  24.580  22.463  1.00  0.00     0.023 C 
BRANCH   8  10
ATOM     10  C   UNL A   1      30.863  26.656  23.188  1.00  0.00    -0.000 A 
ATOM     11  C   UNL A   1      30.896  27.812  22.390  1.00  0.00     0.008 A 
ATOM     12  C   UNL A   1      29.628  26.321  23.753  1.00  0.00     0.127 A 
ATOM     13  C   UNL A   1      29.798  28.669  22.307  1.00  0.00     0.005 A 
ATOM     14  C   UNL A   1      28.541  27.199  23.718  1.00  0.00     0.043 A 
ATOM     15  F   UNL A   1      29.440  25.128  24.336  1.00  0.00    -0.207 F 
ATOM     16  C   UNL A   1      28.634  28.417  23.037  1.00  0.00    -0.038 A 
BRANCH  16  17
ATOM     17  C   UNL A   1      27.498  29.417  23.061  1.00  0.00     0.111 C 
BRANCH  17  18
ATOM     18  C   UNL A   1      27.929  30.838  22.863  1.00  0.00     0.108 A 
ATOM     19  C   UNL A   1      28.501  31.798  23.677  1.00  0.00     0.046 A 
ATOM     20  O   UNL A   1      27.786  31.344  21.600  1.00  0.00    -0.469 OA
ATOM     21  C   UNL A   1      28.700  32.947  22.878  1.00  0.00     0.042 A 
ATOM     22  C   UNL A   1      28.253  32.618  21.622  1.00  0.00     0.195 A 
ENDBRANCH  17  18
ENDBRANCH  16  17
ENDBRANCH   8  10
ENDBRANCH   5   8
ENDBRANCH   3   4
ENDBRANCH   2   3
ENDBRANCH   1   2
BRANCH   1  23
ATOM     23  C   UNL A   1      31.771  29.746  25.680  1.00  0.00     0.002 C 
BRANCH  23  24
ATOM     24  C   UNL A   1      31.434  31.074  26.359  1.00  0.00     0.021 C 
BRANCH  24  25
ATOM     25  C   UNL A   1      32.633  31.760  27.002  1.00  0.00     0.116 C 
BRANCH  25  26
ATOM     26  N   UNL A   1      32.351  33.150  27.327  1.00  0.00    -0.352 N 
ATOM     27  C   UNL A   1      33.028  33.985  28.179  1.00  0.00     0.251 C 
ATOM     28  H   UNL A   1      31.570  33.544  26.874  1.00  0.00     0.163 HD
ATOM     29  O   UNL A   1      32.548  35.064  28.513  1.00  0.00    -0.269 OA
BRANCH  27  30
ATOM     30  C   UNL A   1      34.339  33.561  28.707  1.00  0.00     0.039 A 
ATOM     31  C   UNL A   1      34.395  32.837  29.900  1.00  0.00     0.014 A 
ATOM     32  C   UNL A   1      35.509  33.868  28.007  1.00  0.00     0.014 A 
ATOM     33  C   UNL A   1      35.626  32.373  30.365  1.00  0.00     0.010 A 
ATOM     34  C   UNL A   1      36.721  33.335  28.428  1.00  0.00     0.010 A 
ATOM     35  C   UNL A   1      36.794  32.594  29.618  1.00  0.00    -0.014 A 
BRANCH  35  36
ATOM     36  C   UNL A   1      38.114  32.092  30.068  1.00  0.00     0.031 A 
ATOM     37  C   UNL A   1      38.631  30.782  29.542  1.00  0.00     0.074 A 
ATOM     38  C   UNL A   1      38.808  32.765  31.006  1.00  0.00     0.049 A 
ATOM     39  N   UNL A   1      39.700  30.114  29.889  1.00  0.00    -0.248 NA
ATOM     40  C   UNL A   1      37.816  30.120  28.510  1.00  0.00     0.031 C 
ATOM     41  C   UNL A   1      38.404  34.033  31.616  1.00  0.00     0.029 A 
ATOM     42  N   UNL A   1      39.999  32.463  31.619  1.00  0.00    -0.354 N 
ATOM     43  C   UNL A   1      39.673  28.945  29.139  1.00  0.00     0.074 A 
ATOM     44  C   UNL A   1      38.454  28.969  28.362  1.00  0.00     0.031 C 
ATOM     45  C   UNL A   1      39.340  34.410  32.502  1.00  0.00     0.029 A 
ATOM     46  C   UNL A   1      40.384  33.391  32.557  1.00  0.00     0.049 A 
ATOM     47  H   UNL A   1      40.526  31.660  31.407  1.00  0.00     0.167 HD
ATOM     48  C   UNL A   1      40.587  27.948  29.087  1.00  0.00     0.031 A 
ATOM     49  C   UNL A   1      41.449  33.410  33.380  1.00  0.00     0.031 A 
ATOM     50  C   UNL A   1      41.801  27.929  29.858  1.00  0.00     0.049 A 
ATOM     51  C   UNL A   1      42.440  32.280  33.325  1.00  0.00     0.074 A 
ATOM     52  C   UNL A   1      42.819  26.993  29.841  1.00  0.00     0.029 A 
ATOM     53  N   UNL A   1      42.159  28.893  30.789  1.00  0.00    -0.354 N 
ATOM     54  N   UNL A   1      42.431  31.209  32.570  1.00  0.00    -0.248 NA
ATOM     55  C   UNL A   1      43.595  32.369  34.230  1.00  0.00     0.031 C 
ATOM     56  C   UNL A   1      43.764  27.358  30.805  1.00  0.00     0.029 A 
ATOM     57  C   UNL A   1      43.369  28.559  31.373  1.00  0.00     0.049 A 
ATOM     58  H   UNL A   1      41.630  29.696  31.003  1.00  0.00     0.167 HD
ATOM     59  C   UNL A   1      43.594  30.515  32.881  1.00  0.00     0.074 A 
ATOM     60  C   UNL A   1      44.287  31.291  33.888  1.00  0.00     0.031 C 
ATOM     61  C   UNL A   1      44.049  29.343  32.373  1.00  0.00     0.031 A 
BRANCH  48  62
ATOM     62  C   UNL A   1      40.289  26.786  28.180  1.00  0.00    -0.014 A 
ATOM     63  C   UNL A   1      40.783  26.737  26.865  1.00  0.00     0.009 A 
ATOM     64  C   UNL A   1      39.509  25.718  28.649  1.00  0.00     0.009 A 
ATOM     65  C   UNL A   1      40.458  25.669  26.025  1.00  0.00     0.001 A 
ATOM     66  C   UNL A   1      39.217  24.634  27.819  1.00  0.00     0.001 A 
ATOM     67  C   UNL A   1      39.679  24.618  26.503  1.00  0.00     0.000 A 
ENDBRANCH  48  62
BRANCH  49  68
ATOM     68  C   UNL A   1      41.640  34.548  34.318  1.00  0.00    -0.014 A 
ATOM     69  C   UNL A   1      41.117  34.494  35.619  1.00  0.00     0.009 A 
ATOM     70  C   UNL A   1      42.357  35.688  33.923  1.00  0.00     0.009 A 
ATOM     71  C   UNL A   1      41.287  35.568  36.495  1.00  0.00     0.001 A 
ATOM     72  C   UNL A   1      42.551  36.748  34.811  1.00  0.00     0.001 A 
ATOM     73  C   UNL A   1      42.009  36.690  36.093  1.00  0.00     0.000 A 
ENDBRANCH  49  68
BRANCH  61  74
ATOM     74  C   UNL A   1      45.384  28.849  32.858  1.00  0.00    -0.014 A 
ATOM     75  C   UNL A   1      45.492  27.961  33.938  1.00  0.00     0.009 A 
ATOM     76  C   UNL A   1      46.550  29.237  32.177  1.00  0.00     0.009 A 
ATOM     77  C   UNL A   1      46.744  27.496  34.347  1.00  0.00     0.001 A 
ATOM     78  C   UNL A   1      47.796  28.745  32.566  1.00  0.00     0.001 A 
ATOM     79  C   UNL A   1      47.893  27.883  33.656  1.00  0.00     0.000 A 
ENDBRANCH  61  74
ENDBRANCH  35  36
ENDBRANCH  27  30
ENDBRANCH  25  26
ENDBRANCH  24  25
ENDBRANCH  23  24
ENDBRANCH   1  23
TORSDOF 16
ENDMDL
MODEL 2
REMARK VINA RESULT:     -10.8      4.537      9.659
REMARK SMILES C[C@@H](C(=O)NCCCCCCNC(=O)c1ccc(-c2c3nc(c(-c4ccccc4)c4ccc([nH]4)c(-c4ccccc4)c4nc(c(-c5ccccc5)c5ccc2[nH]5)C=C4)C=C3)cc1)c1ccc(Cc2ccco2)cc1F
REMARK SMILES IDX 8 1 7 2 6 3 5 4 3 5 4 6 2 8 1 9 63 10 64 11 74 12 65 13
REMARK SMILES IDX 73 14 75 15 66 16 67 17 68 18 69 19 72 20 70 21 71 22 9 23
REMARK SMILES IDX 10 24 11 25 12 26 13 27 14 29 15 30 16 31 62 32 17 33 61 34
REMARK SMILES IDX 18 35 19 36 20 37 55 38 21 39 60 40 54 41 56 42 22 43 59 44
REMARK SMILES IDX 53 45 52 46 23 48 45 49 30 50 44 51 31 52 34 53 43 54 57 55
REMARK SMILES IDX 32 56 33 57 42 59 58 60 35 61 24 62 25 63 29 64 26 65 28 66
REMARK SMILES IDX 27 67 46 68 47 69 51 70 48 71 50 72 49 73 36 74 37 75 41 76
REMARK SMILES IDX 38 77 40 78 39 79
REMARK H PARENT 5 7 12 28 56 47 34 58
REMARK Flexibility Score: inf
ROOT
ATOM      1  C   UNL A   1      36.761  22.057  25.104  1.00  0.00     0.002 C 
ENDROOT
BRANCH   1   2
ATOM      2  C   UNL A   1      35.659  22.955  24.526  1.00  0.00     0.021 C 
BRANCH   2   3
ATOM      3  C   UNL A   1      35.179  24.047  25.491  1.00  0.00     0.116 C 
BRANCH   3   4
ATOM      4  N   UNL A   1      34.309  23.464  26.493  1.00  0.00    -0.356 N 
ATOM      5  C   UNL A   1      32.939  23.409  26.465  1.00  0.00     0.227 C 
ATOM      6  O   UNL A   1      32.348  23.516  27.540  1.00  0.00    -0.274 OA
ATOM      7  H   UNL A   1      34.748  23.064  27.278  1.00  0.00     0.163 HD
BRANCH   5   8
ATOM      8  C   UNL A   1      32.238  23.264  25.107  1.00  0.00     0.108 C 
ATOM      9  C   UNL A   1      30.805  23.802  25.284  1.00  0.00     0.023 C 
BRANCH   8  10
ATOM     10  C   UNL A   1      32.234  21.849  24.525  1.00  0.00    -0.000 A 
ATOM     11  C   UNL A   1      32.347  20.737  25.376  1.00  0.00     0.008 A 
ATOM     12  C   UNL A   1      32.094  21.579  23.159  1.00  0.00     0.127 A 
ATOM     13  C   UNL A   1      32.484  19.445  24.869  1.00  0.00     0.005 A 
ATOM     14  C   UNL A   1      32.282  20.295  22.640  1.00  0.00     0.043 A 
ATOM     15  F   UNL A   1      31.753  22.550  22.299  1.00  0.00    -0.207 F 
ATOM     16  C   UNL A   1      32.537  19.216  23.492  1.00  0.00    -0.038 A 
BRANCH  16  17
ATOM     17  C   UNL A   1      32.828  17.836  22.943  1.00  0.00     0.111 C 
BRANCH  17  18
ATOM     18  C   UNL A   1      33.552  16.936  23.897  1.00  0.00     0.108 A 
ATOM     19  C   UNL A   1      34.866  16.825  24.312  1.00  0.00     0.046 A 
ATOM     20  O   UNL A   1      32.786  16.026  24.571  1.00  0.00    -0.469 OA
ATOM     21  C   UNL A   1      34.906  15.786  25.271  1.00  0.00     0.042 A 
ATOM     22  C   UNL A   1      33.614  15.336  25.396  1.00  0.00     0.195 A 
ENDBRANCH  17  18
ENDBRANCH  16  17
ENDBRANCH   8  10
ENDBRANCH   5   8
ENDBRANCH   3   4
ENDBRANCH   2   3
ENDBRANCH   1   2
BRANCH   1  23
ATOM     23  C   UNL A   1      36.494  20.556  24.971  1.00  0.00     0.002 C 
BRANCH  23  24
ATOM     24  C   UNL A   1      37.755  19.695  24.904  1.00  0.00     0.021 C 
BRANCH  24  25
ATOM     25  C   UNL A   1      38.931  20.260  25.691  1.00  0.00     0.116 C 
BRANCH  25  26
ATOM     26  N   UNL A   1      40.020  19.302  25.801  1.00  0.00    -0.352 N 
ATOM     27  C   UNL A   1      41.339  19.534  26.097  1.00  0.00     0.251 C 
ATOM     28  H   UNL A   1      39.777  18.360  25.643  1.00  0.00     0.163 HD
ATOM     29  O   UNL A   1      42.180  18.653  25.945  1.00  0.00    -0.269 OA
BRANCH  27  30
ATOM     30  C   UNL A   1      41.740  20.867  26.586  1.00  0.00     0.039 A 
ATOM     31  C   UNL A   1      42.219  21.813  25.677  1.00  0.00     0.014 A 
ATOM     32  C   UNL A   1      41.623  21.181  27.943  1.00  0.00     0.014 A 
ATOM     33  C   UNL A   1      42.532  23.098  26.123  1.00  0.00     0.010 A 
ATOM     34  C   UNL A   1      41.857  22.482  28.369  1.00  0.00     0.010 A 
ATOM     35  C   UNL A   1      42.327  23.450  27.466  1.00  0.00    -0.014 A 
BRANCH  35  36
ATOM     36  C   UNL A   1      42.622  24.813  27.969  1.00  0.00     0.031 A 
ATOM     37  C   UNL A   1      44.020  25.159  28.403  1.00  0.00     0.074 A 
ATOM     38  C   UNL A   1      41.628  25.709  28.115  1.00  0.00     0.049 A 
ATOM     39  N   UNL A   1      44.463  26.249  28.973  1.00  0.00    -0.248 NA
ATOM     40  C   UNL A   1      45.049  24.126  28.196  1.00  0.00     0.031 C 
ATOM     41  C   UNL A   1      40.226  25.488  27.758  1.00  0.00     0.029 A 
ATOM     42  N   UNL A   1      41.647  26.986  28.619  1.00  0.00    -0.354 N 
ATOM     43  C   UNL A   1      45.813  26.024  29.216  1.00  0.00     0.074 A 
ATOM     44  C   UNL A   1      46.101  24.674  28.783  1.00  0.00     0.031 C 
ATOM     45  C   UNL A   1      39.523  26.598  28.035  1.00  0.00     0.029 A 
ATOM     46  C   UNL A   1      40.413  27.590  28.631  1.00  0.00     0.049 A 
ATOM     47  H   UNL A   1      42.466  27.427  28.939  1.00  0.00     0.167 HD
ATOM     48  C   UNL A   1      46.735  26.868  29.736  1.00  0.00     0.031 A 
ATOM     49  C   UNL A   1      40.037  28.800  29.088  1.00  0.00     0.031 A 
ATOM     50  C   UNL A   1      46.446  28.211  30.161  1.00  0.00     0.049 A 
ATOM     51  C   UNL A   1      41.072  29.713  29.685  1.00  0.00     0.074 A 
ATOM     52  C   UNL A   1      47.317  29.166  30.653  1.00  0.00     0.029 A 
ATOM     53  N   UNL A   1      45.185  28.789  30.147  1.00  0.00    -0.354 N 
ATOM     54  N   UNL A   1      42.355  29.508  29.856  1.00  0.00    -0.248 NA
ATOM     55  C   UNL A   1      40.606  31.030  30.142  1.00  0.00     0.031 C 
ATOM     56  C   UNL A   1      46.574  30.300  30.994  1.00  0.00     0.029 A 
ATOM     57  C   UNL A   1      45.251  30.077  30.649  1.00  0.00     0.049 A 
ATOM     58  H   UNL A   1      44.365  28.347  29.829  1.00  0.00     0.167 HD
ATOM     59  C   UNL A   1      42.857  30.681  30.406  1.00  0.00     0.074 A 
ATOM     60  C   UNL A   1      41.740  31.595  30.533  1.00  0.00     0.031 C 
ATOM     61  C   UNL A   1      44.130  30.977  30.767  1.00  0.00     0.031 A 
BRANCH  48  62
ATOM     62  C   UNL A   1      48.137  26.346  29.892  1.00  0.00    -0.014 A 
ATOM     63  C   UNL A   1      49.071  26.431  28.846  1.00  0.00     0.009 A 
ATOM     64  C   UNL A   1      48.534  25.768  31.108  1.00  0.00     0.009 A 
ATOM     65  C   UNL A   1      50.355  25.900  28.998  1.00  0.00     0.001 A 
ATOM     66  C   UNL A   1      49.829  25.272  31.269  1.00  0.00     0.001 A 
ATOM     67  C   UNL A   1      50.733  25.325  30.209  1.00  0.00     0.000 A 
ENDBRANCH  48  62
BRANCH  49  68
ATOM     68  C   UNL A   1      38.616  29.222  28.983  1.00  0.00    -0.014 A 
ATOM     69  C   UNL A   1      38.109  29.721  27.773  1.00  0.00     0.009 A 
ATOM     70  C   UNL A   1      37.754  29.117  30.086  1.00  0.00     0.009 A 
ATOM     71  C   UNL A   1      36.776  30.129  27.679  1.00  0.00     0.001 A 
ATOM     72  C   UNL A   1      36.415  29.497  29.980  1.00  0.00     0.001 A 
ATOM     73  C   UNL A   1      35.930  30.011  28.779  1.00  0.00     0.000 A 
ENDBRANCH  49  68
BRANCH  61  74
ATOM     74  C   UNL A   1      44.400  32.361  31.289  1.00  0.00    -0.014 A 
ATOM     75  C   UNL A   1      44.366  32.650  32.661  1.00  0.00     0.009 A 
ATOM     76  C   UNL A   1      44.752  33.379  30.387  1.00  0.00     0.009 A 
ATOM     77  C   UNL A   1      44.650  33.940  33.117  1.00  0.00     0.001 A 
ATOM     78  C   UNL A   1      45.067  34.657  30.848  1.00  0.00     0.001 A 
ATOM     79  C   UNL A   1      45.007  34.939  32.211  1.00  0.00     0.000 A 
ENDBRANCH  61  74
ENDBRANCH  35  36
ENDBRANCH  27  30
ENDBRANCH  25  26
ENDBRANCH  24  25
ENDBRANCH  23  24
ENDBRANCH   1  23
TORSDOF 16
ENDMDL
MODEL 3
REMARK VINA RESULT:     -10.7      4.470      9.599
REMARK SMILES C[C@@H](C(=O)NCCCCCCNC(=O)c1ccc(-c2c3nc(c(-c4ccccc4)c4ccc([nH]4)c(-c4ccccc4)c4nc(c(-c5ccccc5)c5ccc2[nH]5)C=C4)C=C3)cc1)c1ccc(Cc2ccco2)cc1F
REMARK SMILES IDX 8 1 7 2 6 3 5 4 3 5 4 6 2 8 1 9 63 10 64 11 74 12 65 13
REMARK SMILES IDX 73 14 75 15 66 16 67 17 68 18 69 19 72 20 70 21 71 22 9 23
REMARK SMILES IDX 10 24 11 25 12 26 13 27 14 29 15 30 16 31 62 32 17 33 61 34
REMARK SMILES IDX 18 35 19 36 20 37 55 38 21 39 60 40 54 41 56 42 22 43 59 44
REMARK SMILES IDX 53 45 52 46 23 48 45 49 30 50 44 51 31 52 34 53 43 54 57 55
REMARK SMILES IDX 32 56 33 57 42 59 58 60 35 61 24 62 25 63 29 64 26 65 28 66
REMARK SMILES IDX 27 67 46 68 47 69 51 70 48 71 50 72 49 73 36 74 37 75 41 76
REMARK SMILES IDX 38 77 40 78 39 79
REMARK H PARENT 5 7 12 28 56 47 34 58
REMARK Flexibility Score: inf
ROOT
ATOM      1  C   UNL A   1      36.188  22.372  24.969  1.00  0.00     0.002 C 
ENDROOT
BRANCH   1   2
ATOM      2  C   UNL A   1      35.801  22.972  23.611  1.00  0.00     0.021 C 
BRANCH   2   3
ATOM      3  C   UNL A   1      34.817  24.146  23.711  1.00  0.00     0.116 C 
BRANCH   3   4
ATOM      4  N   UNL A   1      34.364  24.287  25.080  1.00  0.00    -0.356 N 
ATOM      5  C   UNL A   1      33.072  24.450  25.509  1.00  0.00     0.227 C 
ATOM      6  O   UNL A   1      32.890  25.172  26.490  1.00  0.00    -0.274 OA
ATOM      7  H   UNL A   1      35.058  24.264  25.777  1.00  0.00     0.163 HD
BRANCH   5   8
ATOM      8  C   UNL A   1      31.946  23.767  24.720  1.00  0.00     0.108 C 
ATOM      9  C   UNL A   1      30.665  23.896  25.568  1.00  0.00     0.023 C 
BRANCH   8  10
ATOM     10  C   UNL A   1      32.213  22.312  24.332  1.00  0.00    -0.000 A 
ATOM     11  C   UNL A   1      32.161  21.921  22.984  1.00  0.00     0.008 A 
ATOM     12  C   UNL A   1      32.542  21.317  25.259  1.00  0.00     0.127 A 
ATOM     13  C   UNL A   1      32.264  20.581  22.611  1.00  0.00     0.005 A 
ATOM     14  C   UNL A   1      32.596  19.967  24.901  1.00  0.00     0.043 A 
ATOM     15  F   UNL A   1      32.839  21.631  26.529  1.00  0.00    -0.207 F 
ATOM     16  C   UNL A   1      32.399  19.577  23.573  1.00  0.00    -0.038 A 
BRANCH  16  17
ATOM     17  C   UNL A   1      32.368  18.115  23.181  1.00  0.00     0.111 C 
BRANCH  17  18
ATOM     18  C   UNL A   1      33.309  17.251  23.963  1.00  0.00     0.108 A 
ATOM     19  C   UNL A   1      34.672  17.265  24.189  1.00  0.00     0.046 A 
ATOM     20  O   UNL A   1      32.744  16.224  24.667  1.00  0.00    -0.469 OA
ATOM     21  C   UNL A   1      34.954  16.185  25.058  1.00  0.00     0.042 A 
ATOM     22  C   UNL A   1      33.747  15.586  25.322  1.00  0.00     0.195 A 
ENDBRANCH  17  18
ENDBRANCH  16  17
ENDBRANCH   8  10
ENDBRANCH   5   8
ENDBRANCH   3   4
ENDBRANCH   2   3
ENDBRANCH   1   2
BRANCH   1  23
ATOM     23  C   UNL A   1      36.211  20.842  25.004  1.00  0.00     0.002 C 
BRANCH  23  24
ATOM     24  C   UNL A   1      37.564  20.222  24.653  1.00  0.00     0.021 C 
BRANCH  24  25
ATOM     25  C   UNL A   1      38.684  20.600  25.614  1.00  0.00     0.116 C 
BRANCH  25  26
ATOM     26  N   UNL A   1      39.669  19.537  25.743  1.00  0.00    -0.352 N 
ATOM     27  C   UNL A   1      40.990  19.632  26.097  1.00  0.00     0.251 C 
ATOM     28  H   UNL A   1      39.343  18.628  25.550  1.00  0.00     0.163 HD
ATOM     29  O   UNL A   1      41.748  18.677  25.956  1.00  0.00    -0.269 OA
BRANCH  27  30
ATOM     30  C   UNL A   1      41.498  20.908  26.637  1.00  0.00     0.039 A 
ATOM     31  C   UNL A   1      42.010  21.867  25.759  1.00  0.00     0.014 A 
ATOM     32  C   UNL A   1      41.449  21.159  28.011  1.00  0.00     0.014 A 
ATOM     33  C   UNL A   1      42.425  23.103  26.257  1.00  0.00     0.010 A 
ATOM     34  C   UNL A   1      41.785  22.417  28.492  1.00  0.00     0.010 A 
ATOM     35  C   UNL A   1      42.289  23.397  27.623  1.00  0.00    -0.014 A 
BRANCH  35  36
ATOM     36  C   UNL A   1      42.694  24.709  28.182  1.00  0.00     0.031 A 
ATOM     37  C   UNL A   1      41.659  25.778  28.395  1.00  0.00     0.074 A 
ATOM     38  C   UNL A   1      43.994  24.970  28.419  1.00  0.00     0.049 A 
ATOM     39  N   UNL A   1      41.818  27.023  28.764  1.00  0.00    -0.248 NA
ATOM     40  C   UNL A   1      40.261  25.405  28.124  1.00  0.00     0.031 C 
ATOM     41  C   UNL A   1      45.098  24.028  28.228  1.00  0.00     0.029 A 
ATOM     42  N   UNL A   1      44.606  26.116  28.861  1.00  0.00    -0.354 N 
ATOM     43  C   UNL A   1      40.548  27.586  28.745  1.00  0.00     0.074 A 
ATOM     44  C   UNL A   1      39.639  26.564  28.274  1.00  0.00     0.031 C 
ATOM     45  C   UNL A   1      46.250  24.628  28.569  1.00  0.00     0.029 A 
ATOM     46  C   UNL A   1      45.972  26.008  28.957  1.00  0.00     0.049 A 
ATOM     47  H   UNL A   1      44.113  26.937  29.088  1.00  0.00     0.167 HD
ATOM     48  C   UNL A   1      40.167  28.835  29.103  1.00  0.00     0.031 A 
ATOM     49  C   UNL A   1      46.898  26.922  29.303  1.00  0.00     0.031 A 
ATOM     50  C   UNL A   1      41.072  29.847  29.576  1.00  0.00     0.049 A 
ATOM     51  C   UNL A   1      46.457  28.311  29.673  1.00  0.00     0.074 A 
ATOM     52  C   UNL A   1      40.783  31.127  30.014  1.00  0.00     0.029 A 
ATOM     53  N   UNL A   1      42.448  29.693  29.669  1.00  0.00    -0.354 N 
ATOM     54  N   UNL A   1      45.247  28.813  29.705  1.00  0.00    -0.248 NA
ATOM     55  C   UNL A   1      47.511  29.257  30.065  1.00  0.00     0.031 C 
ATOM     56  C   UNL A   1      41.989  31.768  30.314  1.00  0.00     0.029 A 
ATOM     57  C   UNL A   1      43.023  30.865  30.130  1.00  0.00     0.049 A 
ATOM     58  H   UNL A   1      42.942  28.873  29.440  1.00  0.00     0.167 HD
ATOM     59  C   UNL A   1      45.389  30.119  30.155  1.00  0.00     0.074 A 
ATOM     60  C   UNL A   1      46.803  30.329  30.390  1.00  0.00     0.031 C 
ATOM     61  C   UNL A   1      44.433  31.059  30.362  1.00  0.00     0.031 A 
BRANCH  48  62
ATOM     62  C   UNL A   1      38.707  29.175  28.972  1.00  0.00    -0.014 A 
ATOM     63  C   UNL A   1      38.169  29.639  27.759  1.00  0.00     0.009 A 
ATOM     64  C   UNL A   1      37.854  29.019  30.074  1.00  0.00     0.009 A 
ATOM     65  C   UNL A   1      36.820  29.990  27.671  1.00  0.00     0.001 A 
ATOM     66  C   UNL A   1      36.498  29.335  29.973  1.00  0.00     0.001 A 
ATOM     67  C   UNL A   1      35.985  29.834  28.776  1.00  0.00     0.000 A 
ENDBRANCH  48  62
BRANCH  49  68
ATOM     68  C   UNL A   1      48.336  26.545  29.329  1.00  0.00    -0.014 A 
ATOM     69  C   UNL A   1      48.893  25.938  30.465  1.00  0.00     0.009 A 
ATOM     70  C   UNL A   1      49.158  26.779  28.215  1.00  0.00     0.009 A 
ATOM     71  C   UNL A   1      50.247  25.595  30.493  1.00  0.00     0.001 A 
ATOM     72  C   UNL A   1      50.504  26.408  28.235  1.00  0.00     0.001 A 
ATOM     73  C   UNL A   1      51.049  25.824  29.377  1.00  0.00     0.000 A 
ENDBRANCH  49  68
BRANCH  61  74
ATOM     74  C   UNL A   1      44.872  32.386  30.915  1.00  0.00    -0.014 A 
ATOM     75  C   UNL A   1      44.948  32.619  32.296  1.00  0.00     0.009 A 
ATOM     76  C   UNL A   1      45.273  33.401  30.030  1.00  0.00     0.009 A 
ATOM     77  C   UNL A   1      45.389  33.853  32.779  1.00  0.00     0.001 A 
ATOM     78  C   UNL A   1      45.744  34.621  30.516  1.00  0.00     0.001 A 
ATOM     79  C   UNL A   1      45.792  34.850  31.890  1.00  0.00     0.000 A 
ENDBRANCH  61  74
ENDBRANCH  35  36
ENDBRANCH  27  30
ENDBRANCH  25  26
ENDBRANCH  24  25
ENDBRANCH  23  24
ENDBRANCH   1  23
TORSDOF 16
ENDMDL
