MODEL 1
REMARK VINA RESULT:     -11.0      0.000      0.000
REMARK SMILES O=C(NCCCCCCNC(=O)[C@@H]1CCC[N@@H+](Cc2nccn2C(F)F)C1)c1ccc(-c2c3nc(c(-c4ccccc4)c4ccc([nH]4)c(-c4ccccc4)c4nc(c(-c5ccccc5)c5ccc2[nH]5)C=C4)C=C3)cc1
REMARK SMILES IDX 7 1 6 2 5 3 4 4 3 5 1 6 2 7 28 9 29 10 75 11 30 12 74 13
REMARK SMILES IDX 31 14 32 15 33 16 68 17 34 18 73 19 67 20 69 21 35 22 72 23
REMARK SMILES IDX 66 24 65 25 36 27 58 28 43 29 57 30 44 31 47 32 56 33 70 34
REMARK SMILES IDX 45 35 46 36 55 38 71 39 48 40 37 41 38 42 42 43 39 44 41 45
REMARK SMILES IDX 40 46 59 47 60 48 64 49 61 50 63 51 62 52 49 53 50 54 54 55
REMARK SMILES IDX 51 56 53 57 52 58 8 59 9 60 10 61 11 62 12 64 13 65 14 66
REMARK SMILES IDX 27 67 15 68 17 69 16 70 18 72 19 73 20 74 23 75 21 76 22 77
REMARK SMILES IDX 24 78 25 79 26 80
REMARK H PARENT 3 8 69 26 47 37 10 63 17 71
REMARK Flexibility Score: inf
ROOT
ATOM      1  C   UNL A   1      31.047  29.044  24.541  1.00  0.00     0.002 C 
ENDROOT
BRANCH   1   2
ATOM      2  C   UNL A   1      31.594  28.721  25.937  1.00  0.00     0.002 C 
BRANCH   2   3
ATOM      3  C   UNL A   1      31.869  29.931  26.839  1.00  0.00     0.021 C 
BRANCH   3   4
ATOM      4  C   UNL A   1      33.270  30.523  26.699  1.00  0.00     0.116 C 
BRANCH   4   5
ATOM      5  N   UNL A   1      33.545  31.610  27.617  1.00  0.00    -0.352 N 
ATOM      6  O   UNL A   1      34.512  33.063  28.967  1.00  0.00    -0.269 OA
ATOM      7  C   UNL A   1      34.611  31.980  28.390  1.00  0.00     0.251 C 
ATOM      8  H   UNL A   1      32.785  32.229  27.703  1.00  0.00     0.163 HD
BRANCH   7   9
ATOM      9  C   UNL A   1      35.834  31.159  28.628  1.00  0.00     0.039 A 
ATOM     10  C   UNL A   1      35.901  29.767  28.647  1.00  0.00     0.014 A 
ATOM     11  C   UNL A   1      37.022  31.888  28.847  1.00  0.00     0.014 A 
ATOM     12  C   UNL A   1      37.107  29.124  28.937  1.00  0.00     0.010 A 
ATOM     13  C   UNL A   1      38.228  31.253  29.130  1.00  0.00     0.010 A 
ATOM     14  C   UNL A   1      38.266  29.866  29.194  1.00  0.00    -0.014 A 
BRANCH  14  15
ATOM     15  C   UNL A   1      39.534  29.148  29.324  1.00  0.00     0.031 A 
ATOM     16  C   UNL A   1      39.895  28.799  30.726  1.00  0.00     0.074 A 
ATOM     17  C   UNL A   1      40.293  28.691  28.307  1.00  0.00     0.049 A 
ATOM     18  N   UNL A   1      40.877  29.266  31.426  1.00  0.00    -0.248 NA
ATOM     19  C   UNL A   1      39.001  27.900  31.471  1.00  0.00     0.031 C 
ATOM     20  C   UNL A   1      39.973  28.656  26.881  1.00  0.00     0.029 A 
ATOM     21  N   UNL A   1      41.506  28.064  28.366  1.00  0.00    -0.354 N 
ATOM     22  C   UNL A   1      40.833  28.600  32.647  1.00  0.00     0.074 A 
ATOM     23  C   UNL A   1      39.589  27.871  32.668  1.00  0.00     0.031 C 
ATOM     24  C   UNL A   1      40.862  27.857  26.242  1.00  0.00     0.029 A 
ATOM     25  C   UNL A   1      41.888  27.439  27.185  1.00  0.00     0.049 A 
ATOM     26  H   UNL A   1      42.063  28.055  29.177  1.00  0.00     0.167 HD
ATOM     27  C   UNL A   1      41.920  28.532  33.465  1.00  0.00     0.031 A 
ATOM     28  C   UNL A   1      42.948  26.609  27.007  1.00  0.00     0.031 A 
ATOM     29  C   UNL A   1      42.934  29.483  33.092  1.00  0.00     0.049 A 
ATOM     30  C   UNL A   1      43.903  26.845  28.111  1.00  0.00     0.074 A 
ATOM     31  C   UNL A   1      43.001  30.857  32.990  1.00  0.00     0.029 A 
ATOM     32  N   UNL A   1      44.016  28.999  32.398  1.00  0.00    -0.354 N 
ATOM     33  N   UNL A   1      44.614  27.928  28.228  1.00  0.00    -0.248 NA
ATOM     34  C   UNL A   1      43.790  26.037  29.312  1.00  0.00     0.031 C 
ATOM     35  C   UNL A   1      43.826  31.099  31.852  1.00  0.00     0.029 A 
ATOM     36  C   UNL A   1      44.261  29.865  31.368  1.00  0.00     0.049 A 
ATOM     37  H   UNL A   1      44.522  28.180  32.605  1.00  0.00     0.167 HD
ATOM     38  C   UNL A   1      44.646  28.175  29.591  1.00  0.00     0.074 A 
ATOM     39  C   UNL A   1      44.229  26.920  30.213  1.00  0.00     0.031 C 
ATOM     40  C   UNL A   1      44.735  29.450  30.067  1.00  0.00     0.031 A 
BRANCH  27  41
ATOM     41  C   UNL A   1      42.248  27.340  34.332  1.00  0.00    -0.014 A 
ATOM     42  C   UNL A   1      43.098  26.344  33.813  1.00  0.00     0.009 A 
ATOM     43  C   UNL A   1      41.524  27.013  35.492  1.00  0.00     0.009 A 
ATOM     44  C   UNL A   1      43.148  25.063  34.374  1.00  0.00     0.001 A 
ATOM     45  C   UNL A   1      41.605  25.748  36.081  1.00  0.00     0.001 A 
ATOM     46  C   UNL A   1      42.392  24.762  35.502  1.00  0.00     0.000 A 
ENDBRANCH  27  41
BRANCH  28  47
ATOM     47  C   UNL A   1      43.125  25.468  26.081  1.00  0.00    -0.014 A 
ATOM     48  C   UNL A   1      44.314  25.317  25.345  1.00  0.00     0.009 A 
ATOM     49  C   UNL A   1      42.252  24.369  26.145  1.00  0.00     0.009 A 
ATOM     50  C   UNL A   1      44.639  24.095  24.740  1.00  0.00     0.001 A 
ATOM     51  C   UNL A   1      42.575  23.150  25.539  1.00  0.00     0.001 A 
ATOM     52  C   UNL A   1      43.777  23.007  24.852  1.00  0.00     0.000 A 
ENDBRANCH  28  47
BRANCH  40  53
ATOM     53  C   UNL A   1      45.096  30.548  29.099  1.00  0.00    -0.014 A 
ATOM     54  C   UNL A   1      44.188  31.099  28.177  1.00  0.00     0.009 A 
ATOM     55  C   UNL A   1      46.363  31.137  29.217  1.00  0.00     0.009 A 
ATOM     56  C   UNL A   1      44.555  32.183  27.373  1.00  0.00     0.001 A 
ATOM     57  C   UNL A   1      46.722  32.234  28.432  1.00  0.00     0.001 A 
ATOM     58  C   UNL A   1      45.820  32.753  27.505  1.00  0.00     0.000 A 
ENDBRANCH  40  53
ENDBRANCH  14  15
ENDBRANCH   7   9
ENDBRANCH   4   5
ENDBRANCH   3   4
ENDBRANCH   2   3
ENDBRANCH   1   2
BRANCH   1  59
ATOM     59  C   UNL A   1      30.659  27.829  23.687  1.00  0.00     0.021 C 
BRANCH  59  60
ATOM     60  C   UNL A   1      29.798  26.795  24.416  1.00  0.00     0.116 C 
BRANCH  60  61
ATOM     61  N   UNL A   1      30.124  25.453  23.975  1.00  0.00    -0.356 N 
ATOM     62  C   UNL A   1      31.033  24.565  24.478  1.00  0.00     0.228 C 
ATOM     63  H   UNL A   1      29.612  25.132  23.198  1.00  0.00     0.163 HD
ATOM     64  O   UNL A   1      31.315  23.589  23.788  1.00  0.00    -0.275 OA
BRANCH  62  65
ATOM     65  C   UNL A   1      31.646  24.825  25.852  1.00  0.00     0.133 C 
ATOM     66  C   UNL A   1      32.895  25.712  25.791  1.00  0.00     0.025 C 
ATOM     67  C   UNL A   1      31.963  23.499  26.563  1.00  0.00     0.276 C 
ATOM     68  C   UNL A   1      34.125  24.961  25.289  1.00  0.00     0.062 C 
ATOM     69  N   UNL A   1      33.128  22.805  25.985  1.00  0.00    -0.328 N 
ATOM     70  C   UNL A   1      34.331  23.640  26.029  1.00  0.00     0.262 C 
ATOM     71  H   UNL A   1      32.935  22.645  24.996  1.00  0.00     0.348 HD
BRANCH  69  72
ATOM     72  C   UNL A   1      33.318  21.467  26.572  1.00  0.00     0.339 C 
BRANCH  72  73
ATOM     73  C   UNL A   1      33.263  20.331  25.586  1.00  0.00     0.168 A 
ATOM     74  N   UNL A   1      32.157  19.704  25.220  1.00  0.00    -0.236 NA
ATOM     75  N   UNL A   1      34.355  19.760  24.968  1.00  0.00    -0.273 N 
ATOM     76  C   UNL A   1      32.546  18.670  24.416  1.00  0.00     0.131 A 
ATOM     77  C   UNL A   1      33.905  18.680  24.247  1.00  0.00     0.113 A 
BRANCH  75  78
ATOM     78  C   UNL A   1      35.742  20.168  25.040  1.00  0.00     0.450 C 
ATOM     79  F   UNL A   1      36.561  19.167  24.621  1.00  0.00    -0.185 F 
ATOM     80  F   UNL A   1      35.972  21.227  24.218  1.00  0.00    -0.185 F 
ENDBRANCH  75  78
ENDBRANCH  72  73
ENDBRANCH  69  72
ENDBRANCH  62  65
ENDBRANCH  60  61
ENDBRANCH  59  60
ENDBRANCH   1  59
TORSDOF 16
ENDMDL
MODEL 2
REMARK VINA RESULT:     -11.0      3.170      8.487
REMARK SMILES O=C(NCCCCCCNC(=O)[C@@H]1CCC[N@@H+](Cc2nccn2C(F)F)C1)c1ccc(-c2c3nc(c(-c4ccccc4)c4ccc([nH]4)c(-c4ccccc4)c4nc(c(-c5ccccc5)c5ccc2[nH]5)C=C4)C=C3)cc1
REMARK SMILES IDX 7 1 6 2 5 3 4 4 3 5 1 6 2 7 28 9 29 10 75 11 30 12 74 13
REMARK SMILES IDX 31 14 32 15 33 16 68 17 34 18 73 19 67 20 69 21 35 22 72 23
REMARK SMILES IDX 66 24 65 25 36 27 58 28 43 29 57 30 44 31 47 32 56 33 70 34
REMARK SMILES IDX 45 35 46 36 55 38 71 39 48 40 37 41 38 42 42 43 39 44 41 45
REMARK SMILES IDX 40 46 59 47 60 48 64 49 61 50 63 51 62 52 49 53 50 54 54 55
REMARK SMILES IDX 51 56 53 57 52 58 8 59 9 60 10 61 11 62 12 64 13 65 14 66
REMARK SMILES IDX 27 67 15 68 17 69 16 70 18 72 19 73 20 74 23 75 21 76 22 77
REMARK SMILES IDX 24 78 25 79 26 80
REMARK H PARENT 3 8 69 26 47 37 10 63 17 71
REMARK Flexibility Score: inf
ROOT
ATOM      1  C   UNL A   1      41.052  21.800  27.143  1.00  0.00     0.002 C 
ENDROOT
BRANCH   1   2
ATOM      2  C   UNL A   1      41.032  20.287  27.393  1.00  0.00     0.002 C 
BRANCH   2   3
ATOM      3  C   UNL A   1      42.306  19.532  26.994  1.00  0.00     0.021 C 
BRANCH   3   4
ATOM      4  C   UNL A   1      42.447  19.271  25.495  1.00  0.00     0.116 C 
BRANCH   4   5
ATOM      5  N   UNL A   1      43.773  19.533  24.974  1.00  0.00    -0.352 N 
ATOM      6  O   UNL A   1      45.754  20.400  24.533  1.00  0.00    -0.269 OA
ATOM      7  C   UNL A   1      44.633  20.597  25.003  1.00  0.00     0.251 C 
ATOM      8  H   UNL A   1      44.142  18.764  24.484  1.00  0.00     0.163 HD
BRANCH   7   9
ATOM      9  C   UNL A   1      44.302  21.965  25.496  1.00  0.00     0.039 A 
ATOM     10  C   UNL A   1      43.512  22.908  24.841  1.00  0.00     0.014 A 
ATOM     11  C   UNL A   1      44.850  22.309  26.750  1.00  0.00     0.014 A 
ATOM     12  C   UNL A   1      43.325  24.178  25.393  1.00  0.00     0.010 A 
ATOM     13  C   UNL A   1      44.663  23.570  27.309  1.00  0.00     0.010 A 
ATOM     14  C   UNL A   1      43.914  24.515  26.619  1.00  0.00    -0.014 A 
BRANCH  14  15
ATOM     15  C   UNL A   1      43.552  25.791  27.234  1.00  0.00     0.031 A 
ATOM     16  C   UNL A   1      44.466  26.915  26.888  1.00  0.00     0.074 A 
ATOM     17  C   UNL A   1      42.435  26.037  27.949  1.00  0.00     0.049 A 
ATOM     18  N   UNL A   1      45.272  27.546  27.678  1.00  0.00    -0.248 NA
ATOM     19  C   UNL A   1      44.570  27.318  25.478  1.00  0.00     0.031 C 
ATOM     20  C   UNL A   1      41.274  25.170  28.145  1.00  0.00     0.029 A 
ATOM     21  N   UNL A   1      42.071  27.189  28.589  1.00  0.00    -0.354 N 
ATOM     22  C   UNL A   1      45.868  28.541  26.909  1.00  0.00     0.074 A 
ATOM     23  C   UNL A   1      45.499  28.273  25.541  1.00  0.00     0.031 C 
ATOM     24  C   UNL A   1      40.256  25.896  28.669  1.00  0.00     0.029 A 
ATOM     25  C   UNL A   1      40.735  27.236  28.972  1.00  0.00     0.049 A 
ATOM     26  H   UNL A   1      42.702  27.924  28.765  1.00  0.00     0.167 HD
ATOM     27  C   UNL A   1      46.450  29.633  27.477  1.00  0.00     0.031 A 
ATOM     28  C   UNL A   1      40.066  28.309  29.466  1.00  0.00     0.031 A 
ATOM     29  C   UNL A   1      46.673  29.451  28.887  1.00  0.00     0.049 A 
ATOM     30  C   UNL A   1      41.063  29.269  29.986  1.00  0.00     0.074 A 
ATOM     31  C   UNL A   1      47.397  28.567  29.661  1.00  0.00     0.029 A 
ATOM     32  N   UNL A   1      45.790  30.065  29.741  1.00  0.00    -0.354 N 
ATOM     33  N   UNL A   1      41.770  29.062  31.058  1.00  0.00    -0.248 NA
ATOM     34  C   UNL A   1      41.562  30.304  29.097  1.00  0.00     0.031 C 
ATOM     35  C   UNL A   1      46.592  28.348  30.817  1.00  0.00     0.029 A 
ATOM     36  C   UNL A   1      45.459  29.156  30.709  1.00  0.00     0.049 A 
ATOM     37  H   UNL A   1      45.457  30.989  29.671  1.00  0.00     0.167 HD
ATOM     38  C   UNL A   1      43.015  29.591  30.759  1.00  0.00     0.074 A 
ATOM     39  C   UNL A   1      42.793  30.445  29.594  1.00  0.00     0.031 C 
ATOM     40  C   UNL A   1      44.148  29.066  31.310  1.00  0.00     0.031 A 
BRANCH  27  41
ATOM     41  C   UNL A   1      46.437  31.011  26.860  1.00  0.00    -0.014 A 
ATOM     42  C   UNL A   1      47.622  31.771  26.887  1.00  0.00     0.009 A 
ATOM     43  C   UNL A   1      45.252  31.697  26.538  1.00  0.00     0.009 A 
ATOM     44  C   UNL A   1      47.604  33.157  26.692  1.00  0.00     0.001 A 
ATOM     45  C   UNL A   1      45.237  33.074  26.300  1.00  0.00     0.001 A 
ATOM     46  C   UNL A   1      46.409  33.810  26.409  1.00  0.00     0.000 A 
ENDBRANCH  27  41
BRANCH  28  47
ATOM     47  C   UNL A   1      38.641  28.687  29.343  1.00  0.00    -0.014 A 
ATOM     48  C   UNL A   1      37.852  28.902  30.488  1.00  0.00     0.009 A 
ATOM     49  C   UNL A   1      38.135  29.129  28.109  1.00  0.00     0.009 A 
ATOM     50  C   UNL A   1      36.628  29.579  30.405  1.00  0.00     0.001 A 
ATOM     51  C   UNL A   1      36.911  29.803  28.026  1.00  0.00     0.001 A 
ATOM     52  C   UNL A   1      36.166  30.043  29.176  1.00  0.00     0.000 A 
ENDBRANCH  28  47
BRANCH  40  53
ATOM     53  C   UNL A   1      43.999  28.110  32.466  1.00  0.00    -0.014 A 
ATOM     54  C   UNL A   1      43.889  26.716  32.310  1.00  0.00     0.009 A 
ATOM     55  C   UNL A   1      44.110  28.627  33.765  1.00  0.00     0.009 A 
ATOM     56  C   UNL A   1      43.853  25.874  33.425  1.00  0.00     0.001 A 
ATOM     57  C   UNL A   1      44.099  27.785  34.877  1.00  0.00     0.001 A 
ATOM     58  C   UNL A   1      43.963  26.408  34.708  1.00  0.00     0.000 A 
ENDBRANCH  40  53
ENDBRANCH  14  15
ENDBRANCH   7   9
ENDBRANCH   4   5
ENDBRANCH   3   4
ENDBRANCH   2   3
ENDBRANCH   1   2
BRANCH   1  59
ATOM     59  C   UNL A   1      39.682  22.446  26.892  1.00  0.00     0.021 C 
BRANCH  59  60
ATOM     60  C   UNL A   1      38.784  21.664  25.931  1.00  0.00     0.116 C 
BRANCH  60  61
ATOM     61  N   UNL A   1      38.151  22.556  24.979  1.00  0.00    -0.356 N 
ATOM     62  C   UNL A   1      36.834  22.889  24.836  1.00  0.00     0.228 C 
ATOM     63  H   UNL A   1      38.763  22.987  24.340  1.00  0.00     0.163 HD
ATOM     64  O   UNL A   1      36.503  23.462  23.801  1.00  0.00    -0.275 OA
BRANCH  62  65
ATOM     65  C   UNL A   1      35.852  22.538  25.951  1.00  0.00     0.133 C 
ATOM     66  C   UNL A   1      35.278  21.124  25.818  1.00  0.00     0.025 C 
ATOM     67  C   UNL A   1      34.719  23.575  26.020  1.00  0.00     0.276 C 
ATOM     68  C   UNL A   1      34.211  21.023  24.731  1.00  0.00     0.062 C 
ATOM     69  N   UNL A   1      33.763  23.450  24.906  1.00  0.00    -0.328 N 
ATOM     70  C   UNL A   1      33.154  22.119  24.862  1.00  0.00     0.262 C 
ATOM     71  H   UNL A   1      34.286  23.548  24.036  1.00  0.00     0.348 HD
BRANCH  69  72
ATOM     72  C   UNL A   1      32.778  24.547  24.901  1.00  0.00     0.339 C 
BRANCH  72  73
ATOM     73  C   UNL A   1      33.023  25.610  23.863  1.00  0.00     0.168 A 
ATOM     74  N   UNL A   1      33.014  25.404  22.556  1.00  0.00    -0.236 NA
ATOM     75  N   UNL A   1      33.337  26.925  24.131  1.00  0.00    -0.273 N 
ATOM     76  C   UNL A   1      33.397  26.580  21.976  1.00  0.00     0.131 A 
ATOM     77  C   UNL A   1      33.608  27.539  22.931  1.00  0.00     0.113 A 
BRANCH  75  78
ATOM     78  C   UNL A   1      33.401  27.590  25.416  1.00  0.00     0.450 C 
ATOM     79  F   UNL A   1      32.217  27.481  26.075  1.00  0.00    -0.185 F 
ATOM     80  F   UNL A   1      34.342  27.011  26.208  1.00  0.00    -0.185 F 
ENDBRANCH  75  78
ENDBRANCH  72  73
ENDBRANCH  69  72
ENDBRANCH  62  65
ENDBRANCH  60  61
ENDBRANCH  59  60
ENDBRANCH   1  59
TORSDOF 16
ENDMDL
MODEL 3
REMARK VINA RESULT:     -10.9      2.565      4.115
REMARK SMILES O=C(NCCCCCCNC(=O)[C@@H]1CCC[N@@H+](Cc2nccn2C(F)F)C1)c1ccc(-c2c3nc(c(-c4ccccc4)c4ccc([nH]4)c(-c4ccccc4)c4nc(c(-c5ccccc5)c5ccc2[nH]5)C=C4)C=C3)cc1
REMARK SMILES IDX 7 1 6 2 5 3 4 4 3 5 1 6 2 7 28 9 29 10 75 11 30 12 74 13
REMARK SMILES IDX 31 14 32 15 33 16 68 17 34 18 73 19 67 20 69 21 35 22 72 23
REMARK SMILES IDX 66 24 65 25 36 27 58 28 43 29 57 30 44 31 47 32 56 33 70 34
REMARK SMILES IDX 45 35 46 36 55 38 71 39 48 40 37 41 38 42 42 43 39 44 41 45
REMARK SMILES IDX 40 46 59 47 60 48 64 49 61 50 63 51 62 52 49 53 50 54 54 55
REMARK SMILES IDX 51 56 53 57 52 58 8 59 9 60 10 61 11 62 12 64 13 65 14 66
REMARK SMILES IDX 27 67 15 68 17 69 16 70 18 72 19 73 20 74 23 75 21 76 22 77
REMARK SMILES IDX 24 78 25 79 26 80
REMARK H PARENT 3 8 69 26 47 37 10 63 17 71
REMARK Flexibility Score: inf
ROOT
ATOM      1  C   UNL A   1      35.177  33.108  28.114  1.00  0.00     0.002 C 
ENDROOT
BRANCH   1   2
ATOM      2  C   UNL A   1      34.704  34.563  28.007  1.00  0.00     0.002 C 
BRANCH   2   3
ATOM      3  C   UNL A   1      33.312  34.852  28.582  1.00  0.00     0.021 C 
BRANCH   3   4
ATOM      4  C   UNL A   1      33.248  36.061  29.514  1.00  0.00     0.116 C 
BRANCH   4   5
ATOM      5  N   UNL A   1      32.816  35.744  30.860  1.00  0.00    -0.352 N 
ATOM      6  O   UNL A   1      32.705  35.054  32.954  1.00  0.00    -0.269 OA
ATOM      7  C   UNL A   1      33.314  34.989  31.886  1.00  0.00     0.251 C 
ATOM      8  H   UNL A   1      31.961  36.174  31.091  1.00  0.00     0.163 HD
BRANCH   7   9
ATOM      9  C   UNL A   1      34.482  34.066  31.793  1.00  0.00     0.039 A 
ATOM     10  C   UNL A   1      34.429  32.675  31.720  1.00  0.00     0.014 A 
ATOM     11  C   UNL A   1      35.749  34.687  31.775  1.00  0.00     0.014 A 
ATOM     12  C   UNL A   1      35.608  31.925  31.690  1.00  0.00     0.010 A 
ATOM     13  C   UNL A   1      36.927  33.946  31.740  1.00  0.00     0.010 A 
ATOM     14  C   UNL A   1      36.856  32.559  31.717  1.00  0.00    -0.014 A 
BRANCH  14  15
ATOM     15  C   UNL A   1      38.053  31.742  31.514  1.00  0.00     0.031 A 
ATOM     16  C   UNL A   1      38.791  31.423  32.768  1.00  0.00     0.074 A 
ATOM     17  C   UNL A   1      38.441  31.181  30.351  1.00  0.00     0.049 A 
ATOM     18  N   UNL A   1      39.966  31.833  33.116  1.00  0.00    -0.248 NA
ATOM     19  C   UNL A   1      38.101  30.634  33.799  1.00  0.00     0.031 C 
ATOM     20  C   UNL A   1      37.709  31.115  29.087  1.00  0.00     0.029 A 
ATOM     21  N   UNL A   1      39.571  30.457  30.091  1.00  0.00    -0.354 N 
ATOM     22  C   UNL A   1      40.243  31.225  34.337  1.00  0.00     0.074 A 
ATOM     23  C   UNL A   1      39.016  30.605  34.770  1.00  0.00     0.031 C 
ATOM     24  C   UNL A   1      38.310  30.219  28.268  1.00  0.00     0.029 A 
ATOM     25  C   UNL A   1      39.540  29.754  28.892  1.00  0.00     0.049 A 
ATOM     26  H   UNL A   1      40.343  30.435  30.701  1.00  0.00     0.167 HD
ATOM     27  C   UNL A   1      41.517  31.098  34.801  1.00  0.00     0.031 A 
ATOM     28  C   UNL A   1      40.439  28.832  28.464  1.00  0.00     0.031 A 
ATOM     29  C   UNL A   1      42.436  31.944  34.087  1.00  0.00     0.049 A 
ATOM     30  C   UNL A   1      41.693  29.032  29.221  1.00  0.00     0.074 A 
ATOM     31  C   UNL A   1      42.564  33.303  33.881  1.00  0.00     0.029 A 
ATOM     32  N   UNL A   1      43.227  31.343  33.138  1.00  0.00    -0.354 N 
ATOM     33  N   UNL A   1      42.479  30.054  29.054  1.00  0.00    -0.248 NA
ATOM     34  C   UNL A   1      41.889  28.285  30.452  1.00  0.00     0.031 C 
ATOM     35  C   UNL A   1      43.026  33.428  32.537  1.00  0.00     0.029 A 
ATOM     36  C   UNL A   1      43.212  32.142  32.027  1.00  0.00     0.049 A 
ATOM     37  H   UNL A   1      43.714  30.493  33.239  1.00  0.00     0.167 HD
ATOM     38  C   UNL A   1      42.933  30.353  30.328  1.00  0.00     0.074 A 
ATOM     39  C   UNL A   1      42.636  29.165  31.125  1.00  0.00     0.031 C 
ATOM     40  C   UNL A   1      43.247  31.635  30.675  1.00  0.00     0.031 A 
BRANCH  27  41
ATOM     41  C   UNL A   1      42.006  29.920  35.608  1.00  0.00    -0.014 A 
ATOM     42  C   UNL A   1      43.108  30.103  36.467  1.00  0.00     0.009 A 
ATOM     43  C   UNL A   1      41.633  28.593  35.332  1.00  0.00     0.009 A 
ATOM     44  C   UNL A   1      43.848  29.016  36.946  1.00  0.00     0.001 A 
ATOM     45  C   UNL A   1      42.343  27.503  35.845  1.00  0.00     0.001 A 
ATOM     46  C   UNL A   1      43.471  27.716  36.625  1.00  0.00     0.000 A 
ENDBRANCH  27  41
BRANCH  28  47
ATOM     47  C   UNL A   1      40.253  27.643  27.603  1.00  0.00    -0.014 A 
ATOM     48  C   UNL A   1      41.109  27.404  26.512  1.00  0.00     0.009 A 
ATOM     49  C   UNL A   1      39.428  26.588  28.029  1.00  0.00     0.009 A 
ATOM     50  C   UNL A   1      41.172  26.143  25.905  1.00  0.00     0.001 A 
ATOM     51  C   UNL A   1      39.489  25.329  27.421  1.00  0.00     0.001 A 
ATOM     52  C   UNL A   1      40.373  25.101  26.370  1.00  0.00     0.000 A 
ENDBRANCH  28  47
BRANCH  40  53
ATOM     53  C   UNL A   1      43.377  32.658  29.574  1.00  0.00    -0.014 A 
ATOM     54  C   UNL A   1      42.490  33.737  29.409  1.00  0.00     0.009 A 
ATOM     55  C   UNL A   1      44.516  32.603  28.758  1.00  0.00     0.009 A 
ATOM     56  C   UNL A   1      42.720  34.707  28.430  1.00  0.00     0.001 A 
ATOM     57  C   UNL A   1      44.759  33.585  27.797  1.00  0.00     0.001 A 
ATOM     58  C   UNL A   1      43.857  34.634  27.627  1.00  0.00     0.000 A 
ENDBRANCH  40  53
ENDBRANCH  14  15
ENDBRANCH   7   9
ENDBRANCH   4   5
ENDBRANCH   3   4
ENDBRANCH   2   3
ENDBRANCH   1   2
BRANCH   1  59
ATOM     59  C   UNL A   1      34.066  32.049  28.092  1.00  0.00     0.021 C 
BRANCH  59  60
ATOM     60  C   UNL A   1      34.422  30.778  27.320  1.00  0.00     0.116 C 
BRANCH  60  61
ATOM     61  N   UNL A   1      33.522  29.696  27.669  1.00  0.00    -0.356 N 
ATOM     62  C   UNL A   1      32.726  28.928  26.865  1.00  0.00     0.228 C 
ATOM     63  H   UNL A   1      33.478  29.481  28.628  1.00  0.00     0.163 HD
ATOM     64  O   UNL A   1      31.861  28.247  27.408  1.00  0.00    -0.275 OA
BRANCH  62  65
ATOM     65  C   UNL A   1      32.947  28.955  25.355  1.00  0.00     0.133 C 
ATOM     66  C   UNL A   1      31.661  29.234  24.568  1.00  0.00     0.025 C 
ATOM     67  C   UNL A   1      33.596  27.645  24.880  1.00  0.00     0.276 C 
ATOM     68  C   UNL A   1      30.741  28.018  24.498  1.00  0.00     0.062 C 
ATOM     69  N   UNL A   1      32.661  26.507  24.895  1.00  0.00    -0.328 N 
ATOM     70  C   UNL A   1      31.487  26.759  24.055  1.00  0.00     0.262 C 
ATOM     71  H   UNL A   1      32.308  26.408  25.846  1.00  0.00     0.348 HD
BRANCH  69  72
ATOM     72  C   UNL A   1      33.338  25.234  24.590  1.00  0.00     0.339 C 
BRANCH  72  73
ATOM     73  C   UNL A   1      32.898  24.066  25.433  1.00  0.00     0.168 A 
ATOM     74  N   UNL A   1      32.295  24.169  26.606  1.00  0.00    -0.236 NA
ATOM     75  N   UNL A   1      33.104  22.740  25.122  1.00  0.00    -0.273 N 
ATOM     76  C   UNL A   1      32.176  22.898  27.093  1.00  0.00     0.131 A 
ATOM     77  C   UNL A   1      32.674  21.992  26.194  1.00  0.00     0.113 A 
BRANCH  75  78
ATOM     78  C   UNL A   1      33.674  22.176  23.917  1.00  0.00     0.450 C 
ATOM     79  F   UNL A   1      35.023  22.051  24.034  1.00  0.00    -0.185 F 
ATOM     80  F   UNL A   1      33.186  20.926  23.696  1.00  0.00    -0.185 F 
ENDBRANCH  75  78
ENDBRANCH  72  73
ENDBRANCH  69  72
ENDBRANCH  62  65
ENDBRANCH  60  61
ENDBRANCH  59  60
ENDBRANCH   1  59
TORSDOF 16
ENDMDL
