MODEL 1
REMARK VINA RESULT:      -9.8      0.000      0.000
REMARK SMILES C[C@H](NC(=O)c1cc(S(=O)(=O)N(C)C)cs1)C(=O)NCCCCCCNC(=O)c1ccc(-c2c3nc(c(-c4ccccc4)c4ccc([nH]4)c(-c4ccccc4)c4nc(c(-c5ccccc5)c5ccc2[nH]5)C=C4)C=C3)cc1
REMARK SMILES IDX 21 1 20 2 19 3 17 4 18 5 2 7 1 8 3 9 4 10 5 12 6 13 7 14
REMARK SMILES IDX 16 15 8 16 15 17 9 18 10 19 11 20 12 21 13 22 14 23 22 24
REMARK SMILES IDX 23 25 24 26 25 27 26 28 27 29 28 31 29 32 30 33 76 34 31 35
REMARK SMILES IDX 75 36 32 37 33 38 34 39 69 40 35 41 74 42 68 43 70 44 36 45
REMARK SMILES IDX 73 46 67 47 66 48 37 50 59 51 44 52 58 53 45 54 48 55 57 56
REMARK SMILES IDX 71 57 46 58 47 59 56 61 72 62 49 63 38 64 39 65 43 66 40 67
REMARK SMILES IDX 42 68 41 69 60 70 61 71 65 72 62 73 64 74 63 75 50 76 51 77
REMARK SMILES IDX 55 78 52 79 54 80 53 81
REMARK H PARENT 19 6 3 11 26 30 70 49 48 60
REMARK Flexibility Score: inf
ROOT
ATOM      1  C   UNL A   1      33.210  27.826  26.856  1.00  0.00     0.021 C 
ENDROOT
BRANCH   1   2
ATOM      2  C   UNL A   1      32.464  26.759  26.060  1.00  0.00     0.116 C 
BRANCH   2   3
ATOM      3  N   UNL A   1      31.476  27.355  25.193  1.00  0.00    -0.354 N 
ATOM      4  C   UNL A   1      31.606  27.844  23.930  1.00  0.00     0.242 C 
ATOM      5  O   UNL A   1      30.602  28.335  23.404  1.00  0.00    -0.273 OA
ATOM      6  H   UNL A   1      30.569  27.418  25.573  1.00  0.00     0.163 HD
BRANCH   4   7
ATOM      7  C   UNL A   1      32.915  27.697  23.119  1.00  0.00     0.168 C 
ATOM      8  C   UNL A   1      33.614  29.044  23.033  1.00  0.00     0.041 C 
BRANCH   7   9
ATOM      9  N   UNL A   1      32.795  26.837  21.926  1.00  0.00    -0.340 N 
ATOM     10  C   UNL A   1      32.954  25.520  21.580  1.00  0.00     0.262 C 
ATOM     11  H   UNL A   1      32.519  27.367  21.145  1.00  0.00     0.164 HD
ATOM     12  O   UNL A   1      33.039  25.298  20.370  1.00  0.00    -0.268 OA
BRANCH  10  13
ATOM     13  C   UNL A   1      33.026  24.463  22.569  1.00  0.00     0.093 A 
ATOM     14  C   UNL A   1      34.114  23.901  23.205  1.00  0.00     0.047 A 
ATOM     15  S   UNL A   1      31.558  23.806  23.187  1.00  0.00    -0.137 S 
ATOM     16  C   UNL A   1      33.752  22.765  23.987  1.00  0.00     0.094 A 
ATOM     17  C   UNL A   1      32.387  22.605  24.074  1.00  0.00     0.087 A 
BRANCH  16  18
ATOM     18  S   UNL A   1      34.879  21.645  24.677  1.00  0.00     0.243 S 
ATOM     19  O   UNL A   1      34.205  20.368  24.613  1.00  0.00    -0.207 OA
ATOM     20  O   UNL A   1      36.087  21.918  23.930  1.00  0.00    -0.207 OA
BRANCH  18  21
ATOM     21  N   UNL A   1      35.152  22.045  26.315  1.00  0.00    -0.204 NA
ATOM     22  C   UNL A   1      35.549  23.451  26.553  1.00  0.00     0.124 C 
ATOM     23  C   UNL A   1      34.038  21.642  27.205  1.00  0.00     0.124 C 
ENDBRANCH  18  21
ENDBRANCH  16  18
ENDBRANCH  10  13
ENDBRANCH   7   9
ENDBRANCH   4   7
ENDBRANCH   2   3
ENDBRANCH   1   2
BRANCH   1  24
ATOM     24  C   UNL A   1      32.320  29.002  27.274  1.00  0.00     0.002 C 
BRANCH  24  25
ATOM     25  C   UNL A   1      32.991  30.379  27.195  1.00  0.00     0.002 C 
BRANCH  25  26
ATOM     26  C   UNL A   1      32.040  31.580  27.250  1.00  0.00     0.021 C 
BRANCH  26  27
ATOM     27  C   UNL A   1      32.642  32.902  26.779  1.00  0.00     0.116 C 
BRANCH  27  28
ATOM     28  N   UNL A   1      32.393  33.980  27.722  1.00  0.00    -0.352 N 
ATOM     29  C   UNL A   1      33.070  34.331  28.861  1.00  0.00     0.251 C 
ATOM     30  H   UNL A   1      31.617  34.547  27.510  1.00  0.00     0.163 HD
ATOM     31  O   UNL A   1      32.587  35.160  29.626  1.00  0.00    -0.269 OA
BRANCH  29  32
ATOM     32  C   UNL A   1      34.376  33.715  29.183  1.00  0.00     0.039 A 
ATOM     33  C   UNL A   1      35.491  34.082  28.423  1.00  0.00     0.014 A 
ATOM     34  C   UNL A   1      34.499  32.745  30.183  1.00  0.00     0.014 A 
ATOM     35  C   UNL A   1      36.736  33.509  28.693  1.00  0.00     0.010 A 
ATOM     36  C   UNL A   1      35.752  32.215  30.488  1.00  0.00     0.010 A 
ATOM     37  C   UNL A   1      36.879  32.587  29.741  1.00  0.00    -0.014 A 
BRANCH  37  38
ATOM     38  C   UNL A   1      38.208  32.009  30.062  1.00  0.00     0.031 A 
ATOM     39  C   UNL A   1      39.164  32.743  30.961  1.00  0.00     0.074 A 
ATOM     40  C   UNL A   1      38.569  30.836  29.511  1.00  0.00     0.049 A 
ATOM     41  N   UNL A   1      40.357  32.383  31.364  1.00  0.00    -0.248 NA
ATOM     42  C   UNL A   1      38.733  34.059  31.456  1.00  0.00     0.031 C 
ATOM     43  C   UNL A   1      37.752  30.045  28.589  1.00  0.00     0.029 A 
ATOM     44  N   UNL A   1      39.719  30.102  29.651  1.00  0.00    -0.354 N 
ATOM     45  C   UNL A   1      40.826  33.434  32.141  1.00  0.00     0.074 A 
ATOM     46  C   UNL A   1      39.806  34.459  32.124  1.00  0.00     0.031 C 
ATOM     47  C   UNL A   1      38.411  28.918  28.276  1.00  0.00     0.029 A 
ATOM     48  C   UNL A   1      39.704  28.921  28.951  1.00  0.00     0.049 A 
ATOM     49  H   UNL A   1      40.483  30.394  30.201  1.00  0.00     0.167 HD
ATOM     50  C   UNL A   1      41.994  33.532  32.819  1.00  0.00     0.031 A 
ATOM     51  C   UNL A   1      40.624  27.942  28.873  1.00  0.00     0.031 A 
ATOM     52  C   UNL A   1      43.004  32.508  32.853  1.00  0.00     0.049 A 
ATOM     53  C   UNL A   1      41.906  28.069  29.643  1.00  0.00     0.074 A 
ATOM     54  C   UNL A   1      44.185  32.482  33.575  1.00  0.00     0.029 A 
ATOM     55  N   UNL A   1      42.952  31.328  32.128  1.00  0.00    -0.354 N 
ATOM     56  N   UNL A   1      42.300  29.033  30.438  1.00  0.00    -0.248 NA
ATOM     57  C   UNL A   1      42.865  26.963  29.512  1.00  0.00     0.031 C 
ATOM     58  C   UNL A   1      44.869  31.304  33.254  1.00  0.00     0.029 A 
ATOM     59  C   UNL A   1      44.093  30.578  32.364  1.00  0.00     0.049 A 
ATOM     60  H   UNL A   1      42.215  31.062  31.533  1.00  0.00     0.167 HD
ATOM     61  C   UNL A   1      43.541  28.642  30.919  1.00  0.00     0.074 A 
ATOM     62  C   UNL A   1      43.828  27.346  30.337  1.00  0.00     0.031 C 
ATOM     63  C   UNL A   1      44.369  29.297  31.769  1.00  0.00     0.031 A 
BRANCH  50  64
ATOM     64  C   UNL A   1      42.245  34.807  33.574  1.00  0.00    -0.014 A 
ATOM     65  C   UNL A   1      42.953  35.870  32.990  1.00  0.00     0.009 A 
ATOM     66  C   UNL A   1      41.752  34.954  34.878  1.00  0.00     0.009 A 
ATOM     67  C   UNL A   1      43.195  37.040  33.713  1.00  0.00     0.001 A 
ATOM     68  C   UNL A   1      41.974  36.135  35.591  1.00  0.00     0.001 A 
ATOM     69  C   UNL A   1      42.704  37.172  35.011  1.00  0.00     0.000 A 
ENDBRANCH  50  64
BRANCH  51  70
ATOM     70  C   UNL A   1      40.346  26.730  28.063  1.00  0.00    -0.014 A 
ATOM     71  C   UNL A   1      40.840  26.632  26.753  1.00  0.00     0.009 A 
ATOM     72  C   UNL A   1      39.597  25.669  28.591  1.00  0.00     0.009 A 
ATOM     73  C   UNL A   1      40.572  25.500  25.981  1.00  0.00     0.001 A 
ATOM     74  C   UNL A   1      39.349  24.529  27.823  1.00  0.00     0.001 A 
ATOM     75  C   UNL A   1      39.831  24.448  26.518  1.00  0.00     0.000 A 
ENDBRANCH  51  70
BRANCH  63  76
ATOM     76  C   UNL A   1      45.652  28.608  32.131  1.00  0.00    -0.014 A 
ATOM     77  C   UNL A   1      46.818  28.800  31.374  1.00  0.00     0.009 A 
ATOM     78  C   UNL A   1      45.698  27.764  33.253  1.00  0.00     0.009 A 
ATOM     79  C   UNL A   1      47.996  28.133  31.712  1.00  0.00     0.001 A 
ATOM     80  C   UNL A   1      46.884  27.117  33.602  1.00  0.00     0.001 A 
ATOM     81  C   UNL A   1      48.029  27.295  32.827  1.00  0.00     0.000 A 
ENDBRANCH  63  76
ENDBRANCH  37  38
ENDBRANCH  29  32
ENDBRANCH  27  28
ENDBRANCH  26  27
ENDBRANCH  25  26
ENDBRANCH  24  25
ENDBRANCH   1  24
TORSDOF 17
ENDMDL
MODEL 2
REMARK VINA RESULT:      -9.8      1.853      2.662
REMARK SMILES C[C@H](NC(=O)c1cc(S(=O)(=O)N(C)C)cs1)C(=O)NCCCCCCNC(=O)c1ccc(-c2c3nc(c(-c4ccccc4)c4ccc([nH]4)c(-c4ccccc4)c4nc(c(-c5ccccc5)c5ccc2[nH]5)C=C4)C=C3)cc1
REMARK SMILES IDX 21 1 20 2 19 3 17 4 18 5 2 7 1 8 3 9 4 10 5 12 6 13 7 14
REMARK SMILES IDX 16 15 8 16 15 17 9 18 10 19 11 20 12 21 13 22 14 23 22 24
REMARK SMILES IDX 23 25 24 26 25 27 26 28 27 29 28 31 29 32 30 33 76 34 31 35
REMARK SMILES IDX 75 36 32 37 33 38 34 39 69 40 35 41 74 42 68 43 70 44 36 45
REMARK SMILES IDX 73 46 67 47 66 48 37 50 59 51 44 52 58 53 45 54 48 55 57 56
REMARK SMILES IDX 71 57 46 58 47 59 56 61 72 62 49 63 38 64 39 65 43 66 40 67
REMARK SMILES IDX 42 68 41 69 60 70 61 71 65 72 62 73 64 74 63 75 50 76 51 77
REMARK SMILES IDX 55 78 52 79 54 80 53 81
REMARK H PARENT 19 6 3 11 26 30 70 49 48 60
REMARK Flexibility Score: inf
ROOT
ATOM      1  C   UNL A   1      33.036  29.155  25.277  1.00  0.00     0.021 C 
ENDROOT
BRANCH   1   2
ATOM      2  C   UNL A   1      32.891  27.648  25.472  1.00  0.00     0.116 C 
BRANCH   2   3
ATOM      3  N   UNL A   1      33.494  26.924  24.378  1.00  0.00    -0.354 N 
ATOM      4  C   UNL A   1      33.196  25.695  23.877  1.00  0.00     0.242 C 
ATOM      5  O   UNL A   1      33.886  25.281  22.940  1.00  0.00    -0.273 OA
ATOM      6  H   UNL A   1      34.233  27.392  23.924  1.00  0.00     0.163 HD
BRANCH   4   7
ATOM      7  C   UNL A   1      31.975  24.880  24.363  1.00  0.00     0.168 C 
ATOM      8  C   UNL A   1      30.697  25.539  23.873  1.00  0.00     0.041 C 
BRANCH   7   9
ATOM      9  N   UNL A   1      32.084  24.395  25.752  1.00  0.00    -0.340 N 
ATOM     10  C   UNL A   1      32.325  23.224  26.423  1.00  0.00     0.262 C 
ATOM     11  H   UNL A   1      31.940  25.132  26.387  1.00  0.00     0.164 HD
ATOM     12  O   UNL A   1      32.016  23.226  27.617  1.00  0.00    -0.268 OA
BRANCH  10  13
ATOM     13  C   UNL A   1      32.893  22.061  25.771  1.00  0.00     0.093 A 
ATOM     14  C   UNL A   1      32.283  21.014  25.110  1.00  0.00     0.047 A 
ATOM     15  S   UNL A   1      34.607  21.925  25.668  1.00  0.00    -0.137 S 
ATOM     16  C   UNL A   1      33.208  19.986  24.763  1.00  0.00     0.094 A 
ATOM     17  C   UNL A   1      34.513  20.357  25.000  1.00  0.00     0.087 A 
BRANCH  16  18
ATOM     18  S   UNL A   1      32.762  18.410  24.197  1.00  0.00     0.243 S 
ATOM     19  O   UNL A   1      31.926  17.872  25.247  1.00  0.00    -0.207 OA
ATOM     20  O   UNL A   1      32.254  18.688  22.872  1.00  0.00    -0.207 OA
BRANCH  18  21
ATOM     21  N   UNL A   1      34.160  17.440  24.051  1.00  0.00    -0.204 NA
ATOM     22  C   UNL A   1      34.462  16.604  25.235  1.00  0.00     0.124 C 
ATOM     23  C   UNL A   1      34.182  16.636  22.805  1.00  0.00     0.124 C 
ENDBRANCH  18  21
ENDBRANCH  16  18
ENDBRANCH  10  13
ENDBRANCH   7   9
ENDBRANCH   4   7
ENDBRANCH   2   3
ENDBRANCH   1   2
BRANCH   1  24
ATOM     24  C   UNL A   1      31.718  29.918  25.456  1.00  0.00     0.002 C 
BRANCH  24  25
ATOM     25  C   UNL A   1      31.563  30.633  26.803  1.00  0.00     0.002 C 
BRANCH  25  26
ATOM     26  C   UNL A   1      31.465  32.161  26.732  1.00  0.00     0.021 C 
BRANCH  26  27
ATOM     27  C   UNL A   1      32.766  32.906  27.023  1.00  0.00     0.116 C 
BRANCH  27  28
ATOM     28  N   UNL A   1      32.545  34.091  27.836  1.00  0.00    -0.352 N 
ATOM     29  C   UNL A   1      33.228  34.550  28.932  1.00  0.00     0.251 C 
ATOM     30  H   UNL A   1      31.785  34.650  27.556  1.00  0.00     0.163 HD
ATOM     31  O   UNL A   1      32.765  35.474  29.596  1.00  0.00    -0.269 OA
BRANCH  29  32
ATOM     32  C   UNL A   1      34.514  33.939  29.330  1.00  0.00     0.039 A 
ATOM     33  C   UNL A   1      34.518  33.022  30.386  1.00  0.00     0.014 A 
ATOM     34  C   UNL A   1      35.717  34.301  28.714  1.00  0.00     0.014 A 
ATOM     35  C   UNL A   1      35.718  32.437  30.795  1.00  0.00     0.010 A 
ATOM     36  C   UNL A   1      36.907  33.676  29.087  1.00  0.00     0.010 A 
ATOM     37  C   UNL A   1      36.918  32.745  30.135  1.00  0.00    -0.014 A 
BRANCH  37  38
ATOM     38  C   UNL A   1      38.189  32.092  30.536  1.00  0.00     0.031 A 
ATOM     39  C   UNL A   1      39.052  32.692  31.612  1.00  0.00     0.074 A 
ATOM     40  C   UNL A   1      38.586  30.973  29.902  1.00  0.00     0.049 A 
ATOM     41  N   UNL A   1      40.183  32.251  32.102  1.00  0.00    -0.248 NA
ATOM     42  C   UNL A   1      38.595  33.961  32.197  1.00  0.00     0.031 C 
ATOM     43  C   UNL A   1      37.862  30.313  28.814  1.00  0.00     0.029 A 
ATOM     44  N   UNL A   1      39.696  30.189  30.088  1.00  0.00    -0.354 N 
ATOM     45  C   UNL A   1      40.582  33.196  33.038  1.00  0.00     0.074 A 
ATOM     46  C   UNL A   1      39.592  34.251  33.021  1.00  0.00     0.031 C 
ATOM     47  C   UNL A   1      38.529  29.205  28.453  1.00  0.00     0.029 A 
ATOM     48  C   UNL A   1      39.736  29.091  29.265  1.00  0.00     0.049 A 
ATOM     49  H   UNL A   1      40.398  30.394  30.748  1.00  0.00     0.167 HD
ATOM     50  C   UNL A   1      41.667  33.181  33.849  1.00  0.00     0.031 A 
ATOM     51  C   UNL A   1      40.638  28.096  29.181  1.00  0.00     0.031 A 
ATOM     52  C   UNL A   1      42.644  32.125  33.882  1.00  0.00     0.049 A 
ATOM     53  C   UNL A   1      41.826  28.097  30.099  1.00  0.00     0.074 A 
ATOM     54  C   UNL A   1      43.734  31.983  34.723  1.00  0.00     0.029 A 
ATOM     55  N   UNL A   1      42.650  31.032  33.030  1.00  0.00    -0.354 N 
ATOM     56  N   UNL A   1      42.146  28.956  31.034  1.00  0.00    -0.248 NA
ATOM     57  C   UNL A   1      42.769  26.979  29.954  1.00  0.00     0.031 C 
ATOM     58  C   UNL A   1      44.425  30.823  34.352  1.00  0.00     0.029 A 
ATOM     59  C   UNL A   1      43.740  30.224  33.307  1.00  0.00     0.049 A 
ATOM     60  H   UNL A   1      41.981  30.857  32.330  1.00  0.00     0.167 HD
ATOM     61  C   UNL A   1      43.316  28.474  31.605  1.00  0.00     0.074 A 
ATOM     62  C   UNL A   1      43.640  27.238  30.919  1.00  0.00     0.031 C 
ATOM     63  C   UNL A   1      44.055  29.005  32.609  1.00  0.00     0.031 A 
BRANCH  50  64
ATOM     64  C   UNL A   1      41.857  34.359  34.763  1.00  0.00    -0.014 A 
ATOM     65  C   UNL A   1      41.330  34.361  36.064  1.00  0.00     0.009 A 
ATOM     66  C   UNL A   1      42.588  35.472  34.323  1.00  0.00     0.009 A 
ATOM     67  C   UNL A   1      41.499  35.474  36.893  1.00  0.00     0.001 A 
ATOM     68  C   UNL A   1      42.777  36.572  35.162  1.00  0.00     0.001 A 
ATOM     69  C   UNL A   1      42.224  36.576  36.442  1.00  0.00     0.000 A 
ENDBRANCH  50  64
BRANCH  51  70
ATOM     70  C   UNL A   1      40.428  26.988  28.217  1.00  0.00    -0.014 A 
ATOM     71  C   UNL A   1      39.677  25.863  28.591  1.00  0.00     0.009 A 
ATOM     72  C   UNL A   1      40.966  27.050  26.923  1.00  0.00     0.009 A 
ATOM     73  C   UNL A   1      39.487  24.812  27.693  1.00  0.00     0.001 A 
ATOM     74  C   UNL A   1      40.754  26.006  26.020  1.00  0.00     0.001 A 
ATOM     75  C   UNL A   1      40.021  24.886  26.408  1.00  0.00     0.000 A 
ENDBRANCH  51  70
BRANCH  63  76
ATOM     76  C   UNL A   1      45.273  28.238  33.033  1.00  0.00    -0.014 A 
ATOM     77  C   UNL A   1      46.527  28.491  32.456  1.00  0.00     0.009 A 
ATOM     78  C   UNL A   1      45.166  27.258  34.033  1.00  0.00     0.009 A 
ATOM     79  C   UNL A   1      47.644  27.751  32.847  1.00  0.00     0.001 A 
ATOM     80  C   UNL A   1      46.290  26.537  34.438  1.00  0.00     0.001 A 
ATOM     81  C   UNL A   1      47.526  26.778  33.839  1.00  0.00     0.000 A 
ENDBRANCH  63  76
ENDBRANCH  37  38
ENDBRANCH  29  32
ENDBRANCH  27  28
ENDBRANCH  26  27
ENDBRANCH  25  26
ENDBRANCH  24  25
ENDBRANCH   1  24
TORSDOF 17
ENDMDL
MODEL 3
REMARK VINA RESULT:      -9.6      1.574      6.187
REMARK SMILES C[C@H](NC(=O)c1cc(S(=O)(=O)N(C)C)cs1)C(=O)NCCCCCCNC(=O)c1ccc(-c2c3nc(c(-c4ccccc4)c4ccc([nH]4)c(-c4ccccc4)c4nc(c(-c5ccccc5)c5ccc2[nH]5)C=C4)C=C3)cc1
REMARK SMILES IDX 21 1 20 2 19 3 17 4 18 5 2 7 1 8 3 9 4 10 5 12 6 13 7 14
REMARK SMILES IDX 16 15 8 16 15 17 9 18 10 19 11 20 12 21 13 22 14 23 22 24
REMARK SMILES IDX 23 25 24 26 25 27 26 28 27 29 28 31 29 32 30 33 76 34 31 35
REMARK SMILES IDX 75 36 32 37 33 38 34 39 69 40 35 41 74 42 68 43 70 44 36 45
REMARK SMILES IDX 73 46 67 47 66 48 37 50 59 51 44 52 58 53 45 54 48 55 57 56
REMARK SMILES IDX 71 57 46 58 47 59 56 61 72 62 49 63 38 64 39 65 43 66 40 67
REMARK SMILES IDX 42 68 41 69 60 70 61 71 65 72 62 73 64 74 63 75 50 76 51 77
REMARK SMILES IDX 55 78 52 79 54 80 53 81
REMARK H PARENT 19 6 3 11 26 30 70 49 48 60
REMARK Flexibility Score: inf
ROOT
ATOM      1  C   UNL A   1      33.079  29.298  25.023  1.00  0.00     0.021 C 
ENDROOT
BRANCH   1   2
ATOM      2  C   UNL A   1      33.339  27.801  25.165  1.00  0.00     0.116 C 
BRANCH   2   3
ATOM      3  N   UNL A   1      33.327  27.148  23.876  1.00  0.00    -0.354 N 
ATOM      4  C   UNL A   1      32.397  26.322  23.327  1.00  0.00     0.242 C 
ATOM      5  O   UNL A   1      32.636  25.866  22.204  1.00  0.00    -0.273 OA
ATOM      6  H   UNL A   1      34.112  27.329  23.309  1.00  0.00     0.163 HD
BRANCH   4   7
ATOM      7  C   UNL A   1      31.035  26.044  24.006  1.00  0.00     0.168 C 
ATOM      8  C   UNL A   1      30.056  27.150  23.651  1.00  0.00     0.041 C 
BRANCH   7   9
ATOM      9  N   UNL A   1      31.139  25.551  25.393  1.00  0.00    -0.340 N 
ATOM     10  C   UNL A   1      31.720  24.519  26.083  1.00  0.00     0.262 C 
ATOM     11  H   UNL A   1      30.643  26.139  26.006  1.00  0.00     0.164 HD
ATOM     12  O   UNL A   1      31.281  24.331  27.220  1.00  0.00    -0.268 OA
BRANCH  10  13
ATOM     13  C   UNL A   1      32.770  23.701  25.512  1.00  0.00     0.093 A 
ATOM     14  C   UNL A   1      34.133  23.709  25.727  1.00  0.00     0.047 A 
ATOM     15  S   UNL A   1      32.333  22.413  24.454  1.00  0.00    -0.137 S 
ATOM     16  C   UNL A   1      34.825  22.845  24.828  1.00  0.00     0.094 A 
ATOM     17  C   UNL A   1      33.964  22.069  24.084  1.00  0.00     0.087 A 
BRANCH  16  18
ATOM     18  S   UNL A   1      36.544  22.823  24.608  1.00  0.00     0.243 S 
ATOM     19  O   UNL A   1      36.725  22.573  23.196  1.00  0.00    -0.207 OA
ATOM     20  O   UNL A   1      36.952  24.063  25.232  1.00  0.00    -0.207 OA
BRANCH  18  21
ATOM     21  N   UNL A   1      37.216  21.525  25.491  1.00  0.00    -0.204 NA
ATOM     22  C   UNL A   1      36.918  20.182  24.944  1.00  0.00     0.124 C 
ATOM     23  C   UNL A   1      38.665  21.689  25.754  1.00  0.00     0.124 C 
ENDBRANCH  18  21
ENDBRANCH  16  18
ENDBRANCH  10  13
ENDBRANCH   7   9
ENDBRANCH   4   7
ENDBRANCH   2   3
ENDBRANCH   1   2
BRANCH   1  24
ATOM     24  C   UNL A   1      31.650  29.702  25.403  1.00  0.00     0.002 C 
BRANCH  24  25
ATOM     25  C   UNL A   1      31.512  30.376  26.773  1.00  0.00     0.002 C 
BRANCH  25  26
ATOM     26  C   UNL A   1      31.410  31.905  26.750  1.00  0.00     0.021 C 
BRANCH  26  27
ATOM     27  C   UNL A   1      32.724  32.644  26.991  1.00  0.00     0.116 C 
BRANCH  27  28
ATOM     28  N   UNL A   1      32.512  33.943  27.609  1.00  0.00    -0.352 N 
ATOM     29  C   UNL A   1      33.181  34.551  28.639  1.00  0.00     0.251 C 
ATOM     30  H   UNL A   1      31.773  34.468  27.227  1.00  0.00     0.163 HD
ATOM     31  O   UNL A   1      32.726  35.574  29.142  1.00  0.00    -0.269 OA
BRANCH  29  32
ATOM     32  C   UNL A   1      34.444  33.982  29.159  1.00  0.00     0.039 A 
ATOM     33  C   UNL A   1      34.388  33.152  30.283  1.00  0.00     0.014 A 
ATOM     34  C   UNL A   1      35.679  34.302  28.586  1.00  0.00     0.014 A 
ATOM     35  C   UNL A   1      35.563  32.610  30.806  1.00  0.00     0.010 A 
ATOM     36  C   UNL A   1      36.847  33.717  29.075  1.00  0.00     0.010 A 
ATOM     37  C   UNL A   1      36.799  32.872  30.194  1.00  0.00    -0.014 A 
BRANCH  37  38
ATOM     38  C   UNL A   1      38.046  32.262  30.719  1.00  0.00     0.031 A 
ATOM     39  C   UNL A   1      38.597  31.003  30.109  1.00  0.00     0.074 A 
ATOM     40  C   UNL A   1      38.664  32.825  31.773  1.00  0.00     0.049 A 
ATOM     41  N   UNL A   1      39.682  30.340  30.426  1.00  0.00    -0.248 NA
ATOM     42  C   UNL A   1      37.820  30.399  29.017  1.00  0.00     0.031 C 
ATOM     43  C   UNL A   1      38.210  34.023  32.482  1.00  0.00     0.029 A 
ATOM     44  N   UNL A   1      39.813  32.464  32.429  1.00  0.00    -0.354 N 
ATOM     45  C   UNL A   1      39.706  29.234  29.587  1.00  0.00     0.074 A 
ATOM     46  C   UNL A   1      38.511  29.294  28.773  1.00  0.00     0.031 C 
ATOM     47  C   UNL A   1      39.090  34.319  33.451  1.00  0.00     0.029 A 
ATOM     48  C   UNL A   1      40.154  33.320  33.448  1.00  0.00     0.049 A 
ATOM     49  H   UNL A   1      40.343  31.668  32.193  1.00  0.00     0.167 HD
ATOM     50  C   UNL A   1      40.645  28.262  29.492  1.00  0.00     0.031 A 
ATOM     51  C   UNL A   1      41.212  33.308  34.280  1.00  0.00     0.031 A 
ATOM     52  C   UNL A   1      41.843  28.207  30.287  1.00  0.00     0.049 A 
ATOM     53  C   UNL A   1      42.244  32.226  34.147  1.00  0.00     0.074 A 
ATOM     54  C   UNL A   1      42.891  27.306  30.209  1.00  0.00     0.029 A 
ATOM     55  N   UNL A   1      42.149  29.091  31.310  1.00  0.00    -0.354 N 
ATOM     56  N   UNL A   1      42.294  31.233  33.294  1.00  0.00    -0.248 NA
ATOM     57  C   UNL A   1      43.374  32.276  35.086  1.00  0.00     0.031 C 
ATOM     58  C   UNL A   1      43.813  27.620  31.214  1.00  0.00     0.029 A 
ATOM     59  C   UNL A   1      43.357  28.741  31.890  1.00  0.00     0.049 A 
ATOM     60  H   UNL A   1      41.591  29.852  31.585  1.00  0.00     0.167 HD
ATOM     61  C   UNL A   1      43.469  30.550  33.579  1.00  0.00     0.074 A 
ATOM     62  C   UNL A   1      44.108  31.253  34.674  1.00  0.00     0.031 C 
ATOM     63  C   UNL A   1      43.974  29.442  32.985  1.00  0.00     0.031 A 
BRANCH  50  64
ATOM     64  C   UNL A   1      40.400  27.166  28.493  1.00  0.00    -0.014 A 
ATOM     65  C   UNL A   1      39.632  26.039  28.825  1.00  0.00     0.009 A 
ATOM     66  C   UNL A   1      40.929  27.271  27.199  1.00  0.00     0.009 A 
ATOM     67  C   UNL A   1      39.432  25.020  27.890  1.00  0.00     0.001 A 
ATOM     68  C   UNL A   1      40.708  26.263  26.258  1.00  0.00     0.001 A 
ATOM     69  C   UNL A   1      39.968  25.134  26.608  1.00  0.00     0.000 A 
ENDBRANCH  50  64
BRANCH  51  70
ATOM     70  C   UNL A   1      41.371  34.385  35.288  1.00  0.00    -0.014 A 
ATOM     71  C   UNL A   1      42.078  35.553  34.963  1.00  0.00     0.009 A 
ATOM     72  C   UNL A   1      40.815  34.257  36.569  1.00  0.00     0.009 A 
ATOM     73  C   UNL A   1      42.242  36.565  35.911  1.00  0.00     0.001 A 
ATOM     74  C   UNL A   1      40.963  35.281  37.507  1.00  0.00     0.001 A 
ATOM     75  C   UNL A   1      41.681  36.430  37.180  1.00  0.00     0.000 A 
ENDBRANCH  51  70
BRANCH  63  76
ATOM     76  C   UNL A   1      45.291  28.938  33.499  1.00  0.00    -0.014 A 
ATOM     77  C   UNL A   1      46.501  29.351  32.922  1.00  0.00     0.009 A 
ATOM     78  C   UNL A   1      45.321  28.047  34.584  1.00  0.00     0.009 A 
ATOM     79  C   UNL A   1      47.716  28.855  33.398  1.00  0.00     0.001 A 
ATOM     80  C   UNL A   1      46.539  27.571  35.073  1.00  0.00     0.001 A 
ATOM     81  C   UNL A   1      47.733  27.968  34.474  1.00  0.00     0.000 A 
ENDBRANCH  63  76
ENDBRANCH  37  38
ENDBRANCH  29  32
ENDBRANCH  27  28
ENDBRANCH  26  27
ENDBRANCH  25  26
ENDBRANCH  24  25
ENDBRANCH   1  24
TORSDOF 17
ENDMDL
