MODEL 1
REMARK VINA RESULT:     -12.4      0.000      0.000
REMARK SMILES Cc1ccc(C(=O)N2C[C@@H](C(=O)NCCCCCCNC(=O)c3ccc(-c4c5nc(c(-c6ccccc6)c6ccc([nH]6)c(-c6ccccc6)c6nc(c(-c7ccccc7)c7ccc4[nH]7)C=C6)C=C5)cc3)C[C@H](C(=O)N3CCOCC3)C2)cc1F
REMARK SMILES IDX 16 1 15 2 14 3 13 4 11 5 12 6 10 8 8 9 9 10 81 11 72 12
REMARK SMILES IDX 71 13 6 14 7 15 5 16 1 17 2 18 3 19 83 20 4 21 82 22 84 23
REMARK SMILES IDX 73 24 74 25 75 26 76 27 80 28 77 29 79 30 78 31 17 32 18 33
REMARK SMILES IDX 19 34 20 35 21 36 22 38 23 39 24 40 70 41 25 42 69 43 26 44
REMARK SMILES IDX 27 45 28 46 63 47 29 48 68 49 62 50 64 51 30 52 67 53 61 54
REMARK SMILES IDX 60 55 31 57 53 58 38 59 52 60 39 61 42 62 51 63 65 64 40 65
REMARK SMILES IDX 41 66 50 68 66 69 43 70 32 71 33 72 37 73 34 74 36 75 35 76
REMARK SMILES IDX 54 77 55 78 59 79 56 80 58 81 57 82 44 83 45 84 49 85 46 86
REMARK SMILES IDX 48 87 47 88
REMARK H PARENT 13 7 20 37 64 56 42 67
REMARK Flexibility Score: inf
ROOT
ATOM      1  C   UNL A   1      39.632  22.398  26.616  1.00  0.00     0.002 C 
ENDROOT
BRANCH   1   2
ATOM      2  C   UNL A   1      38.927  23.750  26.472  1.00  0.00     0.021 C 
BRANCH   2   3
ATOM      3  C   UNL A   1      37.450  23.629  26.133  1.00  0.00     0.116 C 
BRANCH   3   4
ATOM      4  N   UNL A   1      37.254  23.703  24.702  1.00  0.00    -0.356 N 
ATOM      5  C   UNL A   1      36.262  23.205  23.930  1.00  0.00     0.224 C 
ATOM      6  O   UNL A   1      36.392  23.261  22.706  1.00  0.00    -0.275 OA
ATOM      7  H   UNL A   1      37.953  24.194  24.213  1.00  0.00     0.163 HD
BRANCH   5   8
ATOM      8  C   UNL A   1      35.023  22.600  24.546  1.00  0.00     0.099 C 
ATOM      9  N   UNL A   1      33.293  22.922  26.295  1.00  0.00    -0.337 N 
ATOM     10  C   UNL A   1      34.408  23.522  25.584  1.00  0.00     0.133 C 
ATOM     11  C   UNL A   1      33.489  21.579  26.838  1.00  0.00     0.133 C 
ATOM     12  C   UNL A   1      34.032  20.581  25.793  1.00  0.00     0.099 C 
ATOM     13  C   UNL A   1      35.191  21.137  24.967  1.00  0.00     0.030 C 
BRANCH   9  14
ATOM     14  C   UNL A   1      32.197  23.743  26.536  1.00  0.00     0.254 C 
ATOM     15  O   UNL A   1      31.487  23.618  27.533  1.00  0.00    -0.269 OA
BRANCH  14  16
ATOM     16  C   UNL A   1      31.747  24.718  25.520  1.00  0.00     0.042 A 
ATOM     17  C   UNL A   1      29.420  27.559  23.290  1.00  0.00     0.047 C 
ATOM     18  C   UNL A   1      30.299  26.569  23.993  1.00  0.00    -0.015 A 
ATOM     19  C   UNL A   1      30.291  25.212  23.646  1.00  0.00     0.007 A 
ATOM     20  C   UNL A   1      31.084  26.985  25.073  1.00  0.00     0.126 A 
ATOM     21  C   UNL A   1      31.008  24.286  24.410  1.00  0.00     0.014 A 
ATOM     22  C   UNL A   1      31.800  26.076  25.841  1.00  0.00     0.053 A 
ATOM     23  F   UNL A   1      31.097  28.279  25.424  1.00  0.00    -0.207 F 
ENDBRANCH  14  16
ENDBRANCH   9  14
BRANCH  12  24
ATOM     24  C   UNL A   1      32.853  19.894  25.089  1.00  0.00     0.227 C 
ATOM     25  O   UNL A   1      31.995  20.612  24.560  1.00  0.00    -0.275 OA
ATOM     26  N   UNL A   1      32.903  18.551  24.807  1.00  0.00    -0.338 N 
ATOM     27  C   UNL A   1      32.971  17.450  25.769  1.00  0.00     0.148 C 
ATOM     28  C   UNL A   1      32.498  18.092  23.481  1.00  0.00     0.148 C 
ATOM     29  C   UNL A   1      33.934  16.372  25.250  1.00  0.00     0.181 C 
ATOM     30  C   UNL A   1      33.458  16.989  23.014  1.00  0.00     0.181 C 
ATOM     31  O   UNL A   1      33.501  15.904  23.959  1.00  0.00    -0.378 OA
ENDBRANCH  12  24
ENDBRANCH   5   8
ENDBRANCH   3   4
ENDBRANCH   2   3
ENDBRANCH   1   2
BRANCH   1  32
ATOM     32  C   UNL A   1      39.019  21.268  25.782  1.00  0.00     0.002 C 
BRANCH  32  33
ATOM     33  C   UNL A   1      39.757  19.932  25.880  1.00  0.00     0.021 C 
BRANCH  33  34
ATOM     34  C   UNL A   1      40.998  19.981  26.756  1.00  0.00     0.116 C 
BRANCH  34  35
ATOM     35  N   UNL A   1      42.197  19.650  26.008  1.00  0.00    -0.352 N 
ATOM     36  C   UNL A   1      43.174  20.502  25.564  1.00  0.00     0.251 C 
ATOM     37  H   UNL A   1      42.324  18.698  25.794  1.00  0.00     0.163 HD
ATOM     38  O   UNL A   1      44.027  20.128  24.767  1.00  0.00    -0.269 OA
BRANCH  36  39
ATOM     39  C   UNL A   1      43.167  21.892  26.057  1.00  0.00     0.039 A 
ATOM     40  C   UNL A   1      43.337  22.136  27.419  1.00  0.00     0.014 A 
ATOM     41  C   UNL A   1      43.043  22.948  25.148  1.00  0.00     0.014 A 
ATOM     42  C   UNL A   1      43.426  23.452  27.872  1.00  0.00     0.010 A 
ATOM     43  C   UNL A   1      43.218  24.251  25.589  1.00  0.00     0.010 A 
ATOM     44  C   UNL A   1      43.393  24.517  26.957  1.00  0.00    -0.014 A 
BRANCH  44  45
ATOM     45  C   UNL A   1      43.486  25.929  27.394  1.00  0.00     0.031 A 
ATOM     46  C   UNL A   1      44.844  26.556  27.554  1.00  0.00     0.074 A 
ATOM     47  C   UNL A   1      42.376  26.612  27.729  1.00  0.00     0.049 A 
ATOM     48  N   UNL A   1      45.164  27.717  28.065  1.00  0.00    -0.248 NA
ATOM     49  C   UNL A   1      45.998  25.755  27.112  1.00  0.00     0.031 C 
ATOM     50  C   UNL A   1      41.005  26.110  27.632  1.00  0.00     0.029 A 
ATOM     51  N   UNL A   1      42.230  27.879  28.236  1.00  0.00    -0.354 N 
ATOM     52  C   UNL A   1      46.552  27.771  28.030  1.00  0.00     0.074 A 
ATOM     53  C   UNL A   1      47.015  26.508  27.500  1.00  0.00     0.031 C 
ATOM     54  C   UNL A   1      40.157  27.064  28.049  1.00  0.00     0.029 A 
ATOM     55  C   UNL A   1      40.925  28.223  28.492  1.00  0.00     0.049 A 
ATOM     56  H   UNL A   1      42.989  28.484  28.402  1.00  0.00     0.167 HD
ATOM     57  C   UNL A   1      47.368  28.788  28.391  1.00  0.00     0.031 A 
ATOM     58  C   UNL A   1      40.408  29.341  29.039  1.00  0.00     0.031 A 
ATOM     59  C   UNL A   1      46.901  30.047  28.902  1.00  0.00     0.049 A 
ATOM     60  C   UNL A   1      41.339  30.446  29.462  1.00  0.00     0.074 A 
ATOM     61  C   UNL A   1      47.643  31.160  29.253  1.00  0.00     0.029 A 
ATOM     62  N   UNL A   1      45.570  30.359  29.131  1.00  0.00    -0.354 N 
ATOM     63  N   UNL A   1      42.647  30.501  29.383  1.00  0.00    -0.248 NA
ATOM     64  C   UNL A   1      40.722  31.647  30.045  1.00  0.00     0.031 C 
ATOM     65  C   UNL A   1      46.764  32.128  29.748  1.00  0.00     0.029 A 
ATOM     66  C   UNL A   1      45.471  31.642  29.640  1.00  0.00     0.049 A 
ATOM     67  H   UNL A   1      44.810  29.758  28.959  1.00  0.00     0.167 HD
ATOM     68  C   UNL A   1      43.003  31.755  29.862  1.00  0.00     0.074 A 
ATOM     69  C   UNL A   1      41.775  32.429  30.230  1.00  0.00     0.031 C 
ATOM     70  C   UNL A   1      44.237  32.303  29.978  1.00  0.00     0.031 A 
BRANCH  57  71
ATOM     71  C   UNL A   1      48.849  28.571  28.256  1.00  0.00    -0.014 A 
ATOM     72  C   UNL A   1      49.532  28.903  27.076  1.00  0.00     0.009 A 
ATOM     73  C   UNL A   1      49.579  28.055  29.339  1.00  0.00     0.009 A 
ATOM     74  C   UNL A   1      50.907  28.687  26.967  1.00  0.00     0.001 A 
ATOM     75  C   UNL A   1      50.959  27.872  29.240  1.00  0.00     0.001 A 
ATOM     76  C   UNL A   1      51.620  28.176  28.052  1.00  0.00     0.000 A 
ENDBRANCH  57  71
BRANCH  58  77
ATOM     77  C   UNL A   1      38.938  29.477  29.215  1.00  0.00    -0.014 A 
ATOM     78  C   UNL A   1      38.336  29.158  30.442  1.00  0.00     0.009 A 
ATOM     79  C   UNL A   1      38.127  29.912  28.156  1.00  0.00     0.009 A 
ATOM     80  C   UNL A   1      36.950  29.241  30.595  1.00  0.00     0.001 A 
ATOM     81  C   UNL A   1      36.744  30.026  28.321  1.00  0.00     0.001 A 
ATOM     82  C   UNL A   1      36.156  29.679  29.536  1.00  0.00     0.000 A 
ENDBRANCH  58  77
BRANCH  70  83
ATOM     83  C   UNL A   1      44.330  33.723  30.458  1.00  0.00    -0.014 A 
ATOM     84  C   UNL A   1      44.521  34.032  31.813  1.00  0.00     0.009 A 
ATOM     85  C   UNL A   1      44.313  34.766  29.516  1.00  0.00     0.009 A 
ATOM     86  C   UNL A   1      44.676  35.360  32.217  1.00  0.00     0.001 A 
ATOM     87  C   UNL A   1      44.498  36.089  29.920  1.00  0.00     0.001 A 
ATOM     88  C   UNL A   1      44.674  36.384  31.270  1.00  0.00     0.000 A 
ENDBRANCH  70  83
ENDBRANCH  44  45
ENDBRANCH  36  39
ENDBRANCH  34  35
ENDBRANCH  33  34
ENDBRANCH  32  33
ENDBRANCH   1  32
TORSDOF 16
ENDMDL
MODEL 2
REMARK VINA RESULT:     -12.2      5.504     10.782
REMARK SMILES Cc1ccc(C(=O)N2C[C@@H](C(=O)NCCCCCCNC(=O)c3ccc(-c4c5nc(c(-c6ccccc6)c6ccc([nH]6)c(-c6ccccc6)c6nc(c(-c7ccccc7)c7ccc4[nH]7)C=C6)C=C5)cc3)C[C@H](C(=O)N3CCOCC3)C2)cc1F
REMARK SMILES IDX 16 1 15 2 14 3 13 4 11 5 12 6 10 8 8 9 9 10 81 11 72 12
REMARK SMILES IDX 71 13 6 14 7 15 5 16 1 17 2 18 3 19 83 20 4 21 82 22 84 23
REMARK SMILES IDX 73 24 74 25 75 26 76 27 80 28 77 29 79 30 78 31 17 32 18 33
REMARK SMILES IDX 19 34 20 35 21 36 22 38 23 39 24 40 70 41 25 42 69 43 26 44
REMARK SMILES IDX 27 45 28 46 63 47 29 48 68 49 62 50 64 51 30 52 67 53 61 54
REMARK SMILES IDX 60 55 31 57 53 58 38 59 52 60 39 61 42 62 51 63 65 64 40 65
REMARK SMILES IDX 41 66 50 68 66 69 43 70 32 71 33 72 37 73 34 74 36 75 35 76
REMARK SMILES IDX 54 77 55 78 59 79 56 80 58 81 57 82 44 83 45 84 49 85 46 86
REMARK SMILES IDX 48 87 47 88
REMARK H PARENT 13 7 20 37 64 56 42 67
REMARK Flexibility Score: inf
ROOT
ATOM      1  C   UNL A   1      34.262  32.228  28.812  1.00  0.00     0.002 C 
ENDROOT
BRANCH   1   2
ATOM      2  C   UNL A   1      34.576  31.180  27.740  1.00  0.00     0.021 C 
BRANCH   2   3
ATOM      3  C   UNL A   1      33.351  30.728  26.961  1.00  0.00     0.116 C 
BRANCH   3   4
ATOM      4  N   UNL A   1      32.697  29.631  27.640  1.00  0.00    -0.356 N 
ATOM      5  C   UNL A   1      32.002  28.585  27.140  1.00  0.00     0.224 C 
ATOM      6  O   UNL A   1      31.399  27.856  27.929  1.00  0.00    -0.275 OA
ATOM      7  H   UNL A   1      32.771  29.649  28.621  1.00  0.00     0.163 HD
BRANCH   5   8
ATOM      8  C   UNL A   1      31.966  28.310  25.655  1.00  0.00     0.099 C 
ATOM      9  N   UNL A   1      33.261  27.366  23.761  1.00  0.00    -0.337 N 
ATOM     10  C   UNL A   1      33.191  27.535  25.202  1.00  0.00     0.133 C 
ATOM     11  C   UNL A   1      33.059  28.556  22.936  1.00  0.00     0.133 C 
ATOM     12  C   UNL A   1      31.776  29.331  23.303  1.00  0.00     0.099 C 
ATOM     13  C   UNL A   1      31.595  29.530  24.807  1.00  0.00     0.030 C 
BRANCH   9  14
ATOM     14  C   UNL A   1      33.676  26.121  23.303  1.00  0.00     0.254 C 
ATOM     15  O   UNL A   1      33.965  25.916  22.124  1.00  0.00    -0.269 OA
BRANCH  14  16
ATOM     16  C   UNL A   1      33.647  24.941  24.192  1.00  0.00     0.042 A 
ATOM     17  C   UNL A   1      33.199  22.372  27.607  1.00  0.00     0.047 C 
ATOM     18  C   UNL A   1      33.396  23.191  26.366  1.00  0.00    -0.015 A 
ATOM     19  C   UNL A   1      34.645  23.735  26.044  1.00  0.00     0.007 A 
ATOM     20  C   UNL A   1      32.298  23.490  25.554  1.00  0.00     0.126 A 
ATOM     21  C   UNL A   1      34.772  24.613  24.963  1.00  0.00     0.014 A 
ATOM     22  C   UNL A   1      32.410  24.361  24.478  1.00  0.00     0.053 A 
ATOM     23  F   UNL A   1      31.093  22.983  25.853  1.00  0.00    -0.207 F 
ENDBRANCH  14  16
ENDBRANCH   9  14
BRANCH  12  24
ATOM     24  C   UNL A   1      30.607  28.805  22.456  1.00  0.00     0.227 C 
ATOM     25  O   UNL A   1      30.691  27.657  22.001  1.00  0.00    -0.275 OA
ATOM     26  N   UNL A   1      29.404  29.467  22.452  1.00  0.00    -0.338 N 
ATOM     27  C   UNL A   1      29.146  30.824  21.967  1.00  0.00     0.148 C 
ATOM     28  C   UNL A   1      28.172  28.694  22.591  1.00  0.00     0.148 C 
ATOM     29  C   UNL A   1      28.166  31.530  22.915  1.00  0.00     0.181 C 
ATOM     30  C   UNL A   1      27.204  29.450  23.511  1.00  0.00     0.181 C 
ATOM     31  O   UNL A   1      26.944  30.775  23.013  1.00  0.00    -0.378 OA
ENDBRANCH  12  24
ENDBRANCH   5   8
ENDBRANCH   3   4
ENDBRANCH   2   3
ENDBRANCH   1   2
BRANCH   1  32
ATOM     32  C   UNL A   1      34.186  33.668  28.293  1.00  0.00     0.002 C 
BRANCH  32  33
ATOM     33  C   UNL A   1      33.026  34.487  28.859  1.00  0.00     0.021 C 
BRANCH  33  34
ATOM     34  C   UNL A   1      33.420  35.888  29.296  1.00  0.00     0.116 C 
BRANCH  34  35
ATOM     35  N   UNL A   1      32.582  36.368  30.380  1.00  0.00    -0.352 N 
ATOM     36  C   UNL A   1      32.612  35.991  31.697  1.00  0.00     0.251 C 
ATOM     37  H   UNL A   1      31.912  37.048  30.140  1.00  0.00     0.163 HD
ATOM     38  O   UNL A   1      31.716  36.316  32.470  1.00  0.00    -0.269 OA
BRANCH  36  39
ATOM     39  C   UNL A   1      33.741  35.166  32.163  1.00  0.00     0.039 A 
ATOM     40  C   UNL A   1      33.514  33.841  32.535  1.00  0.00     0.014 A 
ATOM     41  C   UNL A   1      35.032  35.703  32.176  1.00  0.00     0.014 A 
ATOM     42  C   UNL A   1      34.596  33.033  32.883  1.00  0.00     0.010 A 
ATOM     43  C   UNL A   1      36.113  34.876  32.440  1.00  0.00     0.010 A 
ATOM     44  C   UNL A   1      35.905  33.538  32.813  1.00  0.00    -0.014 A 
BRANCH  44  45
ATOM     45  C   UNL A   1      37.082  32.715  33.172  1.00  0.00     0.031 A 
ATOM     46  C   UNL A   1      37.795  32.985  34.469  1.00  0.00     0.074 A 
ATOM     47  C   UNL A   1      37.562  31.800  32.308  1.00  0.00     0.049 A 
ATOM     48  N   UNL A   1      38.924  32.494  34.909  1.00  0.00    -0.248 NA
ATOM     49  C   UNL A   1      37.168  33.962  35.375  1.00  0.00     0.031 C 
ATOM     50  C   UNL A   1      36.970  31.458  31.014  1.00  0.00     0.029 A 
ATOM     51  N   UNL A   1      38.673  30.999  32.387  1.00  0.00    -0.354 N 
ATOM     52  C   UNL A   1      39.155  33.124  36.127  1.00  0.00     0.074 A 
ATOM     53  C   UNL A   1      38.080  34.068  36.329  1.00  0.00     0.031 C 
ATOM     54  C   UNL A   1      37.714  30.506  30.429  1.00  0.00     0.029 A 
ATOM     55  C   UNL A   1      38.862  30.208  31.280  1.00  0.00     0.049 A 
ATOM     56  H   UNL A   1      39.279  30.992  33.163  1.00  0.00     0.167 HD
ATOM     57  C   UNL A   1      40.163  32.921  37.005  1.00  0.00     0.031 A 
ATOM     58  C   UNL A   1      39.858  29.353  30.978  1.00  0.00     0.031 A 
ATOM     59  C   UNL A   1      41.220  31.969  36.807  1.00  0.00     0.049 A 
ATOM     60  C   UNL A   1      40.986  29.168  31.958  1.00  0.00     0.074 A 
ATOM     61  C   UNL A   1      42.264  31.653  37.657  1.00  0.00     0.029 A 
ATOM     62  N   UNL A   1      41.365  31.178  35.678  1.00  0.00    -0.354 N 
ATOM     63  N   UNL A   1      41.169  29.738  33.124  1.00  0.00    -0.248 NA
ATOM     64  C   UNL A   1      42.042  28.217  31.582  1.00  0.00     0.031 C 
ATOM     65  C   UNL A   1      43.073  30.709  37.019  1.00  0.00     0.029 A 
ATOM     66  C   UNL A   1      42.494  30.388  35.801  1.00  0.00     0.049 A 
ATOM     67  H   UNL A   1      40.756  31.178  34.904  1.00  0.00     0.167 HD
ATOM     68  C   UNL A   1      42.333  29.182  33.640  1.00  0.00     0.074 A 
ATOM     69  C   UNL A   1      42.814  28.230  32.660  1.00  0.00     0.031 C 
ATOM     70  C   UNL A   1      42.944  29.430  34.824  1.00  0.00     0.031 A 
BRANCH  57  71
ATOM     71  C   UNL A   1      40.174  33.756  38.255  1.00  0.00    -0.014 A 
ATOM     72  C   UNL A   1      40.880  34.968  38.319  1.00  0.00     0.009 A 
ATOM     73  C   UNL A   1      39.440  33.341  39.377  1.00  0.00     0.009 A 
ATOM     74  C   UNL A   1      40.884  35.725  39.492  1.00  0.00     0.001 A 
ATOM     75  C   UNL A   1      39.417  34.117  40.537  1.00  0.00     0.001 A 
ATOM     76  C   UNL A   1      40.148  35.301  40.598  1.00  0.00     0.000 A 
ENDBRANCH  57  71
BRANCH  58  77
ATOM     77  C   UNL A   1      39.836  28.602  29.695  1.00  0.00    -0.014 A 
ATOM     78  C   UNL A   1      39.286  27.312  29.635  1.00  0.00     0.009 A 
ATOM     79  C   UNL A   1      40.377  29.161  28.527  1.00  0.00     0.009 A 
ATOM     80  C   UNL A   1      39.307  26.586  28.442  1.00  0.00     0.001 A 
ATOM     81  C   UNL A   1      40.367  28.446  27.327  1.00  0.00     0.001 A 
ATOM     82  C   UNL A   1      39.843  27.156  27.288  1.00  0.00     0.000 A 
ENDBRANCH  58  77
BRANCH  70  83
ATOM     83  C   UNL A   1      44.161  28.620  35.167  1.00  0.00    -0.014 A 
ATOM     84  C   UNL A   1      44.060  27.359  35.773  1.00  0.00     0.009 A 
ATOM     85  C   UNL A   1      45.429  29.098  34.793  1.00  0.00     0.009 A 
ATOM     86  C   UNL A   1      45.207  26.600  36.013  1.00  0.00     0.001 A 
ATOM     87  C   UNL A   1      46.569  28.323  35.007  1.00  0.00     0.001 A 
ATOM     88  C   UNL A   1      46.457  27.078  35.621  1.00  0.00     0.000 A 
ENDBRANCH  70  83
ENDBRANCH  44  45
ENDBRANCH  36  39
ENDBRANCH  34  35
ENDBRANCH  33  34
ENDBRANCH  32  33
ENDBRANCH   1  32
TORSDOF 16
ENDMDL
MODEL 3
REMARK VINA RESULT:     -12.1      3.493      8.886
REMARK SMILES Cc1ccc(C(=O)N2C[C@@H](C(=O)NCCCCCCNC(=O)c3ccc(-c4c5nc(c(-c6ccccc6)c6ccc([nH]6)c(-c6ccccc6)c6nc(c(-c7ccccc7)c7ccc4[nH]7)C=C6)C=C5)cc3)C[C@H](C(=O)N3CCOCC3)C2)cc1F
REMARK SMILES IDX 16 1 15 2 14 3 13 4 11 5 12 6 10 8 8 9 9 10 81 11 72 12
REMARK SMILES IDX 71 13 6 14 7 15 5 16 1 17 2 18 3 19 83 20 4 21 82 22 84 23
REMARK SMILES IDX 73 24 74 25 75 26 76 27 80 28 77 29 79 30 78 31 17 32 18 33
REMARK SMILES IDX 19 34 20 35 21 36 22 38 23 39 24 40 70 41 25 42 69 43 26 44
REMARK SMILES IDX 27 45 28 46 63 47 29 48 68 49 62 50 64 51 30 52 67 53 61 54
REMARK SMILES IDX 60 55 31 57 53 58 38 59 52 60 39 61 42 62 51 63 65 64 40 65
REMARK SMILES IDX 41 66 50 68 66 69 43 70 32 71 33 72 37 73 34 74 36 75 35 76
REMARK SMILES IDX 54 77 55 78 59 79 56 80 58 81 57 82 44 83 45 84 49 85 46 86
REMARK SMILES IDX 48 87 47 88
REMARK H PARENT 13 7 20 37 64 56 42 67
REMARK Flexibility Score: inf
ROOT
ATOM      1  C   UNL A   1      34.923  31.911  28.002  1.00  0.00     0.002 C 
ENDROOT
BRANCH   1   2
ATOM      2  C   UNL A   1      33.664  31.161  27.555  1.00  0.00     0.021 C 
BRANCH   2   3
ATOM      3  C   UNL A   1      33.950  29.768  27.018  1.00  0.00     0.116 C 
BRANCH   3   4
ATOM      4  N   UNL A   1      33.011  28.814  27.565  1.00  0.00    -0.356 N 
ATOM      5  C   UNL A   1      32.040  28.098  26.955  1.00  0.00     0.224 C 
ATOM      6  O   UNL A   1      31.256  27.460  27.661  1.00  0.00    -0.275 OA
ATOM      7  H   UNL A   1      33.092  28.662  28.534  1.00  0.00     0.163 HD
BRANCH   5   8
ATOM      8  C   UNL A   1      31.918  28.071  25.450  1.00  0.00     0.099 C 
ATOM      9  N   UNL A   1      33.068  27.394  23.358  1.00  0.00    -0.337 N 
ATOM     10  C   UNL A   1      33.077  27.328  24.809  1.00  0.00     0.133 C 
ATOM     11  C   UNL A   1      32.887  28.711  22.749  1.00  0.00     0.133 C 
ATOM     12  C   UNL A   1      31.666  29.471  23.308  1.00  0.00     0.099 C 
ATOM     13  C   UNL A   1      31.569  29.428  24.832  1.00  0.00     0.030 C 
BRANCH   9  14
ATOM     14  C   UNL A   1      33.394  26.224  22.682  1.00  0.00     0.254 C 
ATOM     15  O   UNL A   1      33.841  26.229  21.536  1.00  0.00    -0.269 OA
BRANCH  14  16
ATOM     16  C   UNL A   1      33.077  24.903  23.264  1.00  0.00     0.042 A 
ATOM     17  C   UNL A   1      32.346  20.701  23.775  1.00  0.00     0.047 C 
ATOM     18  C   UNL A   1      32.570  22.181  23.691  1.00  0.00    -0.015 A 
ATOM     19  C   UNL A   1      31.508  23.066  23.463  1.00  0.00     0.007 A 
ATOM     20  C   UNL A   1      33.871  22.688  23.759  1.00  0.00     0.126 A 
ATOM     21  C   UNL A   1      31.760  24.424  23.244  1.00  0.00     0.014 A 
ATOM     22  C   UNL A   1      34.134  24.034  23.542  1.00  0.00     0.053 A 
ATOM     23  F   UNL A   1      34.899  21.854  23.969  1.00  0.00    -0.207 F 
ENDBRANCH  14  16
ENDBRANCH   9  14
BRANCH  12  24
ATOM     24  C   UNL A   1      30.431  29.142  22.455  1.00  0.00     0.227 C 
ATOM     25  O   UNL A   1      30.350  28.009  21.964  1.00  0.00    -0.275 OA
ATOM     26  N   UNL A   1      29.334  29.967  22.481  1.00  0.00    -0.338 N 
ATOM     27  C   UNL A   1      29.268  31.361  22.040  1.00  0.00     0.148 C 
ATOM     28  C   UNL A   1      28.006  29.371  22.607  1.00  0.00     0.148 C 
ATOM     29  C   UNL A   1      28.401  32.169  23.017  1.00  0.00     0.181 C 
ATOM     30  C   UNL A   1      27.158  30.228  23.557  1.00  0.00     0.181 C 
ATOM     31  O   UNL A   1      27.086  31.591  23.103  1.00  0.00    -0.378 OA
ENDBRANCH  12  24
ENDBRANCH   5   8
ENDBRANCH   3   4
ENDBRANCH   2   3
ENDBRANCH   1   2
BRANCH   1  32
ATOM     32  C   UNL A   1      34.688  33.374  28.395  1.00  0.00     0.002 C 
BRANCH  32  33
ATOM     33  C   UNL A   1      34.356  33.590  29.872  1.00  0.00     0.021 C 
BRANCH  33  34
ATOM     34  C   UNL A   1      34.660  32.389  30.751  1.00  0.00     0.116 C 
BRANCH  34  35
ATOM     35  N   UNL A   1      34.894  32.778  32.130  1.00  0.00    -0.352 N 
ATOM     36  C   UNL A   1      36.005  32.536  32.896  1.00  0.00     0.251 C 
ATOM     37  H   UNL A   1      34.168  33.278  32.568  1.00  0.00     0.163 HD
ATOM     38  O   UNL A   1      35.996  32.734  34.106  1.00  0.00    -0.269 OA
BRANCH  36  39
ATOM     39  C   UNL A   1      37.212  32.012  32.232  1.00  0.00     0.039 A 
ATOM     40  C   UNL A   1      37.983  31.045  32.876  1.00  0.00     0.014 A 
ATOM     41  C   UNL A   1      37.540  32.451  30.944  1.00  0.00     0.014 A 
ATOM     42  C   UNL A   1      39.068  30.479  32.208  1.00  0.00     0.010 A 
ATOM     43  C   UNL A   1      38.567  31.827  30.252  1.00  0.00     0.010 A 
ATOM     44  C   UNL A   1      39.352  30.849  30.883  1.00  0.00    -0.014 A 
BRANCH  44  45
ATOM     45  C   UNL A   1      40.494  30.273  30.136  1.00  0.00     0.031 A 
ATOM     46  C   UNL A   1      41.714  31.119  29.900  1.00  0.00     0.074 A 
ATOM     47  C   UNL A   1      40.404  29.041  29.599  1.00  0.00     0.049 A 
ATOM     48  N   UNL A   1      42.758  30.875  29.151  1.00  0.00    -0.248 NA
ATOM     49  C   UNL A   1      41.749  32.430  30.571  1.00  0.00     0.031 C 
ATOM     50  C   UNL A   1      39.268  28.130  29.743  1.00  0.00     0.029 A 
ATOM     51  N   UNL A   1      41.285  28.350  28.805  1.00  0.00    -0.354 N 
ATOM     52  C   UNL A   1      43.555  32.010  29.238  1.00  0.00     0.074 A 
ATOM     53  C   UNL A   1      42.852  32.962  30.068  1.00  0.00     0.031 C 
ATOM     54  C   UNL A   1      39.529  26.994  29.076  1.00  0.00     0.029 A 
ATOM     55  C   UNL A   1      40.824  27.117  28.415  1.00  0.00     0.049 A 
ATOM     56  H   UNL A   1      42.164  28.706  28.541  1.00  0.00     0.167 HD
ATOM     57  C   UNL A   1      44.772  32.233  28.692  1.00  0.00     0.031 A 
ATOM     58  C   UNL A   1      41.376  26.197  27.600  1.00  0.00     0.031 A 
ATOM     59  C   UNL A   1      45.474  31.277  27.882  1.00  0.00     0.049 A 
ATOM     60  C   UNL A   1      42.717  26.482  26.977  1.00  0.00     0.074 A 
ATOM     61  C   UNL A   1      46.732  31.386  27.318  1.00  0.00     0.029 A 
ATOM     62  N   UNL A   1      44.977  30.033  27.522  1.00  0.00    -0.354 N 
ATOM     63  N   UNL A   1      43.479  27.541  27.104  1.00  0.00    -0.248 NA
ATOM     64  C   UNL A   1      43.278  25.440  26.104  1.00  0.00     0.031 C 
ATOM     65  C   UNL A   1      46.975  30.230  26.571  1.00  0.00     0.029 A 
ATOM     66  C   UNL A   1      45.896  29.373  26.727  1.00  0.00     0.049 A 
ATOM     67  H   UNL A   1      44.101  29.674  27.793  1.00  0.00     0.167 HD
ATOM     68  C   UNL A   1      44.625  27.275  26.366  1.00  0.00     0.074 A 
ATOM     69  C   UNL A   1      44.459  25.955  25.793  1.00  0.00     0.031 C 
ATOM     70  C   UNL A   1      45.722  28.050  26.185  1.00  0.00     0.031 A 
BRANCH  57  71
ATOM     71  C   UNL A   1      45.412  33.569  28.944  1.00  0.00    -0.014 A 
ATOM     72  C   UNL A   1      45.166  34.668  28.106  1.00  0.00     0.009 A 
ATOM     73  C   UNL A   1      46.252  33.741  30.056  1.00  0.00     0.009 A 
ATOM     74  C   UNL A   1      45.777  35.899  28.352  1.00  0.00     0.001 A 
ATOM     75  C   UNL A   1      46.834  34.981  30.320  1.00  0.00     0.001 A 
ATOM     76  C   UNL A   1      46.606  36.055  29.462  1.00  0.00     0.000 A 
ENDBRANCH  57  71
BRANCH  58  77
ATOM     77  C   UNL A   1      40.668  24.918  27.326  1.00  0.00    -0.014 A 
ATOM     78  C   UNL A   1      41.136  23.715  27.877  1.00  0.00     0.009 A 
ATOM     79  C   UNL A   1      39.532  24.889  26.504  1.00  0.00     0.009 A 
ATOM     80  C   UNL A   1      40.500  22.506  27.584  1.00  0.00     0.001 A 
ATOM     81  C   UNL A   1      38.877  23.684  26.239  1.00  0.00     0.001 A 
ATOM     82  C   UNL A   1      39.369  22.492  26.768  1.00  0.00     0.000 A 
ENDBRANCH  58  77
BRANCH  70  83
ATOM     83  C   UNL A   1      46.862  27.477  25.395  1.00  0.00    -0.014 A 
ATOM     84  C   UNL A   1      47.031  27.762  24.032  1.00  0.00     0.009 A 
ATOM     85  C   UNL A   1      47.834  26.706  26.056  1.00  0.00     0.009 A 
ATOM     86  C   UNL A   1      48.142  27.272  23.343  1.00  0.00     0.001 A 
ATOM     87  C   UNL A   1      48.958  26.244  25.372  1.00  0.00     0.001 A 
ATOM     88  C   UNL A   1      49.108  26.523  24.015  1.00  0.00     0.000 A 
ENDBRANCH  70  83
ENDBRANCH  44  45
ENDBRANCH  36  39
ENDBRANCH  34  35
ENDBRANCH  33  34
ENDBRANCH  32  33
ENDBRANCH   1  32
TORSDOF 16
ENDMDL
