MODEL 1
REMARK VINA RESULT:     -10.4      0.000      0.000
REMARK SMILES CSCC[C@@H](C(=O)NCCCCCCNC(=O)c1ccc(-c2c3nc(c(-c4ccccc4)c4ccc([nH]4)c(-c4ccccc4)c4nc(c(-c5ccccc5)c5ccc2[nH]5)C=C4)C=C3)cc1)N1C(=O)/C(=C/c2ccc(-c3ccccc3Cl)o2)SC1=S
REMARK SMILES IDX 11 1 10 2 9 3 8 4 6 5 7 6 5 8 4 9 3 10 2 11 1 12 66 13 67 14
REMARK SMILES IDX 84 15 68 16 69 17 83 18 85 19 70 20 71 21 72 22 82 23 73 24
REMARK SMILES IDX 74 25 75 26 76 27 80 28 77 29 79 30 81 31 78 32 12 33 13 34
REMARK SMILES IDX 14 35 15 36 16 37 17 39 18 40 19 41 65 42 20 43 64 44 21 45
REMARK SMILES IDX 22 46 23 47 58 48 24 49 63 50 57 51 59 52 25 53 62 54 56 55
REMARK SMILES IDX 55 56 26 58 48 59 33 60 47 61 34 62 37 63 46 64 60 65 35 66
REMARK SMILES IDX 36 67 45 69 61 70 38 71 27 72 28 73 32 74 29 75 31 76 30 77
REMARK SMILES IDX 49 78 50 79 54 80 51 81 53 82 52 83 39 84 40 85 44 86 41 87
REMARK SMILES IDX 43 88 42 89
REMARK H PARENT 8 7 15 38 59 57 37 68
REMARK Flexibility Score: inf
ROOT
ATOM      1  C   UNL A   1      35.338  22.770  24.366  1.00  0.00     0.002 C 
ENDROOT
BRANCH   1   2
ATOM      2  C   UNL A   1      34.788  23.974  23.596  1.00  0.00     0.021 C 
BRANCH   2   3
ATOM      3  C   UNL A   1      34.313  25.098  24.521  1.00  0.00     0.116 C 
BRANCH   3   4
ATOM      4  N   UNL A   1      34.088  26.299  23.754  1.00  0.00    -0.354 N 
ATOM      5  C   UNL A   1      33.077  27.208  23.783  1.00  0.00     0.243 C 
ATOM      6  O   UNL A   1      33.105  28.072  22.900  1.00  0.00    -0.273 OA
ATOM      7  H   UNL A   1      34.790  26.496  23.092  1.00  0.00     0.163 HD
BRANCH   5   8
ATOM      8  C   UNL A   1      31.979  27.199  24.884  1.00  0.00     0.182 C 
BRANCH   8   9
ATOM      9  C   UNL A   1      30.531  26.972  24.400  1.00  0.00     0.046 C 
BRANCH   9  10
ATOM     10  C   UNL A   1      29.816  25.635  24.598  1.00  0.00     0.072 C 
BRANCH  10  11
ATOM     11  S   UNL A   1      30.847  24.130  24.647  1.00  0.00    -0.165 SA
ATOM     12  C   UNL A   1      31.047  23.845  26.419  1.00  0.00     0.085 C 
ENDBRANCH  10  11
ENDBRANCH   9  10
ENDBRANCH   8   9
BRANCH   8  13
ATOM     13  N   UNL A   1      32.165  28.521  25.578  1.00  0.00    -0.280 N 
ATOM     14  C   UNL A   1      33.255  28.640  26.440  1.00  0.00     0.267 C 
ATOM     15  C   UNL A   1      31.511  29.712  25.298  1.00  0.00     0.149 C 
ATOM     16  O   UNL A   1      34.024  27.738  26.744  1.00  0.00    -0.268 OA
ATOM     17  C   UNL A   1      33.373  30.030  26.967  1.00  0.00     0.084 C 
ATOM     18  S   UNL A   1      32.041  30.962  26.412  1.00  0.00    -0.054 SA
ATOM     19  S   UNL A   1      30.362  30.093  24.146  1.00  0.00    -0.052 S 
ATOM     20  C   UNL A   1      34.389  30.459  27.732  1.00  0.00     0.068 C 
BRANCH  20  21
ATOM     21  C   UNL A   1      34.386  31.750  28.340  1.00  0.00     0.128 A 
ATOM     22  C   UNL A   1      34.226  32.982  27.713  1.00  0.00     0.051 A 
ATOM     23  O   UNL A   1      34.534  31.990  29.694  1.00  0.00    -0.457 OA
ATOM     24  C   UNL A   1      34.331  33.989  28.691  1.00  0.00     0.051 A 
ATOM     25  C   UNL A   1      34.539  33.342  29.888  1.00  0.00     0.136 A 
BRANCH  25  26
ATOM     26  C   UNL A   1      34.722  33.857  31.241  1.00  0.00     0.036 A 
ATOM     27  C   UNL A   1      35.481  33.080  32.138  1.00  0.00     0.013 A 
ATOM     28  C   UNL A   1      34.086  35.007  31.733  1.00  0.00     0.052 A 
ATOM     29  C   UNL A   1      35.588  33.427  33.487  1.00  0.00     0.001 A 
ATOM     30  C   UNL A   1      34.195  35.352  33.089  1.00  0.00     0.021 A 
ATOM     31  Cl  UNL A   1      33.082  36.012  30.744  1.00  0.00    -0.084 Cl
ATOM     32  C   UNL A   1      34.938  34.559  33.964  1.00  0.00     0.002 A 
ENDBRANCH  25  26
ENDBRANCH  20  21
ENDBRANCH   8  13
ENDBRANCH   5   8
ENDBRANCH   3   4
ENDBRANCH   2   3
ENDBRANCH   1   2
BRANCH   1  33
ATOM     33  C   UNL A   1      36.753  22.354  23.945  1.00  0.00     0.002 C 
BRANCH  33  34
ATOM     34  C   UNL A   1      37.295  21.091  24.623  1.00  0.00     0.021 C 
BRANCH  34  35
ATOM     35  C   UNL A   1      38.429  21.330  25.619  1.00  0.00     0.116 C 
BRANCH  35  36
ATOM     36  N   UNL A   1      39.269  20.154  25.781  1.00  0.00    -0.352 N 
ATOM     37  C   UNL A   1      40.605  20.062  26.076  1.00  0.00     0.251 C 
ATOM     38  H   UNL A   1      38.809  19.292  25.659  1.00  0.00     0.163 HD
ATOM     39  O   UNL A   1      41.190  18.991  25.959  1.00  0.00    -0.269 OA
BRANCH  37  40
ATOM     40  C   UNL A   1      41.346  21.259  26.525  1.00  0.00     0.039 A 
ATOM     41  C   UNL A   1      41.897  22.109  25.563  1.00  0.00     0.014 A 
ATOM     42  C   UNL A   1      41.514  21.531  27.885  1.00  0.00     0.014 A 
ATOM     43  C   UNL A   1      42.557  23.272  25.965  1.00  0.00     0.010 A 
ATOM     44  C   UNL A   1      42.115  22.721  28.284  1.00  0.00     0.010 A 
ATOM     45  C   UNL A   1      42.637  23.605  27.327  1.00  0.00    -0.014 A 
BRANCH  45  46
ATOM     46  C   UNL A   1      43.233  24.889  27.768  1.00  0.00     0.031 A 
ATOM     47  C   UNL A   1      42.364  25.995  28.295  1.00  0.00     0.074 A 
ATOM     48  C   UNL A   1      44.557  25.085  27.619  1.00  0.00     0.049 A 
ATOM     49  N   UNL A   1      42.703  27.204  28.666  1.00  0.00    -0.248 NA
ATOM     50  C   UNL A   1      40.924  25.714  28.395  1.00  0.00     0.031 C 
ATOM     51  C   UNL A   1      45.501  24.107  27.074  1.00  0.00     0.029 A 
ATOM     52  N   UNL A   1      45.335  26.179  27.898  1.00  0.00    -0.354 N 
ATOM     53  C   UNL A   1      41.520  27.830  29.036  1.00  0.00     0.074 A 
ATOM     54  C   UNL A   1      40.450  26.885  28.793  1.00  0.00     0.031 C 
ATOM     55  C   UNL A   1      46.732  24.640  27.071  1.00  0.00     0.029 A 
ATOM     56  C   UNL A   1      46.659  26.008  27.576  1.00  0.00     0.049 A 
ATOM     57  H   UNL A   1      44.979  27.010  28.290  1.00  0.00     0.167 HD
ATOM     58  C   UNL A   1      41.340  29.072  29.545  1.00  0.00     0.031 A 
ATOM     59  C   UNL A   1      47.699  26.858  27.664  1.00  0.00     0.031 A 
ATOM     60  C   UNL A   1      42.404  30.013  29.776  1.00  0.00     0.049 A 
ATOM     61  C   UNL A   1      47.475  28.238  28.210  1.00  0.00     0.074 A 
ATOM     62  C   UNL A   1      42.333  31.276  30.340  1.00  0.00     0.029 A 
ATOM     63  N   UNL A   1      43.733  29.800  29.442  1.00  0.00    -0.354 N 
ATOM     64  N   UNL A   1      46.361  28.789  28.625  1.00  0.00    -0.248 NA
ATOM     65  C   UNL A   1      48.654  29.110  28.305  1.00  0.00     0.031 C 
ATOM     66  C   UNL A   1      43.610  31.846  30.296  1.00  0.00     0.029 A 
ATOM     67  C   UNL A   1      44.486  30.918  29.758  1.00  0.00     0.049 A 
ATOM     68  H   UNL A   1      44.089  28.974  29.041  1.00  0.00     0.167 HD
ATOM     69  C   UNL A   1      46.704  30.069  29.044  1.00  0.00     0.074 A 
ATOM     70  C   UNL A   1      48.135  30.201  28.852  1.00  0.00     0.031 C 
ATOM     71  C   UNL A   1      45.905  31.044  29.541  1.00  0.00     0.031 A 
BRANCH  58  72
ATOM     72  C   UNL A   1      39.931  29.481  29.873  1.00  0.00    -0.014 A 
ATOM     73  C   UNL A   1      39.107  30.086  28.910  1.00  0.00     0.009 A 
ATOM     74  C   UNL A   1      39.414  29.250  31.157  1.00  0.00     0.009 A 
ATOM     75  C   UNL A   1      37.812  30.495  29.240  1.00  0.00     0.001 A 
ATOM     76  C   UNL A   1      38.108  29.631  31.476  1.00  0.00     0.001 A 
ATOM     77  C   UNL A   1      37.314  30.264  30.521  1.00  0.00     0.000 A 
ENDBRANCH  58  72
BRANCH  59  78
ATOM     78  C   UNL A   1      49.046  26.416  27.221  1.00  0.00    -0.014 A 
ATOM     79  C   UNL A   1      49.951  25.857  28.136  1.00  0.00     0.009 A 
ATOM     80  C   UNL A   1      49.421  26.521  25.873  1.00  0.00     0.009 A 
ATOM     81  C   UNL A   1      51.210  25.427  27.712  1.00  0.00     0.001 A 
ATOM     82  C   UNL A   1      50.670  26.066  25.446  1.00  0.00     0.001 A 
ATOM     83  C   UNL A   1      51.566  25.526  26.368  1.00  0.00     0.000 A 
ENDBRANCH  59  78
BRANCH  71  84
ATOM     84  C   UNL A   1      46.564  32.340  29.918  1.00  0.00    -0.014 A 
ATOM     85  C   UNL A   1      46.709  33.379  28.984  1.00  0.00     0.009 A 
ATOM     86  C   UNL A   1      47.012  32.541  31.234  1.00  0.00     0.009 A 
ATOM     87  C   UNL A   1      47.316  34.581  29.354  1.00  0.00     0.001 A 
ATOM     88  C   UNL A   1      47.593  33.753  31.607  1.00  0.00     0.001 A 
ATOM     89  C   UNL A   1      47.752  34.769  30.665  1.00  0.00     0.000 A 
ENDBRANCH  71  84
ENDBRANCH  45  46
ENDBRANCH  37  40
ENDBRANCH  35  36
ENDBRANCH  34  35
ENDBRANCH  33  34
ENDBRANCH   1  33
TORSDOF 19
ENDMDL
MODEL 2
REMARK VINA RESULT:     -10.4      1.727      5.847
REMARK SMILES CSCC[C@@H](C(=O)NCCCCCCNC(=O)c1ccc(-c2c3nc(c(-c4ccccc4)c4ccc([nH]4)c(-c4ccccc4)c4nc(c(-c5ccccc5)c5ccc2[nH]5)C=C4)C=C3)cc1)N1C(=O)/C(=C/c2ccc(-c3ccccc3Cl)o2)SC1=S
REMARK SMILES IDX 11 1 10 2 9 3 8 4 6 5 7 6 5 8 4 9 3 10 2 11 1 12 66 13 67 14
REMARK SMILES IDX 84 15 68 16 69 17 83 18 85 19 70 20 71 21 72 22 82 23 73 24
REMARK SMILES IDX 74 25 75 26 76 27 80 28 77 29 79 30 81 31 78 32 12 33 13 34
REMARK SMILES IDX 14 35 15 36 16 37 17 39 18 40 19 41 65 42 20 43 64 44 21 45
REMARK SMILES IDX 22 46 23 47 58 48 24 49 63 50 57 51 59 52 25 53 62 54 56 55
REMARK SMILES IDX 55 56 26 58 48 59 33 60 47 61 34 62 37 63 46 64 60 65 35 66
REMARK SMILES IDX 36 67 45 69 61 70 38 71 27 72 28 73 32 74 29 75 31 76 30 77
REMARK SMILES IDX 49 78 50 79 54 80 51 81 53 82 52 83 39 84 40 85 44 86 41 87
REMARK SMILES IDX 43 88 42 89
REMARK H PARENT 8 7 15 38 59 57 37 68
REMARK Flexibility Score: inf
ROOT
ATOM      1  C   UNL A   1      33.380  22.622  23.594  1.00  0.00     0.002 C 
ENDROOT
BRANCH   1   2
ATOM      2  C   UNL A   1      32.808  24.036  23.736  1.00  0.00     0.021 C 
BRANCH   2   3
ATOM      3  C   UNL A   1      33.863  25.057  24.171  1.00  0.00     0.116 C 
BRANCH   3   4
ATOM      4  N   UNL A   1      33.583  26.336  23.564  1.00  0.00    -0.354 N 
ATOM      5  C   UNL A   1      32.739  27.339  23.928  1.00  0.00     0.243 C 
ATOM      6  O   UNL A   1      32.629  28.267  23.120  1.00  0.00    -0.273 OA
ATOM      7  H   UNL A   1      34.094  26.515  22.742  1.00  0.00     0.163 HD
BRANCH   5   8
ATOM      8  C   UNL A   1      31.996  27.348  25.293  1.00  0.00     0.182 C 
BRANCH   8   9
ATOM      9  C   UNL A   1      30.475  27.092  25.241  1.00  0.00     0.046 C 
BRANCH   9  10
ATOM     10  C   UNL A   1      29.797  26.514  23.998  1.00  0.00     0.072 C 
BRANCH  10  11
ATOM     11  S   UNL A   1      27.988  26.713  23.859  1.00  0.00    -0.165 SA
ATOM     12  C   UNL A   1      27.828  28.309  23.032  1.00  0.00     0.085 C 
ENDBRANCH  10  11
ENDBRANCH   9  10
ENDBRANCH   8   9
BRANCH   8  13
ATOM     13  N   UNL A   1      32.345  28.691  25.875  1.00  0.00    -0.280 N 
ATOM     14  C   UNL A   1      33.506  28.769  26.643  1.00  0.00     0.267 C 
ATOM     15  C   UNL A   1      31.772  29.914  25.559  1.00  0.00     0.149 C 
ATOM     16  O   UNL A   1      34.219  27.824  26.954  1.00  0.00    -0.268 OA
ATOM     17  C   UNL A   1      33.780  30.175  27.059  1.00  0.00     0.084 C 
ATOM     18  S   UNL A   1      32.491  31.182  26.538  1.00  0.00    -0.054 SA
ATOM     19  S   UNL A   1      30.571  30.319  24.470  1.00  0.00    -0.052 S 
ATOM     20  C   UNL A   1      34.887  30.561  27.715  1.00  0.00     0.068 C 
BRANCH  20  21
ATOM     21  C   UNL A   1      35.039  31.884  28.228  1.00  0.00     0.128 A 
ATOM     22  C   UNL A   1      35.928  32.864  27.795  1.00  0.00     0.051 A 
ATOM     23  O   UNL A   1      34.295  32.425  29.261  1.00  0.00    -0.457 OA
ATOM     24  C   UNL A   1      35.761  33.999  28.611  1.00  0.00     0.051 A 
ATOM     25  C   UNL A   1      34.766  33.684  29.508  1.00  0.00     0.136 A 
BRANCH  25  26
ATOM     26  C   UNL A   1      34.165  34.458  30.589  1.00  0.00     0.036 A 
ATOM     27  C   UNL A   1      34.376  34.009  31.909  1.00  0.00     0.013 A 
ATOM     28  C   UNL A   1      33.293  35.538  30.387  1.00  0.00     0.052 A 
ATOM     29  C   UNL A   1      33.724  34.606  32.991  1.00  0.00     0.001 A 
ATOM     30  C   UNL A   1      32.639  36.134  31.477  1.00  0.00     0.021 A 
ATOM     31  Cl  UNL A   1      32.910  36.145  28.812  1.00  0.00    -0.084 Cl
ATOM     32  C   UNL A   1      32.849  35.663  32.773  1.00  0.00     0.002 A 
ENDBRANCH  25  26
ENDBRANCH  20  21
ENDBRANCH   8  13
ENDBRANCH   5   8
ENDBRANCH   3   4
ENDBRANCH   2   3
ENDBRANCH   1   2
BRANCH   1  33
ATOM     33  C   UNL A   1      34.904  22.581  23.422  1.00  0.00     0.002 C 
BRANCH  33  34
ATOM     34  C   UNL A   1      35.668  21.825  24.516  1.00  0.00     0.021 C 
BRANCH  34  35
ATOM     35  C   UNL A   1      37.177  22.061  24.528  1.00  0.00     0.116 C 
BRANCH  35  36
ATOM     36  N   UNL A   1      37.887  21.012  25.242  1.00  0.00    -0.352 N 
ATOM     37  C   UNL A   1      39.005  21.087  26.032  1.00  0.00     0.251 C 
ATOM     38  H   UNL A   1      37.507  20.109  25.143  1.00  0.00     0.163 HD
ATOM     39  O   UNL A   1      39.588  20.065  26.375  1.00  0.00    -0.269 OA
BRANCH  37  40
ATOM     40  C   UNL A   1      39.519  22.405  26.461  1.00  0.00     0.039 A 
ATOM     41  C   UNL A   1      40.714  22.459  27.182  1.00  0.00     0.014 A 
ATOM     42  C   UNL A   1      38.816  23.578  26.170  1.00  0.00     0.014 A 
ATOM     43  C   UNL A   1      41.242  23.698  27.551  1.00  0.00     0.010 A 
ATOM     44  C   UNL A   1      39.376  24.814  26.482  1.00  0.00     0.010 A 
ATOM     45  C   UNL A   1      40.596  24.885  27.170  1.00  0.00    -0.014 A 
BRANCH  45  46
ATOM     46  C   UNL A   1      41.199  26.210  27.454  1.00  0.00     0.031 A 
ATOM     47  C   UNL A   1      42.548  26.570  26.903  1.00  0.00     0.074 A 
ATOM     48  C   UNL A   1      40.557  27.062  28.276  1.00  0.00     0.049 A 
ATOM     49  N   UNL A   1      43.255  27.655  27.097  1.00  0.00    -0.248 NA
ATOM     50  C   UNL A   1      43.199  25.572  26.041  1.00  0.00     0.031 C 
ATOM     51  C   UNL A   1      39.263  26.809  28.914  1.00  0.00     0.029 A 
ATOM     52  N   UNL A   1      40.914  28.306  28.729  1.00  0.00    -0.354 N 
ATOM     53  C   UNL A   1      44.436  27.466  26.391  1.00  0.00     0.074 A 
ATOM     54  C   UNL A   1      44.371  26.143  25.807  1.00  0.00     0.031 C 
ATOM     55  C   UNL A   1      38.929  27.870  29.664  1.00  0.00     0.029 A 
ATOM     56  C   UNL A   1      40.000  28.859  29.591  1.00  0.00     0.049 A 
ATOM     57  H   UNL A   1      41.746  28.759  28.463  1.00  0.00     0.167 HD
ATOM     58  C   UNL A   1      45.473  28.322  26.227  1.00  0.00     0.031 A 
ATOM     59  C   UNL A   1      40.023  30.026  30.262  1.00  0.00     0.031 A 
ATOM     60  C   UNL A   1      45.540  29.633  26.817  1.00  0.00     0.049 A 
ATOM     61  C   UNL A   1      41.193  30.951  30.086  1.00  0.00     0.074 A 
ATOM     62  C   UNL A   1      46.522  30.598  26.667  1.00  0.00     0.029 A 
ATOM     63  N   UNL A   1      44.591  30.160  27.680  1.00  0.00    -0.354 N 
ATOM     64  N   UNL A   1      42.268  30.790  29.354  1.00  0.00    -0.248 NA
ATOM     65  C   UNL A   1      41.148  32.220  30.824  1.00  0.00     0.031 C 
ATOM     66  C   UNL A   1      46.193  31.686  27.484  1.00  0.00     0.029 A 
ATOM     67  C   UNL A   1      44.979  31.423  28.098  1.00  0.00     0.049 A 
ATOM     68  H   UNL A   1      43.763  29.704  27.955  1.00  0.00     0.167 HD
ATOM     69  C   UNL A   1      43.023  31.942  29.531  1.00  0.00     0.074 A 
ATOM     70  C   UNL A   1      42.270  32.802  30.422  1.00  0.00     0.031 C 
ATOM     71  C   UNL A   1      44.230  32.257  29.002  1.00  0.00     0.031 A 
BRANCH  58  72
ATOM     72  C   UNL A   1      46.625  27.850  25.385  1.00  0.00    -0.014 A 
ATOM     73  C   UNL A   1      46.621  28.012  23.990  1.00  0.00     0.009 A 
ATOM     74  C   UNL A   1      47.736  27.246  25.993  1.00  0.00     0.009 A 
ATOM     75  C   UNL A   1      47.683  27.535  23.217  1.00  0.00     0.001 A 
ATOM     76  C   UNL A   1      48.811  26.797  25.221  1.00  0.00     0.001 A 
ATOM     77  C   UNL A   1      48.777  26.931  23.834  1.00  0.00     0.000 A 
ENDBRANCH  58  72
BRANCH  59  78
ATOM     78  C   UNL A   1      38.895  30.377  31.161  1.00  0.00    -0.014 A 
ATOM     79  C   UNL A   1      37.685  30.857  30.634  1.00  0.00     0.009 A 
ATOM     80  C   UNL A   1      39.010  30.204  32.549  1.00  0.00     0.009 A 
ATOM     81  C   UNL A   1      36.621  31.170  31.482  1.00  0.00     0.001 A 
ATOM     82  C   UNL A   1      37.935  30.492  33.392  1.00  0.00     0.001 A 
ATOM     83  C   UNL A   1      36.744  30.981  32.858  1.00  0.00     0.000 A 
ENDBRANCH  59  78
BRANCH  71  84
ATOM     84  C   UNL A   1      44.810  33.594  29.373  1.00  0.00    -0.014 A 
ATOM     85  C   UNL A   1      44.484  34.751  28.648  1.00  0.00     0.009 A 
ATOM     86  C   UNL A   1      45.662  33.702  30.482  1.00  0.00     0.009 A 
ATOM     87  C   UNL A   1      45.025  35.986  29.011  1.00  0.00     0.001 A 
ATOM     88  C   UNL A   1      46.179  34.942  30.859  1.00  0.00     0.001 A 
ATOM     89  C   UNL A   1      45.867  36.082  30.119  1.00  0.00     0.000 A 
ENDBRANCH  71  84
ENDBRANCH  45  46
ENDBRANCH  37  40
ENDBRANCH  35  36
ENDBRANCH  34  35
ENDBRANCH  33  34
ENDBRANCH   1  33
TORSDOF 19
ENDMDL
MODEL 3
REMARK VINA RESULT:     -10.4      0.908      5.628
REMARK SMILES CSCC[C@@H](C(=O)NCCCCCCNC(=O)c1ccc(-c2c3nc(c(-c4ccccc4)c4ccc([nH]4)c(-c4ccccc4)c4nc(c(-c5ccccc5)c5ccc2[nH]5)C=C4)C=C3)cc1)N1C(=O)/C(=C/c2ccc(-c3ccccc3Cl)o2)SC1=S
REMARK SMILES IDX 11 1 10 2 9 3 8 4 6 5 7 6 5 8 4 9 3 10 2 11 1 12 66 13 67 14
REMARK SMILES IDX 84 15 68 16 69 17 83 18 85 19 70 20 71 21 72 22 82 23 73 24
REMARK SMILES IDX 74 25 75 26 76 27 80 28 77 29 79 30 81 31 78 32 12 33 13 34
REMARK SMILES IDX 14 35 15 36 16 37 17 39 18 40 19 41 65 42 20 43 64 44 21 45
REMARK SMILES IDX 22 46 23 47 58 48 24 49 63 50 57 51 59 52 25 53 62 54 56 55
REMARK SMILES IDX 55 56 26 58 48 59 33 60 47 61 34 62 37 63 46 64 60 65 35 66
REMARK SMILES IDX 36 67 45 69 61 70 38 71 27 72 28 73 32 74 29 75 31 76 30 77
REMARK SMILES IDX 49 78 50 79 54 80 51 81 53 82 52 83 39 84 40 85 44 86 41 87
REMARK SMILES IDX 43 88 42 89
REMARK H PARENT 8 7 15 38 59 57 37 68
REMARK Flexibility Score: inf
ROOT
ATOM      1  C   UNL A   1      35.303  22.826  24.350  1.00  0.00     0.002 C 
ENDROOT
BRANCH   1   2
ATOM      2  C   UNL A   1      34.737  24.045  23.615  1.00  0.00     0.021 C 
BRANCH   2   3
ATOM      3  C   UNL A   1      34.331  25.172  24.568  1.00  0.00     0.116 C 
BRANCH   3   4
ATOM      4  N   UNL A   1      34.093  26.383  23.820  1.00  0.00    -0.354 N 
ATOM      5  C   UNL A   1      33.084  27.293  23.880  1.00  0.00     0.243 C 
ATOM      6  O   UNL A   1      33.098  28.168  23.007  1.00  0.00    -0.273 OA
ATOM      7  H   UNL A   1      34.783  26.586  23.148  1.00  0.00     0.163 HD
BRANCH   5   8
ATOM      8  C   UNL A   1      32.008  27.272  25.001  1.00  0.00     0.182 C 
BRANCH   8   9
ATOM      9  C   UNL A   1      30.562  26.971  24.551  1.00  0.00     0.046 C 
BRANCH   9  10
ATOM     10  C   UNL A   1      29.780  25.777  25.100  1.00  0.00     0.072 C 
BRANCH  10  11
ATOM     11  S   UNL A   1      30.726  24.481  25.969  1.00  0.00    -0.165 SA
ATOM     12  C   UNL A   1      31.100  23.311  24.647  1.00  0.00     0.085 C 
ENDBRANCH  10  11
ENDBRANCH   9  10
ENDBRANCH   8   9
BRANCH   8  13
ATOM     13  N   UNL A   1      32.150  28.620  25.652  1.00  0.00    -0.280 N 
ATOM     14  C   UNL A   1      33.234  28.802  26.511  1.00  0.00     0.267 C 
ATOM     15  C   UNL A   1      31.459  29.781  25.332  1.00  0.00     0.149 C 
ATOM     16  O   UNL A   1      34.031  27.935  26.844  1.00  0.00    -0.268 OA
ATOM     17  C   UNL A   1      33.307  30.212  26.992  1.00  0.00     0.084 C 
ATOM     18  S   UNL A   1      31.947  31.082  26.406  1.00  0.00    -0.054 SA
ATOM     19  S   UNL A   1      30.301  30.088  24.168  1.00  0.00    -0.052 S 
ATOM     20  C   UNL A   1      34.308  30.697  27.744  1.00  0.00     0.068 C 
BRANCH  20  21
ATOM     21  C   UNL A   1      34.262  32.006  28.310  1.00  0.00     0.128 A 
ATOM     22  C   UNL A   1      34.020  33.207  27.650  1.00  0.00     0.051 A 
ATOM     23  O   UNL A   1      34.447  32.298  29.649  1.00  0.00    -0.457 OA
ATOM     24  C   UNL A   1      34.110  34.251  28.590  1.00  0.00     0.051 A 
ATOM     25  C   UNL A   1      34.391  33.656  29.799  1.00  0.00     0.136 A 
BRANCH  25  26
ATOM     26  C   UNL A   1      34.597  34.224  31.127  1.00  0.00     0.036 A 
ATOM     27  C   UNL A   1      35.525  33.587  31.974  1.00  0.00     0.013 A 
ATOM     28  C   UNL A   1      33.837  35.281  31.651  1.00  0.00     0.052 A 
ATOM     29  C   UNL A   1      35.680  33.978  33.306  1.00  0.00     0.001 A 
ATOM     30  C   UNL A   1      33.995  35.671  32.990  1.00  0.00     0.021 A 
ATOM     31  Cl  UNL A   1      32.627  36.107  30.729  1.00  0.00    -0.084 Cl
ATOM     32  C   UNL A   1      34.908  35.015  33.816  1.00  0.00     0.002 A 
ENDBRANCH  25  26
ENDBRANCH  20  21
ENDBRANCH   8  13
ENDBRANCH   5   8
ENDBRANCH   3   4
ENDBRANCH   2   3
ENDBRANCH   1   2
BRANCH   1  33
ATOM     33  C   UNL A   1      36.707  22.418  23.888  1.00  0.00     0.002 C 
BRANCH  33  34
ATOM     34  C   UNL A   1      37.243  21.114  24.491  1.00  0.00     0.021 C 
BRANCH  34  35
ATOM     35  C   UNL A   1      38.257  21.295  25.619  1.00  0.00     0.116 C 
BRANCH  35  36
ATOM     36  N   UNL A   1      39.207  20.196  25.679  1.00  0.00    -0.352 N 
ATOM     37  C   UNL A   1      40.547  20.206  25.971  1.00  0.00     0.251 C 
ATOM     38  H   UNL A   1      38.831  19.308  25.479  1.00  0.00     0.163 HD
ATOM     39  O   UNL A   1      41.233  19.211  25.760  1.00  0.00    -0.269 OA
BRANCH  37  40
ATOM     40  C   UNL A   1      41.172  21.424  26.527  1.00  0.00     0.039 A 
ATOM     41  C   UNL A   1      41.728  22.358  25.648  1.00  0.00     0.014 A 
ATOM     42  C   UNL A   1      41.227  21.636  27.908  1.00  0.00     0.014 A 
ATOM     43  C   UNL A   1      42.277  23.538  26.151  1.00  0.00     0.010 A 
ATOM     44  C   UNL A   1      41.716  22.841  28.403  1.00  0.00     0.010 A 
ATOM     45  C   UNL A   1      42.241  23.805  27.529  1.00  0.00    -0.014 A 
BRANCH  45  46
ATOM     46  C   UNL A   1      42.716  25.101  28.071  1.00  0.00     0.031 A 
ATOM     47  C   UNL A   1      44.184  25.410  28.139  1.00  0.00     0.074 A 
ATOM     48  C   UNL A   1      41.820  25.971  28.575  1.00  0.00     0.049 A 
ATOM     49  N   UNL A   1      44.783  26.463  28.637  1.00  0.00    -0.248 NA
ATOM     50  C   UNL A   1      45.099  24.394  27.599  1.00  0.00     0.031 C 
ATOM     51  C   UNL A   1      40.370  25.766  28.612  1.00  0.00     0.029 A 
ATOM     52  N   UNL A   1      41.999  27.195  29.167  1.00  0.00    -0.354 N 
ATOM     53  C   UNL A   1      46.143  26.232  28.478  1.00  0.00     0.074 A 
ATOM     54  C   UNL A   1      46.281  24.918  27.886  1.00  0.00     0.031 C 
ATOM     55  C   UNL A   1      39.791  26.834  29.184  1.00  0.00     0.029 A 
ATOM     56  C   UNL A   1      40.828  27.778  29.587  1.00  0.00     0.049 A 
ATOM     57  H   UNL A   1      42.881  27.616  29.282  1.00  0.00     0.167 HD
ATOM     58  C   UNL A   1      47.182  27.046  28.781  1.00  0.00     0.031 A 
ATOM     59  C   UNL A   1      40.611  28.937  30.236  1.00  0.00     0.031 A 
ATOM     60  C   UNL A   1      47.043  28.347  29.379  1.00  0.00     0.049 A 
ATOM     61  C   UNL A   1      41.778  29.813  30.585  1.00  0.00     0.074 A 
ATOM     62  C   UNL A   1      48.030  29.272  29.675  1.00  0.00     0.029 A 
ATOM     63  N   UNL A   1      45.840  28.905  29.785  1.00  0.00    -0.354 N 
ATOM     64  N   UNL A   1      43.054  29.615  30.360  1.00  0.00    -0.248 NA
ATOM     65  C   UNL A   1      41.474  31.077  31.271  1.00  0.00     0.031 C 
ATOM     66  C   UNL A   1      47.429  30.365  30.309  1.00  0.00     0.029 A 
ATOM     67  C   UNL A   1      46.062  30.146  30.358  1.00  0.00     0.049 A 
ATOM     68  H   UNL A   1      44.957  28.481  29.680  1.00  0.00     0.167 HD
ATOM     69  C   UNL A   1      43.706  30.733  30.864  1.00  0.00     0.074 A 
ATOM     70  C   UNL A   1      42.681  31.615  31.385  1.00  0.00     0.031 C 
ATOM     71  C   UNL A   1      45.034  31.003  30.892  1.00  0.00     0.031 A 
BRANCH  58  72
ATOM     72  C   UNL A   1      48.564  26.534  28.480  1.00  0.00    -0.014 A 
ATOM     73  C   UNL A   1      49.166  26.756  27.231  1.00  0.00     0.009 A 
ATOM     74  C   UNL A   1      49.280  25.831  29.461  1.00  0.00     0.009 A 
ATOM     75  C   UNL A   1      50.435  26.242  26.954  1.00  0.00     0.001 A 
ATOM     76  C   UNL A   1      50.562  25.345  29.193  1.00  0.00     0.001 A 
ATOM     77  C   UNL A   1      51.132  25.540  27.935  1.00  0.00     0.000 A 
ENDBRANCH  58  72
BRANCH  59  78
ATOM     78  C   UNL A   1      39.223  29.326  30.596  1.00  0.00    -0.014 A 
ATOM     79  C   UNL A   1      38.661  28.919  31.815  1.00  0.00     0.009 A 
ATOM     80  C   UNL A   1      38.465  30.134  29.734  1.00  0.00     0.009 A 
ATOM     81  C   UNL A   1      37.362  29.301  32.157  1.00  0.00     0.001 A 
ATOM     82  C   UNL A   1      37.177  30.538  30.090  1.00  0.00     0.001 A 
ATOM     83  C   UNL A   1      36.624  30.115  31.298  1.00  0.00     0.000 A 
ENDBRANCH  59  78
BRANCH  71  84
ATOM     84  C   UNL A   1      45.452  32.310  31.503  1.00  0.00    -0.014 A 
ATOM     85  C   UNL A   1      45.713  32.417  32.879  1.00  0.00     0.009 A 
ATOM     86  C   UNL A   1      45.625  33.440  30.688  1.00  0.00     0.009 A 
ATOM     87  C   UNL A   1      46.110  33.638  33.429  1.00  0.00     0.001 A 
ATOM     88  C   UNL A   1      46.048  34.651  31.237  1.00  0.00     0.001 A 
ATOM     89  C   UNL A   1      46.282  34.751  32.608  1.00  0.00     0.000 A 
ENDBRANCH  71  84
ENDBRANCH  45  46
ENDBRANCH  37  40
ENDBRANCH  35  36
ENDBRANCH  34  35
ENDBRANCH  33  34
ENDBRANCH   1  33
TORSDOF 19
ENDMDL
