MODEL 1
REMARK VINA RESULT:     -10.6      0.000      0.000
REMARK SMILES COc1ccccc1Nc1snc(C)c1C(=O)NCCCCCCNC(=O)c1ccc(-c2c3nc(c(-c4ccccc4)c4ccc([nH]4)c(-c4ccccc4)c4nc(c(-c5ccccc5)c5ccc2[nH]5)C=C4)C=C3)cc1
REMARK SMILES IDX 21 1 20 2 19 3 18 4 16 5 17 6 15 8 10 9 11 10 12 11 13 12
REMARK SMILES IDX 14 13 9 14 8 16 3 17 4 18 5 19 7 20 6 21 2 22 1 23 22 24
REMARK SMILES IDX 23 25 24 26 25 27 26 28 27 30 28 31 29 32 75 33 30 34 74 35
REMARK SMILES IDX 31 36 32 37 33 38 68 39 34 40 73 41 67 42 69 43 35 44 72 45
REMARK SMILES IDX 66 46 65 47 36 49 58 50 43 51 57 52 44 53 47 54 56 55 70 56
REMARK SMILES IDX 45 57 46 58 55 60 71 61 48 62 37 63 38 64 42 65 39 66 41 67
REMARK SMILES IDX 40 68 59 69 60 70 64 71 61 72 63 73 62 74 49 75 50 76 54 77
REMARK SMILES IDX 51 78 53 79 52 80
REMARK H PARENT 18 7 9 15 25 29 69 48 47 59
REMARK Flexibility Score: inf
ROOT
ATOM      1  C   UNL A   1      39.574  22.299  26.470  1.00  0.00     0.002 C 
ENDROOT
BRANCH   1   2
ATOM      2  C   UNL A   1      38.346  21.749  25.733  1.00  0.00     0.021 C 
BRANCH   2   3
ATOM      3  C   UNL A   1      37.255  22.739  25.342  1.00  0.00     0.116 C 
BRANCH   3   4
ATOM      4  N   UNL A   1      36.279  23.069  26.350  1.00  0.00    -0.352 N 
ATOM      5  C   UNL A   1      34.903  22.941  26.325  1.00  0.00     0.256 C 
ATOM      6  O   UNL A   1      34.353  23.000  27.428  1.00  0.00    -0.269 OA
ATOM      7  H   UNL A   1      36.648  23.443  27.182  1.00  0.00     0.163 HD
BRANCH   5   8
ATOM      8  C   UNL A   1      34.099  22.850  25.094  1.00  0.00     0.097 A 
ATOM      9  C   UNL A   1      33.625  23.852  24.237  1.00  0.00     0.127 A 
ATOM     10  S   UNL A   1      32.583  23.115  23.070  1.00  0.00    -0.018 S 
ATOM     11  N   UNL A   1      32.931  21.566  23.453  1.00  0.00    -0.195 NA
ATOM     12  C   UNL A   1      33.745  21.548  24.508  1.00  0.00     0.066 A 
ATOM     13  C   UNL A   1      34.182  20.188  24.949  1.00  0.00     0.069 C 
BRANCH   9  14
ATOM     14  N   UNL A   1      33.785  25.198  24.133  1.00  0.00    -0.342 N 
ATOM     15  H   UNL A   1      34.378  25.497  23.407  1.00  0.00     0.168 HD
BRANCH  14  16
ATOM     16  C   UNL A   1      33.223  26.224  24.917  1.00  0.00     0.082 A 
ATOM     17  C   UNL A   1      31.854  26.538  24.781  1.00  0.00     0.142 A 
ATOM     18  C   UNL A   1      31.255  27.470  25.634  1.00  0.00     0.048 A 
ATOM     19  C   UNL A   1      32.000  28.075  26.648  1.00  0.00     0.004 A 
ATOM     20  C   UNL A   1      33.963  26.885  25.909  1.00  0.00     0.030 A 
ATOM     21  C   UNL A   1      33.357  27.798  26.772  1.00  0.00     0.002 A 
BRANCH  17  22
ATOM     22  O   UNL A   1      31.085  26.050  23.751  1.00  0.00    -0.495 OA
ATOM     23  C   UNL A   1      29.690  26.331  23.864  1.00  0.00     0.278 C 
ENDBRANCH  17  22
ENDBRANCH  14  16
ENDBRANCH   9  14
ENDBRANCH   5   8
ENDBRANCH   3   4
ENDBRANCH   2   3
ENDBRANCH   1   2
BRANCH   1  24
ATOM     24  C   UNL A   1      40.513  21.322  27.200  1.00  0.00     0.002 C 
BRANCH  24  25
ATOM     25  C   UNL A   1      41.071  20.121  26.430  1.00  0.00     0.021 C 
BRANCH  25  26
ATOM     26  C   UNL A   1      42.347  19.507  26.969  1.00  0.00     0.116 C 
BRANCH  26  27
ATOM     27  N   UNL A   1      43.417  19.403  25.986  1.00  0.00    -0.352 N 
ATOM     28  C   UNL A   1      43.968  20.418  25.221  1.00  0.00     0.251 C 
ATOM     29  H   UNL A   1      43.793  18.504  25.849  1.00  0.00     0.163 HD
ATOM     30  O   UNL A   1      44.567  20.167  24.187  1.00  0.00    -0.269 OA
BRANCH  28  31
ATOM     31  C   UNL A   1      43.827  21.818  25.677  1.00  0.00     0.039 A 
ATOM     32  C   UNL A   1      43.048  22.739  24.970  1.00  0.00     0.014 A 
ATOM     33  C   UNL A   1      44.512  22.216  26.825  1.00  0.00     0.014 A 
ATOM     34  C   UNL A   1      42.920  24.035  25.468  1.00  0.00     0.010 A 
ATOM     35  C   UNL A   1      44.260  23.436  27.401  1.00  0.00     0.010 A 
ATOM     36  C   UNL A   1      43.518  24.369  26.695  1.00  0.00    -0.014 A 
BRANCH  36  37
ATOM     37  C   UNL A   1      43.262  25.651  27.336  1.00  0.00     0.031 A 
ATOM     38  C   UNL A   1      44.223  26.705  26.929  1.00  0.00     0.074 A 
ATOM     39  C   UNL A   1      42.154  25.931  28.058  1.00  0.00     0.049 A 
ATOM     40  N   UNL A   1      45.199  27.169  27.631  1.00  0.00    -0.248 NA
ATOM     41  C   UNL A   1      44.225  27.161  25.528  1.00  0.00     0.031 C 
ATOM     42  C   UNL A   1      40.966  25.095  28.268  1.00  0.00     0.029 A 
ATOM     43  N   UNL A   1      41.812  27.088  28.689  1.00  0.00    -0.354 N 
ATOM     44  C   UNL A   1      45.794  28.153  26.850  1.00  0.00     0.074 A 
ATOM     45  C   UNL A   1      45.301  27.952  25.512  1.00  0.00     0.031 C 
ATOM     46  C   UNL A   1      39.961  25.848  28.774  1.00  0.00     0.029 A 
ATOM     47  C   UNL A   1      40.477  27.171  29.077  1.00  0.00     0.049 A 
ATOM     48  H   UNL A   1      42.458  27.810  28.858  1.00  0.00     0.167 HD
ATOM     49  C   UNL A   1      46.404  29.222  27.434  1.00  0.00     0.031 A 
ATOM     50  C   UNL A   1      39.845  28.256  29.595  1.00  0.00     0.031 A 
ATOM     51  C   UNL A   1      46.595  28.999  28.849  1.00  0.00     0.049 A 
ATOM     52  C   UNL A   1      40.892  29.165  30.114  1.00  0.00     0.074 A 
ATOM     53  C   UNL A   1      47.258  28.059  29.611  1.00  0.00     0.029 A 
ATOM     54  N   UNL A   1      45.681  29.595  29.686  1.00  0.00    -0.354 N 
ATOM     55  N   UNL A   1      41.630  28.886  31.148  1.00  0.00    -0.248 NA
ATOM     56  C   UNL A   1      41.426  30.172  29.214  1.00  0.00     0.031 C 
ATOM     57  C   UNL A   1      46.399  27.816  30.725  1.00  0.00     0.029 A 
ATOM     58  C   UNL A   1      45.310  28.684  30.637  1.00  0.00     0.049 A 
ATOM     59  H   UNL A   1      45.350  30.520  29.613  1.00  0.00     0.167 HD
ATOM     60  C   UNL A   1      42.901  29.307  30.787  1.00  0.00     0.074 A 
ATOM     61  C   UNL A   1      42.695  30.186  29.636  1.00  0.00     0.031 C 
ATOM     62  C   UNL A   1      44.008  28.668  31.267  1.00  0.00     0.031 A 
BRANCH  49  63
ATOM     63  C   UNL A   1      46.378  30.621  26.860  1.00  0.00    -0.014 A 
ATOM     64  C   UNL A   1      47.566  31.375  26.905  1.00  0.00     0.009 A 
ATOM     65  C   UNL A   1      45.198  31.324  26.560  1.00  0.00     0.009 A 
ATOM     66  C   UNL A   1      47.554  32.768  26.766  1.00  0.00     0.001 A 
ATOM     67  C   UNL A   1      45.188  32.710  26.378  1.00  0.00     0.001 A 
ATOM     68  C   UNL A   1      46.361  33.435  26.515  1.00  0.00     0.000 A 
ENDBRANCH  49  63
BRANCH  50  69
ATOM     69  C   UNL A   1      38.437  28.704  29.483  1.00  0.00    -0.014 A 
ATOM     70  C   UNL A   1      37.685  29.001  30.635  1.00  0.00     0.009 A 
ATOM     71  C   UNL A   1      37.930  29.139  28.247  1.00  0.00     0.009 A 
ATOM     72  C   UNL A   1      36.503  29.752  30.557  1.00  0.00     0.001 A 
ATOM     73  C   UNL A   1      36.747  29.887  28.169  1.00  0.00     0.001 A 
ATOM     74  C   UNL A   1      36.044  30.210  29.326  1.00  0.00     0.000 A 
ENDBRANCH  50  69
BRANCH  62  75
ATOM     75  C   UNL A   1      43.830  27.701  32.413  1.00  0.00    -0.014 A 
ATOM     76  C   UNL A   1      43.886  26.302  32.276  1.00  0.00     0.009 A 
ATOM     77  C   UNL A   1      43.744  28.239  33.705  1.00  0.00     0.009 A 
ATOM     78  C   UNL A   1      43.828  25.472  33.402  1.00  0.00     0.001 A 
ATOM     79  C   UNL A   1      43.711  27.413  34.829  1.00  0.00     0.001 A 
ATOM     80  C   UNL A   1      43.746  26.029  34.678  1.00  0.00     0.000 A 
ENDBRANCH  62  75
ENDBRANCH  36  37
ENDBRANCH  28  31
ENDBRANCH  26  27
ENDBRANCH  25  26
ENDBRANCH  24  25
ENDBRANCH   1  24
TORSDOF 16
ENDMDL
MODEL 2
REMARK VINA RESULT:     -10.5      2.436      4.162
REMARK SMILES COc1ccccc1Nc1snc(C)c1C(=O)NCCCCCCNC(=O)c1ccc(-c2c3nc(c(-c4ccccc4)c4ccc([nH]4)c(-c4ccccc4)c4nc(c(-c5ccccc5)c5ccc2[nH]5)C=C4)C=C3)cc1
REMARK SMILES IDX 21 1 20 2 19 3 18 4 16 5 17 6 15 8 10 9 11 10 12 11 13 12
REMARK SMILES IDX 14 13 9 14 8 16 3 17 4 18 5 19 7 20 6 21 2 22 1 23 22 24
REMARK SMILES IDX 23 25 24 26 25 27 26 28 27 30 28 31 29 32 75 33 30 34 74 35
REMARK SMILES IDX 31 36 32 37 33 38 68 39 34 40 73 41 67 42 69 43 35 44 72 45
REMARK SMILES IDX 66 46 65 47 36 49 58 50 43 51 57 52 44 53 47 54 56 55 70 56
REMARK SMILES IDX 45 57 46 58 55 60 71 61 48 62 37 63 38 64 42 65 39 66 41 67
REMARK SMILES IDX 40 68 59 69 60 70 64 71 61 72 63 73 62 74 49 75 50 76 54 77
REMARK SMILES IDX 51 78 53 79 52 80
REMARK H PARENT 18 7 9 15 25 29 69 48 47 59
REMARK Flexibility Score: inf
ROOT
ATOM      1  C   UNL A   1      35.807  24.072  25.224  1.00  0.00     0.002 C 
ENDROOT
BRANCH   1   2
ATOM      2  C   UNL A   1      34.461  24.533  25.801  1.00  0.00     0.021 C 
BRANCH   2   3
ATOM      3  C   UNL A   1      34.014  25.959  25.500  1.00  0.00     0.116 C 
BRANCH   3   4
ATOM      4  N   UNL A   1      33.221  26.621  26.504  1.00  0.00    -0.352 N 
ATOM      5  C   UNL A   1      31.921  27.088  26.438  1.00  0.00     0.256 C 
ATOM      6  O   UNL A   1      31.394  27.322  27.529  1.00  0.00    -0.269 OA
ATOM      7  H   UNL A   1      33.672  26.763  27.367  1.00  0.00     0.163 HD
BRANCH   5   8
ATOM      8  C   UNL A   1      31.215  27.406  25.185  1.00  0.00     0.097 A 
ATOM      9  C   UNL A   1      30.504  26.581  24.303  1.00  0.00     0.127 A 
ATOM     10  S   UNL A   1      30.071  27.520  22.917  1.00  0.00    -0.018 S 
ATOM     11  N   UNL A   1      30.515  28.971  23.521  1.00  0.00    -0.195 NA
ATOM     12  C   UNL A   1      31.081  28.793  24.715  1.00  0.00     0.066 A 
ATOM     13  C   UNL A   1      31.503  30.048  25.409  1.00  0.00     0.069 C 
BRANCH   9  14
ATOM     14  N   UNL A   1      30.113  25.279  24.292  1.00  0.00    -0.342 N 
ATOM     15  H   UNL A   1      29.142  25.131  24.227  1.00  0.00     0.168 HD
BRANCH  14  16
ATOM     16  C   UNL A   1      30.898  24.113  24.360  1.00  0.00     0.082 A 
ATOM     17  C   UNL A   1      30.904  23.341  25.542  1.00  0.00     0.142 A 
ATOM     18  C   UNL A   1      31.583  22.120  25.584  1.00  0.00     0.048 A 
ATOM     19  C   UNL A   1      32.235  21.638  24.448  1.00  0.00     0.004 A 
ATOM     20  C   UNL A   1      31.605  23.633  23.247  1.00  0.00     0.030 A 
ATOM     21  C   UNL A   1      32.264  22.404  23.287  1.00  0.00     0.002 A 
BRANCH  17  22
ATOM     22  O   UNL A   1      30.361  23.795  26.720  1.00  0.00    -0.495 OA
ATOM     23  C   UNL A   1      29.374  22.937  27.291  1.00  0.00     0.278 C 
ENDBRANCH  17  22
ENDBRANCH  14  16
ENDBRANCH   9  14
ENDBRANCH   5   8
ENDBRANCH   3   4
ENDBRANCH   2   3
ENDBRANCH   1   2
BRANCH   1  24
ATOM     24  C   UNL A   1      35.964  22.616  24.751  1.00  0.00     0.002 C 
BRANCH  24  25
ATOM     25  C   UNL A   1      37.347  21.962  24.827  1.00  0.00     0.021 C 
BRANCH  25  26
ATOM     26  C   UNL A   1      38.288  22.497  25.888  1.00  0.00     0.116 C 
BRANCH  26  27
ATOM     27  N   UNL A   1      39.638  21.955  25.809  1.00  0.00    -0.352 N 
ATOM     28  C   UNL A   1      40.832  22.613  26.054  1.00  0.00     0.251 C 
ATOM     29  H   UNL A   1      39.710  21.008  25.551  1.00  0.00     0.163 HD
ATOM     30  O   UNL A   1      41.883  22.192  25.599  1.00  0.00    -0.269 OA
BRANCH  28  31
ATOM     31  C   UNL A   1      40.820  23.837  26.885  1.00  0.00     0.039 A 
ATOM     32  C   UNL A   1      41.806  24.073  27.847  1.00  0.00     0.014 A 
ATOM     33  C   UNL A   1      39.782  24.752  26.707  1.00  0.00     0.014 A 
ATOM     34  C   UNL A   1      41.766  25.263  28.574  1.00  0.00     0.010 A 
ATOM     35  C   UNL A   1      39.831  25.988  27.302  1.00  0.00     0.010 A 
ATOM     36  C   UNL A   1      40.782  26.222  28.281  1.00  0.00    -0.014 A 
BRANCH  36  37
ATOM     37  C   UNL A   1      40.813  27.545  28.889  1.00  0.00     0.031 A 
ATOM     38  C   UNL A   1      41.776  28.461  28.232  1.00  0.00     0.074 A 
ATOM     39  C   UNL A   1      39.924  27.978  29.810  1.00  0.00     0.049 A 
ATOM     40  N   UNL A   1      42.926  28.826  28.687  1.00  0.00    -0.248 NA
ATOM     41  C   UNL A   1      41.528  28.870  26.839  1.00  0.00     0.031 C 
ATOM     42  C   UNL A   1      38.723  27.299  30.310  1.00  0.00     0.029 A 
ATOM     43  N   UNL A   1      39.856  29.188  30.433  1.00  0.00    -0.354 N 
ATOM     44  C   UNL A   1      43.445  29.706  27.746  1.00  0.00     0.074 A 
ATOM     45  C   UNL A   1      42.657  29.525  26.553  1.00  0.00     0.031 C 
ATOM     46  C   UNL A   1      37.940  28.183  30.972  1.00  0.00     0.029 A 
ATOM     47  C   UNL A   1      38.654  29.443  31.086  1.00  0.00     0.049 A 
ATOM     48  H   UNL A   1      40.600  29.831  30.423  1.00  0.00     0.167 HD
ATOM     49  C   UNL A   1      44.281  30.711  28.128  1.00  0.00     0.031 A 
ATOM     50  C   UNL A   1      38.273  30.613  31.664  1.00  0.00     0.031 A 
ATOM     51  C   UNL A   1      44.745  30.511  29.482  1.00  0.00     0.049 A 
ATOM     52  C   UNL A   1      39.501  31.404  31.901  1.00  0.00     0.074 A 
ATOM     53  C   UNL A   1      45.447  29.521  30.139  1.00  0.00     0.029 A 
ATOM     54  N   UNL A   1      44.104  31.238  30.457  1.00  0.00    -0.354 N 
ATOM     55  N   UNL A   1      40.407  31.070  32.771  1.00  0.00    -0.248 NA
ATOM     56  C   UNL A   1      39.939  32.310  30.854  1.00  0.00     0.031 C 
ATOM     57  C   UNL A   1      44.825  29.419  31.420  1.00  0.00     0.029 A 
ATOM     58  C   UNL A   1      43.846  30.409  31.514  1.00  0.00     0.049 A 
ATOM     59  H   UNL A   1      43.870  32.193  30.403  1.00  0.00     0.167 HD
ATOM     60  C   UNL A   1      41.610  31.322  32.130  1.00  0.00     0.074 A 
ATOM     61  C   UNL A   1      41.261  32.184  30.999  1.00  0.00     0.031 C 
ATOM     62  C   UNL A   1      42.716  30.570  32.402  1.00  0.00     0.031 A 
BRANCH  49  63
ATOM     63  C   UNL A   1      44.289  32.084  27.495  1.00  0.00    -0.014 A 
ATOM     64  C   UNL A   1      43.804  33.165  28.256  1.00  0.00     0.009 A 
ATOM     65  C   UNL A   1      44.460  32.313  26.118  1.00  0.00     0.009 A 
ATOM     66  C   UNL A   1      43.413  34.367  27.654  1.00  0.00     0.001 A 
ATOM     67  C   UNL A   1      44.111  33.526  25.519  1.00  0.00     0.001 A 
ATOM     68  C   UNL A   1      43.555  34.541  26.283  1.00  0.00     0.000 A 
ENDBRANCH  49  63
BRANCH  50  69
ATOM     69  C   UNL A   1      36.931  31.223  31.824  1.00  0.00    -0.014 A 
ATOM     70  C   UNL A   1      36.551  31.806  33.047  1.00  0.00     0.009 A 
ATOM     71  C   UNL A   1      36.148  31.513  30.695  1.00  0.00     0.009 A 
ATOM     72  C   UNL A   1      35.463  32.688  33.124  1.00  0.00     0.001 A 
ATOM     73  C   UNL A   1      35.059  32.393  30.772  1.00  0.00     0.001 A 
ATOM     74  C   UNL A   1      34.729  32.995  31.982  1.00  0.00     0.000 A 
ENDBRANCH  50  69
BRANCH  62  75
ATOM     75  C   UNL A   1      42.682  29.667  33.613  1.00  0.00    -0.014 A 
ATOM     76  C   UNL A   1      42.176  28.355  33.599  1.00  0.00     0.009 A 
ATOM     77  C   UNL A   1      43.318  30.122  34.776  1.00  0.00     0.009 A 
ATOM     78  C   UNL A   1      42.283  27.537  34.731  1.00  0.00     0.001 A 
ATOM     79  C   UNL A   1      43.447  29.299  35.895  1.00  0.00     0.001 A 
ATOM     80  C   UNL A   1      42.924  28.008  35.876  1.00  0.00     0.000 A 
ENDBRANCH  62  75
ENDBRANCH  36  37
ENDBRANCH  28  31
ENDBRANCH  26  27
ENDBRANCH  25  26
ENDBRANCH  24  25
ENDBRANCH   1  24
TORSDOF 16
ENDMDL
MODEL 3
REMARK VINA RESULT:     -10.5      2.505      7.724
REMARK SMILES COc1ccccc1Nc1snc(C)c1C(=O)NCCCCCCNC(=O)c1ccc(-c2c3nc(c(-c4ccccc4)c4ccc([nH]4)c(-c4ccccc4)c4nc(c(-c5ccccc5)c5ccc2[nH]5)C=C4)C=C3)cc1
REMARK SMILES IDX 21 1 20 2 19 3 18 4 16 5 17 6 15 8 10 9 11 10 12 11 13 12
REMARK SMILES IDX 14 13 9 14 8 16 3 17 4 18 5 19 7 20 6 21 2 22 1 23 22 24
REMARK SMILES IDX 23 25 24 26 25 27 26 28 27 30 28 31 29 32 75 33 30 34 74 35
REMARK SMILES IDX 31 36 32 37 33 38 68 39 34 40 73 41 67 42 69 43 35 44 72 45
REMARK SMILES IDX 66 46 65 47 36 49 58 50 43 51 57 52 44 53 47 54 56 55 70 56
REMARK SMILES IDX 45 57 46 58 55 60 71 61 48 62 37 63 38 64 42 65 39 66 41 67
REMARK SMILES IDX 40 68 59 69 60 70 64 71 61 72 63 73 62 74 49 75 50 76 54 77
REMARK SMILES IDX 51 78 53 79 52 80
REMARK H PARENT 18 7 9 15 25 29 69 48 47 59
REMARK Flexibility Score: inf
ROOT
ATOM      1  C   UNL A   1      32.441  27.155  26.472  1.00  0.00     0.002 C 
ENDROOT
BRANCH   1   2
ATOM      2  C   UNL A   1      33.564  26.645  25.558  1.00  0.00     0.021 C 
BRANCH   2   3
ATOM      3  C   UNL A   1      34.006  25.196  25.723  1.00  0.00     0.116 C 
BRANCH   3   4
ATOM      4  N   UNL A   1      35.043  24.724  24.841  1.00  0.00    -0.352 N 
ATOM      5  C   UNL A   1      35.034  23.664  23.952  1.00  0.00     0.256 C 
ATOM      6  O   UNL A   1      35.933  23.685  23.106  1.00  0.00    -0.269 OA
ATOM      7  H   UNL A   1      35.885  25.232  24.876  1.00  0.00     0.163 HD
BRANCH   5   8
ATOM      8  C   UNL A   1      34.114  22.517  24.036  1.00  0.00     0.097 A 
ATOM      9  C   UNL A   1      32.807  22.358  23.557  1.00  0.00     0.127 A 
ATOM     10  S   UNL A   1      32.199  20.848  24.140  1.00  0.00    -0.018 S 
ATOM     11  N   UNL A   1      33.612  20.290  24.738  1.00  0.00    -0.195 NA
ATOM     12  C   UNL A   1      34.544  21.235  24.613  1.00  0.00     0.066 A 
ATOM     13  C   UNL A   1      35.908  20.847  25.087  1.00  0.00     0.069 C 
BRANCH   9  14
ATOM     14  N   UNL A   1      31.958  23.091  22.788  1.00  0.00    -0.342 N 
ATOM     15  H   UNL A   1      31.628  22.641  21.978  1.00  0.00     0.168 HD
BRANCH  14  16
ATOM     16  C   UNL A   1      31.483  24.401  22.987  1.00  0.00     0.082 A 
ATOM     17  C   UNL A   1      31.924  25.441  22.140  1.00  0.00     0.142 A 
ATOM     18  C   UNL A   1      31.373  26.721  22.248  1.00  0.00     0.048 A 
ATOM     19  C   UNL A   1      30.360  26.974  23.175  1.00  0.00     0.004 A 
ATOM     20  C   UNL A   1      30.503  24.694  23.947  1.00  0.00     0.030 A 
ATOM     21  C   UNL A   1      29.940  25.967  24.037  1.00  0.00     0.002 A 
BRANCH  17  22
ATOM     22  O   UNL A   1      32.977  25.286  21.270  1.00  0.00    -0.495 OA
ATOM     23  C   UNL A   1      32.637  25.432  19.892  1.00  0.00     0.278 C 
ENDBRANCH  17  22
ENDBRANCH  14  16
ENDBRANCH   9  14
ENDBRANCH   5   8
ENDBRANCH   3   4
ENDBRANCH   2   3
ENDBRANCH   1   2
BRANCH   1  24
ATOM     24  C   UNL A   1      31.993  28.624  26.366  1.00  0.00     0.002 C 
BRANCH  24  25
ATOM     25  C   UNL A   1      33.064  29.714  26.255  1.00  0.00     0.021 C 
BRANCH  25  26
ATOM     26  C   UNL A   1      33.488  30.377  27.550  1.00  0.00     0.116 C 
BRANCH  26  27
ATOM     27  N   UNL A   1      33.929  31.756  27.393  1.00  0.00    -0.352 N 
ATOM     28  C   UNL A   1      35.081  32.341  27.892  1.00  0.00     0.251 C 
ATOM     29  H   UNL A   1      33.338  32.343  26.868  1.00  0.00     0.163 HD
ATOM     30  O   UNL A   1      35.160  33.552  28.026  1.00  0.00    -0.269 OA
BRANCH  28  31
ATOM     31  C   UNL A   1      36.225  31.477  28.256  1.00  0.00     0.039 A 
ATOM     32  C   UNL A   1      36.329  30.167  27.779  1.00  0.00     0.014 A 
ATOM     33  C   UNL A   1      37.199  31.989  29.113  1.00  0.00     0.014 A 
ATOM     34  C   UNL A   1      37.449  29.411  28.124  1.00  0.00     0.010 A 
ATOM     35  C   UNL A   1      38.373  31.310  29.321  1.00  0.00     0.010 A 
ATOM     36  C   UNL A   1      38.475  29.999  28.884  1.00  0.00    -0.014 A 
BRANCH  36  37
ATOM     37  C   UNL A   1      39.736  29.307  29.113  1.00  0.00     0.031 A 
ATOM     38  C   UNL A   1      39.956  28.962  30.538  1.00  0.00     0.074 A 
ATOM     39  C   UNL A   1      40.532  28.835  28.128  1.00  0.00     0.049 A 
ATOM     40  N   UNL A   1      40.760  29.548  31.358  1.00  0.00    -0.248 NA
ATOM     41  C   UNL A   1      39.056  27.986  31.178  1.00  0.00     0.031 C 
ATOM     42  C   UNL A   1      40.280  28.812  26.683  1.00  0.00     0.029 A 
ATOM     43  N   UNL A   1      41.718  28.172  28.229  1.00  0.00    -0.354 N 
ATOM     44  C   UNL A   1      40.646  28.859  32.559  1.00  0.00     0.074 A 
ATOM     45  C   UNL A   1      39.447  28.067  32.453  1.00  0.00     0.031 C 
ATOM     46  C   UNL A   1      41.161  27.979  26.079  1.00  0.00     0.029 A 
ATOM     47  C   UNL A   1      42.136  27.540  27.061  1.00  0.00     0.049 A 
ATOM     48  H   UNL A   1      42.239  28.143  29.063  1.00  0.00     0.167 HD
ATOM     49  C   UNL A   1      41.706  28.777  33.410  1.00  0.00     0.031 A 
ATOM     50  C   UNL A   1      43.200  26.706  26.922  1.00  0.00     0.031 A 
ATOM     51  C   UNL A   1      42.741  29.714  33.039  1.00  0.00     0.049 A 
ATOM     52  C   UNL A   1      44.099  26.950  28.072  1.00  0.00     0.074 A 
ATOM     53  C   UNL A   1      42.815  31.085  32.895  1.00  0.00     0.029 A 
ATOM     54  N   UNL A   1      43.803  29.197  32.334  1.00  0.00    -0.354 N 
ATOM     55  N   UNL A   1      44.767  28.054  28.233  1.00  0.00    -0.248 NA
ATOM     56  C   UNL A   1      43.903  26.153  29.271  1.00  0.00     0.031 C 
ATOM     57  C   UNL A   1      43.632  31.290  31.741  1.00  0.00     0.029 A 
ATOM     58  C   UNL A   1      44.090  30.047  31.301  1.00  0.00     0.049 A 
ATOM     59  H   UNL A   1      44.276  28.358  32.538  1.00  0.00     0.167 HD
ATOM     60  C   UNL A   1      44.657  28.328  29.588  1.00  0.00     0.074 A 
ATOM     61  C   UNL A   1      44.209  27.072  30.192  1.00  0.00     0.031 C 
ATOM     62  C   UNL A   1      44.651  29.616  30.039  1.00  0.00     0.031 A 
BRANCH  49  63
ATOM     63  C   UNL A   1      42.020  27.556  34.245  1.00  0.00    -0.014 A 
ATOM     64  C   UNL A   1      41.690  27.590  35.614  1.00  0.00     0.009 A 
ATOM     65  C   UNL A   1      42.877  26.521  33.831  1.00  0.00     0.009 A 
ATOM     66  C   UNL A   1      42.271  26.704  36.529  1.00  0.00     0.001 A 
ATOM     67  C   UNL A   1      43.426  25.607  34.736  1.00  0.00     0.001 A 
ATOM     68  C   UNL A   1      43.149  25.721  36.089  1.00  0.00     0.000 A 
ENDBRANCH  49  63
BRANCH  50  69
ATOM     69  C   UNL A   1      43.413  25.549  26.021  1.00  0.00    -0.014 A 
ATOM     70  C   UNL A   1      44.646  25.367  25.367  1.00  0.00     0.009 A 
ATOM     71  C   UNL A   1      42.525  24.460  26.046  1.00  0.00     0.009 A 
ATOM     72  C   UNL A   1      44.998  24.129  24.811  1.00  0.00     0.001 A 
ATOM     73  C   UNL A   1      42.876  23.224  25.488  1.00  0.00     0.001 A 
ATOM     74  C   UNL A   1      44.119  23.052  24.887  1.00  0.00     0.000 A 
ENDBRANCH  50  69
BRANCH  62  75
ATOM     75  C   UNL A   1      45.059  30.708  29.080  1.00  0.00    -0.014 A 
ATOM     76  C   UNL A   1      44.176  31.339  28.186  1.00  0.00     0.009 A 
ATOM     77  C   UNL A   1      46.364  31.211  29.191  1.00  0.00     0.009 A 
ATOM     78  C   UNL A   1      44.601  32.423  27.408  1.00  0.00     0.001 A 
ATOM     79  C   UNL A   1      46.780  32.306  28.434  1.00  0.00     0.001 A 
ATOM     80  C   UNL A   1      45.901  32.909  27.537  1.00  0.00     0.000 A 
ENDBRANCH  62  75
ENDBRANCH  36  37
ENDBRANCH  28  31
ENDBRANCH  26  27
ENDBRANCH  25  26
ENDBRANCH  24  25
ENDBRANCH   1  24
TORSDOF 16
ENDMDL
