MODEL 1
REMARK VINA RESULT:     -11.1      0.000      0.000
REMARK SMILES CCc1n[nH]c(C(=O)N[C@@]2(C(=O)NCCCCCCNC(=O)c3ccc(-c4c5nc(c(-c6ccccc6)c6ccc([nH]6)c(-c6ccccc6)c6nc(c(-c7ccccc7)c7ccc4[nH]7)C=C6)C=C5)cc3)CCCC[C@H]2C)n1
REMARK SMILES IDX 16 1 15 2 14 3 13 4 11 5 12 6 10 8 71 9 75 10 72 11 74 12
REMARK SMILES IDX 76 13 73 14 9 15 7 16 8 17 6 19 3 20 4 21 77 22 5 23 2 25
REMARK SMILES IDX 1 26 17 27 18 28 19 29 20 30 21 31 22 33 23 34 24 35 70 36
REMARK SMILES IDX 25 37 69 38 26 39 27 40 28 41 63 42 29 43 68 44 62 45 64 46
REMARK SMILES IDX 30 47 67 48 61 49 60 50 31 52 53 53 38 54 52 55 39 56 42 57
REMARK SMILES IDX 51 58 65 59 40 60 41 61 50 63 66 64 43 65 32 66 33 67 37 68
REMARK SMILES IDX 34 69 36 70 35 71 54 72 55 73 59 74 56 75 58 76 57 77 44 78
REMARK SMILES IDX 45 79 49 80 46 81 48 82 47 83
REMARK H PARENT 13 7 9 18 5 24 20 32 64 51 42 62
REMARK Flexibility Score: inf
ROOT
ATOM      1  C   UNL A   1      38.802  22.239  26.120  1.00  0.00     0.002 C 
ENDROOT
BRANCH   1   2
ATOM      2  C   UNL A   1      38.185  23.639  26.194  1.00  0.00     0.021 C 
BRANCH   2   3
ATOM      3  C   UNL A   1      36.789  23.743  25.587  1.00  0.00     0.116 C 
BRANCH   3   4
ATOM      4  N   UNL A   1      35.798  23.187  26.478  1.00  0.00    -0.354 N 
ATOM      5  C   UNL A   1      34.444  23.127  26.415  1.00  0.00     0.246 C 
ATOM      6  O   UNL A   1      33.887  22.820  27.480  1.00  0.00    -0.272 OA
ATOM      7  H   UNL A   1      36.178  22.771  27.285  1.00  0.00     0.163 HD
BRANCH   5   8
ATOM      8  C   UNL A   1      33.612  23.542  25.145  1.00  0.00     0.122 C 
ATOM      9  C   UNL A   1      34.051  22.877  23.806  1.00  0.00     0.039 C 
ATOM     10  C   UNL A   1      33.733  25.110  24.986  1.00  0.00     0.021 C 
ATOM     11  C   UNL A   1      33.344  23.436  22.576  1.00  0.00     0.003 C 
ATOM     12  C   UNL A   1      33.076  25.643  23.700  1.00  0.00     0.006 C 
ATOM     13  C   UNL A   1      33.231  25.923  26.188  1.00  0.00     0.011 C 
ATOM     14  C   UNL A   1      33.583  24.925  22.456  1.00  0.00     0.000 C 
BRANCH   8  15
ATOM     15  N   UNL A   1      32.202  23.165  25.458  1.00  0.00    -0.335 N 
ATOM     16  C   UNL A   1      31.583  21.929  25.479  1.00  0.00     0.289 C 
ATOM     17  O   UNL A   1      30.383  21.915  25.765  1.00  0.00    -0.266 OA
ATOM     18  H   UNL A   1      31.618  23.922  25.689  1.00  0.00     0.165 HD
BRANCH  16  19
ATOM     19  C   UNL A   1      32.277  20.717  25.100  1.00  0.00     0.214 A 
ATOM     20  C   UNL A   1      32.842  18.890  24.190  1.00  0.00     0.151 A 
ATOM     21  N   UNL A   1      33.251  18.728  25.454  1.00  0.00    -0.158 NA
ATOM     22  N   UNL A   1      32.322  20.126  23.921  1.00  0.00    -0.207 NA
ATOM     23  N   UNL A   1      32.941  19.925  25.992  1.00  0.00    -0.255 N 
ATOM     24  H   UNL A   1      33.164  20.193  26.912  1.00  0.00     0.192 HD
BRANCH  20  25
ATOM     25  C   UNL A   1      32.817  17.776  23.202  1.00  0.00     0.076 C 
ATOM     26  C   UNL A   1      34.014  16.836  23.304  1.00  0.00     0.012 C 
ENDBRANCH  20  25
ENDBRANCH  16  19
ENDBRANCH   8  15
ENDBRANCH   5   8
ENDBRANCH   3   4
ENDBRANCH   2   3
ENDBRANCH   1   2
BRANCH   1  27
ATOM     27  C   UNL A   1      38.122  21.284  25.134  1.00  0.00     0.002 C 
BRANCH  27  28
ATOM     28  C   UNL A   1      38.712  19.873  25.087  1.00  0.00     0.021 C 
BRANCH  28  29
ATOM     29  C   UNL A   1      39.602  19.520  26.273  1.00  0.00     0.116 C 
BRANCH  29  30
ATOM     30  N   UNL A   1      40.899  19.022  25.851  1.00  0.00    -0.352 N 
ATOM     31  C   UNL A   1      42.094  19.687  25.740  1.00  0.00     0.251 C 
ATOM     32  H   UNL A   1      40.924  18.069  25.608  1.00  0.00     0.163 HD
ATOM     33  O   UNL A   1      43.041  19.161  25.171  1.00  0.00    -0.269 OA
BRANCH  31  34
ATOM     34  C   UNL A   1      42.229  21.052  26.294  1.00  0.00     0.039 A 
ATOM     35  C   UNL A   1      42.133  21.227  27.675  1.00  0.00     0.014 A 
ATOM     36  C   UNL A   1      42.440  22.153  25.458  1.00  0.00     0.014 A 
ATOM     37  C   UNL A   1      42.304  22.498  28.224  1.00  0.00     0.010 A 
ATOM     38  C   UNL A   1      42.690  23.405  26.011  1.00  0.00     0.010 A 
ATOM     39  C   UNL A   1      42.619  23.591  27.399  1.00  0.00    -0.014 A 
BRANCH  39  40
ATOM     40  C   UNL A   1      42.896  24.927  27.983  1.00  0.00     0.031 A 
ATOM     41  C   UNL A   1      44.286  25.300  28.419  1.00  0.00     0.074 A 
ATOM     42  C   UNL A   1      41.878  25.789  28.170  1.00  0.00     0.049 A 
ATOM     43  N   UNL A   1      44.709  26.418  28.956  1.00  0.00    -0.248 NA
ATOM     44  C   UNL A   1      45.332  24.280  28.253  1.00  0.00     0.031 C 
ATOM     45  C   UNL A   1      40.476  25.527  27.838  1.00  0.00     0.029 A 
ATOM     46  N   UNL A   1      41.865  27.059  28.688  1.00  0.00    -0.354 N 
ATOM     47  C   UNL A   1      46.062  26.229  29.204  1.00  0.00     0.074 A 
ATOM     48  C   UNL A   1      46.378  24.873  28.809  1.00  0.00     0.031 C 
ATOM     49  C   UNL A   1      39.746  26.615  28.126  1.00  0.00     0.029 A 
ATOM     50  C   UNL A   1      40.617  27.633  28.705  1.00  0.00     0.049 A 
ATOM     51  H   UNL A   1      42.673  27.517  29.016  1.00  0.00     0.167 HD
ATOM     52  C   UNL A   1      46.966  27.108  29.700  1.00  0.00     0.031 A 
ATOM     53  C   UNL A   1      40.214  28.841  29.142  1.00  0.00     0.031 A 
ATOM     54  C   UNL A   1      46.648  28.456  30.095  1.00  0.00     0.049 A 
ATOM     55  C   UNL A   1      41.231  29.795  29.700  1.00  0.00     0.074 A 
ATOM     56  C   UNL A   1      47.503  29.446  30.546  1.00  0.00     0.029 A 
ATOM     57  N   UNL A   1      45.372  28.998  30.099  1.00  0.00    -0.354 N 
ATOM     58  N   UNL A   1      42.523  29.632  29.846  1.00  0.00    -0.248 NA
ATOM     59  C   UNL A   1      40.733  31.106  30.142  1.00  0.00     0.031 C 
ATOM     60  C   UNL A   1      46.736  30.563  30.890  1.00  0.00     0.029 A 
ATOM     61  C   UNL A   1      45.410  30.296  30.584  1.00  0.00     0.049 A 
ATOM     62  H   UNL A   1      44.558  28.530  29.802  1.00  0.00     0.167 HD
ATOM     63  C   UNL A   1      42.998  30.826  30.376  1.00  0.00     0.074 A 
ATOM     64  C   UNL A   1      41.856  31.709  30.504  1.00  0.00     0.031 C 
ATOM     65  C   UNL A   1      44.266  31.159  30.723  1.00  0.00     0.031 A 
BRANCH  52  66
ATOM     66  C   UNL A   1      48.382  26.626  29.865  1.00  0.00    -0.014 A 
ATOM     67  C   UNL A   1      49.344  26.815  28.858  1.00  0.00     0.009 A 
ATOM     68  C   UNL A   1      48.768  25.994  31.058  1.00  0.00     0.009 A 
ATOM     69  C   UNL A   1      50.646  26.337  29.024  1.00  0.00     0.001 A 
ATOM     70  C   UNL A   1      50.079  25.549  31.234  1.00  0.00     0.001 A 
ATOM     71  C   UNL A   1      51.014  25.708  30.213  1.00  0.00     0.000 A 
ENDBRANCH  52  66
BRANCH  53  72
ATOM     72  C   UNL A   1      38.778  29.214  29.055  1.00  0.00    -0.014 A 
ATOM     73  C   UNL A   1      38.238  29.711  27.859  1.00  0.00     0.009 A 
ATOM     74  C   UNL A   1      37.934  29.058  30.166  1.00  0.00     0.009 A 
ATOM     75  C   UNL A   1      36.889  30.063  27.783  1.00  0.00     0.001 A 
ATOM     76  C   UNL A   1      36.579  29.380  30.079  1.00  0.00     0.001 A 
ATOM     77  C   UNL A   1      36.059  29.891  28.890  1.00  0.00     0.000 A 
ENDBRANCH  53  72
BRANCH  65  78
ATOM     78  C   UNL A   1      44.488  32.548  31.256  1.00  0.00    -0.014 A 
ATOM     79  C   UNL A   1      44.772  33.624  30.399  1.00  0.00     0.009 A 
ATOM     80  C   UNL A   1      44.378  32.790  32.634  1.00  0.00     0.009 A 
ATOM     81  C   UNL A   1      44.981  34.904  30.918  1.00  0.00     0.001 A 
ATOM     82  C   UNL A   1      44.552  34.076  33.147  1.00  0.00     0.001 A 
ATOM     83  C   UNL A   1      44.865  35.130  32.290  1.00  0.00     0.000 A 
ENDBRANCH  65  78
ENDBRANCH  39  40
ENDBRANCH  31  34
ENDBRANCH  29  30
ENDBRANCH  28  29
ENDBRANCH  27  28
ENDBRANCH   1  27
TORSDOF 16
ENDMDL
MODEL 2
REMARK VINA RESULT:     -11.0      4.085      9.235
REMARK SMILES CCc1n[nH]c(C(=O)N[C@@]2(C(=O)NCCCCCCNC(=O)c3ccc(-c4c5nc(c(-c6ccccc6)c6ccc([nH]6)c(-c6ccccc6)c6nc(c(-c7ccccc7)c7ccc4[nH]7)C=C6)C=C5)cc3)CCCC[C@H]2C)n1
REMARK SMILES IDX 16 1 15 2 14 3 13 4 11 5 12 6 10 8 71 9 75 10 72 11 74 12
REMARK SMILES IDX 76 13 73 14 9 15 7 16 8 17 6 19 3 20 4 21 77 22 5 23 2 25
REMARK SMILES IDX 1 26 17 27 18 28 19 29 20 30 21 31 22 33 23 34 24 35 70 36
REMARK SMILES IDX 25 37 69 38 26 39 27 40 28 41 63 42 29 43 68 44 62 45 64 46
REMARK SMILES IDX 30 47 67 48 61 49 60 50 31 52 53 53 38 54 52 55 39 56 42 57
REMARK SMILES IDX 51 58 65 59 40 60 41 61 50 63 66 64 43 65 32 66 33 67 37 68
REMARK SMILES IDX 34 69 36 70 35 71 54 72 55 73 59 74 56 75 58 76 57 77 44 78
REMARK SMILES IDX 45 79 49 80 46 81 48 82 47 83
REMARK H PARENT 13 7 9 18 5 24 20 32 64 51 42 62
REMARK Flexibility Score: inf
ROOT
ATOM      1  C   UNL A   1      32.929  30.483  27.265  1.00  0.00     0.002 C 
ENDROOT
BRANCH   1   2
ATOM      2  C   UNL A   1      33.067  28.960  27.373  1.00  0.00     0.021 C 
BRANCH   2   3
ATOM      3  C   UNL A   1      34.293  28.389  26.668  1.00  0.00     0.116 C 
BRANCH   3   4
ATOM      4  N   UNL A   1      34.222  28.621  25.245  1.00  0.00    -0.354 N 
ATOM      5  C   UNL A   1      33.599  27.954  24.241  1.00  0.00     0.246 C 
ATOM      6  O   UNL A   1      33.969  28.269  23.099  1.00  0.00    -0.272 OA
ATOM      7  H   UNL A   1      34.722  29.415  24.946  1.00  0.00     0.163 HD
BRANCH   5   8
ATOM      8  C   UNL A   1      32.584  26.775  24.476  1.00  0.00     0.122 C 
ATOM      9  C   UNL A   1      31.296  27.144  25.271  1.00  0.00     0.039 C 
ATOM     10  C   UNL A   1      33.348  25.638  25.266  1.00  0.00     0.021 C 
ATOM     11  C   UNL A   1      30.428  25.945  25.634  1.00  0.00     0.003 C 
ATOM     12  C   UNL A   1      32.436  24.472  25.688  1.00  0.00     0.006 C 
ATOM     13  C   UNL A   1      34.591  25.081  24.557  1.00  0.00     0.011 C 
ATOM     14  C   UNL A   1      31.214  24.949  26.460  1.00  0.00     0.000 C 
BRANCH   8  15
ATOM     15  N   UNL A   1      32.216  26.294  23.112  1.00  0.00    -0.335 N 
ATOM     16  C   UNL A   1      31.377  26.840  22.159  1.00  0.00     0.289 C 
ATOM     17  O   UNL A   1      31.247  26.209  21.107  1.00  0.00    -0.266 OA
ATOM     18  H   UNL A   1      32.643  25.447  22.847  1.00  0.00     0.165 HD
BRANCH  16  19
ATOM     19  C   UNL A   1      30.616  28.045  22.409  1.00  0.00     0.214 A 
ATOM     20  C   UNL A   1      29.061  29.464  22.639  1.00  0.00     0.151 A 
ATOM     21  N   UNL A   1      30.057  30.200  22.130  1.00  0.00    -0.158 NA
ATOM     22  N   UNL A   1      29.397  28.164  22.902  1.00  0.00    -0.207 NA
ATOM     23  N   UNL A   1      31.050  29.291  22.057  1.00  0.00    -0.255 N 
ATOM     24  H   UNL A   1      31.972  29.499  21.782  1.00  0.00     0.192 HD
BRANCH  20  25
ATOM     25  C   UNL A   1      27.668  29.975  22.768  1.00  0.00     0.076 C 
ATOM     26  C   UNL A   1      27.559  31.275  23.557  1.00  0.00     0.012 C 
ENDBRANCH  20  25
ENDBRANCH  16  19
ENDBRANCH   8  15
ENDBRANCH   5   8
ENDBRANCH   3   4
ENDBRANCH   2   3
ENDBRANCH   1   2
BRANCH   1  27
ATOM     27  C   UNL A   1      31.598  30.971  26.684  1.00  0.00     0.002 C 
BRANCH  27  28
ATOM     28  C   UNL A   1      31.383  32.485  26.742  1.00  0.00     0.021 C 
BRANCH  28  29
ATOM     29  C   UNL A   1      32.654  33.297  26.960  1.00  0.00     0.116 C 
BRANCH  29  30
ATOM     30  N   UNL A   1      32.462  34.358  27.933  1.00  0.00    -0.352 N 
ATOM     31  C   UNL A   1      33.156  34.619  29.087  1.00  0.00     0.251 C 
ATOM     32  H   UNL A   1      31.725  34.980  27.735  1.00  0.00     0.163 HD
ATOM     33  O   UNL A   1      32.728  35.433  29.894  1.00  0.00    -0.269 OA
BRANCH  31  34
ATOM     34  C   UNL A   1      34.418  33.898  29.364  1.00  0.00     0.039 A 
ATOM     35  C   UNL A   1      35.552  34.219  28.615  1.00  0.00     0.014 A 
ATOM     36  C   UNL A   1      34.482  32.907  30.349  1.00  0.00     0.014 A 
ATOM     37  C   UNL A   1      36.763  33.586  28.891  1.00  0.00     0.010 A 
ATOM     38  C   UNL A   1      35.708  32.335  30.677  1.00  0.00     0.010 A 
ATOM     39  C   UNL A   1      36.859  32.665  29.948  1.00  0.00    -0.014 A 
BRANCH  39  40
ATOM     40  C   UNL A   1      38.165  32.058  30.308  1.00  0.00     0.031 A 
ATOM     41  C   UNL A   1      39.112  32.770  31.234  1.00  0.00     0.074 A 
ATOM     42  C   UNL A   1      38.520  30.881  29.757  1.00  0.00     0.049 A 
ATOM     43  N   UNL A   1      40.295  32.394  31.651  1.00  0.00    -0.248 NA
ATOM     44  C   UNL A   1      38.688  34.085  31.737  1.00  0.00     0.031 C 
ATOM     45  C   UNL A   1      37.713  30.116  28.805  1.00  0.00     0.029 A 
ATOM     46  N   UNL A   1      39.654  30.125  29.915  1.00  0.00    -0.354 N 
ATOM     47  C   UNL A   1      40.760  33.430  32.451  1.00  0.00     0.074 A 
ATOM     48  C   UNL A   1      39.756  34.471  32.418  1.00  0.00     0.031 C 
ATOM     49  C   UNL A   1      38.361  28.983  28.492  1.00  0.00     0.029 A 
ATOM     50  C   UNL A   1      39.645  28.963  29.184  1.00  0.00     0.049 A 
ATOM     51  H   UNL A   1      40.402  30.390  30.498  1.00  0.00     0.167 HD
ATOM     52  C   UNL A   1      41.910  33.502  33.164  1.00  0.00     0.031 A 
ATOM     53  C   UNL A   1      40.570  27.990  29.075  1.00  0.00     0.031 A 
ATOM     54  C   UNL A   1      42.909  32.465  33.192  1.00  0.00     0.049 A 
ATOM     55  C   UNL A   1      41.843  28.096  29.864  1.00  0.00     0.074 A 
ATOM     56  C   UNL A   1      44.076  32.413  33.934  1.00  0.00     0.029 A 
ATOM     57  N   UNL A   1      42.864  31.304  32.435  1.00  0.00    -0.354 N 
ATOM     58  N   UNL A   1      42.229  29.043  30.685  1.00  0.00    -0.248 NA
ATOM     59  C   UNL A   1      42.804  26.994  29.719  1.00  0.00     0.031 C 
ATOM     60  C   UNL A   1      44.772  31.255  33.572  1.00  0.00     0.029 A 
ATOM     61  C   UNL A   1      44.004  30.548  32.661  1.00  0.00     0.049 A 
ATOM     62  H   UNL A   1      42.132  31.054  31.827  1.00  0.00     0.167 HD
ATOM     63  C   UNL A   1      43.466  28.640  31.172  1.00  0.00     0.074 A 
ATOM     64  C   UNL A   1      43.754  27.354  30.570  1.00  0.00     0.031 C 
ATOM     65  C   UNL A   1      44.287  29.278  32.042  1.00  0.00     0.031 A 
BRANCH  52  66
ATOM     66  C   UNL A   1      42.159  34.760  33.952  1.00  0.00    -0.014 A 
ATOM     67  C   UNL A   1      42.768  35.884  33.368  1.00  0.00     0.009 A 
ATOM     68  C   UNL A   1      41.755  34.831  35.294  1.00  0.00     0.009 A 
ATOM     69  C   UNL A   1      43.010  37.032  34.126  1.00  0.00     0.001 A 
ATOM     70  C   UNL A   1      41.968  35.992  36.040  1.00  0.00     0.001 A 
ATOM     71  C   UNL A   1      42.607  37.087  35.460  1.00  0.00     0.000 A 
ENDBRANCH  52  66
BRANCH  53  72
ATOM     72  C   UNL A   1      40.311  26.824  28.189  1.00  0.00    -0.014 A 
ATOM     73  C   UNL A   1      39.554  25.734  28.643  1.00  0.00     0.009 A 
ATOM     74  C   UNL A   1      40.807  26.806  26.876  1.00  0.00     0.009 A 
ATOM     75  C   UNL A   1      39.316  24.640  27.807  1.00  0.00     0.001 A 
ATOM     76  C   UNL A   1      40.542  25.725  26.032  1.00  0.00     0.001 A 
ATOM     77  C   UNL A   1      39.804  24.640  26.501  1.00  0.00     0.000 A 
ENDBRANCH  53  72
BRANCH  65  78
ATOM     78  C   UNL A   1      45.570  28.583  32.410  1.00  0.00    -0.014 A 
ATOM     79  C   UNL A   1      46.758  28.813  31.698  1.00  0.00     0.009 A 
ATOM     80  C   UNL A   1      45.596  27.709  33.509  1.00  0.00     0.009 A 
ATOM     81  C   UNL A   1      47.935  28.151  32.055  1.00  0.00     0.001 A 
ATOM     82  C   UNL A   1      46.781  27.075  33.884  1.00  0.00     0.001 A 
ATOM     83  C   UNL A   1      47.947  27.288  33.151  1.00  0.00     0.000 A 
ENDBRANCH  65  78
ENDBRANCH  39  40
ENDBRANCH  31  34
ENDBRANCH  29  30
ENDBRANCH  28  29
ENDBRANCH  27  28
ENDBRANCH   1  27
TORSDOF 16
ENDMDL
MODEL 3
REMARK VINA RESULT:     -11.0      0.628      5.844
REMARK SMILES CCc1n[nH]c(C(=O)N[C@@]2(C(=O)NCCCCCCNC(=O)c3ccc(-c4c5nc(c(-c6ccccc6)c6ccc([nH]6)c(-c6ccccc6)c6nc(c(-c7ccccc7)c7ccc4[nH]7)C=C6)C=C5)cc3)CCCC[C@H]2C)n1
REMARK SMILES IDX 16 1 15 2 14 3 13 4 11 5 12 6 10 8 71 9 75 10 72 11 74 12
REMARK SMILES IDX 76 13 73 14 9 15 7 16 8 17 6 19 3 20 4 21 77 22 5 23 2 25
REMARK SMILES IDX 1 26 17 27 18 28 19 29 20 30 21 31 22 33 23 34 24 35 70 36
REMARK SMILES IDX 25 37 69 38 26 39 27 40 28 41 63 42 29 43 68 44 62 45 64 46
REMARK SMILES IDX 30 47 67 48 61 49 60 50 31 52 53 53 38 54 52 55 39 56 42 57
REMARK SMILES IDX 51 58 65 59 40 60 41 61 50 63 66 64 43 65 32 66 33 67 37 68
REMARK SMILES IDX 34 69 36 70 35 71 54 72 55 73 59 74 56 75 58 76 57 77 44 78
REMARK SMILES IDX 45 79 49 80 46 81 48 82 47 83
REMARK H PARENT 13 7 9 18 5 24 20 32 64 51 42 62
REMARK Flexibility Score: inf
ROOT
ATOM      1  C   UNL A   1      38.869  22.350  26.073  1.00  0.00     0.002 C 
ENDROOT
BRANCH   1   2
ATOM      2  C   UNL A   1      38.178  23.705  26.263  1.00  0.00     0.021 C 
BRANCH   2   3
ATOM      3  C   UNL A   1      36.781  23.787  25.656  1.00  0.00     0.116 C 
BRANCH   3   4
ATOM      4  N   UNL A   1      35.806  23.170  26.524  1.00  0.00    -0.354 N 
ATOM      5  C   UNL A   1      34.455  23.064  26.450  1.00  0.00     0.246 C 
ATOM      6  O   UNL A   1      33.904  22.706  27.502  1.00  0.00    -0.272 OA
ATOM      7  H   UNL A   1      36.196  22.745  27.321  1.00  0.00     0.163 HD
BRANCH   5   8
ATOM      8  C   UNL A   1      33.616  23.485  25.187  1.00  0.00     0.122 C 
ATOM      9  C   UNL A   1      34.049  22.829  23.842  1.00  0.00     0.039 C 
ATOM     10  C   UNL A   1      33.734  25.054  25.037  1.00  0.00     0.021 C 
ATOM     11  C   UNL A   1      33.335  23.394  22.619  1.00  0.00     0.003 C 
ATOM     12  C   UNL A   1      33.070  25.594  23.757  1.00  0.00     0.006 C 
ATOM     13  C   UNL A   1      33.237  25.859  26.246  1.00  0.00     0.011 C 
ATOM     14  C   UNL A   1      33.572  24.884  22.506  1.00  0.00     0.000 C 
BRANCH   8  15
ATOM     15  N   UNL A   1      32.209  23.104  25.505  1.00  0.00    -0.335 N 
ATOM     16  C   UNL A   1      31.588  21.869  25.513  1.00  0.00     0.289 C 
ATOM     17  O   UNL A   1      30.390  21.851  25.807  1.00  0.00    -0.266 OA
ATOM     18  H   UNL A   1      31.626  23.858  25.751  1.00  0.00     0.165 HD
BRANCH  16  19
ATOM     19  C   UNL A   1      32.278  20.662  25.110  1.00  0.00     0.214 A 
ATOM     20  C   UNL A   1      32.849  18.861  24.152  1.00  0.00     0.151 A 
ATOM     21  N   UNL A   1      33.217  18.648  25.421  1.00  0.00    -0.158 NA
ATOM     22  N   UNL A   1      32.352  20.114  23.912  1.00  0.00    -0.207 NA
ATOM     23  N   UNL A   1      32.905  19.829  25.992  1.00  0.00    -0.255 N 
ATOM     24  H   UNL A   1      33.103  20.061  26.928  1.00  0.00     0.192 HD
BRANCH  20  25
ATOM     25  C   UNL A   1      32.841  17.784  23.124  1.00  0.00     0.076 C 
ATOM     26  C   UNL A   1      33.962  16.765  23.292  1.00  0.00     0.012 C 
ENDBRANCH  20  25
ENDBRANCH  16  19
ENDBRANCH   8  15
ENDBRANCH   5   8
ENDBRANCH   3   4
ENDBRANCH   2   3
ENDBRANCH   1   2
BRANCH   1  27
ATOM     27  C   UNL A   1      38.181  21.407  25.082  1.00  0.00     0.002 C 
BRANCH  27  28
ATOM     28  C   UNL A   1      38.756  19.990  25.030  1.00  0.00     0.021 C 
BRANCH  28  29
ATOM     29  C   UNL A   1      39.495  19.561  26.292  1.00  0.00     0.116 C 
BRANCH  29  30
ATOM     30  N   UNL A   1      40.761  18.917  25.990  1.00  0.00    -0.352 N 
ATOM     31  C   UNL A   1      42.018  19.460  25.912  1.00  0.00     0.251 C 
ATOM     32  H   UNL A   1      40.709  17.950  25.814  1.00  0.00     0.163 HD
ATOM     33  O   UNL A   1      42.943  18.810  25.443  1.00  0.00    -0.269 OA
BRANCH  31  34
ATOM     34  C   UNL A   1      42.251  20.844  26.380  1.00  0.00     0.039 A 
ATOM     35  C   UNL A   1      42.226  21.101  27.752  1.00  0.00     0.014 A 
ATOM     36  C   UNL A   1      42.483  21.883  25.473  1.00  0.00     0.014 A 
ATOM     37  C   UNL A   1      42.489  22.389  28.218  1.00  0.00     0.010 A 
ATOM     38  C   UNL A   1      42.824  23.148  25.942  1.00  0.00     0.010 A 
ATOM     39  C   UNL A   1      42.826  23.415  27.319  1.00  0.00    -0.014 A 
BRANCH  39  40
ATOM     40  C   UNL A   1      43.199  24.763  27.813  1.00  0.00     0.031 A 
ATOM     41  C   UNL A   1      42.143  25.793  28.103  1.00  0.00     0.074 A 
ATOM     42  C   UNL A   1      44.502  25.078  27.953  1.00  0.00     0.049 A 
ATOM     43  N   UNL A   1      42.286  27.023  28.532  1.00  0.00    -0.248 NA
ATOM     44  C   UNL A   1      40.747  25.403  27.855  1.00  0.00     0.031 C 
ATOM     45  C   UNL A   1      45.623  24.184  27.656  1.00  0.00     0.029 A 
ATOM     46  N   UNL A   1      45.102  26.236  28.377  1.00  0.00    -0.354 N 
ATOM     47  C   UNL A   1      41.004  27.554  28.592  1.00  0.00     0.074 A 
ATOM     48  C   UNL A   1      40.102  26.533  28.105  1.00  0.00     0.031 C 
ATOM     49  C   UNL A   1      46.773  24.815  27.941  1.00  0.00     0.029 A 
ATOM     50  C   UNL A   1      46.473  26.168  28.396  1.00  0.00     0.049 A 
ATOM     51  H   UNL A   1      44.598  27.039  28.643  1.00  0.00     0.167 HD
ATOM     52  C   UNL A   1      40.610  28.774  29.028  1.00  0.00     0.031 A 
ATOM     53  C   UNL A   1      47.391  27.093  28.736  1.00  0.00     0.031 A 
ATOM     54  C   UNL A   1      41.511  29.789  29.510  1.00  0.00     0.049 A 
ATOM     55  C   UNL A   1      46.932  28.444  29.205  1.00  0.00     0.074 A 
ATOM     56  C   UNL A   1      41.206  31.032  30.036  1.00  0.00     0.029 A 
ATOM     57  N   UNL A   1      42.893  29.683  29.511  1.00  0.00    -0.354 N 
ATOM     58  N   UNL A   1      45.711  28.900  29.339  1.00  0.00    -0.248 NA
ATOM     59  C   UNL A   1      47.980  29.403  29.581  1.00  0.00     0.031 C 
ATOM     60  C   UNL A   1      42.405  31.706  30.289  1.00  0.00     0.029 A 
ATOM     61  C   UNL A   1      43.458  30.854  29.990  1.00  0.00     0.049 A 
ATOM     62  H   UNL A   1      43.399  28.893  29.214  1.00  0.00     0.167 HD
ATOM     63  C   UNL A   1      45.841  30.191  29.836  1.00  0.00     0.074 A 
ATOM     64  C   UNL A   1      47.260  30.435  29.999  1.00  0.00     0.031 C 
ATOM     65  C   UNL A   1      44.871  31.092  30.132  1.00  0.00     0.031 A 
BRANCH  52  66
ATOM     66  C   UNL A   1      39.138  29.085  28.980  1.00  0.00    -0.014 A 
ATOM     67  C   UNL A   1      38.537  29.614  27.825  1.00  0.00     0.009 A 
ATOM     68  C   UNL A   1      38.334  28.821  30.100  1.00  0.00     0.009 A 
ATOM     69  C   UNL A   1      37.174  29.918  27.812  1.00  0.00     0.001 A 
ATOM     70  C   UNL A   1      36.965  29.093  30.071  1.00  0.00     0.001 A 
ATOM     71  C   UNL A   1      36.387  29.653  28.933  1.00  0.00     0.000 A 
ENDBRANCH  52  66
BRANCH  53  72
ATOM     72  C   UNL A   1      48.838  26.760  28.654  1.00  0.00    -0.014 A 
ATOM     73  C   UNL A   1      49.510  26.211  29.756  1.00  0.00     0.009 A 
ATOM     74  C   UNL A   1      49.550  26.975  27.464  1.00  0.00     0.009 A 
ATOM     75  C   UNL A   1      50.870  25.902  29.674  1.00  0.00     0.001 A 
ATOM     76  C   UNL A   1      50.902  26.636  27.374  1.00  0.00     0.001 A 
ATOM     77  C   UNL A   1      51.562  26.108  28.482  1.00  0.00     0.000 A 
ENDBRANCH  53  72
BRANCH  65  78
ATOM     78  C   UNL A   1      45.314  32.420  30.683  1.00  0.00    -0.014 A 
ATOM     79  C   UNL A   1      45.564  33.515  29.840  1.00  0.00     0.009 A 
ATOM     80  C   UNL A   1      45.450  32.587  32.070  1.00  0.00     0.009 A 
ATOM     81  C   UNL A   1      45.980  34.737  30.375  1.00  0.00     0.001 A 
ATOM     82  C   UNL A   1      45.832  33.818  32.604  1.00  0.00     0.001 A 
ATOM     83  C   UNL A   1      46.108  34.889  31.755  1.00  0.00     0.000 A 
ENDBRANCH  65  78
ENDBRANCH  39  40
ENDBRANCH  31  34
ENDBRANCH  29  30
ENDBRANCH  28  29
ENDBRANCH  27  28
ENDBRANCH   1  27
TORSDOF 16
ENDMDL
