MODEL 1
REMARK VINA RESULT:     -11.3      0.000      0.000
REMARK SMILES O=C(NCCCCCCNC(=O)c1ccc(F)cc1-c1ccc(F)c(Cl)c1)c1ccc(-c2c3nc(c(-c4ccccc4)c4ccc([nH]4)c(-c4ccccc4)c4nc(c(-c5ccccc5)c5ccc2[nH]5)C=C4)C=C3)cc1
REMARK SMILES IDX 6 1 5 2 4 3 3 4 1 5 2 6 28 8 29 9 75 10 30 11 74 12 31 13
REMARK SMILES IDX 32 14 33 15 68 16 34 17 73 18 67 19 69 20 35 21 72 22 66 23
REMARK SMILES IDX 65 24 36 26 58 27 43 28 57 29 44 30 47 31 56 32 70 33 45 34
REMARK SMILES IDX 46 35 55 37 71 38 48 39 37 40 38 41 42 42 39 43 41 44 40 45
REMARK SMILES IDX 59 46 60 47 64 48 61 49 63 50 62 51 49 52 50 53 54 54 51 55
REMARK SMILES IDX 53 56 52 57 7 58 8 59 9 60 10 61 11 62 12 64 13 65 14 66
REMARK SMILES IDX 19 67 15 68 18 69 16 70 17 71 20 72 21 73 27 74 22 75 25 76
REMARK SMILES IDX 23 77 26 78 24 79
REMARK H PARENT 3 7 69 25 47 36 10 63
REMARK Flexibility Score: inf
ROOT
ATOM      1  C   UNL A   1      36.269  20.116  25.005  1.00  0.00     0.002 C 
ENDROOT
BRANCH   1   2
ATOM      2  C   UNL A   1      37.685  19.643  24.671  1.00  0.00     0.021 C 
BRANCH   2   3
ATOM      3  C   UNL A   1      38.776  20.166  25.599  1.00  0.00     0.116 C 
BRANCH   3   4
ATOM      4  N   UNL A   1      39.895  19.246  25.711  1.00  0.00    -0.352 N 
ATOM      5  O   UNL A   1      42.050  18.624  25.941  1.00  0.00    -0.269 OA
ATOM      6  C   UNL A   1      41.193  19.496  26.073  1.00  0.00     0.251 C 
ATOM      7  H   UNL A   1      39.691  18.307  25.496  1.00  0.00     0.163 HD
BRANCH   6   8
ATOM      8  C   UNL A   1      41.572  20.819  26.607  1.00  0.00     0.039 A 
ATOM      9  C   UNL A   1      41.559  21.070  27.983  1.00  0.00     0.014 A 
ATOM     10  C   UNL A   1      41.978  21.815  25.715  1.00  0.00     0.014 A 
ATOM     11  C   UNL A   1      41.847  22.347  28.458  1.00  0.00     0.010 A 
ATOM     12  C   UNL A   1      42.333  23.075  26.198  1.00  0.00     0.010 A 
ATOM     13  C   UNL A   1      42.251  23.357  27.571  1.00  0.00    -0.014 A 
BRANCH  13  14
ATOM     14  C   UNL A   1      42.655  24.687  28.087  1.00  0.00     0.031 A 
ATOM     15  C   UNL A   1      41.633  25.755  28.348  1.00  0.00     0.074 A 
ATOM     16  C   UNL A   1      43.963  24.941  28.279  1.00  0.00     0.049 A 
ATOM     17  N   UNL A   1      41.816  26.995  28.723  1.00  0.00    -0.248 NA
ATOM     18  C   UNL A   1      40.223  25.385  28.151  1.00  0.00     0.031 C 
ATOM     19  C   UNL A   1      45.048  23.984  28.054  1.00  0.00     0.029 A 
ATOM     20  N   UNL A   1      44.601  26.083  28.690  1.00  0.00    -0.354 N 
ATOM     21  C   UNL A   1      40.550  27.564  28.782  1.00  0.00     0.074 A 
ATOM     22  C   UNL A   1      39.610  26.537  28.385  1.00  0.00     0.031 C 
ATOM     23  C   UNL A   1      46.218  24.576  28.335  1.00  0.00     0.029 A 
ATOM     24  C   UNL A   1      45.969  25.967  28.699  1.00  0.00     0.049 A 
ATOM     25  H   UNL A   1      44.126  26.903  28.953  1.00  0.00     0.167 HD
ATOM     26  C   UNL A   1      40.206  28.826  29.132  1.00  0.00     0.031 A 
ATOM     27  C   UNL A   1      46.924  26.884  28.934  1.00  0.00     0.031 A 
ATOM     28  C   UNL A   1      41.150  29.845  29.513  1.00  0.00     0.049 A 
ATOM     29  C   UNL A   1      46.525  28.288  29.278  1.00  0.00     0.074 A 
ATOM     30  C   UNL A   1      40.897  31.141  29.931  1.00  0.00     0.029 A 
ATOM     31  N   UNL A   1      42.528  29.689  29.505  1.00  0.00    -0.354 N 
ATOM     32  N   UNL A   1      45.321  28.797  29.382  1.00  0.00    -0.248 NA
ATOM     33  C   UNL A   1      47.610  29.242  29.538  1.00  0.00     0.031 C 
ATOM     34  C   UNL A   1      42.124  31.787  30.115  1.00  0.00     0.029 A 
ATOM     35  C   UNL A   1      43.141  30.875  29.876  1.00  0.00     0.049 A 
ATOM     36  H   UNL A   1      43.001  28.859  29.270  1.00  0.00     0.167 HD
ATOM     37  C   UNL A   1      45.501  30.125  29.743  1.00  0.00     0.074 A 
ATOM     38  C   UNL A   1      46.932  30.340  29.846  1.00  0.00     0.031 C 
ATOM     39  C   UNL A   1      44.564  31.076  29.972  1.00  0.00     0.031 A 
BRANCH  26  40
ATOM     40  C   UNL A   1      38.746  29.186  29.074  1.00  0.00    -0.014 A 
ATOM     41  C   UNL A   1      37.917  29.080  30.201  1.00  0.00     0.009 A 
ATOM     42  C   UNL A   1      38.197  29.656  27.870  1.00  0.00     0.009 A 
ATOM     43  C   UNL A   1      36.557  29.392  30.111  1.00  0.00     0.001 A 
ATOM     44  C   UNL A   1      36.845  29.996  27.791  1.00  0.00     0.001 A 
ATOM     45  C   UNL A   1      36.023  29.851  28.907  1.00  0.00     0.000 A 
ENDBRANCH  26  40
BRANCH  27  46
ATOM     46  C   UNL A   1      48.351  26.487  28.822  1.00  0.00    -0.014 A 
ATOM     47  C   UNL A   1      49.040  25.968  29.926  1.00  0.00     0.009 A 
ATOM     48  C   UNL A   1      49.010  26.568  27.584  1.00  0.00     0.009 A 
ATOM     49  C   UNL A   1      50.364  25.543  29.793  1.00  0.00     0.001 A 
ATOM     50  C   UNL A   1      50.324  26.118  27.448  1.00  0.00     0.001 A 
ATOM     51  C   UNL A   1      51.001  25.610  28.555  1.00  0.00     0.000 A 
ENDBRANCH  27  46
BRANCH  39  52
ATOM     52  C   UNL A   1      45.048  32.435  30.394  1.00  0.00    -0.014 A 
ATOM     53  C   UNL A   1      45.284  33.450  29.455  1.00  0.00     0.009 A 
ATOM     54  C   UNL A   1      45.200  32.720  31.760  1.00  0.00     0.009 A 
ATOM     55  C   UNL A   1      45.680  34.722  29.878  1.00  0.00     0.001 A 
ATOM     56  C   UNL A   1      45.571  33.998  32.181  1.00  0.00     0.001 A 
ATOM     57  C   UNL A   1      45.815  34.995  31.239  1.00  0.00     0.000 A 
ENDBRANCH  39  52
ENDBRANCH  13  14
ENDBRANCH   6   8
ENDBRANCH   3   4
ENDBRANCH   2   3
ENDBRANCH   1   2
BRANCH   1  58
ATOM     58  C   UNL A   1      35.980  21.591  24.712  1.00  0.00     0.002 C 
BRANCH  58  59
ATOM     59  C   UNL A   1      35.947  22.517  25.931  1.00  0.00     0.021 C 
BRANCH  59  60
ATOM     60  C   UNL A   1      35.255  23.860  25.711  1.00  0.00     0.116 C 
BRANCH  60  61
ATOM     61  N   UNL A   1      35.127  24.194  24.303  1.00  0.00    -0.352 N 
ATOM     62  C   UNL A   1      34.032  24.647  23.615  1.00  0.00     0.251 C 
ATOM     63  H   UNL A   1      35.944  24.079  23.765  1.00  0.00     0.163 HD
ATOM     64  O   UNL A   1      34.095  24.849  22.403  1.00  0.00    -0.269 OA
BRANCH  62  65
ATOM     65  C   UNL A   1      32.773  24.906  24.345  1.00  0.00     0.047 A 
ATOM     66  C   UNL A   1      32.522  26.227  24.762  1.00  0.00     0.017 A 
ATOM     67  C   UNL A   1      31.834  23.877  24.579  1.00  0.00    -0.003 A 
ATOM     68  C   UNL A   1      31.363  26.526  25.473  1.00  0.00     0.040 A 
ATOM     69  C   UNL A   1      30.671  24.211  25.297  1.00  0.00     0.048 A 
ATOM     70  C   UNL A   1      30.453  25.514  25.740  1.00  0.00     0.123 A 
ATOM     71  F   UNL A   1      29.341  25.795  26.431  1.00  0.00    -0.207 F 
BRANCH  67  72
ATOM     72  C   UNL A   1      32.011  22.494  24.104  1.00  0.00    -0.016 A 
ATOM     73  C   UNL A   1      31.908  22.166  22.741  1.00  0.00     0.012 A 
ATOM     74  C   UNL A   1      32.295  21.463  25.020  1.00  0.00     0.032 A 
ATOM     75  C   UNL A   1      32.076  20.847  22.307  1.00  0.00     0.041 A 
ATOM     76  C   UNL A   1      32.464  20.148  24.586  1.00  0.00     0.077 A 
ATOM     77  C   UNL A   1      32.354  19.846  23.232  1.00  0.00     0.141 A 
ATOM     78  Cl  UNL A   1      32.820  18.916  25.736  1.00  0.00    -0.081 Cl
ATOM     79  F   UNL A   1      32.517  18.590  22.793  1.00  0.00    -0.205 F 
ENDBRANCH  67  72
ENDBRANCH  62  65
ENDBRANCH  60  61
ENDBRANCH  59  60
ENDBRANCH  58  59
ENDBRANCH   1  58
TORSDOF 14
ENDMDL
MODEL 2
REMARK VINA RESULT:     -11.3      1.552      2.967
REMARK SMILES O=C(NCCCCCCNC(=O)c1ccc(F)cc1-c1ccc(F)c(Cl)c1)c1ccc(-c2c3nc(c(-c4ccccc4)c4ccc([nH]4)c(-c4ccccc4)c4nc(c(-c5ccccc5)c5ccc2[nH]5)C=C4)C=C3)cc1
REMARK SMILES IDX 6 1 5 2 4 3 3 4 1 5 2 6 28 8 29 9 75 10 30 11 74 12 31 13
REMARK SMILES IDX 32 14 33 15 68 16 34 17 73 18 67 19 69 20 35 21 72 22 66 23
REMARK SMILES IDX 65 24 36 26 58 27 43 28 57 29 44 30 47 31 56 32 70 33 45 34
REMARK SMILES IDX 46 35 55 37 71 38 48 39 37 40 38 41 42 42 39 43 41 44 40 45
REMARK SMILES IDX 59 46 60 47 64 48 61 49 63 50 62 51 49 52 50 53 54 54 51 55
REMARK SMILES IDX 53 56 52 57 7 58 8 59 9 60 10 61 11 62 12 64 13 65 14 66
REMARK SMILES IDX 19 67 15 68 18 69 16 70 17 71 20 72 21 73 27 74 22 75 25 76
REMARK SMILES IDX 23 77 26 78 24 79
REMARK H PARENT 3 7 69 25 47 36 10 63
REMARK Flexibility Score: inf
ROOT
ATOM      1  C   UNL A   1      35.929  20.740  24.987  1.00  0.00     0.002 C 
ENDROOT
BRANCH   1   2
ATOM      2  C   UNL A   1      37.149  19.819  24.937  1.00  0.00     0.021 C 
BRANCH   2   3
ATOM      3  C   UNL A   1      38.453  20.448  25.418  1.00  0.00     0.116 C 
BRANCH   3   4
ATOM      4  N   UNL A   1      39.506  19.465  25.602  1.00  0.00    -0.352 N 
ATOM      5  O   UNL A   1      41.605  18.718  25.951  1.00  0.00    -0.269 OA
ATOM      6  C   UNL A   1      40.798  19.642  26.024  1.00  0.00     0.251 C 
ATOM      7  H   UNL A   1      39.256  18.535  25.392  1.00  0.00     0.163 HD
BRANCH   6   8
ATOM      8  C   UNL A   1      41.230  20.951  26.555  1.00  0.00     0.039 A 
ATOM      9  C   UNL A   1      41.733  21.942  25.704  1.00  0.00     0.014 A 
ATOM     10  C   UNL A   1      41.098  21.201  27.923  1.00  0.00     0.014 A 
ATOM     11  C   UNL A   1      42.203  23.139  26.236  1.00  0.00     0.010 A 
ATOM     12  C   UNL A   1      41.507  22.428  28.446  1.00  0.00     0.010 A 
ATOM     13  C   UNL A   1      42.081  23.399  27.610  1.00  0.00    -0.014 A 
BRANCH  13  14
ATOM     14  C   UNL A   1      42.490  24.714  28.160  1.00  0.00     0.031 A 
ATOM     15  C   UNL A   1      41.479  25.798  28.398  1.00  0.00     0.074 A 
ATOM     16  C   UNL A   1      43.794  24.940  28.404  1.00  0.00     0.049 A 
ATOM     17  N   UNL A   1      41.671  27.029  28.798  1.00  0.00    -0.248 NA
ATOM     18  C   UNL A   1      40.071  25.458  28.144  1.00  0.00     0.031 C 
ATOM     19  C   UNL A   1      44.869  23.965  28.206  1.00  0.00     0.029 A 
ATOM     20  N   UNL A   1      44.438  26.063  28.856  1.00  0.00    -0.354 N 
ATOM     21  C   UNL A   1      40.414  27.621  28.819  1.00  0.00     0.074 A 
ATOM     22  C   UNL A   1      39.471  26.618  28.372  1.00  0.00     0.031 C 
ATOM     23  C   UNL A   1      46.038  24.531  28.538  1.00  0.00     0.029 A 
ATOM     24  C   UNL A   1      45.802  25.921  28.914  1.00  0.00     0.049 A 
ATOM     25  H   UNL A   1      43.969  26.888  29.112  1.00  0.00     0.167 HD
ATOM     26  C   UNL A   1      40.081  28.885  29.175  1.00  0.00     0.031 A 
ATOM     27  C   UNL A   1      46.765  26.817  29.198  1.00  0.00     0.031 A 
ATOM     28  C   UNL A   1      41.029  29.880  29.605  1.00  0.00     0.049 A 
ATOM     29  C   UNL A   1      46.379  28.223  29.547  1.00  0.00     0.074 A 
ATOM     30  C   UNL A   1      40.786  31.175  30.033  1.00  0.00     0.029 A 
ATOM     31  N   UNL A   1      42.403  29.697  29.646  1.00  0.00    -0.354 N 
ATOM     32  N   UNL A   1      45.182  28.753  29.614  1.00  0.00    -0.248 NA
ATOM     33  C   UNL A   1      47.472  29.152  29.861  1.00  0.00     0.031 C 
ATOM     34  C   UNL A   1      42.017  31.793  30.272  1.00  0.00     0.029 A 
ATOM     35  C   UNL A   1      43.024  30.865  30.057  1.00  0.00     0.049 A 
ATOM     36  H   UNL A   1      42.870  28.862  29.416  1.00  0.00     0.167 HD
ATOM     37  C   UNL A   1      45.374  30.073  30.001  1.00  0.00     0.074 A 
ATOM     38  C   UNL A   1      46.803  30.258  30.160  1.00  0.00     0.031 C 
ATOM     39  C   UNL A   1      44.447  31.038  30.209  1.00  0.00     0.031 A 
BRANCH  26  40
ATOM     40  C   UNL A   1      38.632  29.273  29.068  1.00  0.00    -0.014 A 
ATOM     41  C   UNL A   1      37.759  29.167  30.162  1.00  0.00     0.009 A 
ATOM     42  C   UNL A   1      38.137  29.771  27.851  1.00  0.00     0.009 A 
ATOM     43  C   UNL A   1      36.410  29.507  30.025  1.00  0.00     0.001 A 
ATOM     44  C   UNL A   1      36.795  30.138  27.727  1.00  0.00     0.001 A 
ATOM     45  C   UNL A   1      35.930  29.993  28.810  1.00  0.00     0.000 A 
ENDBRANCH  26  40
BRANCH  27  46
ATOM     46  C   UNL A   1      48.187  26.393  29.132  1.00  0.00    -0.014 A 
ATOM     47  C   UNL A   1      48.819  25.827  30.247  1.00  0.00     0.009 A 
ATOM     48  C   UNL A   1      48.899  26.499  27.926  1.00  0.00     0.009 A 
ATOM     49  C   UNL A   1      50.139  25.379  30.157  1.00  0.00     0.001 A 
ATOM     50  C   UNL A   1      50.209  26.025  27.831  1.00  0.00     0.001 A 
ATOM     51  C   UNL A   1      50.829  25.471  28.949  1.00  0.00     0.000 A 
ENDBRANCH  27  46
BRANCH  39  52
ATOM     52  C   UNL A   1      44.939  32.381  30.669  1.00  0.00    -0.014 A 
ATOM     53  C   UNL A   1      45.234  33.403  29.754  1.00  0.00     0.009 A 
ATOM     54  C   UNL A   1      45.041  32.646  32.044  1.00  0.00     0.009 A 
ATOM     55  C   UNL A   1      45.637  34.661  30.210  1.00  0.00     0.001 A 
ATOM     56  C   UNL A   1      45.419  33.910  32.496  1.00  0.00     0.001 A 
ATOM     57  C   UNL A   1      45.722  34.915  31.579  1.00  0.00     0.000 A 
ENDBRANCH  39  52
ENDBRANCH  13  14
ENDBRANCH   6   8
ENDBRANCH   3   4
ENDBRANCH   2   3
ENDBRANCH   1   2
BRANCH   1  58
ATOM     58  C   UNL A   1      36.205  22.177  25.437  1.00  0.00     0.002 C 
BRANCH  58  59
ATOM     59  C   UNL A   1      35.219  22.756  26.457  1.00  0.00     0.021 C 
BRANCH  59  60
ATOM     60  C   UNL A   1      34.425  21.725  27.254  1.00  0.00     0.116 C 
BRANCH  60  61
ATOM     61  N   UNL A   1      33.116  22.216  27.649  1.00  0.00    -0.352 N 
ATOM     62  C   UNL A   1      32.015  22.469  26.874  1.00  0.00     0.251 C 
ATOM     63  H   UNL A   1      33.003  22.394  28.611  1.00  0.00     0.163 HD
ATOM     64  O   UNL A   1      30.987  22.921  27.377  1.00  0.00    -0.269 OA
BRANCH  62  65
ATOM     65  C   UNL A   1      32.066  22.181  25.425  1.00  0.00     0.047 A 
ATOM     66  C   UNL A   1      32.191  20.834  25.033  1.00  0.00     0.017 A 
ATOM     67  C   UNL A   1      31.949  23.211  24.466  1.00  0.00    -0.003 A 
ATOM     68  C   UNL A   1      32.266  20.505  23.683  1.00  0.00     0.040 A 
ATOM     69  C   UNL A   1      32.026  22.846  23.109  1.00  0.00     0.048 A 
ATOM     70  C   UNL A   1      32.191  21.514  22.735  1.00  0.00     0.123 A 
ATOM     71  F   UNL A   1      32.272  21.203  21.435  1.00  0.00    -0.207 F 
BRANCH  67  72
ATOM     72  C   UNL A   1      31.745  24.627  24.818  1.00  0.00    -0.016 A 
ATOM     73  C   UNL A   1      30.499  25.255  24.645  1.00  0.00     0.012 A 
ATOM     74  C   UNL A   1      32.809  25.385  25.343  1.00  0.00     0.032 A 
ATOM     75  C   UNL A   1      30.323  26.601  24.981  1.00  0.00     0.041 A 
ATOM     76  C   UNL A   1      32.631  26.728  25.680  1.00  0.00     0.077 A 
ATOM     77  C   UNL A   1      31.390  27.330  25.497  1.00  0.00     0.141 A 
ATOM     78  Cl  UNL A   1      33.954  27.619  26.330  1.00  0.00    -0.081 Cl
ATOM     79  F   UNL A   1      31.196  28.616  25.818  1.00  0.00    -0.205 F 
ENDBRANCH  67  72
ENDBRANCH  62  65
ENDBRANCH  60  61
ENDBRANCH  59  60
ENDBRANCH  58  59
ENDBRANCH   1  58
TORSDOF 14
ENDMDL
MODEL 3
REMARK VINA RESULT:     -11.2      2.270      7.064
REMARK SMILES O=C(NCCCCCCNC(=O)c1ccc(F)cc1-c1ccc(F)c(Cl)c1)c1ccc(-c2c3nc(c(-c4ccccc4)c4ccc([nH]4)c(-c4ccccc4)c4nc(c(-c5ccccc5)c5ccc2[nH]5)C=C4)C=C3)cc1
REMARK SMILES IDX 6 1 5 2 4 3 3 4 1 5 2 6 28 8 29 9 75 10 30 11 74 12 31 13
REMARK SMILES IDX 32 14 33 15 68 16 34 17 73 18 67 19 69 20 35 21 72 22 66 23
REMARK SMILES IDX 65 24 36 26 58 27 43 28 57 29 44 30 47 31 56 32 70 33 45 34
REMARK SMILES IDX 46 35 55 37 71 38 48 39 37 40 38 41 42 42 39 43 41 44 40 45
REMARK SMILES IDX 59 46 60 47 64 48 61 49 63 50 62 51 49 52 50 53 54 54 51 55
REMARK SMILES IDX 53 56 52 57 7 58 8 59 9 60 10 61 11 62 12 64 13 65 14 66
REMARK SMILES IDX 19 67 15 68 18 69 16 70 17 71 20 72 21 73 27 74 22 75 25 76
REMARK SMILES IDX 23 77 26 78 24 79
REMARK H PARENT 3 7 69 25 47 36 10 63
REMARK Flexibility Score: inf
ROOT
ATOM      1  C   UNL A   1      31.806  27.029  25.930  1.00  0.00     0.002 C 
ENDROOT
BRANCH   1   2
ATOM      2  C   UNL A   1      32.473  27.554  27.202  1.00  0.00     0.021 C 
BRANCH   2   3
ATOM      3  C   UNL A   1      33.757  28.347  26.978  1.00  0.00     0.116 C 
BRANCH   3   4
ATOM      4  N   UNL A   1      33.613  29.746  27.340  1.00  0.00    -0.352 N 
ATOM      5  O   UNL A   1      34.123  31.678  28.385  1.00  0.00    -0.269 OA
ATOM      6  C   UNL A   1      34.486  30.566  28.008  1.00  0.00     0.251 C 
ATOM      7  H   UNL A   1      32.766  30.167  27.067  1.00  0.00     0.163 HD
BRANCH   6   8
ATOM      8  C   UNL A   1      35.861  30.109  28.292  1.00  0.00     0.039 A 
ATOM      9  C   UNL A   1      36.858  30.177  27.313  1.00  0.00     0.014 A 
ATOM     10  C   UNL A   1      36.163  29.635  29.571  1.00  0.00     0.014 A 
ATOM     11  C   UNL A   1      38.127  29.670  27.580  1.00  0.00     0.010 A 
ATOM     12  C   UNL A   1      37.454  29.191  29.859  1.00  0.00     0.010 A 
ATOM     13  C   UNL A   1      38.441  29.187  28.860  1.00  0.00    -0.014 A 
BRANCH  13  14
ATOM     14  C   UNL A   1      39.820  28.742  29.173  1.00  0.00     0.031 A 
ATOM     15  C   UNL A   1      40.810  29.680  29.799  1.00  0.00     0.074 A 
ATOM     16  C   UNL A   1      40.189  27.489  28.845  1.00  0.00     0.049 A 
ATOM     17  N   UNL A   1      42.076  29.484  30.067  1.00  0.00    -0.248 NA
ATOM     18  C   UNL A   1      40.317  31.018  30.162  1.00  0.00     0.031 C 
ATOM     19  C   UNL A   1      39.318  26.489  28.227  1.00  0.00     0.029 A 
ATOM     20  N   UNL A   1      41.397  26.851  28.972  1.00  0.00    -0.354 N 
ATOM     21  C   UNL A   1      42.539  30.678  30.605  1.00  0.00     0.074 A 
ATOM     22  C   UNL A   1      41.422  31.599  30.607  1.00  0.00     0.031 C 
ATOM     23  C   UNL A   1      40.016  25.361  28.032  1.00  0.00     0.029 A 
ATOM     24  C   UNL A   1      41.395  25.580  28.455  1.00  0.00     0.049 A 
ATOM     25  H   UNL A   1      42.185  27.264  29.392  1.00  0.00     0.167 HD
ATOM     26  C   UNL A   1      43.782  30.977  31.052  1.00  0.00     0.031 A 
ATOM     27  C   UNL A   1      42.398  24.696  28.299  1.00  0.00     0.031 A 
ATOM     28  C   UNL A   1      44.891  30.058  31.034  1.00  0.00     0.049 A 
ATOM     29  C   UNL A   1      43.777  25.063  28.760  1.00  0.00     0.074 A 
ATOM     30  C   UNL A   1      46.178  30.251  31.509  1.00  0.00     0.029 A 
ATOM     31  N   UNL A   1      44.849  28.780  30.498  1.00  0.00    -0.354 N 
ATOM     32  N   UNL A   1      44.188  26.176  29.316  1.00  0.00    -0.248 NA
ATOM     33  C   UNL A   1      44.828  24.053  28.577  1.00  0.00     0.031 C 
ATOM     34  C   UNL A   1      46.930  29.112  31.202  1.00  0.00     0.029 A 
ATOM     35  C   UNL A   1      46.096  28.185  30.596  1.00  0.00     0.049 A 
ATOM     36  H   UNL A   1      44.053  28.358  30.104  1.00  0.00     0.167 HD
ATOM     37  C   UNL A   1      45.541  25.996  29.571  1.00  0.00     0.074 A 
ATOM     38  C   UNL A   1      45.877  24.661  29.115  1.00  0.00     0.031 C 
ATOM     39  C   UNL A   1      46.419  26.858  30.137  1.00  0.00     0.031 A 
BRANCH  26  40
ATOM     40  C   UNL A   1      44.017  32.375  31.558  1.00  0.00    -0.014 A 
ATOM     41  C   UNL A   1      43.833  32.710  32.908  1.00  0.00     0.009 A 
ATOM     42  C   UNL A   1      44.447  33.370  30.665  1.00  0.00     0.009 A 
ATOM     43  C   UNL A   1      44.029  34.023  33.344  1.00  0.00     0.001 A 
ATOM     44  C   UNL A   1      44.671  34.674  31.110  1.00  0.00     0.001 A 
ATOM     45  C   UNL A   1      44.448  35.003  32.446  1.00  0.00     0.000 A 
ENDBRANCH  26  40
BRANCH  27  46
ATOM     46  C   UNL A   1      42.116  23.391  27.649  1.00  0.00    -0.014 A 
ATOM     47  C   UNL A   1      41.500  22.354  28.361  1.00  0.00     0.009 A 
ATOM     48  C   UNL A   1      42.408  23.203  26.287  1.00  0.00     0.009 A 
ATOM     49  C   UNL A   1      41.187  21.151  27.723  1.00  0.00     0.001 A 
ATOM     50  C   UNL A   1      42.069  22.011  25.646  1.00  0.00     0.001 A 
ATOM     51  C   UNL A   1      41.463  20.984  26.367  1.00  0.00     0.000 A 
ENDBRANCH  27  46
BRANCH  39  52
ATOM     52  C   UNL A   1      47.830  26.378  30.332  1.00  0.00    -0.014 A 
ATOM     53  C   UNL A   1      48.247  25.807  31.543  1.00  0.00     0.009 A 
ATOM     54  C   UNL A   1      48.733  26.437  29.259  1.00  0.00     0.009 A 
ATOM     55  C   UNL A   1      49.548  25.319  31.680  1.00  0.00     0.001 A 
ATOM     56  C   UNL A   1      50.024  25.925  29.390  1.00  0.00     0.001 A 
ATOM     57  C   UNL A   1      50.432  25.371  30.603  1.00  0.00     0.000 A 
ENDBRANCH  39  52
ENDBRANCH  13  14
ENDBRANCH   6   8
ENDBRANCH   3   4
ENDBRANCH   2   3
ENDBRANCH   1   2
BRANCH   1  58
ATOM     58  C   UNL A   1      31.923  27.935  24.701  1.00  0.00     0.002 C 
BRANCH  58  59
ATOM     59  C   UNL A   1      32.510  27.282  23.447  1.00  0.00     0.021 C 
BRANCH  59  60
ATOM     60  C   UNL A   1      33.806  26.505  23.662  1.00  0.00     0.116 C 
BRANCH  60  61
ATOM     61  N   UNL A   1      33.939  25.381  22.749  1.00  0.00    -0.352 N 
ATOM     62  C   UNL A   1      33.483  24.097  22.886  1.00  0.00     0.251 C 
ATOM     63  H   UNL A   1      34.425  25.570  21.914  1.00  0.00     0.163 HD
ATOM     64  O   UNL A   1      33.718  23.255  22.019  1.00  0.00    -0.269 OA
BRANCH  62  65
ATOM     65  C   UNL A   1      32.693  23.729  24.080  1.00  0.00     0.047 A 
ATOM     66  C   UNL A   1      31.291  23.835  23.990  1.00  0.00     0.017 A 
ATOM     67  C   UNL A   1      33.314  23.248  25.253  1.00  0.00    -0.003 A 
ATOM     68  C   UNL A   1      30.497  23.524  25.090  1.00  0.00     0.040 A 
ATOM     69  C   UNL A   1      32.484  22.939  26.346  1.00  0.00     0.048 A 
ATOM     70  C   UNL A   1      31.101  23.086  26.259  1.00  0.00     0.123 A 
ATOM     71  F   UNL A   1      30.341  22.795  27.323  1.00  0.00    -0.207 F 
BRANCH  67  72
ATOM     72  C   UNL A   1      34.769  23.050  25.378  1.00  0.00    -0.016 A 
ATOM     73  C   UNL A   1      35.622  24.096  25.770  1.00  0.00     0.012 A 
ATOM     74  C   UNL A   1      35.335  21.790  25.107  1.00  0.00     0.032 A 
ATOM     75  C   UNL A   1      37.001  23.891  25.881  1.00  0.00     0.041 A 
ATOM     76  C   UNL A   1      36.712  21.587  25.221  1.00  0.00     0.077 A 
ATOM     77  C   UNL A   1      37.538  22.638  25.607  1.00  0.00     0.141 A 
ATOM     78  Cl  UNL A   1      37.366  20.029  24.890  1.00  0.00    -0.081 Cl
ATOM     79  F   UNL A   1      38.861  22.463  25.726  1.00  0.00    -0.205 F 
ENDBRANCH  67  72
ENDBRANCH  62  65
ENDBRANCH  60  61
ENDBRANCH  59  60
ENDBRANCH  58  59
ENDBRANCH   1  58
TORSDOF 14
ENDMDL
