MODEL 1
REMARK VINA RESULT:     -10.8      0.000      0.000
REMARK SMILES CCCCCCCNC(=O)Oc1cccc(-c2ccc([C@@H](C)C(=O)NCCCCCCNC(=O)c3ccc(-c4c5nc(c(-c6ccccc6)c6ccc([nH]6)c(-c6ccccc6)c6nc(c(-c7ccccc7)c7ccc4[nH]7)C=C6)C=C5)cc3)cc2F)c1
REMARK SMILES IDX 21 1 22 2 20 3 17 4 18 5 84 6 19 7 83 8 85 9 16 10 12 11
REMARK SMILES IDX 13 12 86 13 14 14 15 15 11 16 9 17 8 18 10 20 7 21 6 22 5 23
REMARK SMILES IDX 4 24 3 25 2 26 1 27 23 28 24 29 25 30 26 32 27 33 28 34
REMARK SMILES IDX 29 35 30 36 31 37 32 38 33 39 34 41 35 42 36 43 82 44 37 45
REMARK SMILES IDX 81 46 38 47 39 48 40 49 75 50 41 51 80 52 74 53 76 54 42 55
REMARK SMILES IDX 79 56 73 57 72 58 43 60 65 61 50 62 64 63 51 64 54 65 63 66
REMARK SMILES IDX 77 67 52 68 53 69 62 71 78 72 55 73 44 74 45 75 49 76 46 77
REMARK SMILES IDX 48 78 47 79 66 80 67 81 71 82 68 83 70 84 69 85 56 86 57 87
REMARK SMILES IDX 61 88 58 89 60 90 59 91
REMARK H PARENT 8 19 25 31 32 40 76 59 54 70
REMARK Flexibility Score: inf
ROOT
ATOM      1  C   UNL A   1      31.782  27.231  25.232  1.00  0.00     0.105 C 
ATOM      2  C   UNL A   1      31.820  27.189  23.704  1.00  0.00     0.023 C 
ENDROOT
BRANCH   1   3
ATOM      3  C   UNL A   1      32.491  28.408  25.881  1.00  0.00    -0.033 A 
ATOM      4  C   UNL A   1      33.692  30.647  27.212  1.00  0.00     0.018 A 
ATOM      5  C   UNL A   1      34.343  29.407  27.112  1.00  0.00     0.012 A 
ATOM      6  C   UNL A   1      32.436  30.740  26.592  1.00  0.00     0.131 A 
ATOM      7  C   UNL A   1      33.772  28.324  26.432  1.00  0.00     0.005 A 
ATOM      8  C   UNL A   1      31.836  29.645  25.961  1.00  0.00     0.044 A 
ATOM      9  F   UNL A   1      31.763  31.901  26.578  1.00  0.00    -0.206 F 
BRANCH   4  10
ATOM     10  C   UNL A   1      34.310  31.770  27.954  1.00  0.00    -0.012 A 
ATOM     11  C   UNL A   1      34.174  33.591  29.565  1.00  0.00     0.133 A 
ATOM     12  C   UNL A   1      35.521  33.889  29.403  1.00  0.00     0.047 A 
ATOM     13  C   UNL A   1      33.568  32.551  28.856  1.00  0.00     0.056 A 
ATOM     14  C   UNL A   1      36.278  33.128  28.521  1.00  0.00     0.004 A 
ATOM     15  C   UNL A   1      35.676  32.091  27.800  1.00  0.00     0.009 A 
BRANCH  11  16
ATOM     16  O   UNL A   1      33.418  34.472  30.354  1.00  0.00    -0.410 OA
BRANCH  16  17
ATOM     17  C   UNL A   1      33.094  35.717  29.838  1.00  0.00     0.412 C 
ATOM     18  N   UNL A   1      32.806  36.631  30.812  1.00  0.00    -0.321 N 
ATOM     19  H   UNL A   1      32.533  37.528  30.511  1.00  0.00     0.167 HD
ATOM     20  O   UNL A   1      33.044  36.016  28.652  1.00  0.00    -0.224 OA
BRANCH  18  21
ATOM     21  C   UNL A   1      32.862  36.413  32.245  1.00  0.00     0.119 C 
BRANCH  21  22
ATOM     22  C   UNL A   1      34.236  36.751  32.822  1.00  0.00     0.021 C 
BRANCH  22  23
ATOM     23  C   UNL A   1      35.205  35.566  32.909  1.00  0.00     0.002 C 
BRANCH  23  24
ATOM     24  C   UNL A   1      35.128  34.750  34.204  1.00  0.00     0.000 C 
BRANCH  24  25
ATOM     25  C   UNL A   1      35.818  33.383  34.158  1.00  0.00    -0.000 C 
BRANCH  25  26
ATOM     26  C   UNL A   1      37.347  33.423  34.219  1.00  0.00    -0.003 C 
ATOM     27  C   UNL A   1      37.884  33.953  35.539  1.00  0.00     0.004 C 
ENDBRANCH  25  26
ENDBRANCH  24  25
ENDBRANCH  23  24
ENDBRANCH  22  23
ENDBRANCH  21  22
ENDBRANCH  18  21
ENDBRANCH  16  17
ENDBRANCH  11  16
ENDBRANCH   4  10
ENDBRANCH   1   3
BRANCH   1  28
ATOM     28  C   UNL A   1      32.085  25.883  25.902  1.00  0.00     0.227 C 
ATOM     29  O   UNL A   1      31.419  25.518  26.879  1.00  0.00    -0.274 OA
ATOM     30  N   UNL A   1      33.054  25.027  25.477  1.00  0.00    -0.356 N 
ATOM     31  H   UNL A   1      33.071  24.167  25.958  1.00  0.00     0.163 HD
BRANCH  30  32
ATOM     32  C   UNL A   1      34.065  25.150  24.449  1.00  0.00     0.116 C 
BRANCH  32  33
ATOM     33  C   UNL A   1      35.123  24.051  24.557  1.00  0.00     0.021 C 
BRANCH  33  34
ATOM     34  C   UNL A   1      34.571  22.636  24.348  1.00  0.00     0.002 C 
BRANCH  34  35
ATOM     35  C   UNL A   1      34.918  21.630  25.453  1.00  0.00     0.002 C 
BRANCH  35  36
ATOM     36  C   UNL A   1      35.894  20.518  25.053  1.00  0.00     0.021 C 
BRANCH  36  37
ATOM     37  C   UNL A   1      37.335  20.978  24.834  1.00  0.00     0.116 C 
BRANCH  37  38
ATOM     38  N   UNL A   1      38.295  20.010  25.338  1.00  0.00    -0.352 N 
ATOM     39  C   UNL A   1      39.546  20.204  25.869  1.00  0.00     0.251 C 
ATOM     40  H   UNL A   1      38.004  19.071  25.291  1.00  0.00     0.163 HD
ATOM     41  O   UNL A   1      40.304  19.251  26.024  1.00  0.00    -0.269 OA
BRANCH  39  42
ATOM     42  C   UNL A   1      39.993  21.562  26.247  1.00  0.00     0.039 A 
ATOM     43  C   UNL A   1      41.171  21.706  26.984  1.00  0.00     0.014 A 
ATOM     44  C   UNL A   1      39.235  22.686  25.906  1.00  0.00     0.014 A 
ATOM     45  C   UNL A   1      41.626  22.982  27.322  1.00  0.00     0.010 A 
ATOM     46  C   UNL A   1      39.720  23.961  26.192  1.00  0.00     0.010 A 
ATOM     47  C   UNL A   1      40.922  24.121  26.899  1.00  0.00    -0.014 A 
BRANCH  47  48
ATOM     48  C   UNL A   1      41.437  25.487  27.163  1.00  0.00     0.031 A 
ATOM     49  C   UNL A   1      42.747  25.935  26.578  1.00  0.00     0.074 A 
ATOM     50  C   UNL A   1      40.757  26.302  27.994  1.00  0.00     0.049 A 
ATOM     51  N   UNL A   1      43.392  27.058  26.763  1.00  0.00    -0.248 NA
ATOM     52  C   UNL A   1      43.431  24.987  25.683  1.00  0.00     0.031 C 
ATOM     53  C   UNL A   1      39.490  25.975  28.653  1.00  0.00     0.029 A 
ATOM     54  N   UNL A   1      41.045  27.568  28.437  1.00  0.00    -0.354 N 
ATOM     55  C   UNL A   1      44.563  26.948  26.024  1.00  0.00     0.074 A 
ATOM     56  C   UNL A   1      44.559  25.633  25.420  1.00  0.00     0.031 C 
ATOM     57  C   UNL A   1      39.102  27.020  29.400  1.00  0.00     0.029 A 
ATOM     58  C   UNL A   1      40.109  28.072  29.307  1.00  0.00     0.049 A 
ATOM     59  H   UNL A   1      41.846  28.067  28.158  1.00  0.00     0.167 HD
ATOM     60  C   UNL A   1      45.547  27.863  25.853  1.00  0.00     0.031 A 
ATOM     61  C   UNL A   1      40.072  29.244  29.968  1.00  0.00     0.031 A 
ATOM     62  C   UNL A   1      45.550  29.173  26.449  1.00  0.00     0.049 A 
ATOM     63  C   UNL A   1      41.188  30.231  29.781  1.00  0.00     0.074 A 
ATOM     64  C   UNL A   1      46.474  30.191  26.288  1.00  0.00     0.029 A 
ATOM     65  N   UNL A   1      44.584  29.643  27.324  1.00  0.00    -0.354 N 
ATOM     66  N   UNL A   1      42.258  30.135  29.030  1.00  0.00    -0.248 NA
ATOM     67  C   UNL A   1      41.088  31.492  30.530  1.00  0.00     0.031 C 
ATOM     68  C   UNL A   1      46.093  31.260  27.106  1.00  0.00     0.029 A 
ATOM     69  C   UNL A   1      44.905  30.927  27.735  1.00  0.00     0.049 A 
ATOM     70  H   UNL A   1      43.789  29.141  27.612  1.00  0.00     0.167 HD
ATOM     71  C   UNL A   1      42.947  31.328  29.200  1.00  0.00     0.074 A 
ATOM     72  C   UNL A   1      42.165  32.139  30.110  1.00  0.00     0.031 C 
ATOM     73  C   UNL A   1      44.123  31.717  28.650  1.00  0.00     0.031 A 
BRANCH  60  74
ATOM     74  C   UNL A   1      46.714  27.470  24.990  1.00  0.00    -0.014 A 
ATOM     75  C   UNL A   1      47.658  26.528  25.427  1.00  0.00     0.009 A 
ATOM     76  C   UNL A   1      46.849  28.022  23.706  1.00  0.00     0.009 A 
ATOM     77  C   UNL A   1      48.734  26.174  24.610  1.00  0.00     0.001 A 
ATOM     78  C   UNL A   1      47.910  27.644  22.880  1.00  0.00     0.001 A 
ATOM     79  C   UNL A   1      48.856  26.729  23.337  1.00  0.00     0.000 A 
ENDBRANCH  60  74
BRANCH  61  80
ATOM     80  C   UNL A   1      38.931  29.552  30.870  1.00  0.00    -0.014 A 
ATOM     81  C   UNL A   1      38.962  29.156  32.215  1.00  0.00     0.009 A 
ATOM     82  C   UNL A   1      37.807  30.243  30.390  1.00  0.00     0.009 A 
ATOM     83  C   UNL A   1      37.880  29.424  33.056  1.00  0.00     0.001 A 
ATOM     84  C   UNL A   1      36.739  30.533  31.241  1.00  0.00     0.001 A 
ATOM     85  C   UNL A   1      36.772  30.115  32.570  1.00  0.00     0.000 A 
ENDBRANCH  61  80
BRANCH  73  86
ATOM     86  C   UNL A   1      44.623  33.089  29.004  1.00  0.00    -0.014 A 
ATOM     87  C   UNL A   1      44.474  34.166  28.118  1.00  0.00     0.009 A 
ATOM     88  C   UNL A   1      45.220  33.311  30.255  1.00  0.00     0.009 A 
ATOM     89  C   UNL A   1      44.942  35.435  28.466  1.00  0.00     0.001 A 
ATOM     90  C   UNL A   1      45.662  34.586  30.610  1.00  0.00     0.001 A 
ATOM     91  C   UNL A   1      45.532  35.644  29.712  1.00  0.00     0.000 A 
ENDBRANCH  73  86
ENDBRANCH  47  48
ENDBRANCH  39  42
ENDBRANCH  37  38
ENDBRANCH  36  37
ENDBRANCH  35  36
ENDBRANCH  34  35
ENDBRANCH  33  34
ENDBRANCH  32  33
ENDBRANCH  30  32
ENDBRANCH   1  28
TORSDOF 23
ENDMDL
MODEL 2
REMARK VINA RESULT:     -10.6      3.491      9.259
REMARK SMILES CCCCCCCNC(=O)Oc1cccc(-c2ccc([C@@H](C)C(=O)NCCCCCCNC(=O)c3ccc(-c4c5nc(c(-c6ccccc6)c6ccc([nH]6)c(-c6ccccc6)c6nc(c(-c7ccccc7)c7ccc4[nH]7)C=C6)C=C5)cc3)cc2F)c1
REMARK SMILES IDX 21 1 22 2 20 3 17 4 18 5 84 6 19 7 83 8 85 9 16 10 12 11
REMARK SMILES IDX 13 12 86 13 14 14 15 15 11 16 9 17 8 18 10 20 7 21 6 22 5 23
REMARK SMILES IDX 4 24 3 25 2 26 1 27 23 28 24 29 25 30 26 32 27 33 28 34
REMARK SMILES IDX 29 35 30 36 31 37 32 38 33 39 34 41 35 42 36 43 82 44 37 45
REMARK SMILES IDX 81 46 38 47 39 48 40 49 75 50 41 51 80 52 74 53 76 54 42 55
REMARK SMILES IDX 79 56 73 57 72 58 43 60 65 61 50 62 64 63 51 64 54 65 63 66
REMARK SMILES IDX 77 67 52 68 53 69 62 71 78 72 55 73 44 74 45 75 49 76 46 77
REMARK SMILES IDX 48 78 47 79 66 80 67 81 71 82 68 83 70 84 69 85 56 86 57 87
REMARK SMILES IDX 61 88 58 89 60 90 59 91
REMARK H PARENT 8 19 25 31 32 40 76 59 54 70
REMARK Flexibility Score: inf
ROOT
ATOM      1  C   UNL A   1      37.849  32.174  29.223  1.00  0.00     0.105 C 
ATOM      2  C   UNL A   1      37.729  33.696  29.149  1.00  0.00     0.023 C 
ENDROOT
BRANCH   1   3
ATOM      3  C   UNL A   1      36.688  31.387  28.635  1.00  0.00    -0.033 A 
ATOM      4  C   UNL A   1      34.498  30.017  27.392  1.00  0.00     0.018 A 
ATOM      5  C   UNL A   1      35.691  29.357  27.727  1.00  0.00     0.012 A 
ATOM      6  C   UNL A   1      34.423  31.376  27.735  1.00  0.00     0.131 A 
ATOM      7  C   UNL A   1      36.748  30.018  28.365  1.00  0.00     0.005 A 
ATOM      8  C   UNL A   1      35.497  32.055  28.320  1.00  0.00     0.044 A 
ATOM      9  F   UNL A   1      33.300  32.078  27.513  1.00  0.00    -0.206 F 
BRANCH   4  10
ATOM     10  C   UNL A   1      33.403  29.298  26.700  1.00  0.00    -0.012 A 
ATOM     11  C   UNL A   1      32.209  28.681  24.669  1.00  0.00     0.133 A 
ATOM     12  C   UNL A   1      31.329  27.877  25.383  1.00  0.00     0.047 A 
ATOM     13  C   UNL A   1      33.232  29.385  25.308  1.00  0.00     0.056 A 
ATOM     14  C   UNL A   1      31.480  27.770  26.759  1.00  0.00     0.004 A 
ATOM     15  C   UNL A   1      32.496  28.480  27.408  1.00  0.00     0.009 A 
BRANCH  11  16
ATOM     16  O   UNL A   1      31.933  28.873  23.307  1.00  0.00    -0.410 OA
BRANCH  16  17
ATOM     17  C   UNL A   1      30.737  28.393  22.795  1.00  0.00     0.412 C 
ATOM     18  N   UNL A   1      30.907  27.282  22.018  1.00  0.00    -0.321 N 
ATOM     19  H   UNL A   1      30.099  26.910  21.595  1.00  0.00     0.167 HD
ATOM     20  O   UNL A   1      29.628  28.877  22.978  1.00  0.00    -0.224 OA
BRANCH  18  21
ATOM     21  C   UNL A   1      32.156  26.595  21.754  1.00  0.00     0.119 C 
BRANCH  21  22
ATOM     22  C   UNL A   1      32.295  25.319  22.585  1.00  0.00     0.021 C 
BRANCH  22  23
ATOM     23  C   UNL A   1      33.705  25.060  23.131  1.00  0.00     0.002 C 
BRANCH  23  24
ATOM     24  C   UNL A   1      34.061  25.823  24.412  1.00  0.00     0.000 C 
BRANCH  24  25
ATOM     25  C   UNL A   1      34.292  24.950  25.649  1.00  0.00    -0.000 C 
BRANCH  25  26
ATOM     26  C   UNL A   1      33.021  24.471  26.355  1.00  0.00    -0.003 C 
ATOM     27  C   UNL A   1      33.121  23.046  26.877  1.00  0.00     0.004 C 
ENDBRANCH  25  26
ENDBRANCH  24  25
ENDBRANCH  23  24
ENDBRANCH  22  23
ENDBRANCH  21  22
ENDBRANCH  18  21
ENDBRANCH  16  17
ENDBRANCH  11  16
ENDBRANCH   4  10
ENDBRANCH   1   3
BRANCH   1  28
ATOM     28  C   UNL A   1      38.320  31.649  30.588  1.00  0.00     0.227 C 
ATOM     29  O   UNL A   1      37.688  31.938  31.611  1.00  0.00    -0.274 OA
ATOM     30  N   UNL A   1      39.411  30.851  30.756  1.00  0.00    -0.356 N 
ATOM     31  H   UNL A   1      39.536  30.530  31.679  1.00  0.00     0.163 HD
BRANCH  30  32
ATOM     32  C   UNL A   1      40.420  30.390  29.827  1.00  0.00     0.116 C 
BRANCH  32  33
ATOM     33  C   UNL A   1      39.984  29.116  29.101  1.00  0.00     0.021 C 
BRANCH  33  34
ATOM     34  C   UNL A   1      41.145  28.319  28.495  1.00  0.00     0.002 C 
BRANCH  34  35
ATOM     35  C   UNL A   1      40.910  27.805  27.069  1.00  0.00     0.002 C 
BRANCH  35  36
ATOM     36  C   UNL A   1      40.050  26.542  26.953  1.00  0.00     0.021 C 
BRANCH  36  37
ATOM     37  C   UNL A   1      40.217  25.545  28.099  1.00  0.00     0.116 C 
BRANCH  37  38
ATOM     38  N   UNL A   1      40.684  24.251  27.628  1.00  0.00    -0.352 N 
ATOM     39  C   UNL A   1      41.850  23.914  26.987  1.00  0.00     0.251 C 
ATOM     40  H   UNL A   1      40.068  23.501  27.794  1.00  0.00     0.163 HD
ATOM     41  O   UNL A   1      41.966  22.813  26.458  1.00  0.00    -0.269 OA
BRANCH  39  42
ATOM     42  C   UNL A   1      42.968  24.879  26.919  1.00  0.00     0.039 A 
ATOM     43  C   UNL A   1      43.337  25.401  25.676  1.00  0.00     0.014 A 
ATOM     44  C   UNL A   1      43.672  25.242  28.071  1.00  0.00     0.014 A 
ATOM     45  C   UNL A   1      44.369  26.338  25.596  1.00  0.00     0.010 A 
ATOM     46  C   UNL A   1      44.662  26.220  27.998  1.00  0.00     0.010 A 
ATOM     47  C   UNL A   1      45.017  26.781  26.761  1.00  0.00    -0.014 A 
BRANCH  47  48
ATOM     48  C   UNL A   1      46.049  27.845  26.711  1.00  0.00     0.031 A 
ATOM     49  C   UNL A   1      45.653  29.294  26.768  1.00  0.00     0.074 A 
ATOM     50  C   UNL A   1      47.342  27.506  26.539  1.00  0.00     0.049 A 
ATOM     51  N   UNL A   1      46.405  30.360  26.657  1.00  0.00    -0.248 NA
ATOM     52  C   UNL A   1      44.222  29.583  26.953  1.00  0.00     0.031 C 
ATOM     53  C   UNL A   1      47.853  26.137  26.436  1.00  0.00     0.029 A 
ATOM     54  N   UNL A   1      48.460  28.290  26.406  1.00  0.00    -0.354 N 
ATOM     55  C   UNL A   1      45.540  31.443  26.742  1.00  0.00     0.074 A 
ATOM     56  C   UNL A   1      44.203  30.907  26.873  1.00  0.00     0.031 C 
ATOM     57  C   UNL A   1      49.185  26.178  26.275  1.00  0.00     0.029 A 
ATOM     58  C   UNL A   1      49.616  27.570  26.222  1.00  0.00     0.049 A 
ATOM     59  H   UNL A   1      48.437  29.273  26.440  1.00  0.00     0.167 HD
ATOM     60  C   UNL A   1      45.834  32.766  26.726  1.00  0.00     0.031 A 
ATOM     61  C   UNL A   1      50.880  27.985  26.019  1.00  0.00     0.031 A 
ATOM     62  C   UNL A   1      47.164  33.300  26.601  1.00  0.00     0.049 A 
ATOM     63  C   UNL A   1      51.176  29.457  25.979  1.00  0.00     0.074 A 
ATOM     64  C   UNL A   1      47.568  34.625  26.632  1.00  0.00     0.029 A 
ATOM     65  N   UNL A   1      48.306  32.538  26.415  1.00  0.00    -0.354 N 
ATOM     66  N   UNL A   1      50.354  30.468  26.123  1.00  0.00    -0.248 NA
ATOM     67  C   UNL A   1      52.576  29.845  25.754  1.00  0.00     0.031 C 
ATOM     68  C   UNL A   1      48.949  34.665  26.415  1.00  0.00     0.029 A 
ATOM     69  C   UNL A   1      49.412  33.365  26.301  1.00  0.00     0.049 A 
ATOM     70  H   UNL A   1      48.329  31.555  26.371  1.00  0.00     0.167 HD
ATOM     71  C   UNL A   1      51.139  31.609  26.027  1.00  0.00     0.074 A 
ATOM     72  C   UNL A   1      52.504  31.166  25.831  1.00  0.00     0.031 C 
ATOM     73  C   UNL A   1      50.762  32.910  26.095  1.00  0.00     0.031 A 
BRANCH  60  74
ATOM     74  C   UNL A   1      44.686  33.730  26.837  1.00  0.00    -0.014 A 
ATOM     75  C   UNL A   1      44.050  34.239  25.693  1.00  0.00     0.009 A 
ATOM     76  C   UNL A   1      44.209  34.105  28.102  1.00  0.00     0.009 A 
ATOM     77  C   UNL A   1      42.983  35.132  25.815  1.00  0.00     0.001 A 
ATOM     78  C   UNL A   1      43.124  34.976  28.221  1.00  0.00     0.001 A 
ATOM     79  C   UNL A   1      42.519  35.496  27.079  1.00  0.00     0.000 A 
ENDBRANCH  60  74
BRANCH  61  80
ATOM     80  C   UNL A   1      51.969  26.989  25.839  1.00  0.00    -0.014 A 
ATOM     81  C   UNL A   1      52.703  26.533  26.944  1.00  0.00     0.009 A 
ATOM     82  C   UNL A   1      52.280  26.492  24.564  1.00  0.00     0.009 A 
ATOM     83  C   UNL A   1      53.743  25.616  26.773  1.00  0.00     0.001 A 
ATOM     84  C   UNL A   1      53.302  25.555  24.400  1.00  0.00     0.001 A 
ATOM     85  C   UNL A   1      54.038  25.125  25.503  1.00  0.00     0.000 A 
ENDBRANCH  61  80
BRANCH  73  86
ATOM     86  C   UNL A   1      51.846  33.942  25.976  1.00  0.00    -0.014 A 
ATOM     87  C   UNL A   1      52.550  34.387  27.105  1.00  0.00     0.009 A 
ATOM     88  C   UNL A   1      52.189  34.451  24.714  1.00  0.00     0.009 A 
ATOM     89  C   UNL A   1      53.557  35.347  26.975  1.00  0.00     0.001 A 
ATOM     90  C   UNL A   1      53.213  35.389  24.584  1.00  0.00     0.001 A 
ATOM     91  C   UNL A   1      53.890  35.843  25.715  1.00  0.00     0.000 A 
ENDBRANCH  73  86
ENDBRANCH  47  48
ENDBRANCH  39  42
ENDBRANCH  37  38
ENDBRANCH  36  37
ENDBRANCH  35  36
ENDBRANCH  34  35
ENDBRANCH  33  34
ENDBRANCH  32  33
ENDBRANCH  30  32
ENDBRANCH   1  28
TORSDOF 23
ENDMDL
MODEL 3
REMARK VINA RESULT:     -10.5      0.693      5.608
REMARK SMILES CCCCCCCNC(=O)Oc1cccc(-c2ccc([C@@H](C)C(=O)NCCCCCCNC(=O)c3ccc(-c4c5nc(c(-c6ccccc6)c6ccc([nH]6)c(-c6ccccc6)c6nc(c(-c7ccccc7)c7ccc4[nH]7)C=C6)C=C5)cc3)cc2F)c1
REMARK SMILES IDX 21 1 22 2 20 3 17 4 18 5 84 6 19 7 83 8 85 9 16 10 12 11
REMARK SMILES IDX 13 12 86 13 14 14 15 15 11 16 9 17 8 18 10 20 7 21 6 22 5 23
REMARK SMILES IDX 4 24 3 25 2 26 1 27 23 28 24 29 25 30 26 32 27 33 28 34
REMARK SMILES IDX 29 35 30 36 31 37 32 38 33 39 34 41 35 42 36 43 82 44 37 45
REMARK SMILES IDX 81 46 38 47 39 48 40 49 75 50 41 51 80 52 74 53 76 54 42 55
REMARK SMILES IDX 79 56 73 57 72 58 43 60 65 61 50 62 64 63 51 64 54 65 63 66
REMARK SMILES IDX 77 67 52 68 53 69 62 71 78 72 55 73 44 74 45 75 49 76 46 77
REMARK SMILES IDX 48 78 47 79 66 80 67 81 71 82 68 83 70 84 69 85 56 86 57 87
REMARK SMILES IDX 61 88 58 89 60 90 59 91
REMARK H PARENT 8 19 25 31 32 40 76 59 54 70
REMARK Flexibility Score: inf
ROOT
ATOM      1  C   UNL A   1      31.091  27.324  25.213  1.00  0.00     0.105 C 
ATOM      2  C   UNL A   1      30.998  27.336  23.688  1.00  0.00     0.023 C 
ENDROOT
BRANCH   1   3
ATOM      3  C   UNL A   1      31.968  28.399  25.833  1.00  0.00    -0.033 A 
ATOM      4  C   UNL A   1      33.491  30.467  27.110  1.00  0.00     0.018 A 
ATOM      5  C   UNL A   1      33.955  29.143  27.034  1.00  0.00     0.012 A 
ATOM      6  C   UNL A   1      32.258  30.728  26.492  1.00  0.00     0.131 A 
ATOM      7  C   UNL A   1      33.227  28.140  26.381  1.00  0.00     0.005 A 
ATOM      8  C   UNL A   1      31.501  29.719  25.888  1.00  0.00     0.044 A 
ATOM      9  F   UNL A   1      31.761  31.975  26.455  1.00  0.00    -0.206 F 
BRANCH   4  10
ATOM     10  C   UNL A   1      34.272  31.503  27.823  1.00  0.00    -0.012 A 
ATOM     11  C   UNL A   1      34.420  33.337  29.419  1.00  0.00     0.133 A 
ATOM     12  C   UNL A   1      35.790  33.454  29.219  1.00  0.00     0.047 A 
ATOM     13  C   UNL A   1      33.664  32.382  28.737  1.00  0.00     0.056 A 
ATOM     14  C   UNL A   1      36.416  32.594  28.325  1.00  0.00     0.004 A 
ATOM     15  C   UNL A   1      35.663  31.641  27.631  1.00  0.00     0.009 A 
BRANCH  11  16
ATOM     16  O   UNL A   1      33.808  34.315  30.218  1.00  0.00    -0.410 OA
BRANCH  16  17
ATOM     17  C   UNL A   1      33.260  35.430  29.604  1.00  0.00     0.412 C 
ATOM     18  N   UNL A   1      32.482  36.168  30.451  1.00  0.00    -0.321 N 
ATOM     19  H   UNL A   1      32.034  36.957  30.067  1.00  0.00     0.167 HD
ATOM     20  O   UNL A   1      33.413  35.759  28.434  1.00  0.00    -0.224 OA
BRANCH  18  21
ATOM     21  C   UNL A   1      32.250  35.907  31.858  1.00  0.00     0.119 C 
BRANCH  21  22
ATOM     22  C   UNL A   1      32.850  36.994  32.749  1.00  0.00     0.021 C 
BRANCH  22  23
ATOM     23  C   UNL A   1      34.354  36.847  33.015  1.00  0.00     0.002 C 
BRANCH  23  24
ATOM     24  C   UNL A   1      34.769  35.553  33.725  1.00  0.00     0.000 C 
BRANCH  24  25
ATOM     25  C   UNL A   1      36.048  34.898  33.192  1.00  0.00    -0.000 C 
BRANCH  25  26
ATOM     26  C   UNL A   1      35.914  33.421  32.815  1.00  0.00    -0.003 C 
ATOM     27  C   UNL A   1      34.569  32.821  33.194  1.00  0.00     0.004 C 
ENDBRANCH  25  26
ENDBRANCH  24  25
ENDBRANCH  23  24
ENDBRANCH  22  23
ENDBRANCH  21  22
ENDBRANCH  18  21
ENDBRANCH  16  17
ENDBRANCH  11  16
ENDBRANCH   4  10
ENDBRANCH   1   3
BRANCH   1  28
ATOM     28  C   UNL A   1      31.307  25.928  25.816  1.00  0.00     0.227 C 
ATOM     29  O   UNL A   1      30.572  25.530  26.728  1.00  0.00    -0.274 OA
ATOM     30  N   UNL A   1      32.272  25.063  25.396  1.00  0.00    -0.356 N 
ATOM     31  H   UNL A   1      32.231  24.176  25.823  1.00  0.00     0.163 HD
BRANCH  30  32
ATOM     32  C   UNL A   1      33.346  25.210  24.438  1.00  0.00     0.116 C 
BRANCH  32  33
ATOM     33  C   UNL A   1      34.663  24.643  24.970  1.00  0.00     0.021 C 
BRANCH  33  34
ATOM     34  C   UNL A   1      34.491  23.411  25.865  1.00  0.00     0.002 C 
BRANCH  34  35
ATOM     35  C   UNL A   1      35.785  22.658  26.196  1.00  0.00     0.002 C 
BRANCH  35  36
ATOM     36  C   UNL A   1      35.972  21.315  25.482  1.00  0.00     0.021 C 
BRANCH  36  37
ATOM     37  C   UNL A   1      37.293  21.168  24.729  1.00  0.00     0.116 C 
BRANCH  37  38
ATOM     38  N   UNL A   1      38.120  20.110  25.287  1.00  0.00    -0.352 N 
ATOM     39  C   UNL A   1      39.401  20.159  25.780  1.00  0.00     0.251 C 
ATOM     40  H   UNL A   1      37.697  19.221  25.316  1.00  0.00     0.163 HD
ATOM     41  O   UNL A   1      40.019  19.121  25.992  1.00  0.00    -0.269 OA
BRANCH  39  42
ATOM     42  C   UNL A   1      40.046  21.462  26.046  1.00  0.00     0.039 A 
ATOM     43  C   UNL A   1      39.318  22.635  25.831  1.00  0.00     0.014 A 
ATOM     44  C   UNL A   1      41.376  21.530  26.473  1.00  0.00     0.014 A 
ATOM     45  C   UNL A   1      39.900  23.874  26.108  1.00  0.00     0.010 A 
ATOM     46  C   UNL A   1      41.935  22.762  26.805  1.00  0.00     0.010 A 
ATOM     47  C   UNL A   1      41.201  23.945  26.629  1.00  0.00    -0.014 A 
BRANCH  47  48
ATOM     48  C   UNL A   1      41.804  25.243  27.022  1.00  0.00     0.031 A 
ATOM     49  C   UNL A   1      41.069  26.179  27.940  1.00  0.00     0.074 A 
ATOM     50  C   UNL A   1      42.985  25.612  26.488  1.00  0.00     0.049 A 
ATOM     51  N   UNL A   1      41.401  27.384  28.327  1.00  0.00    -0.248 NA
ATOM     52  C   UNL A   1      39.784  25.705  28.478  1.00  0.00     0.031 C 
ATOM     53  C   UNL A   1      43.784  24.810  25.558  1.00  0.00     0.029 A 
ATOM     54  N   UNL A   1      43.713  26.765  26.642  1.00  0.00    -0.354 N 
ATOM     55  C   UNL A   1      40.361  27.820  29.138  1.00  0.00     0.074 A 
ATOM     56  C   UNL A   1      39.369  26.767  29.156  1.00  0.00     0.031 C 
ATOM     57  C   UNL A   1      44.898  25.486  25.241  1.00  0.00     0.029 A 
ATOM     58  C   UNL A   1      44.875  26.783  25.908  1.00  0.00     0.049 A 
ATOM     59  H   UNL A   1      43.431  27.507  27.223  1.00  0.00     0.167 HD
ATOM     60  C   UNL A   1      40.248  28.987  29.818  1.00  0.00     0.031 A 
ATOM     61  C   UNL A   1      45.809  27.742  25.775  1.00  0.00     0.031 A 
ATOM     62  C   UNL A   1      41.236  30.032  29.805  1.00  0.00     0.049 A 
ATOM     63  C   UNL A   1      45.648  29.037  26.519  1.00  0.00     0.074 A 
ATOM     64  C   UNL A   1      41.237  31.226  30.508  1.00  0.00     0.029 A 
ATOM     65  N   UNL A   1      42.396  30.012  29.048  1.00  0.00    -0.354 N 
ATOM     66  N   UNL A   1      44.687  29.408  27.331  1.00  0.00    -0.248 NA
ATOM     67  C   UNL A   1      46.703  30.044  26.332  1.00  0.00     0.031 C 
ATOM     68  C   UNL A   1      42.374  31.950  30.136  1.00  0.00     0.029 A 
ATOM     69  C   UNL A   1      43.107  31.185  29.243  1.00  0.00     0.049 A 
ATOM     70  H   UNL A   1      42.674  29.275  28.459  1.00  0.00     0.167 HD
ATOM     71  C   UNL A   1      45.032  30.681  27.767  1.00  0.00     0.074 A 
ATOM     72  C   UNL A   1      46.298  31.010  27.145  1.00  0.00     0.031 C 
ATOM     73  C   UNL A   1      44.360  31.503  28.609  1.00  0.00     0.031 A 
BRANCH  60  74
ATOM     74  C   UNL A   1      38.999  29.196  30.628  1.00  0.00    -0.014 A 
ATOM     75  C   UNL A   1      37.838  29.735  30.050  1.00  0.00     0.009 A 
ATOM     76  C   UNL A   1      38.970  28.813  31.978  1.00  0.00     0.009 A 
ATOM     77  C   UNL A   1      36.686  29.920  30.818  1.00  0.00     0.001 A 
ATOM     78  C   UNL A   1      37.808  28.973  32.735  1.00  0.00     0.001 A 
ATOM     79  C   UNL A   1      36.671  29.535  32.157  1.00  0.00     0.000 A 
ENDBRANCH  60  74
BRANCH  61  80
ATOM     80  C   UNL A   1      46.989  27.514  24.901  1.00  0.00    -0.014 A 
ATOM     81  C   UNL A   1      48.126  26.860  25.399  1.00  0.00     0.009 A 
ATOM     82  C   UNL A   1      46.985  27.949  23.566  1.00  0.00     0.009 A 
ATOM     83  C   UNL A   1      49.245  26.667  24.585  1.00  0.00     0.001 A 
ATOM     84  C   UNL A   1      48.095  27.731  22.748  1.00  0.00     0.001 A 
ATOM     85  C   UNL A   1      49.227  27.099  23.260  1.00  0.00     0.000 A 
ENDBRANCH  61  80
BRANCH  73  86
ATOM     86  C   UNL A   1      44.993  32.829  28.919  1.00  0.00    -0.014 A 
ATOM     87  C   UNL A   1      45.963  32.953  29.925  1.00  0.00     0.009 A 
ATOM     88  C   UNL A   1      44.638  33.963  28.171  1.00  0.00     0.009 A 
ATOM     89  C   UNL A   1      46.542  34.193  30.198  1.00  0.00     0.001 A 
ATOM     90  C   UNL A   1      45.238  35.196  28.428  1.00  0.00     0.001 A 
ATOM     91  C   UNL A   1      46.182  35.312  29.446  1.00  0.00     0.000 A 
ENDBRANCH  73  86
ENDBRANCH  47  48
ENDBRANCH  39  42
ENDBRANCH  37  38
ENDBRANCH  36  37
ENDBRANCH  35  36
ENDBRANCH  34  35
ENDBRANCH  33  34
ENDBRANCH  32  33
ENDBRANCH  30  32
ENDBRANCH   1  28
TORSDOF 23
ENDMDL
