MODEL 1
REMARK VINA RESULT:     -11.6      0.000      0.000
REMARK SMILES CN1C(=O)C(=Cc2ccc(OCc3cccc(C(=O)NCCCCCCNC(=O)c4ccc(-c5c6nc(c(-c7ccccc7)c7ccc([nH]7)c(-c7ccccc7)c7nc(c(-c8ccccc8)c8ccc5[nH]8)C=C7)C=C6)cc4)c3)c(Cl)c2)C(=O)N(C)C1=S
REMARK SMILES IDX 22 1 21 2 20 3 18 4 19 5 17 7 13 8 14 9 78 10 15 11 16 12
REMARK SMILES IDX 12 13 11 14 10 15 7 16 8 17 81 18 9 19 79 20 80 21 6 22 1 23
REMARK SMILES IDX 2 24 3 25 86 26 4 27 5 28 84 29 87 30 82 31 85 32 83 33
REMARK SMILES IDX 23 34 24 35 25 36 26 37 27 38 28 39 29 41 30 42 31 43 77 44
REMARK SMILES IDX 32 45 76 46 33 47 34 48 35 49 70 50 36 51 75 52 69 53 71 54
REMARK SMILES IDX 37 55 74 56 68 57 67 58 38 60 60 61 45 62 59 63 46 64 49 65
REMARK SMILES IDX 58 66 72 67 47 68 48 69 57 71 73 72 50 73 39 74 40 75 44 76
REMARK SMILES IDX 41 77 43 78 42 79 61 80 62 81 66 82 63 83 65 84 64 85 51 86
REMARK SMILES IDX 52 87 56 88 53 89 55 90 54 91
REMARK H PARENT 20 6 27 40 71 59 49 70
REMARK Flexibility Score: inf
ROOT
ATOM      1  C   UNL A   1      29.983  32.926  23.866  1.00  0.00     0.021 C 
ENDROOT
BRANCH   1   2
ATOM      2  C   UNL A   1      28.680  33.498  23.305  1.00  0.00     0.116 C 
BRANCH   2   3
ATOM      3  N   UNL A   1      28.381  32.978  21.982  1.00  0.00    -0.352 N 
ATOM      4  C   UNL A   1      28.305  31.738  21.402  1.00  0.00     0.251 C 
ATOM      5  O   UNL A   1      27.914  31.748  20.227  1.00  0.00    -0.269 OA
ATOM      6  H   UNL A   1      28.183  33.697  21.340  1.00  0.00     0.163 HD
BRANCH   4   7
ATOM      7  C   UNL A   1      28.640  30.407  22.017  1.00  0.00     0.040 A 
ATOM      8  C   UNL A   1      30.003  28.423  22.515  1.00  0.00    -0.010 A 
ATOM      9  C   UNL A   1      28.901  27.833  23.159  1.00  0.00     0.007 A 
ATOM     10  C   UNL A   1      29.867  29.726  21.968  1.00  0.00     0.021 A 
ATOM     11  C   UNL A   1      27.686  28.494  23.230  1.00  0.00     0.001 A 
ATOM     12  C   UNL A   1      27.560  29.761  22.662  1.00  0.00     0.014 A 
BRANCH   8  13
ATOM     13  C   UNL A   1      31.281  27.590  22.486  1.00  0.00     0.265 C 
BRANCH  13  14
ATOM     14  O   UNL A   1      31.699  26.859  23.640  1.00  0.00    -0.487 OA
BRANCH  14  15
ATOM     15  C   UNL A   1      31.608  25.500  23.660  1.00  0.00     0.138 A 
ATOM     16  C   UNL A   1      31.650  22.784  24.336  1.00  0.00    -0.023 A 
ATOM     17  C   UNL A   1      30.951  23.704  25.132  1.00  0.00     0.012 A 
ATOM     18  C   UNL A   1      32.192  23.207  23.125  1.00  0.00     0.032 A 
ATOM     19  C   UNL A   1      30.939  25.052  24.800  1.00  0.00     0.048 A 
ATOM     20  C   UNL A   1      32.137  24.561  22.764  1.00  0.00     0.083 A 
ATOM     21  Cl  UNL A   1      32.718  24.960  21.189  1.00  0.00    -0.080 Cl
BRANCH  16  22
ATOM     22  C   UNL A   1      31.909  21.437  24.868  1.00  0.00     0.027 C 
ATOM     23  C   UNL A   1      36.282  22.422  24.110  1.00  0.00     0.156 C 
ATOM     24  N   UNL A   1      35.429  21.405  24.707  1.00  0.00    -0.288 N 
ATOM     25  C   UNL A   1      34.262  21.901  25.242  1.00  0.00     0.265 C 
ATOM     26  C   UNL A   1      35.776  20.055  24.812  1.00  0.00     0.185 C 
ATOM     27  O   UNL A   1      34.157  23.012  25.732  1.00  0.00    -0.268 OA
ATOM     28  C   UNL A   1      33.136  20.968  25.152  1.00  0.00     0.106 C 
ATOM     29  N   UNL A   1      34.690  19.160  24.780  1.00  0.00    -0.288 N 
ATOM     30  S   UNL A   1      37.380  19.546  24.987  1.00  0.00    -0.040 S 
ATOM     31  C   UNL A   1      33.366  19.516  25.046  1.00  0.00     0.265 C 
ATOM     32  C   UNL A   1      34.875  17.764  24.370  1.00  0.00     0.156 C 
ATOM     33  O   UNL A   1      32.441  18.712  25.103  1.00  0.00    -0.268 OA
ENDBRANCH  16  22
ENDBRANCH  14  15
ENDBRANCH  13  14
ENDBRANCH   8  13
ENDBRANCH   4   7
ENDBRANCH   2   3
ENDBRANCH   1   2
BRANCH   1  34
ATOM     34  C   UNL A   1      29.894  31.891  25.003  1.00  0.00     0.002 C 
BRANCH  34  35
ATOM     35  C   UNL A   1      31.015  30.836  25.114  1.00  0.00     0.002 C 
BRANCH  35  36
ATOM     36  C   UNL A   1      31.583  30.515  26.514  1.00  0.00     0.021 C 
BRANCH  36  37
ATOM     37  C   UNL A   1      32.821  31.307  26.995  1.00  0.00     0.116 C 
BRANCH  37  38
ATOM     38  N   UNL A   1      32.524  32.705  27.306  1.00  0.00    -0.352 N 
ATOM     39  C   UNL A   1      33.108  33.619  28.166  1.00  0.00     0.251 C 
ATOM     40  H   UNL A   1      31.758  33.067  26.805  1.00  0.00     0.163 HD
ATOM     41  O   UNL A   1      32.524  34.683  28.367  1.00  0.00    -0.269 OA
BRANCH  39  42
ATOM     42  C   UNL A   1      34.413  33.391  28.853  1.00  0.00     0.039 A 
ATOM     43  C   UNL A   1      34.486  32.614  30.014  1.00  0.00     0.014 A 
ATOM     44  C   UNL A   1      35.571  34.031  28.438  1.00  0.00     0.014 A 
ATOM     45  C   UNL A   1      35.724  32.401  30.659  1.00  0.00     0.010 A 
ATOM     46  C   UNL A   1      36.815  33.794  29.057  1.00  0.00     0.010 A 
ATOM     47  C   UNL A   1      36.929  32.926  30.141  1.00  0.00    -0.014 A 
BRANCH  47  48
ATOM     48  C   UNL A   1      38.263  32.369  30.558  1.00  0.00     0.031 A 
ATOM     49  C   UNL A   1      39.196  32.976  31.587  1.00  0.00     0.074 A 
ATOM     50  C   UNL A   1      38.733  31.318  29.849  1.00  0.00     0.049 A 
ATOM     51  N   UNL A   1      40.324  32.487  32.057  1.00  0.00    -0.248 NA
ATOM     52  C   UNL A   1      38.873  34.310  32.107  1.00  0.00     0.031 C 
ATOM     53  C   UNL A   1      38.077  30.739  28.673  1.00  0.00     0.029 A 
ATOM     54  N   UNL A   1      39.852  30.537  30.017  1.00  0.00    -0.354 N 
ATOM     55  C   UNL A   1      40.863  33.463  32.892  1.00  0.00     0.074 A 
ATOM     56  C   UNL A   1      39.949  34.587  32.838  1.00  0.00     0.031 C 
ATOM     57  C   UNL A   1      38.735  29.633  28.301  1.00  0.00     0.029 A 
ATOM     58  C   UNL A   1      39.879  29.443  29.183  1.00  0.00     0.049 A 
ATOM     59  H   UNL A   1      40.563  30.739  30.667  1.00  0.00     0.167 HD
ATOM     60  C   UNL A   1      42.000  33.428  33.640  1.00  0.00     0.031 A 
ATOM     61  C   UNL A   1      40.693  28.372  29.144  1.00  0.00     0.031 A 
ATOM     62  C   UNL A   1      42.895  32.297  33.734  1.00  0.00     0.049 A 
ATOM     63  C   UNL A   1      41.818  28.249  30.122  1.00  0.00     0.074 A 
ATOM     64  C   UNL A   1      43.976  32.116  34.585  1.00  0.00     0.029 A 
ATOM     65  N   UNL A   1      42.823  31.157  32.950  1.00  0.00    -0.354 N 
ATOM     66  N   UNL A   1      42.207  29.100  31.035  1.00  0.00    -0.248 NA
ATOM     67  C   UNL A   1      42.603  27.006  30.074  1.00  0.00     0.031 C 
ATOM     68  C   UNL A   1      44.574  30.883  34.294  1.00  0.00     0.029 A 
ATOM     69  C   UNL A   1      43.841  30.278  33.289  1.00  0.00     0.049 A 
ATOM     70  H   UNL A   1      42.147  30.995  32.253  1.00  0.00     0.167 HD
ATOM     71  C   UNL A   1      43.278  28.497  31.678  1.00  0.00     0.074 A 
ATOM     72  C   UNL A   1      43.460  27.196  31.069  1.00  0.00     0.031 C 
ATOM     73  C   UNL A   1      44.041  28.988  32.682  1.00  0.00     0.031 A 
BRANCH  60  74
ATOM     74  C   UNL A   1      42.351  34.646  34.463  1.00  0.00    -0.014 A 
ATOM     75  C   UNL A   1      41.928  34.768  35.796  1.00  0.00     0.009 A 
ATOM     76  C   UNL A   1      43.200  35.634  33.936  1.00  0.00     0.009 A 
ATOM     77  C   UNL A   1      42.308  35.873  36.566  1.00  0.00     0.001 A 
ATOM     78  C   UNL A   1      43.604  36.721  34.717  1.00  0.00     0.001 A 
ATOM     79  C   UNL A   1      43.148  36.845  36.028  1.00  0.00     0.000 A 
ENDBRANCH  60  74
BRANCH  61  80
ATOM     80  C   UNL A   1      40.379  27.269  28.204  1.00  0.00    -0.014 A 
ATOM     81  C   UNL A   1      40.974  27.250  26.932  1.00  0.00     0.009 A 
ATOM     82  C   UNL A   1      39.552  26.204  28.588  1.00  0.00     0.009 A 
ATOM     83  C   UNL A   1      40.740  26.189  26.059  1.00  0.00     0.001 A 
ATOM     84  C   UNL A   1      39.340  25.132  27.720  1.00  0.00     0.001 A 
ATOM     85  C   UNL A   1      39.929  25.128  26.456  1.00  0.00     0.000 A 
ENDBRANCH  61  80
BRANCH  73  86
ATOM     86  C   UNL A   1      45.145  28.109  33.194  1.00  0.00    -0.014 A 
ATOM     87  C   UNL A   1      46.380  28.034  32.529  1.00  0.00     0.009 A 
ATOM     88  C   UNL A   1      44.953  27.351  34.359  1.00  0.00     0.009 A 
ATOM     89  C   UNL A   1      47.387  27.191  33.004  1.00  0.00     0.001 A 
ATOM     90  C   UNL A   1      45.970  26.524  34.841  1.00  0.00     0.001 A 
ATOM     91  C   UNL A   1      47.183  26.438  34.160  1.00  0.00     0.000 A 
ENDBRANCH  73  86
ENDBRANCH  47  48
ENDBRANCH  39  42
ENDBRANCH  37  38
ENDBRANCH  36  37
ENDBRANCH  35  36
ENDBRANCH  34  35
ENDBRANCH   1  34
TORSDOF 17
ENDMDL
MODEL 2
REMARK VINA RESULT:     -11.5      6.204     11.101
REMARK SMILES CN1C(=O)C(=Cc2ccc(OCc3cccc(C(=O)NCCCCCCNC(=O)c4ccc(-c5c6nc(c(-c7ccccc7)c7ccc([nH]7)c(-c7ccccc7)c7nc(c(-c8ccccc8)c8ccc5[nH]8)C=C7)C=C6)cc4)c3)c(Cl)c2)C(=O)N(C)C1=S
REMARK SMILES IDX 22 1 21 2 20 3 18 4 19 5 17 7 13 8 14 9 78 10 15 11 16 12
REMARK SMILES IDX 12 13 11 14 10 15 7 16 8 17 81 18 9 19 79 20 80 21 6 22 1 23
REMARK SMILES IDX 2 24 3 25 86 26 4 27 5 28 84 29 87 30 82 31 85 32 83 33
REMARK SMILES IDX 23 34 24 35 25 36 26 37 27 38 28 39 29 41 30 42 31 43 77 44
REMARK SMILES IDX 32 45 76 46 33 47 34 48 35 49 70 50 36 51 75 52 69 53 71 54
REMARK SMILES IDX 37 55 74 56 68 57 67 58 38 60 60 61 45 62 59 63 46 64 49 65
REMARK SMILES IDX 58 66 72 67 47 68 48 69 57 71 73 72 50 73 39 74 40 75 44 76
REMARK SMILES IDX 41 77 43 78 42 79 61 80 62 81 66 82 63 83 65 84 64 85 51 86
REMARK SMILES IDX 52 87 56 88 53 89 55 90 54 91
REMARK H PARENT 20 6 27 40 71 59 49 70
REMARK Flexibility Score: inf
ROOT
ATOM      1  C   UNL A   1      46.081  24.118  25.967  1.00  0.00     0.021 C 
ENDROOT
BRANCH   1   2
ATOM      2  C   UNL A   1      45.689  22.761  26.555  1.00  0.00     0.116 C 
BRANCH   2   3
ATOM      3  N   UNL A   1      45.763  21.698  25.569  1.00  0.00    -0.352 N 
ATOM      4  C   UNL A   1      44.910  20.741  25.081  1.00  0.00     0.251 C 
ATOM      5  O   UNL A   1      45.372  20.075  24.145  1.00  0.00    -0.269 OA
ATOM      6  H   UNL A   1      46.649  21.653  25.142  1.00  0.00     0.163 HD
BRANCH   4   7
ATOM      7  C   UNL A   1      43.517  20.419  25.550  1.00  0.00     0.040 A 
ATOM      8  C   UNL A   1      41.249  20.869  26.380  1.00  0.00    -0.010 A 
ATOM      9  C   UNL A   1      41.045  19.489  26.559  1.00  0.00     0.007 A 
ATOM     10  C   UNL A   1      42.485  21.321  25.850  1.00  0.00     0.021 A 
ATOM     11  C   UNL A   1      42.046  18.581  26.256  1.00  0.00     0.001 A 
ATOM     12  C   UNL A   1      43.265  19.044  25.762  1.00  0.00     0.014 A 
BRANCH   8  13
ATOM     13  C   UNL A   1      40.079  21.769  26.767  1.00  0.00     0.265 C 
BRANCH  13  14
ATOM     14  O   UNL A   1      39.446  22.598  25.791  1.00  0.00    -0.487 OA
BRANCH  14  15
ATOM     15  C   UNL A   1      38.098  22.531  25.605  1.00  0.00     0.138 A 
ATOM     16  C   UNL A   1      35.316  22.772  25.788  1.00  0.00    -0.023 A 
ATOM     17  C   UNL A   1      36.129  23.915  25.780  1.00  0.00     0.012 A 
ATOM     18  C   UNL A   1      35.891  21.526  25.550  1.00  0.00     0.032 A 
ATOM     19  C   UNL A   1      37.509  23.793  25.697  1.00  0.00     0.048 A 
ATOM     20  C   UNL A   1      37.282  21.407  25.417  1.00  0.00     0.083 A 
ATOM     21  Cl  UNL A   1      37.882  19.846  24.993  1.00  0.00    -0.080 Cl
BRANCH  16  22
ATOM     22  C   UNL A   1      33.906  22.906  26.186  1.00  0.00     0.027 C 
ATOM     23  C   UNL A   1      33.600  25.743  22.646  1.00  0.00     0.156 C 
ATOM     24  N   UNL A   1      32.782  25.086  23.655  1.00  0.00    -0.288 N 
ATOM     25  C   UNL A   1      33.262  23.857  24.047  1.00  0.00     0.265 C 
ATOM     26  C   UNL A   1      31.574  25.598  24.138  1.00  0.00     0.185 C 
ATOM     27  O   UNL A   1      33.878  23.103  23.315  1.00  0.00    -0.268 OA
ATOM     28  C   UNL A   1      32.977  23.540  25.449  1.00  0.00     0.106 C 
ATOM     29  N   UNL A   1      31.273  25.248  25.468  1.00  0.00    -0.288 N 
ATOM     30  S   UNL A   1      30.549  26.545  23.184  1.00  0.00    -0.040 S 
ATOM     31  C   UNL A   1      31.846  24.173  26.151  1.00  0.00     0.265 C 
ATOM     32  C   UNL A   1      30.368  26.071  26.278  1.00  0.00     0.156 C 
ATOM     33  O   UNL A   1      31.512  23.823  27.279  1.00  0.00    -0.268 OA
ENDBRANCH  16  22
ENDBRANCH  14  15
ENDBRANCH  13  14
ENDBRANCH   8  13
ENDBRANCH   4   7
ENDBRANCH   2   3
ENDBRANCH   1   2
BRANCH   1  34
ATOM     34  C   UNL A   1      45.062  24.843  25.068  1.00  0.00     0.002 C 
BRANCH  34  35
ATOM     35  C   UNL A   1      44.599  26.255  25.488  1.00  0.00     0.002 C 
BRANCH  35  36
ATOM     36  C   UNL A   1      43.106  26.616  25.321  1.00  0.00     0.021 C 
BRANCH  36  37
ATOM     37  C   UNL A   1      42.101  25.463  25.093  1.00  0.00     0.116 C 
BRANCH  37  38
ATOM     38  N   UNL A   1      40.891  25.587  25.905  1.00  0.00    -0.352 N 
ATOM     39  C   UNL A   1      40.659  25.480  27.266  1.00  0.00     0.251 C 
ATOM     40  H   UNL A   1      40.083  25.786  25.380  1.00  0.00     0.163 HD
ATOM     41  O   UNL A   1      39.493  25.444  27.654  1.00  0.00    -0.269 OA
BRANCH  39  42
ATOM     42  C   UNL A   1      41.745  25.419  28.287  1.00  0.00     0.039 A 
ATOM     43  C   UNL A   1      42.410  24.218  28.556  1.00  0.00     0.014 A 
ATOM     44  C   UNL A   1      42.053  26.512  29.083  1.00  0.00     0.014 A 
ATOM     45  C   UNL A   1      43.438  24.167  29.523  1.00  0.00     0.010 A 
ATOM     46  C   UNL A   1      43.100  26.475  30.025  1.00  0.00     0.010 A 
ATOM     47  C   UNL A   1      43.856  25.321  30.221  1.00  0.00    -0.014 A 
BRANCH  47  48
ATOM     48  C   UNL A   1      45.191  25.371  30.913  1.00  0.00     0.031 A 
ATOM     49  C   UNL A   1      45.441  25.077  32.379  1.00  0.00     0.074 A 
ATOM     50  C   UNL A   1      46.230  25.860  30.200  1.00  0.00     0.049 A 
ATOM     51  N   UNL A   1      46.592  25.014  33.016  1.00  0.00    -0.248 NA
ATOM     52  C   UNL A   1      44.277  24.898  33.255  1.00  0.00     0.031 C 
ATOM     53  C   UNL A   1      46.134  26.405  28.843  1.00  0.00     0.029 A 
ATOM     54  N   UNL A   1      47.568  25.961  30.498  1.00  0.00    -0.354 N 
ATOM     55  C   UNL A   1      46.292  24.828  34.363  1.00  0.00     0.074 A 
ATOM     56  C   UNL A   1      44.845  24.821  34.454  1.00  0.00     0.031 C 
ATOM     57  C   UNL A   1      47.363  26.672  28.386  1.00  0.00     0.029 A 
ATOM     58  C   UNL A   1      48.334  26.353  29.425  1.00  0.00     0.049 A 
ATOM     59  H   UNL A   1      47.942  25.773  31.389  1.00  0.00     0.167 HD
ATOM     60  C   UNL A   1      47.133  24.668  35.421  1.00  0.00     0.031 A 
ATOM     61  C   UNL A   1      49.668  26.413  29.256  1.00  0.00     0.031 A 
ATOM     62  C   UNL A   1      48.575  24.631  35.335  1.00  0.00     0.049 A 
ATOM     63  C   UNL A   1      50.584  26.025  30.374  1.00  0.00     0.074 A 
ATOM     64  C   UNL A   1      49.495  24.316  36.325  1.00  0.00     0.029 A 
ATOM     65  N   UNL A   1      49.312  24.924  34.199  1.00  0.00    -0.354 N 
ATOM     66  N   UNL A   1      50.282  25.672  31.595  1.00  0.00    -0.248 NA
ATOM     67  C   UNL A   1      52.024  26.029  30.079  1.00  0.00     0.031 C 
ATOM     68  C   UNL A   1      50.785  24.448  35.797  1.00  0.00     0.029 A 
ATOM     69  C   UNL A   1      50.669  24.807  34.466  1.00  0.00     0.049 A 
ATOM     70  H   UNL A   1      48.929  25.179  33.329  1.00  0.00     0.167 HD
ATOM     71  C   UNL A   1      51.492  25.402  32.218  1.00  0.00     0.074 A 
ATOM     72  C   UNL A   1      52.531  25.606  31.231  1.00  0.00     0.031 C 
ATOM     73  C   UNL A   1      51.712  25.022  33.498  1.00  0.00     0.031 A 
BRANCH  60  74
ATOM     74  C   UNL A   1      46.527  24.484  36.794  1.00  0.00    -0.014 A 
ATOM     75  C   UNL A   1      46.286  23.203  37.316  1.00  0.00     0.009 A 
ATOM     76  C   UNL A   1      46.289  25.599  37.616  1.00  0.00     0.009 A 
ATOM     77  C   UNL A   1      45.780  23.045  38.610  1.00  0.00     0.001 A 
ATOM     78  C   UNL A   1      45.812  25.437  38.920  1.00  0.00     0.001 A 
ATOM     79  C   UNL A   1      45.547  24.160  39.412  1.00  0.00     0.000 A 
ENDBRANCH  60  74
BRANCH  61  80
ATOM     80  C   UNL A   1      50.205  26.747  27.914  1.00  0.00    -0.014 A 
ATOM     81  C   UNL A   1      50.488  25.716  27.005  1.00  0.00     0.009 A 
ATOM     82  C   UNL A   1      50.367  28.080  27.511  1.00  0.00     0.009 A 
ATOM     83  C   UNL A   1      50.935  26.014  25.717  1.00  0.00     0.001 A 
ATOM     84  C   UNL A   1      50.790  28.374  26.214  1.00  0.00     0.001 A 
ATOM     85  C   UNL A   1      51.078  27.341  25.321  1.00  0.00     0.000 A 
ENDBRANCH  61  80
BRANCH  73  86
ATOM     86  C   UNL A   1      53.138  24.794  33.907  1.00  0.00    -0.014 A 
ATOM     87  C   UNL A   1      53.883  25.806  34.535  1.00  0.00     0.009 A 
ATOM     88  C   UNL A   1      53.746  23.552  33.668  1.00  0.00     0.009 A 
ATOM     89  C   UNL A   1      55.217  25.587  34.885  1.00  0.00     0.001 A 
ATOM     90  C   UNL A   1      55.074  23.331  34.038  1.00  0.00     0.001 A 
ATOM     91  C   UNL A   1      55.812  24.350  34.638  1.00  0.00     0.000 A 
ENDBRANCH  73  86
ENDBRANCH  47  48
ENDBRANCH  39  42
ENDBRANCH  37  38
ENDBRANCH  36  37
ENDBRANCH  35  36
ENDBRANCH  34  35
ENDBRANCH   1  34
TORSDOF 17
ENDMDL
MODEL 3
REMARK VINA RESULT:     -11.5      3.374      7.087
REMARK SMILES CN1C(=O)C(=Cc2ccc(OCc3cccc(C(=O)NCCCCCCNC(=O)c4ccc(-c5c6nc(c(-c7ccccc7)c7ccc([nH]7)c(-c7ccccc7)c7nc(c(-c8ccccc8)c8ccc5[nH]8)C=C7)C=C6)cc4)c3)c(Cl)c2)C(=O)N(C)C1=S
REMARK SMILES IDX 22 1 21 2 20 3 18 4 19 5 17 7 13 8 14 9 78 10 15 11 16 12
REMARK SMILES IDX 12 13 11 14 10 15 7 16 8 17 81 18 9 19 79 20 80 21 6 22 1 23
REMARK SMILES IDX 2 24 3 25 86 26 4 27 5 28 84 29 87 30 82 31 85 32 83 33
REMARK SMILES IDX 23 34 24 35 25 36 26 37 27 38 28 39 29 41 30 42 31 43 77 44
REMARK SMILES IDX 32 45 76 46 33 47 34 48 35 49 70 50 36 51 75 52 69 53 71 54
REMARK SMILES IDX 37 55 74 56 68 57 67 58 38 60 60 61 45 62 59 63 46 64 49 65
REMARK SMILES IDX 58 66 72 67 47 68 48 69 57 71 73 72 50 73 39 74 40 75 44 76
REMARK SMILES IDX 41 77 43 78 42 79 61 80 62 81 66 82 63 83 65 84 64 85 51 86
REMARK SMILES IDX 52 87 56 88 53 89 55 90 54 91
REMARK H PARENT 20 6 27 40 71 59 49 70
REMARK Flexibility Score: inf
ROOT
ATOM      1  C   UNL A   1      29.603  32.105  24.253  1.00  0.00     0.021 C 
ENDROOT
BRANCH   1   2
ATOM      2  C   UNL A   1      28.137  31.954  23.841  1.00  0.00     0.116 C 
BRANCH   2   3
ATOM      3  N   UNL A   1      28.000  31.360  22.523  1.00  0.00    -0.352 N 
ATOM      4  C   UNL A   1      28.429  30.212  21.907  1.00  0.00     0.251 C 
ATOM      5  O   UNL A   1      27.989  30.053  20.761  1.00  0.00    -0.269 OA
ATOM      6  H   UNL A   1      27.463  31.922  21.920  1.00  0.00     0.163 HD
BRANCH   4   7
ATOM      7  C   UNL A   1      29.354  29.159  22.454  1.00  0.00     0.040 A 
ATOM      8  C   UNL A   1      30.051  27.272  23.866  1.00  0.00    -0.010 A 
ATOM      9  C   UNL A   1      31.372  27.422  23.407  1.00  0.00     0.007 A 
ATOM     10  C   UNL A   1      29.042  28.134  23.362  1.00  0.00     0.021 A 
ATOM     11  C   UNL A   1      31.697  28.418  22.501  1.00  0.00     0.001 A 
ATOM     12  C   UNL A   1      30.700  29.275  22.037  1.00  0.00     0.014 A 
BRANCH   8  13
ATOM     13  C   UNL A   1      29.821  26.152  24.876  1.00  0.00     0.265 C 
BRANCH  13  14
ATOM     14  O   UNL A   1      30.575  26.099  26.088  1.00  0.00    -0.487 OA
BRANCH  14  15
ATOM     15  C   UNL A   1      31.694  25.324  26.166  1.00  0.00     0.138 A 
ATOM     16  C   UNL A   1      34.101  23.975  25.702  1.00  0.00    -0.023 A 
ATOM     17  C   UNL A   1      34.029  25.369  25.559  1.00  0.00     0.012 A 
ATOM     18  C   UNL A   1      33.009  23.287  26.224  1.00  0.00     0.032 A 
ATOM     19  C   UNL A   1      32.832  26.035  25.782  1.00  0.00     0.048 A 
ATOM     20  C   UNL A   1      31.813  23.968  26.496  1.00  0.00     0.083 A 
ATOM     21  Cl  UNL A   1      30.567  23.054  27.262  1.00  0.00    -0.080 Cl
BRANCH  16  22
ATOM     22  C   UNL A   1      35.274  23.266  25.165  1.00  0.00     0.027 C 
ATOM     23  C   UNL A   1      32.550  19.626  25.133  1.00  0.00     0.156 C 
ATOM     24  N   UNL A   1      33.875  20.063  24.717  1.00  0.00    -0.288 N 
ATOM     25  C   UNL A   1      33.940  21.396  24.380  1.00  0.00     0.265 C 
ATOM     26  C   UNL A   1      34.975  19.210  24.586  1.00  0.00     0.185 C 
ATOM     27  O   UNL A   1      33.016  22.019  23.888  1.00  0.00    -0.268 OA
ATOM     28  C   UNL A   1      35.234  22.011  24.686  1.00  0.00     0.106 C 
ATOM     29  N   UNL A   1      36.223  19.814  24.827  1.00  0.00    -0.288 N 
ATOM     30  S   UNL A   1      34.810  17.585  24.150  1.00  0.00    -0.040 S 
ATOM     31  C   UNL A   1      36.455  21.191  24.785  1.00  0.00     0.265 C 
ATOM     32  C   UNL A   1      37.383  19.013  25.233  1.00  0.00     0.156 C 
ATOM     33  O   UNL A   1      37.565  21.701  24.908  1.00  0.00    -0.268 OA
ENDBRANCH  16  22
ENDBRANCH  14  15
ENDBRANCH  13  14
ENDBRANCH   8  13
ENDBRANCH   4   7
ENDBRANCH   2   3
ENDBRANCH   1   2
BRANCH   1  34
ATOM     34  C   UNL A   1      30.177  31.108  25.277  1.00  0.00     0.002 C 
BRANCH  34  35
ATOM     35  C   UNL A   1      31.468  31.501  26.027  1.00  0.00     0.002 C 
BRANCH  35  36
ATOM     36  C   UNL A   1      32.124  30.454  26.954  1.00  0.00     0.021 C 
BRANCH  36  37
ATOM     37  C   UNL A   1      33.659  30.502  27.133  1.00  0.00     0.116 C 
BRANCH  37  38
ATOM     38  N   UNL A   1      34.082  31.354  28.243  1.00  0.00    -0.352 N 
ATOM     39  C   UNL A   1      35.165  31.304  29.104  1.00  0.00     0.251 C 
ATOM     40  H   UNL A   1      33.478  32.113  28.411  1.00  0.00     0.163 HD
ATOM     41  O   UNL A   1      35.167  32.055  30.079  1.00  0.00    -0.269 OA
BRANCH  39  42
ATOM     42  C   UNL A   1      36.336  30.399  28.909  1.00  0.00     0.039 A 
ATOM     43  C   UNL A   1      36.958  30.289  27.662  1.00  0.00     0.014 A 
ATOM     44  C   UNL A   1      36.772  29.553  29.918  1.00  0.00     0.014 A 
ATOM     45  C   UNL A   1      38.066  29.432  27.484  1.00  0.00     0.010 A 
ATOM     46  C   UNL A   1      37.898  28.721  29.756  1.00  0.00     0.010 A 
ATOM     47  C   UNL A   1      38.606  28.689  28.556  1.00  0.00    -0.014 A 
BRANCH  47  48
ATOM     48  C   UNL A   1      40.000  28.125  28.488  1.00  0.00     0.031 A 
ATOM     49  C   UNL A   1      40.365  26.706  28.100  1.00  0.00     0.074 A 
ATOM     50  C   UNL A   1      40.998  28.910  28.952  1.00  0.00     0.049 A 
ATOM     51  N   UNL A   1      41.562  26.186  27.933  1.00  0.00    -0.248 NA
ATOM     52  C   UNL A   1      39.277  25.733  27.943  1.00  0.00     0.031 C 
ATOM     53  C   UNL A   1      40.813  30.223  29.576  1.00  0.00     0.029 A 
ATOM     54  N   UNL A   1      42.362  28.736  28.957  1.00  0.00    -0.354 N 
ATOM     55  C   UNL A   1      41.377  24.827  27.692  1.00  0.00     0.074 A 
ATOM     56  C   UNL A   1      39.947  24.599  27.766  1.00  0.00     0.031 C 
ATOM     57  C   UNL A   1      42.010  30.782  29.793  1.00  0.00     0.029 A 
ATOM     58  C   UNL A   1      43.050  29.856  29.361  1.00  0.00     0.049 A 
ATOM     59  H   UNL A   1      42.803  27.895  28.698  1.00  0.00     0.167 HD
ATOM     60  C   UNL A   1      42.299  23.864  27.423  1.00  0.00     0.031 A 
ATOM     61  C   UNL A   1      44.363  30.149  29.350  1.00  0.00     0.031 A 
ATOM     62  C   UNL A   1      43.722  24.089  27.305  1.00  0.00     0.049 A 
ATOM     63  C   UNL A   1      45.351  29.144  28.847  1.00  0.00     0.074 A 
ATOM     64  C   UNL A   1      44.706  23.207  26.881  1.00  0.00     0.029 A 
ATOM     65  N   UNL A   1      44.369  25.273  27.615  1.00  0.00    -0.354 N 
ATOM     66  N   UNL A   1      45.140  27.918  28.445  1.00  0.00    -0.248 NA
ATOM     67  C   UNL A   1      46.755  29.574  28.780  1.00  0.00     0.031 C 
ATOM     68  C   UNL A   1      45.949  23.848  26.965  1.00  0.00     0.029 A 
ATOM     69  C   UNL A   1      45.734  25.143  27.403  1.00  0.00     0.049 A 
ATOM     70  H   UNL A   1      43.924  26.090  27.940  1.00  0.00     0.167 HD
ATOM     71  C   UNL A   1      46.383  27.428  28.069  1.00  0.00     0.074 A 
ATOM     72  C   UNL A   1      47.338  28.498  28.265  1.00  0.00     0.031 C 
ATOM     73  C   UNL A   1      46.695  26.195  27.607  1.00  0.00     0.031 A 
BRANCH  60  74
ATOM     74  C   UNL A   1      41.811  22.450  27.201  1.00  0.00    -0.014 A 
ATOM     75  C   UNL A   1      41.044  22.115  26.075  1.00  0.00     0.009 A 
ATOM     76  C   UNL A   1      42.209  21.421  28.072  1.00  0.00     0.009 A 
ATOM     77  C   UNL A   1      40.648  20.792  25.850  1.00  0.00     0.001 A 
ATOM     78  C   UNL A   1      41.838  20.094  27.829  1.00  0.00     0.001 A 
ATOM     79  C   UNL A   1      41.048  19.784  26.724  1.00  0.00     0.000 A 
ENDBRANCH  60  74
BRANCH  61  80
ATOM     80  C   UNL A   1      44.795  31.518  29.724  1.00  0.00    -0.014 A 
ATOM     81  C   UNL A   1      45.091  31.809  31.065  1.00  0.00     0.009 A 
ATOM     82  C   UNL A   1      44.982  32.509  28.750  1.00  0.00     0.009 A 
ATOM     83  C   UNL A   1      45.558  33.073  31.426  1.00  0.00     0.001 A 
ATOM     84  C   UNL A   1      45.473  33.764  29.112  1.00  0.00     0.001 A 
ATOM     85  C   UNL A   1      45.756  34.046  30.449  1.00  0.00     0.000 A 
ENDBRANCH  61  80
BRANCH  73  86
ATOM     86  C   UNL A   1      48.135  25.935  27.273  1.00  0.00    -0.014 A 
ATOM     87  C   UNL A   1      48.648  26.228  25.998  1.00  0.00     0.009 A 
ATOM     88  C   UNL A   1      48.994  25.397  28.243  1.00  0.00     0.009 A 
ATOM     89  C   UNL A   1      49.983  25.956  25.695  1.00  0.00     0.001 A 
ATOM     90  C   UNL A   1      50.334  25.145  27.942  1.00  0.00     0.001 A 
ATOM     91  C   UNL A   1      50.826  25.416  26.666  1.00  0.00     0.000 A 
ENDBRANCH  73  86
ENDBRANCH  47  48
ENDBRANCH  39  42
ENDBRANCH  37  38
ENDBRANCH  36  37
ENDBRANCH  35  36
ENDBRANCH  34  35
ENDBRANCH   1  34
TORSDOF 17
ENDMDL
