MODEL 1
REMARK VINA RESULT:     -11.4      0.000      0.000
REMARK SMILES C[C@]12CCC[C@](C)(C(=O)NCCCCCCNC(=O)c3ccc(-c4c5nc(c(-c6ccccc6)c6ccc([nH]6)c(-c6ccccc6)c6nc(c(-c7ccccc7)c7ccc4[nH]7)C=C6)C=C5)cc3)[C@@H]1CC[C@]13C=C(CO)[C@H](CC[C@H]12)C3
REMARK SMILES IDX 13 1 12 2 11 3 10 4 8 5 9 6 6 8 1 9 2 10 3 11 68 12 79 13
REMARK SMILES IDX 4 14 69 15 71 16 78 17 5 18 7 19 70 20 72 21 80 22 77 23
REMARK SMILES IDX 73 24 76 25 74 26 75 27 14 29 15 30 16 31 17 32 18 33 19 35
REMARK SMILES IDX 20 36 21 37 67 38 22 39 66 40 23 41 24 42 25 43 60 44 26 45
REMARK SMILES IDX 65 46 59 47 61 48 27 49 64 50 58 51 57 52 28 54 50 55 35 56
REMARK SMILES IDX 49 57 36 58 39 59 48 60 62 61 37 62 38 63 47 65 63 66 40 67
REMARK SMILES IDX 29 68 30 69 34 70 31 71 33 72 32 73 51 74 52 75 56 76 53 77
REMARK SMILES IDX 55 78 54 79 41 80 42 81 46 82 43 83 45 84 44 85
REMARK H PARENT 10 7 75 28 17 34 61 53 39 64
REMARK Flexibility Score: inf
ROOT
ATOM      1  C   UNL A   1      37.666  23.393  25.966  1.00  0.00     0.002 C 
ENDROOT
BRANCH   1   2
ATOM      2  C   UNL A   1      37.240  23.088  24.520  1.00  0.00     0.021 C 
BRANCH   2   3
ATOM      3  C   UNL A   1      36.205  21.975  24.386  1.00  0.00     0.116 C 
BRANCH   3   4
ATOM      4  N   UNL A   1      35.160  22.412  23.487  1.00  0.00    -0.356 N 
ATOM      5  C   UNL A   1      33.815  22.415  23.496  1.00  0.00     0.226 C 
ATOM      6  O   UNL A   1      33.333  22.543  22.360  1.00  0.00    -0.274 OA
ATOM      7  H   UNL A   1      35.524  22.807  22.661  1.00  0.00     0.163 HD
BRANCH   5   8
ATOM      8  C   UNL A   1      32.875  22.357  24.732  1.00  0.00     0.050 C 
ATOM      9  C   UNL A   1      33.950  25.191  24.343  1.00  0.00     0.012 C 
ATOM     10  C   UNL A   1      32.668  24.918  25.216  1.00  0.00    -0.025 C 
ATOM     11  C   UNL A   1      33.121  24.692  26.673  1.00  0.00     0.007 C 
ATOM     12  C   UNL A   1      31.904  23.631  24.747  1.00  0.00     0.010 C 
ATOM     13  C   UNL A   1      31.836  26.224  25.083  1.00  0.00     0.005 C 
ATOM     14  C   UNL A   1      34.016  23.467  26.839  1.00  0.00     0.002 C 
ATOM     15  C   UNL A   1      31.056  23.857  23.465  1.00  0.00     0.006 C 
ATOM     16  C   UNL A   1      30.947  26.374  23.787  1.00  0.00    -0.008 C 
ATOM     17  C   UNL A   1      31.267  27.089  26.201  1.00  0.00     0.006 C 
ATOM     18  C   UNL A   1      33.476  22.210  26.157  1.00  0.00     0.017 C 
ATOM     19  C   UNL A   1      32.103  21.027  24.475  1.00  0.00     0.022 C 
ATOM     20  C   UNL A   1      30.166  25.106  23.499  1.00  0.00     0.012 C 
ATOM     21  C   UNL A   1      31.899  26.877  22.740  1.00  0.00    -0.018 C 
ATOM     22  C   UNL A   1      30.079  27.657  23.825  1.00  0.00     0.019 C 
ATOM     23  C   UNL A   1      31.447  28.566  25.658  1.00  0.00     0.008 C 
ATOM     24  C   UNL A   1      32.215  28.148  23.073  1.00  0.00    -0.045 C 
ATOM     25  C   UNL A   1      31.183  28.691  24.105  1.00  0.00     0.018 C 
BRANCH  24  26
ATOM     26  C   UNL A   1      33.427  28.885  22.606  1.00  0.00     0.187 C 
BRANCH  26  27
ATOM     27  O   UNL A   1      34.087  28.182  21.550  1.00  0.00    -0.392 OA
ATOM     28  H   UNL A   1      34.715  27.546  21.928  1.00  0.00     0.211 HD
ENDBRANCH  26  27
ENDBRANCH  24  26
ENDBRANCH   5   8
ENDBRANCH   3   4
ENDBRANCH   2   3
ENDBRANCH   1   2
BRANCH   1  29
ATOM     29  C   UNL A   1      38.977  22.750  26.427  1.00  0.00     0.002 C 
BRANCH  29  30
ATOM     30  C   UNL A   1      39.345  21.447  25.720  1.00  0.00     0.021 C 
BRANCH  30  31
ATOM     31  C   UNL A   1      39.965  20.387  26.619  1.00  0.00     0.116 C 
BRANCH  31  32
ATOM     32  N   UNL A   1      41.129  19.750  26.030  1.00  0.00    -0.352 N 
ATOM     33  C   UNL A   1      42.376  20.288  25.843  1.00  0.00     0.251 C 
ATOM     34  H   UNL A   1      41.008  18.820  25.729  1.00  0.00     0.163 HD
ATOM     35  O   UNL A   1      43.241  19.679  25.216  1.00  0.00    -0.269 OA
BRANCH  33  36
ATOM     36  C   UNL A   1      42.657  21.635  26.376  1.00  0.00     0.039 A 
ATOM     37  C   UNL A   1      42.869  22.685  25.483  1.00  0.00     0.014 A 
ATOM     38  C   UNL A   1      42.653  21.865  27.756  1.00  0.00     0.014 A 
ATOM     39  C   UNL A   1      43.025  23.981  25.971  1.00  0.00     0.010 A 
ATOM     40  C   UNL A   1      42.727  23.166  28.237  1.00  0.00     0.010 A 
ATOM     41  C   UNL A   1      42.923  24.237  27.350  1.00  0.00    -0.014 A 
BRANCH  41  42
ATOM     42  C   UNL A   1      43.034  25.615  27.887  1.00  0.00     0.031 A 
ATOM     43  C   UNL A   1      44.375  26.149  28.307  1.00  0.00     0.074 A 
ATOM     44  C   UNL A   1      41.926  26.362  28.054  1.00  0.00     0.049 A 
ATOM     45  N   UNL A   1      44.671  27.299  28.860  1.00  0.00    -0.248 NA
ATOM     46  C   UNL A   1      45.535  25.263  28.105  1.00  0.00     0.031 C 
ATOM     47  C   UNL A   1      40.562  25.946  27.715  1.00  0.00     0.029 A 
ATOM     48  N   UNL A   1      41.770  27.629  28.557  1.00  0.00    -0.354 N 
ATOM     49  C   UNL A   1      46.042  27.266  29.085  1.00  0.00     0.074 A 
ATOM     50  C   UNL A   1      46.510  25.965  28.662  1.00  0.00     0.031 C 
ATOM     51  C   UNL A   1      39.715  26.949  27.994  1.00  0.00     0.029 A 
ATOM     52  C   UNL A   1      40.466  28.060  28.572  1.00  0.00     0.049 A 
ATOM     53  H   UNL A   1      42.523  28.178  28.876  1.00  0.00     0.167 HD
ATOM     54  C   UNL A   1      46.842  28.238  29.579  1.00  0.00     0.031 A 
ATOM     55  C   UNL A   1      39.933  29.216  29.011  1.00  0.00     0.031 A 
ATOM     56  C   UNL A   1      46.375  29.534  29.993  1.00  0.00     0.049 A 
ATOM     57  C   UNL A   1      40.840  30.271  29.582  1.00  0.00     0.074 A 
ATOM     58  C   UNL A   1      47.113  30.606  30.461  1.00  0.00     0.029 A 
ATOM     59  N   UNL A   1      45.047  29.931  29.991  1.00  0.00    -0.354 N 
ATOM     60  N   UNL A   1      42.143  30.249  29.729  1.00  0.00    -0.248 NA
ATOM     61  C   UNL A   1      40.203  31.514  30.036  1.00  0.00     0.031 C 
ATOM     62  C   UNL A   1      46.225  31.632  30.798  1.00  0.00     0.029 A 
ATOM     63  C   UNL A   1      44.941  31.223  30.476  1.00  0.00     0.049 A 
ATOM     64  H   UNL A   1      44.291  29.376  29.690  1.00  0.00     0.167 HD
ATOM     65  C   UNL A   1      42.485  31.486  30.261  1.00  0.00     0.074 A 
ATOM     66  C   UNL A   1      41.254  32.237  30.397  1.00  0.00     0.031 C 
ATOM     67  C   UNL A   1      43.709  31.958  30.602  1.00  0.00     0.031 A 
BRANCH  54  68
ATOM     68  C   UNL A   1      48.308  27.928  29.712  1.00  0.00    -0.014 A 
ATOM     69  C   UNL A   1      48.829  27.346  30.880  1.00  0.00     0.009 A 
ATOM     70  C   UNL A   1      49.177  28.192  28.643  1.00  0.00     0.009 A 
ATOM     71  C   UNL A   1      50.195  27.075  30.989  1.00  0.00     0.001 A 
ATOM     72  C   UNL A   1      50.537  27.889  28.740  1.00  0.00     0.001 A 
ATOM     73  C   UNL A   1      51.046  27.342  29.917  1.00  0.00     0.000 A 
ENDBRANCH  54  68
BRANCH  55  74
ATOM     74  C   UNL A   1      38.466  29.443  28.919  1.00  0.00    -0.014 A 
ATOM     75  C   UNL A   1      37.887  29.890  27.721  1.00  0.00     0.009 A 
ATOM     76  C   UNL A   1      37.638  29.226  30.031  1.00  0.00     0.009 A 
ATOM     77  C   UNL A   1      36.515  30.141  27.646  1.00  0.00     0.001 A 
ATOM     78  C   UNL A   1      36.261  29.447  29.945  1.00  0.00     0.001 A 
ATOM     79  C   UNL A   1      35.703  29.915  28.757  1.00  0.00     0.000 A 
ENDBRANCH  55  74
BRANCH  67  80
ATOM     80  C   UNL A   1      43.784  33.370  31.113  1.00  0.00    -0.014 A 
ATOM     81  C   UNL A   1      43.723  33.659  32.484  1.00  0.00     0.009 A 
ATOM     82  C   UNL A   1      43.968  34.424  30.203  1.00  0.00     0.009 A 
ATOM     83  C   UNL A   1      43.812  34.979  32.931  1.00  0.00     0.001 A 
ATOM     84  C   UNL A   1      44.088  35.738  30.655  1.00  0.00     0.001 A 
ATOM     85  C   UNL A   1      44.000  36.016  32.018  1.00  0.00     0.000 A 
ENDBRANCH  67  80
ENDBRANCH  41  42
ENDBRANCH  33  36
ENDBRANCH  31  32
ENDBRANCH  30  31
ENDBRANCH  29  30
ENDBRANCH   1  29
TORSDOF 15
ENDMDL
MODEL 2
REMARK VINA RESULT:     -11.4      1.843      2.451
REMARK SMILES C[C@]12CCC[C@](C)(C(=O)NCCCCCCNC(=O)c3ccc(-c4c5nc(c(-c6ccccc6)c6ccc([nH]6)c(-c6ccccc6)c6nc(c(-c7ccccc7)c7ccc4[nH]7)C=C6)C=C5)cc3)[C@@H]1CC[C@]13C=C(CO)[C@H](CC[C@H]12)C3
REMARK SMILES IDX 13 1 12 2 11 3 10 4 8 5 9 6 6 8 1 9 2 10 3 11 68 12 79 13
REMARK SMILES IDX 4 14 69 15 71 16 78 17 5 18 7 19 70 20 72 21 80 22 77 23
REMARK SMILES IDX 73 24 76 25 74 26 75 27 14 29 15 30 16 31 17 32 18 33 19 35
REMARK SMILES IDX 20 36 21 37 67 38 22 39 66 40 23 41 24 42 25 43 60 44 26 45
REMARK SMILES IDX 65 46 59 47 61 48 27 49 64 50 58 51 57 52 28 54 50 55 35 56
REMARK SMILES IDX 49 57 36 58 39 59 48 60 62 61 37 62 38 63 47 65 63 66 40 67
REMARK SMILES IDX 29 68 30 69 34 70 31 71 33 72 32 73 51 74 52 75 56 76 53 77
REMARK SMILES IDX 55 78 54 79 41 80 42 81 46 82 43 83 45 84 44 85
REMARK H PARENT 10 7 75 28 17 34 61 53 39 64
REMARK Flexibility Score: inf
ROOT
ATOM      1  C   UNL A   1      37.026  21.930  24.258  1.00  0.00     0.002 C 
ENDROOT
BRANCH   1   2
ATOM      2  C   UNL A   1      37.154  23.185  25.137  1.00  0.00     0.021 C 
BRANCH   2   3
ATOM      3  C   UNL A   1      35.856  23.965  25.321  1.00  0.00     0.116 C 
BRANCH   3   4
ATOM      4  N   UNL A   1      35.063  23.320  26.344  1.00  0.00    -0.356 N 
ATOM      5  C   UNL A   1      33.758  23.058  26.535  1.00  0.00     0.226 C 
ATOM      6  O   UNL A   1      33.489  22.821  27.722  1.00  0.00    -0.274 OA
ATOM      7  H   UNL A   1      35.617  22.991  27.088  1.00  0.00     0.163 HD
BRANCH   5   8
ATOM      8  C   UNL A   1      32.645  22.952  25.455  1.00  0.00     0.050 C 
ATOM      9  C   UNL A   1      32.497  25.654  26.873  1.00  0.00     0.012 C 
ATOM     10  C   UNL A   1      31.808  25.429  25.475  1.00  0.00    -0.025 C 
ATOM     11  C   UNL A   1      30.363  24.952  25.725  1.00  0.00     0.007 C 
ATOM     12  C   UNL A   1      32.539  24.324  24.634  1.00  0.00     0.010 C 
ATOM     13  C   UNL A   1      31.829  26.835  24.814  1.00  0.00     0.005 C 
ATOM     14  C   UNL A   1      30.291  23.613  26.454  1.00  0.00     0.002 C 
ATOM     15  C   UNL A   1      33.852  24.827  23.974  1.00  0.00     0.006 C 
ATOM     16  C   UNL A   1      33.171  27.270  24.106  1.00  0.00    -0.008 C 
ATOM     17  C   UNL A   1      30.658  27.605  24.215  1.00  0.00     0.006 C 
ATOM     18  C   UNL A   1      31.204  22.539  25.864  1.00  0.00     0.017 C 
ATOM     19  C   UNL A   1      33.173  21.777  24.577  1.00  0.00     0.022 C 
ATOM     20  C   UNL A   1      33.722  26.161  23.229  1.00  0.00     0.012 C 
ATOM     21  C   UNL A   1      34.030  27.787  25.224  1.00  0.00    -0.018 C 
ATOM     22  C   UNL A   1      33.031  28.635  23.385  1.00  0.00     0.019 C 
ATOM     23  C   UNL A   1      30.954  29.107  24.620  1.00  0.00     0.008 C 
ATOM     24  C   UNL A   1      33.482  28.951  25.636  1.00  0.00    -0.045 C 
ATOM     25  C   UNL A   1      32.490  29.475  24.556  1.00  0.00     0.018 C 
BRANCH  24  26
ATOM     26  C   UNL A   1      33.709  29.586  26.968  1.00  0.00     0.187 C 
BRANCH  26  27
ATOM     27  O   UNL A   1      33.009  28.889  28.002  1.00  0.00    -0.392 OA
ATOM     28  H   UNL A   1      32.054  29.025  27.894  1.00  0.00     0.211 HD
ENDBRANCH  26  27
ENDBRANCH  24  26
ENDBRANCH   5   8
ENDBRANCH   3   4
ENDBRANCH   2   3
ENDBRANCH   1   2
BRANCH   1  29
ATOM     29  C   UNL A   1      36.775  20.614  25.002  1.00  0.00     0.002 C 
BRANCH  29  30
ATOM     30  C   UNL A   1      37.931  19.616  24.962  1.00  0.00     0.021 C 
BRANCH  30  31
ATOM     31  C   UNL A   1      39.163  20.036  25.750  1.00  0.00     0.116 C 
BRANCH  31  32
ATOM     32  N   UNL A   1      40.173  18.996  25.825  1.00  0.00    -0.352 N 
ATOM     33  C   UNL A   1      41.515  19.144  26.070  1.00  0.00     0.251 C 
ATOM     34  H   UNL A   1      39.857  18.074  25.684  1.00  0.00     0.163 HD
ATOM     35  O   UNL A   1      42.283  18.188  25.984  1.00  0.00    -0.269 OA
BRANCH  33  36
ATOM     36  C   UNL A   1      42.033  20.483  26.406  1.00  0.00     0.039 A 
ATOM     37  C   UNL A   1      42.370  21.356  25.370  1.00  0.00     0.014 A 
ATOM     38  C   UNL A   1      42.130  20.892  27.740  1.00  0.00     0.014 A 
ATOM     39  C   UNL A   1      42.755  22.662  25.671  1.00  0.00     0.010 A 
ATOM     40  C   UNL A   1      42.436  22.215  28.034  1.00  0.00     0.010 A 
ATOM     41  C   UNL A   1      42.760  23.111  27.002  1.00  0.00    -0.014 A 
BRANCH  41  42
ATOM     42  C   UNL A   1      43.116  24.510  27.341  1.00  0.00     0.031 A 
ATOM     43  C   UNL A   1      44.557  24.939  27.334  1.00  0.00     0.074 A 
ATOM     44  C   UNL A   1      42.154  25.377  27.712  1.00  0.00     0.049 A 
ATOM     45  N   UNL A   1      45.077  26.094  27.663  1.00  0.00    -0.248 NA
ATOM     46  C   UNL A   1      45.548  23.927  26.930  1.00  0.00     0.031 C 
ATOM     47  C   UNL A   1      40.723  25.075  27.790  1.00  0.00     0.029 A 
ATOM     48  N   UNL A   1      42.237  26.691  28.100  1.00  0.00    -0.354 N 
ATOM     49  C   UNL A   1      46.451  25.941  27.522  1.00  0.00     0.074 A 
ATOM     50  C   UNL A   1      46.688  24.569  27.133  1.00  0.00     0.031 C 
ATOM     51  C   UNL A   1      40.061  26.179  28.173  1.00  0.00     0.029 A 
ATOM     52  C   UNL A   1      41.022  27.252  28.412  1.00  0.00     0.049 A 
ATOM     53  H   UNL A   1      43.087  27.185  28.150  1.00  0.00     0.167 HD
ATOM     54  C   UNL A   1      47.427  26.866  27.682  1.00  0.00     0.031 A 
ATOM     55  C   UNL A   1      40.717  28.488  28.848  1.00  0.00     0.031 A 
ATOM     56  C   UNL A   1      47.189  28.232  28.063  1.00  0.00     0.049 A 
ATOM     57  C   UNL A   1      41.822  29.489  29.045  1.00  0.00     0.074 A 
ATOM     58  C   UNL A   1      48.105  29.259  28.203  1.00  0.00     0.029 A 
ATOM     59  N   UNL A   1      45.944  28.760  28.368  1.00  0.00    -0.354 N 
ATOM     60  N   UNL A   1      43.110  29.348  28.846  1.00  0.00    -0.248 NA
ATOM     61  C   UNL A   1      41.428  30.824  29.514  1.00  0.00     0.031 C 
ATOM     62  C   UNL A   1      47.421  30.394  28.649  1.00  0.00     0.029 A 
ATOM     63  C   UNL A   1      46.071  30.091  28.722  1.00  0.00     0.049 A 
ATOM     64  H   UNL A   1      45.096  28.261  28.337  1.00  0.00     0.167 HD
ATOM     65  C   UNL A   1      43.676  30.583  29.133  1.00  0.00     0.074 A 
ATOM     66  C   UNL A   1      42.588  31.464  29.507  1.00  0.00     0.031 C 
ATOM     67  C   UNL A   1      44.979  30.956  29.088  1.00  0.00     0.031 A 
BRANCH  54  68
ATOM     68  C   UNL A   1      48.846  26.420  27.457  1.00  0.00    -0.014 A 
ATOM     69  C   UNL A   1      49.434  26.470  26.182  1.00  0.00     0.009 A 
ATOM     70  C   UNL A   1      49.617  25.973  28.541  1.00  0.00     0.009 A 
ATOM     71  C   UNL A   1      50.750  26.042  25.991  1.00  0.00     0.001 A 
ATOM     72  C   UNL A   1      50.944  25.578  28.354  1.00  0.00     0.001 A 
ATOM     73  C   UNL A   1      51.505  25.602  27.078  1.00  0.00     0.000 A 
ENDBRANCH  54  68
BRANCH  55  74
ATOM     74  C   UNL A   1      39.302  28.855  29.122  1.00  0.00    -0.014 A 
ATOM     75  C   UNL A   1      38.518  29.463  28.129  1.00  0.00     0.009 A 
ATOM     76  C   UNL A   1      38.730  28.609  30.379  1.00  0.00     0.009 A 
ATOM     77  C   UNL A   1      37.201  29.843  28.398  1.00  0.00     0.001 A 
ATOM     78  C   UNL A   1      37.402  28.961  30.636  1.00  0.00     0.001 A 
ATOM     79  C   UNL A   1      36.643  29.587  29.650  1.00  0.00     0.000 A 
ENDBRANCH  55  74
BRANCH  67  80
ATOM     80  C   UNL A   1      45.296  32.390  29.407  1.00  0.00    -0.014 A 
ATOM     81  C   UNL A   1      45.627  32.798  30.708  1.00  0.00     0.009 A 
ATOM     82  C   UNL A   1      45.310  33.340  28.372  1.00  0.00     0.009 A 
ATOM     83  C   UNL A   1      45.933  34.134  30.972  1.00  0.00     0.001 A 
ATOM     84  C   UNL A   1      45.647  34.668  28.634  1.00  0.00     0.001 A 
ATOM     85  C   UNL A   1      45.949  35.067  29.935  1.00  0.00     0.000 A 
ENDBRANCH  67  80
ENDBRANCH  41  42
ENDBRANCH  33  36
ENDBRANCH  31  32
ENDBRANCH  30  31
ENDBRANCH  29  30
ENDBRANCH   1  29
TORSDOF 15
ENDMDL
MODEL 3
REMARK VINA RESULT:     -11.3      3.540      8.561
REMARK SMILES C[C@]12CCC[C@](C)(C(=O)NCCCCCCNC(=O)c3ccc(-c4c5nc(c(-c6ccccc6)c6ccc([nH]6)c(-c6ccccc6)c6nc(c(-c7ccccc7)c7ccc4[nH]7)C=C6)C=C5)cc3)[C@@H]1CC[C@]13C=C(CO)[C@H](CC[C@H]12)C3
REMARK SMILES IDX 13 1 12 2 11 3 10 4 8 5 9 6 6 8 1 9 2 10 3 11 68 12 79 13
REMARK SMILES IDX 4 14 69 15 71 16 78 17 5 18 7 19 70 20 72 21 80 22 77 23
REMARK SMILES IDX 73 24 76 25 74 26 75 27 14 29 15 30 16 31 17 32 18 33 19 35
REMARK SMILES IDX 20 36 21 37 67 38 22 39 66 40 23 41 24 42 25 43 60 44 26 45
REMARK SMILES IDX 65 46 59 47 61 48 27 49 64 50 58 51 57 52 28 54 50 55 35 56
REMARK SMILES IDX 49 57 36 58 39 59 48 60 62 61 37 62 38 63 47 65 63 66 40 67
REMARK SMILES IDX 29 68 30 69 34 70 31 71 33 72 32 73 51 74 52 75 56 76 53 77
REMARK SMILES IDX 55 78 54 79 41 80 42 81 46 82 43 83 45 84 44 85
REMARK H PARENT 10 7 75 28 17 34 61 53 39 64
REMARK Flexibility Score: inf
ROOT
ATOM      1  C   UNL A   1      34.620  29.879  27.181  1.00  0.00     0.002 C 
ENDROOT
BRANCH   1   2
ATOM      2  C   UNL A   1      33.606  28.804  27.611  1.00  0.00     0.021 C 
BRANCH   2   3
ATOM      3  C   UNL A   1      32.166  29.090  27.196  1.00  0.00     0.116 C 
BRANCH   3   4
ATOM      4  N   UNL A   1      31.464  27.835  27.045  1.00  0.00    -0.356 N 
ATOM      5  C   UNL A   1      30.958  27.127  26.020  1.00  0.00     0.226 C 
ATOM      6  O   UNL A   1      30.115  26.294  26.388  1.00  0.00    -0.274 OA
ATOM      7  H   UNL A   1      31.320  27.386  27.910  1.00  0.00     0.163 HD
BRANCH   5   8
ATOM      8  C   UNL A   1      31.371  27.198  24.523  1.00  0.00     0.050 C 
ATOM      9  C   UNL A   1      33.219  25.301  26.047  1.00  0.00     0.012 C 
ATOM     10  C   UNL A   1      33.109  25.245  24.478  1.00  0.00    -0.025 C 
ATOM     11  C   UNL A   1      34.176  26.191  23.889  1.00  0.00     0.007 C 
ATOM     12  C   UNL A   1      31.706  25.731  23.972  1.00  0.00     0.010 C 
ATOM     13  C   UNL A   1      33.421  23.763  24.131  1.00  0.00     0.005 C 
ATOM     14  C   UNL A   1      33.961  27.652  24.278  1.00  0.00     0.002 C 
ATOM     15  C   UNL A   1      30.590  24.665  24.148  1.00  0.00     0.006 C 
ATOM     16  C   UNL A   1      32.233  22.733  24.272  1.00  0.00    -0.008 C 
ATOM     17  C   UNL A   1      34.450  23.230  23.141  1.00  0.00     0.006 C 
ATOM     18  C   UNL A   1      32.526  28.139  24.081  1.00  0.00     0.017 C 
ATOM     19  C   UNL A   1      30.086  27.795  23.874  1.00  0.00     0.022 C 
ATOM     20  C   UNL A   1      30.958  23.265  23.644  1.00  0.00     0.012 C 
ATOM     21  C   UNL A   1      32.216  22.384  25.732  1.00  0.00    -0.018 C 
ATOM     22  C   UNL A   1      32.633  21.316  23.787  1.00  0.00     0.019 C 
ATOM     23  C   UNL A   1      35.015  21.934  23.854  1.00  0.00     0.008 C 
ATOM     24  C   UNL A   1      33.322  21.647  25.975  1.00  0.00    -0.045 C 
ATOM     25  C   UNL A   1      33.905  21.120  24.630  1.00  0.00     0.018 C 
BRANCH  24  26
ATOM     26  C   UNL A   1      33.952  21.455  27.315  1.00  0.00     0.187 C 
BRANCH  26  27
ATOM     27  O   UNL A   1      35.154  22.220  27.437  1.00  0.00    -0.392 OA
ATOM     28  H   UNL A   1      35.227  22.831  26.687  1.00  0.00     0.211 HD
ENDBRANCH  26  27
ENDBRANCH  24  26
ENDBRANCH   5   8
ENDBRANCH   3   4
ENDBRANCH   2   3
ENDBRANCH   1   2
BRANCH   1  29
ATOM     29  C   UNL A   1      34.649  31.151  28.034  1.00  0.00     0.002 C 
BRANCH  29  30
ATOM     30  C   UNL A   1      33.499  32.124  27.786  1.00  0.00     0.021 C 
BRANCH  30  31
ATOM     31  C   UNL A   1      33.902  33.592  27.755  1.00  0.00     0.116 C 
BRANCH  31  32
ATOM     32  N   UNL A   1      33.279  34.376  28.806  1.00  0.00    -0.352 N 
ATOM     33  C   UNL A   1      33.652  34.461  30.123  1.00  0.00     0.251 C 
ATOM     34  H   UNL A   1      32.497  34.912  28.541  1.00  0.00     0.163 HD
ATOM     35  O   UNL A   1      32.961  35.068  30.939  1.00  0.00    -0.269 OA
BRANCH  33  36
ATOM     36  C   UNL A   1      34.884  33.777  30.559  1.00  0.00     0.039 A 
ATOM     37  C   UNL A   1      34.781  32.670  31.403  1.00  0.00     0.014 A 
ATOM     38  C   UNL A   1      36.133  34.196  30.086  1.00  0.00     0.014 A 
ATOM     39  C   UNL A   1      35.927  31.948  31.732  1.00  0.00     0.010 A 
ATOM     40  C   UNL A   1      37.261  33.429  30.350  1.00  0.00     0.010 A 
ATOM     41  C   UNL A   1      37.171  32.303  31.183  1.00  0.00    -0.014 A 
BRANCH  41  42
ATOM     42  C   UNL A   1      38.394  31.518  31.479  1.00  0.00     0.031 A 
ATOM     43  C   UNL A   1      39.287  31.924  32.618  1.00  0.00     0.074 A 
ATOM     44  C   UNL A   1      38.734  30.481  30.689  1.00  0.00     0.049 A 
ATOM     45  N   UNL A   1      40.431  31.410  32.996  1.00  0.00    -0.248 NA
ATOM     46  C   UNL A   1      38.851  33.077  33.424  1.00  0.00     0.031 C 
ATOM     47  C   UNL A   1      37.969  30.008  29.533  1.00  0.00     0.029 A 
ATOM     48  N   UNL A   1      39.818  29.640  30.736  1.00  0.00    -0.354 N 
ATOM     49  C   UNL A   1      40.855  32.186  34.068  1.00  0.00     0.074 A 
ATOM     50  C   UNL A   1      39.878  33.236  34.245  1.00  0.00     0.031 C 
ATOM     51  C   UNL A   1      38.592  28.945  28.999  1.00  0.00     0.029 A 
ATOM     52  C   UNL A   1      39.822  28.690  29.744  1.00  0.00     0.049 A 
ATOM     53  H   UNL A   1      40.525  29.711  31.417  1.00  0.00     0.167 HD
ATOM     54  C   UNL A   1      41.949  32.026  34.848  1.00  0.00     0.031 A 
ATOM     55  C   UNL A   1      40.719  27.727  29.461  1.00  0.00     0.031 A 
ATOM     56  C   UNL A   1      42.917  30.977  34.674  1.00  0.00     0.049 A 
ATOM     57  C   UNL A   1      41.941  27.587  30.325  1.00  0.00     0.074 A 
ATOM     58  C   UNL A   1      44.034  30.699  35.441  1.00  0.00     0.029 A 
ATOM     59  N   UNL A   1      42.884  30.034  33.658  1.00  0.00    -0.354 N 
ATOM     60  N   UNL A   1      42.296  28.289  31.374  1.00  0.00    -0.248 NA
ATOM     61  C   UNL A   1      42.880  26.513  29.973  1.00  0.00     0.031 C 
ATOM     62  C   UNL A   1      44.708  29.623  34.856  1.00  0.00     0.029 A 
ATOM     63  C   UNL A   1      43.975  29.189  33.763  1.00  0.00     0.049 A 
ATOM     64  H   UNL A   1      42.187  29.975  32.964  1.00  0.00     0.167 HD
ATOM     65  C   UNL A   1      43.481  27.722  31.827  1.00  0.00     0.074 A 
ATOM     66  C   UNL A   1      43.775  26.610  30.946  1.00  0.00     0.031 C 
ATOM     67  C   UNL A   1      44.253  28.086  32.880  1.00  0.00     0.031 A 
BRANCH  54  68
ATOM     68  C   UNL A   1      42.163  33.023  35.954  1.00  0.00    -0.014 A 
ATOM     69  C   UNL A   1      41.633  32.813  37.238  1.00  0.00     0.009 A 
ATOM     70  C   UNL A   1      42.930  34.173  35.718  1.00  0.00     0.009 A 
ATOM     71  C   UNL A   1      41.833  33.756  38.250  1.00  0.00     0.001 A 
ATOM     72  C   UNL A   1      43.158  35.098  36.740  1.00  0.00     0.001 A 
ATOM     73  C   UNL A   1      42.600  34.894  38.001  1.00  0.00     0.000 A 
ENDBRANCH  54  68
BRANCH  55  74
ATOM     74  C   UNL A   1      40.492  26.811  28.311  1.00  0.00    -0.014 A 
ATOM     75  C   UNL A   1      41.088  27.068  27.066  1.00  0.00     0.009 A 
ATOM     76  C   UNL A   1      39.670  25.682  28.447  1.00  0.00     0.009 A 
ATOM     77  C   UNL A   1      40.844  26.230  25.976  1.00  0.00     0.001 A 
ATOM     78  C   UNL A   1      39.453  24.827  27.364  1.00  0.00     0.001 A 
ATOM     79  C   UNL A   1      40.031  25.108  26.127  1.00  0.00     0.000 A 
ENDBRANCH  55  74
BRANCH  67  80
ATOM     80  C   UNL A   1      45.467  27.247  33.167  1.00  0.00    -0.014 A 
ATOM     81  C   UNL A   1      45.386  26.076  33.936  1.00  0.00     0.009 A 
ATOM     82  C   UNL A   1      46.705  27.614  32.615  1.00  0.00     0.009 A 
ATOM     83  C   UNL A   1      46.527  25.308  34.173  1.00  0.00     0.001 A 
ATOM     84  C   UNL A   1      47.837  26.827  32.827  1.00  0.00     0.001 A 
ATOM     85  C   UNL A   1      47.750  25.680  33.614  1.00  0.00     0.000 A 
ENDBRANCH  67  80
ENDBRANCH  41  42
ENDBRANCH  33  36
ENDBRANCH  31  32
ENDBRANCH  30  31
ENDBRANCH  29  30
ENDBRANCH   1  29
TORSDOF 15
ENDMDL
