MODEL 1
REMARK VINA RESULT:     -11.9      0.000      0.000
REMARK SMILES Cc1ccc(-c2cc(C(=O)NCCCCCCNC(=O)c3ccc(-c4c5nc(c(-c6ccccc6)c6ccc([nH]6)c(-c6ccccc6)c6nc(c(-c7ccccc7)c7ccc4[nH]7)C=C6)C=C5)cc3)c3cc(C)ccc3n2)c(C)c1
REMARK SMILES IDX 15 1 14 2 13 3 12 4 11 5 9 6 10 7 8 9 6 10 7 11 76 12 75 13
REMARK SMILES IDX 69 14 74 15 70 16 73 17 71 18 72 19 5 20 1 21 2 22 3 23
REMARK SMILES IDX 79 24 4 25 77 26 78 27 16 28 17 29 18 30 19 31 20 33 21 34
REMARK SMILES IDX 22 35 68 36 23 37 67 38 24 39 25 40 26 41 61 42 27 43 66 44
REMARK SMILES IDX 60 45 62 46 28 47 65 48 59 49 58 50 29 52 51 53 36 54 50 55
REMARK SMILES IDX 37 56 40 57 49 58 63 59 38 60 39 61 48 63 64 64 41 65 30 66
REMARK SMILES IDX 31 67 35 68 32 69 34 70 33 71 52 72 53 73 57 74 54 75 56 76
REMARK SMILES IDX 55 77 42 78 43 79 47 80 44 81 46 82 45 83
REMARK H PARENT 11 8 18 32 62 51 40 62
REMARK Flexibility Score: inf
ROOT
ATOM      1  C   UNL A   1      32.447  29.407  25.215  1.00  0.00     0.002 C 
ENDROOT
BRANCH   1   2
ATOM      2  C   UNL A   1      31.282  29.188  24.241  1.00  0.00     0.002 C 
BRANCH   2   3
ATOM      3  C   UNL A   1      31.606  28.971  22.760  1.00  0.00     0.021 C 
BRANCH   3   4
ATOM      4  C   UNL A   1      33.017  28.512  22.422  1.00  0.00     0.116 C 
BRANCH   4   5
ATOM      5  N   UNL A   1      33.156  27.477  21.417  1.00  0.00    -0.352 N 
ATOM      6  C   UNL A   1      33.088  26.100  21.532  1.00  0.00     0.252 C 
ATOM      7  O   UNL A   1      33.144  25.437  20.494  1.00  0.00    -0.269 OA
ATOM      8  H   UNL A   1      33.327  27.807  20.505  1.00  0.00     0.163 HD
BRANCH   6   9
ATOM      9  C   UNL A   1      33.064  25.369  22.841  1.00  0.00     0.051 A 
ATOM     10  C   UNL A   1      34.374  24.152  24.442  1.00  0.00     0.072 A 
ATOM     11  C   UNL A   1      34.270  24.744  23.194  1.00  0.00     0.043 A 
ATOM     12  N   UNL A   1      33.407  24.277  25.377  1.00  0.00    -0.248 NA
ATOM     13  C   UNL A   1      32.245  24.847  25.037  1.00  0.00     0.072 A 
ATOM     14  C   UNL A   1      31.970  25.294  23.734  1.00  0.00     0.013 A 
ATOM     15  C   UNL A   1      31.279  25.005  26.020  1.00  0.00     0.029 A 
ATOM     16  C   UNL A   1      30.636  25.639  23.428  1.00  0.00     0.014 A 
ATOM     17  C   UNL A   1      30.036  25.577  25.744  1.00  0.00     0.005 A 
ATOM     18  C   UNL A   1      29.695  25.880  24.432  1.00  0.00    -0.050 A 
ATOM     19  C   UNL A   1      28.420  26.602  24.110  1.00  0.00     0.044 C 
BRANCH  10  20
ATOM     20  C   UNL A   1      35.502  23.286  24.819  1.00  0.00     0.003 A 
ATOM     21  C   UNL A   1      38.840  20.776  25.989  1.00  0.00     0.044 C 
ATOM     22  C   UNL A   1      37.697  21.658  25.582  1.00  0.00    -0.051 A 
ATOM     23  C   UNL A   1      37.804  23.049  25.613  1.00  0.00     0.004 A 
ATOM     24  C   UNL A   1      36.493  21.081  25.165  1.00  0.00     0.007 A 
ATOM     25  C   UNL A   1      36.720  23.852  25.237  1.00  0.00     0.011 A 
ATOM     26  C   UNL A   1      35.400  21.875  24.773  1.00  0.00    -0.041 A 
ATOM     27  C   UNL A   1      34.145  21.155  24.347  1.00  0.00     0.045 C 
ENDBRANCH  10  20
ENDBRANCH   6   9
ENDBRANCH   4   5
ENDBRANCH   3   4
ENDBRANCH   2   3
ENDBRANCH   1   2
BRANCH   1  28
ATOM     28  C   UNL A   1      32.626  28.401  26.355  1.00  0.00     0.021 C 
BRANCH  28  29
ATOM     29  C   UNL A   1      33.749  28.682  27.346  1.00  0.00     0.116 C 
BRANCH  29  30
ATOM     30  N   UNL A   1      33.768  30.057  27.812  1.00  0.00    -0.352 N 
ATOM     31  C   UNL A   1      34.765  30.762  28.439  1.00  0.00     0.251 C 
ATOM     32  H   UNL A   1      32.938  30.561  27.654  1.00  0.00     0.163 HD
ATOM     33  O   UNL A   1      34.536  31.889  28.874  1.00  0.00    -0.269 OA
BRANCH  31  34
ATOM     34  C   UNL A   1      36.108  30.168  28.627  1.00  0.00     0.039 A 
ATOM     35  C   UNL A   1      37.008  30.196  27.558  1.00  0.00     0.014 A 
ATOM     36  C   UNL A   1      36.479  29.571  29.835  1.00  0.00     0.014 A 
ATOM     37  C   UNL A   1      38.304  29.697  27.724  1.00  0.00     0.010 A 
ATOM     38  C   UNL A   1      37.791  29.136  30.021  1.00  0.00     0.010 A 
ATOM     39  C   UNL A   1      38.720  29.202  28.970  1.00  0.00    -0.014 A 
BRANCH  39  40
ATOM     40  C   UNL A   1      40.124  28.771  29.199  1.00  0.00     0.031 A 
ATOM     41  C   UNL A   1      41.124  29.719  29.802  1.00  0.00     0.074 A 
ATOM     42  C   UNL A   1      40.515  27.541  28.807  1.00  0.00     0.049 A 
ATOM     43  N   UNL A   1      42.408  29.551  29.995  1.00  0.00    -0.248 NA
ATOM     44  C   UNL A   1      40.619  31.035  30.227  1.00  0.00     0.031 C 
ATOM     45  C   UNL A   1      39.652  26.533  28.188  1.00  0.00     0.029 A 
ATOM     46  N   UNL A   1      41.745  26.934  28.861  1.00  0.00    -0.354 N 
ATOM     47  C   UNL A   1      42.863  30.736  30.561  1.00  0.00     0.074 A 
ATOM     48  C   UNL A   1      41.731  31.635  30.629  1.00  0.00     0.031 C 
ATOM     49  C   UNL A   1      40.375  25.431  27.934  1.00  0.00     0.029 A 
ATOM     50  C   UNL A   1      41.759  25.668  28.325  1.00  0.00     0.049 A 
ATOM     51  H   UNL A   1      42.543  27.364  29.248  1.00  0.00     0.167 HD
ATOM     52  C   UNL A   1      44.105  31.041  31.007  1.00  0.00     0.031 A 
ATOM     53  C   UNL A   1      42.777  24.803  28.147  1.00  0.00     0.031 A 
ATOM     54  C   UNL A   1      45.235  30.152  30.935  1.00  0.00     0.049 A 
ATOM     55  C   UNL A   1      44.159  25.193  28.594  1.00  0.00     0.074 A 
ATOM     56  C   UNL A   1      46.528  30.364  31.382  1.00  0.00     0.029 A 
ATOM     57  N   UNL A   1      45.206  28.883  30.379  1.00  0.00    -0.354 N 
ATOM     58  N   UNL A   1      44.559  26.296  29.178  1.00  0.00    -0.248 NA
ATOM     59  C   UNL A   1      45.231  24.213  28.363  1.00  0.00     0.031 C 
ATOM     60  C   UNL A   1      47.295  29.244  31.047  1.00  0.00     0.029 A 
ATOM     61  C   UNL A   1      46.465  28.311  30.448  1.00  0.00     0.049 A 
ATOM     62  H   UNL A   1      44.410  28.453  29.992  1.00  0.00     0.167 HD
ATOM     63  C   UNL A   1      45.919  26.131  29.408  1.00  0.00     0.074 A 
ATOM     64  C   UNL A   1      46.271  24.814  28.922  1.00  0.00     0.031 C 
ATOM     65  C   UNL A   1      46.799  26.996  29.967  1.00  0.00     0.031 A 
BRANCH  52  66
ATOM     66  C   UNL A   1      44.310  32.399  31.621  1.00  0.00    -0.014 A 
ATOM     67  C   UNL A   1      44.661  33.504  30.829  1.00  0.00     0.009 A 
ATOM     68  C   UNL A   1      44.093  32.591  32.995  1.00  0.00     0.009 A 
ATOM     69  C   UNL A   1      44.820  34.766  31.404  1.00  0.00     0.001 A 
ATOM     70  C   UNL A   1      44.223  33.861  33.561  1.00  0.00     0.001 A 
ATOM     71  C   UNL A   1      44.595  34.944  32.767  1.00  0.00     0.000 A 
ENDBRANCH  52  66
BRANCH  53  72
ATOM     72  C   UNL A   1      42.540  23.487  27.493  1.00  0.00    -0.014 A 
ATOM     73  C   UNL A   1      42.128  22.375  28.243  1.00  0.00     0.009 A 
ATOM     74  C   UNL A   1      42.768  23.326  26.117  1.00  0.00     0.009 A 
ATOM     75  C   UNL A   1      41.989  21.123  27.637  1.00  0.00     0.001 A 
ATOM     76  C   UNL A   1      42.594  22.082  25.508  1.00  0.00     0.001 A 
ATOM     77  C   UNL A   1      42.218  20.978  26.271  1.00  0.00     0.000 A 
ENDBRANCH  53  72
BRANCH  65  78
ATOM     78  C   UNL A   1      48.222  26.533  30.119  1.00  0.00    -0.014 A 
ATOM     79  C   UNL A   1      48.642  25.829  31.258  1.00  0.00     0.009 A 
ATOM     80  C   UNL A   1      49.141  26.761  29.083  1.00  0.00     0.009 A 
ATOM     81  C   UNL A   1      49.962  25.390  31.369  1.00  0.00     0.001 A 
ATOM     82  C   UNL A   1      50.452  26.293  29.183  1.00  0.00     0.001 A 
ATOM     83  C   UNL A   1      50.864  25.615  30.330  1.00  0.00     0.000 A 
ENDBRANCH  65  78
ENDBRANCH  39  40
ENDBRANCH  31  34
ENDBRANCH  29  30
ENDBRANCH  28  29
ENDBRANCH   1  28
TORSDOF 14
ENDMDL
MODEL 2
REMARK VINA RESULT:     -11.6      3.250      4.905
REMARK SMILES Cc1ccc(-c2cc(C(=O)NCCCCCCNC(=O)c3ccc(-c4c5nc(c(-c6ccccc6)c6ccc([nH]6)c(-c6ccccc6)c6nc(c(-c7ccccc7)c7ccc4[nH]7)C=C6)C=C5)cc3)c3cc(C)ccc3n2)c(C)c1
REMARK SMILES IDX 15 1 14 2 13 3 12 4 11 5 9 6 10 7 8 9 6 10 7 11 76 12 75 13
REMARK SMILES IDX 69 14 74 15 70 16 73 17 71 18 72 19 5 20 1 21 2 22 3 23
REMARK SMILES IDX 79 24 4 25 77 26 78 27 16 28 17 29 18 30 19 31 20 33 21 34
REMARK SMILES IDX 22 35 68 36 23 37 67 38 24 39 25 40 26 41 61 42 27 43 66 44
REMARK SMILES IDX 60 45 62 46 28 47 65 48 59 49 58 50 29 52 51 53 36 54 50 55
REMARK SMILES IDX 37 56 40 57 49 58 63 59 38 60 39 61 48 63 64 64 41 65 30 66
REMARK SMILES IDX 31 67 35 68 32 69 34 70 33 71 52 72 53 73 57 74 54 75 56 76
REMARK SMILES IDX 55 77 42 78 43 79 47 80 44 81 46 82 45 83
REMARK H PARENT 11 8 18 32 62 51 40 62
REMARK Flexibility Score: inf
ROOT
ATOM      1  C   UNL A   1      31.472  30.844  25.862  1.00  0.00     0.002 C 
ENDROOT
BRANCH   1   2
ATOM      2  C   UNL A   1      31.768  29.655  26.785  1.00  0.00     0.002 C 
BRANCH   2   3
ATOM      3  C   UNL A   1      33.228  29.358  27.140  1.00  0.00     0.021 C 
BRANCH   3   4
ATOM      4  C   UNL A   1      33.933  28.285  26.324  1.00  0.00     0.116 C 
BRANCH   4   5
ATOM      5  N   UNL A   1      34.277  28.609  24.954  1.00  0.00    -0.352 N 
ATOM      6  C   UNL A   1      33.613  28.330  23.773  1.00  0.00     0.252 C 
ATOM      7  O   UNL A   1      34.072  28.808  22.734  1.00  0.00    -0.269 OA
ATOM      8  H   UNL A   1      35.119  29.107  24.846  1.00  0.00     0.163 HD
BRANCH   6   9
ATOM      9  C   UNL A   1      32.443  27.397  23.669  1.00  0.00     0.051 A 
ATOM     10  C   UNL A   1      31.677  25.152  24.033  1.00  0.00     0.072 A 
ATOM     11  C   UNL A   1      32.723  26.058  23.982  1.00  0.00     0.043 A 
ATOM     12  N   UNL A   1      30.387  25.541  23.929  1.00  0.00    -0.248 NA
ATOM     13  C   UNL A   1      30.116  26.810  23.603  1.00  0.00     0.072 A 
ATOM     14  C   UNL A   1      31.119  27.755  23.329  1.00  0.00     0.013 A 
ATOM     15  C   UNL A   1      28.787  27.203  23.541  1.00  0.00     0.029 A 
ATOM     16  C   UNL A   1      30.723  28.981  22.751  1.00  0.00     0.014 A 
ATOM     17  C   UNL A   1      28.419  28.504  23.195  1.00  0.00     0.005 A 
ATOM     18  C   UNL A   1      29.391  29.403  22.774  1.00  0.00    -0.050 A 
ATOM     19  C   UNL A   1      29.053  30.840  22.507  1.00  0.00     0.044 C 
BRANCH  10  20
ATOM     20  C   UNL A   1      31.887  23.699  24.128  1.00  0.00     0.003 A 
ATOM     21  C   UNL A   1      32.564  19.421  24.357  1.00  0.00     0.044 C 
ATOM     22  C   UNL A   1      32.326  20.899  24.260  1.00  0.00    -0.051 A 
ATOM     23  C   UNL A   1      32.337  21.559  23.031  1.00  0.00     0.004 A 
ATOM     24  C   UNL A   1      32.091  21.639  25.423  1.00  0.00     0.007 A 
ATOM     25  C   UNL A   1      32.121  22.941  22.966  1.00  0.00     0.011 A 
ATOM     26  C   UNL A   1      31.861  23.026  25.373  1.00  0.00    -0.041 A 
ATOM     27  C   UNL A   1      31.625  23.733  26.684  1.00  0.00     0.045 C 
ENDBRANCH  10  20
ENDBRANCH   6   9
ENDBRANCH   4   5
ENDBRANCH   3   4
ENDBRANCH   2   3
ENDBRANCH   1   2
BRANCH   1  28
ATOM     28  C   UNL A   1      31.304  32.223  26.504  1.00  0.00     0.021 C 
BRANCH  28  29
ATOM     29  C   UNL A   1      32.551  32.851  27.115  1.00  0.00     0.116 C 
BRANCH  29  30
ATOM     30  N   UNL A   1      32.325  34.194  27.620  1.00  0.00    -0.352 N 
ATOM     31  C   UNL A   1      32.996  34.894  28.591  1.00  0.00     0.251 C 
ATOM     32  H   UNL A   1      31.577  34.675  27.200  1.00  0.00     0.163 HD
ATOM     33  O   UNL A   1      32.564  35.983  28.967  1.00  0.00    -0.269 OA
BRANCH  31  34
ATOM     34  C   UNL A   1      34.218  34.340  29.216  1.00  0.00     0.039 A 
ATOM     35  C   UNL A   1      34.098  33.648  30.424  1.00  0.00     0.014 A 
ATOM     36  C   UNL A   1      35.477  34.509  28.633  1.00  0.00     0.014 A 
ATOM     37  C   UNL A   1      35.225  33.062  31.007  1.00  0.00     0.010 A 
ATOM     38  C   UNL A   1      36.587  33.867  29.178  1.00  0.00     0.010 A 
ATOM     39  C   UNL A   1      36.472  33.130  30.367  1.00  0.00    -0.014 A 
BRANCH  39  40
ATOM     40  C   UNL A   1      37.658  32.419  30.912  1.00  0.00     0.031 A 
ATOM     41  C   UNL A   1      38.379  32.953  32.120  1.00  0.00     0.074 A 
ATOM     42  C   UNL A   1      38.125  31.321  30.281  1.00  0.00     0.049 A 
ATOM     43  N   UNL A   1      39.479  32.519  32.683  1.00  0.00    -0.248 NA
ATOM     44  C   UNL A   1      37.798  34.139  32.769  1.00  0.00     0.031 C 
ATOM     45  C   UNL A   1      37.534  30.714  29.087  1.00  0.00     0.029 A 
ATOM     46  N   UNL A   1      39.212  30.528  30.552  1.00  0.00    -0.354 N 
ATOM     47  C   UNL A   1      39.721  33.378  33.748  1.00  0.00     0.074 A 
ATOM     48  C   UNL A   1      38.687  34.390  33.720  1.00  0.00     0.031 C 
ATOM     49  C   UNL A   1      38.257  29.637  28.738  1.00  0.00     0.029 A 
ATOM     50  C   UNL A   1      39.387  29.505  29.650  1.00  0.00     0.049 A 
ATOM     51  H   UNL A   1      39.812  30.678  31.319  1.00  0.00     0.167 HD
ATOM     52  C   UNL A   1      40.702  33.317  34.681  1.00  0.00     0.031 A 
ATOM     53  C   UNL A   1      40.360  28.578  29.554  1.00  0.00     0.031 A 
ATOM     54  C   UNL A   1      41.735  32.316  34.708  1.00  0.00     0.049 A 
ATOM     55  C   UNL A   1      41.472  28.573  30.567  1.00  0.00     0.074 A 
ATOM     56  C   UNL A   1      42.759  32.159  35.627  1.00  0.00     0.029 A 
ATOM     57  N   UNL A   1      41.878  31.303  33.773  1.00  0.00    -0.354 N 
ATOM     58  N   UNL A   1      41.653  29.359  31.599  1.00  0.00    -0.248 NA
ATOM     59  C   UNL A   1      42.511  27.546  30.403  1.00  0.00     0.031 C 
ATOM     60  C   UNL A   1      43.553  31.084  35.217  1.00  0.00     0.029 A 
ATOM     61  C   UNL A   1      42.988  30.534  34.079  1.00  0.00     0.049 A 
ATOM     62  H   UNL A   1      41.280  31.154  33.005  1.00  0.00     0.167 HD
ATOM     63  C   UNL A   1      42.809  28.904  32.223  1.00  0.00     0.074 A 
ATOM     64  C   UNL A   1      43.272  27.761  31.466  1.00  0.00     0.031 C 
ATOM     65  C   UNL A   1      43.433  29.394  33.321  1.00  0.00     0.031 A 
BRANCH  52  66
ATOM     66  C   UNL A   1      40.702  34.365  35.759  1.00  0.00    -0.014 A 
ATOM     67  C   UNL A   1      41.382  35.581  35.585  1.00  0.00     0.009 A 
ATOM     68  C   UNL A   1      39.967  34.163  36.939  1.00  0.00     0.009 A 
ATOM     69  C   UNL A   1      41.352  36.559  36.580  1.00  0.00     0.001 A 
ATOM     70  C   UNL A   1      39.914  35.156  37.919  1.00  0.00     0.001 A 
ATOM     71  C   UNL A   1      40.613  36.349  37.742  1.00  0.00     0.000 A 
ENDBRANCH  52  66
BRANCH  53  72
ATOM     72  C   UNL A   1      40.348  27.587  28.443  1.00  0.00    -0.014 A 
ATOM     73  C   UNL A   1      39.719  26.342  28.598  1.00  0.00     0.009 A 
ATOM     74  C   UNL A   1      41.005  27.866  27.234  1.00  0.00     0.009 A 
ATOM     75  C   UNL A   1      39.783  25.384  27.582  1.00  0.00     0.001 A 
ATOM     76  C   UNL A   1      41.037  26.920  26.207  1.00  0.00     0.001 A 
ATOM     77  C   UNL A   1      40.439  25.675  26.388  1.00  0.00     0.000 A 
ENDBRANCH  53  72
BRANCH  65  78
ATOM     78  C   UNL A   1      44.665  28.673  33.795  1.00  0.00    -0.014 A 
ATOM     79  C   UNL A   1      45.945  29.057  33.365  1.00  0.00     0.009 A 
ATOM     80  C   UNL A   1      44.545  27.629  34.724  1.00  0.00     0.009 A 
ATOM     81  C   UNL A   1      47.077  28.389  33.834  1.00  0.00     0.001 A 
ATOM     82  C   UNL A   1      45.680  26.983  35.216  1.00  0.00     0.001 A 
ATOM     83  C   UNL A   1      46.944  27.357  34.764  1.00  0.00     0.000 A 
ENDBRANCH  65  78
ENDBRANCH  39  40
ENDBRANCH  31  34
ENDBRANCH  29  30
ENDBRANCH  28  29
ENDBRANCH   1  28
TORSDOF 14
ENDMDL
MODEL 3
REMARK VINA RESULT:     -11.6      2.167      7.452
REMARK SMILES Cc1ccc(-c2cc(C(=O)NCCCCCCNC(=O)c3ccc(-c4c5nc(c(-c6ccccc6)c6ccc([nH]6)c(-c6ccccc6)c6nc(c(-c7ccccc7)c7ccc4[nH]7)C=C6)C=C5)cc3)c3cc(C)ccc3n2)c(C)c1
REMARK SMILES IDX 15 1 14 2 13 3 12 4 11 5 9 6 10 7 8 9 6 10 7 11 76 12 75 13
REMARK SMILES IDX 69 14 74 15 70 16 73 17 71 18 72 19 5 20 1 21 2 22 3 23
REMARK SMILES IDX 79 24 4 25 77 26 78 27 16 28 17 29 18 30 19 31 20 33 21 34
REMARK SMILES IDX 22 35 68 36 23 37 67 38 24 39 25 40 26 41 61 42 27 43 66 44
REMARK SMILES IDX 60 45 62 46 28 47 65 48 59 49 58 50 29 52 51 53 36 54 50 55
REMARK SMILES IDX 37 56 40 57 49 58 63 59 38 60 39 61 48 63 64 64 41 65 30 66
REMARK SMILES IDX 31 67 35 68 32 69 34 70 33 71 52 72 53 73 57 74 54 75 56 76
REMARK SMILES IDX 55 77 42 78 43 79 47 80 44 81 46 82 45 83
REMARK H PARENT 11 8 18 32 62 51 40 62
REMARK Flexibility Score: inf
ROOT
ATOM      1  C   UNL A   1      35.730  21.449  25.027  1.00  0.00     0.002 C 
ENDROOT
BRANCH   1   2
ATOM      2  C   UNL A   1      35.830  22.548  26.093  1.00  0.00     0.002 C 
BRANCH   2   3
ATOM      3  C   UNL A   1      34.585  22.868  26.924  1.00  0.00     0.021 C 
BRANCH   3   4
ATOM      4  C   UNL A   1      33.591  21.737  27.143  1.00  0.00     0.116 C 
BRANCH   4   5
ATOM      5  N   UNL A   1      32.261  22.097  27.592  1.00  0.00    -0.352 N 
ATOM      6  C   UNL A   1      31.355  23.006  27.074  1.00  0.00     0.252 C 
ATOM      7  O   UNL A   1      30.238  23.056  27.590  1.00  0.00    -0.269 OA
ATOM      8  H   UNL A   1      31.952  21.619  28.395  1.00  0.00     0.163 HD
BRANCH   6   9
ATOM      9  C   UNL A   1      31.688  24.003  26.004  1.00  0.00     0.051 A 
ATOM     10  C   UNL A   1      32.191  26.304  25.543  1.00  0.00     0.072 A 
ATOM     11  C   UNL A   1      31.768  25.335  26.437  1.00  0.00     0.043 A 
ATOM     12  N   UNL A   1      32.659  25.990  24.315  1.00  0.00    -0.248 NA
ATOM     13  C   UNL A   1      32.559  24.727  23.886  1.00  0.00     0.072 A 
ATOM     14  C   UNL A   1      31.954  23.711  24.646  1.00  0.00     0.013 A 
ATOM     15  C   UNL A   1      33.082  24.413  22.640  1.00  0.00     0.029 A 
ATOM     16  C   UNL A   1      31.675  22.487  24.000  1.00  0.00     0.014 A 
ATOM     17  C   UNL A   1      33.006  23.122  22.114  1.00  0.00     0.005 A 
ATOM     18  C   UNL A   1      32.278  22.148  22.786  1.00  0.00    -0.050 A 
ATOM     19  C   UNL A   1      32.270  20.724  22.315  1.00  0.00     0.044 C 
BRANCH  10  20
ATOM     20  C   UNL A   1      32.095  27.744  25.827  1.00  0.00     0.003 A 
ATOM     21  C   UNL A   1      31.885  31.992  26.680  1.00  0.00     0.044 C 
ATOM     22  C   UNL A   1      31.963  30.520  26.402  1.00  0.00    -0.051 A 
ATOM     23  C   UNL A   1      32.720  29.666  27.205  1.00  0.00     0.004 A 
ATOM     24  C   UNL A   1      31.269  29.984  25.313  1.00  0.00     0.007 A 
ATOM     25  C   UNL A   1      32.786  28.297  26.921  1.00  0.00     0.011 A 
ATOM     26  C   UNL A   1      31.315  28.608  25.022  1.00  0.00    -0.041 A 
ATOM     27  C   UNL A   1      30.536  28.132  23.822  1.00  0.00     0.045 C 
ENDBRANCH  10  20
ENDBRANCH   6   9
ENDBRANCH   4   5
ENDBRANCH   3   4
ENDBRANCH   2   3
ENDBRANCH   1   2
BRANCH   1  28
ATOM     28  C   UNL A   1      36.869  20.430  24.941  1.00  0.00     0.021 C 
BRANCH  28  29
ATOM     29  C   UNL A   1      38.242  20.897  25.409  1.00  0.00     0.116 C 
BRANCH  29  30
ATOM     30  N   UNL A   1      39.216  19.822  25.483  1.00  0.00    -0.352 N 
ATOM     31  C   UNL A   1      40.516  19.839  25.924  1.00  0.00     0.251 C 
ATOM     32  H   UNL A   1      38.894  18.947  25.169  1.00  0.00     0.163 HD
ATOM     33  O   UNL A   1      41.222  18.842  25.784  1.00  0.00    -0.269 OA
BRANCH  31  34
ATOM     34  C   UNL A   1      41.089  21.057  26.539  1.00  0.00     0.039 A 
ATOM     35  C   UNL A   1      41.696  22.005  25.709  1.00  0.00     0.014 A 
ATOM     36  C   UNL A   1      41.050  21.265  27.920  1.00  0.00     0.014 A 
ATOM     37  C   UNL A   1      42.193  23.192  26.254  1.00  0.00     0.010 A 
ATOM     38  C   UNL A   1      41.484  22.478  28.453  1.00  0.00     0.010 A 
ATOM     39  C   UNL A   1      42.052  23.458  27.625  1.00  0.00    -0.014 A 
BRANCH  39  40
ATOM     40  C   UNL A   1      42.472  24.761  28.204  1.00  0.00     0.031 A 
ATOM     41  C   UNL A   1      41.471  25.866  28.402  1.00  0.00     0.074 A 
ATOM     42  C   UNL A   1      43.772  24.971  28.499  1.00  0.00     0.049 A 
ATOM     43  N   UNL A   1      41.667  27.095  28.810  1.00  0.00    -0.248 NA
ATOM     44  C   UNL A   1      40.068  25.556  28.081  1.00  0.00     0.031 C 
ATOM     45  C   UNL A   1      44.848  23.992  28.333  1.00  0.00     0.029 A 
ATOM     46  N   UNL A   1      44.410  26.084  28.989  1.00  0.00    -0.354 N 
ATOM     47  C   UNL A   1      40.418  27.702  28.794  1.00  0.00     0.074 A 
ATOM     48  C   UNL A   1      39.479  26.727  28.283  1.00  0.00     0.031 C 
ATOM     49  C   UNL A   1      46.008  24.542  28.728  1.00  0.00     0.029 A 
ATOM     50  C   UNL A   1      45.768  25.924  29.128  1.00  0.00     0.049 A 
ATOM     51  H   UNL A   1      43.940  26.918  29.220  1.00  0.00     0.167 HD
ATOM     52  C   UNL A   1      40.077  28.952  29.192  1.00  0.00     0.031 A 
ATOM     53  C   UNL A   1      46.719  26.798  29.513  1.00  0.00     0.031 A 
ATOM     54  C   UNL A   1      41.009  29.926  29.694  1.00  0.00     0.049 A 
ATOM     55  C   UNL A   1      46.320  28.199  29.888  1.00  0.00     0.074 A 
ATOM     56  C   UNL A   1      40.753  31.211  30.143  1.00  0.00     0.029 A 
ATOM     57  N   UNL A   1      42.374  29.726  29.812  1.00  0.00    -0.354 N 
ATOM     58  N   UNL A   1      45.125  28.738  29.920  1.00  0.00    -0.248 NA
ATOM     59  C   UNL A   1      47.402  29.111  30.288  1.00  0.00     0.031 C 
ATOM     60  C   UNL A   1      41.972  31.806  30.482  1.00  0.00     0.029 A 
ATOM     61  C   UNL A   1      42.978  30.871  30.302  1.00  0.00     0.049 A 
ATOM     62  H   UNL A   1      42.845  28.893  29.581  1.00  0.00     0.167 HD
ATOM     63  C   UNL A   1      45.309  30.040  30.368  1.00  0.00     0.074 A 
ATOM     64  C   UNL A   1      46.726  30.202  30.618  1.00  0.00     0.031 C 
ATOM     65  C   UNL A   1      44.389  31.016  30.552  1.00  0.00     0.031 A 
BRANCH  52  66
ATOM     66  C   UNL A   1      38.626  29.338  29.104  1.00  0.00    -0.014 A 
ATOM     67  C   UNL A   1      37.778  29.221  30.218  1.00  0.00     0.009 A 
ATOM     68  C   UNL A   1      38.112  29.879  27.915  1.00  0.00     0.009 A 
ATOM     69  C   UNL A   1      36.440  29.610  30.133  1.00  0.00     0.001 A 
ATOM     70  C   UNL A   1      36.780  30.296  27.843  1.00  0.00     0.001 A 
ATOM     71  C   UNL A   1      35.945  30.152  28.949  1.00  0.00     0.000 A 
ENDBRANCH  52  66
BRANCH  53  72
ATOM     72  C   UNL A   1      48.150  26.389  29.541  1.00  0.00    -0.014 A 
ATOM     73  C   UNL A   1      48.710  25.811  30.692  1.00  0.00     0.009 A 
ATOM     74  C   UNL A   1      48.976  26.615  28.429  1.00  0.00     0.009 A 
ATOM     75  C   UNL A   1      50.073  25.508  30.740  1.00  0.00     0.001 A 
ATOM     76  C   UNL A   1      50.330  26.277  28.468  1.00  0.00     0.001 A 
ATOM     77  C   UNL A   1      50.881  25.737  29.629  1.00  0.00     0.000 A 
ENDBRANCH  53  72
BRANCH  65  78
ATOM     78  C   UNL A   1      44.876  32.336  31.083  1.00  0.00    -0.014 A 
ATOM     79  C   UNL A   1      45.072  32.541  32.457  1.00  0.00     0.009 A 
ATOM     80  C   UNL A   1      45.191  33.371  30.189  1.00  0.00     0.009 A 
ATOM     81  C   UNL A   1      45.546  33.768  32.926  1.00  0.00     0.001 A 
ATOM     82  C   UNL A   1      45.694  34.585  30.658  1.00  0.00     0.001 A 
ATOM     83  C   UNL A   1      45.863  34.785  32.027  1.00  0.00     0.000 A 
ENDBRANCH  65  78
ENDBRANCH  39  40
ENDBRANCH  31  34
ENDBRANCH  29  30
ENDBRANCH  28  29
ENDBRANCH   1  28
TORSDOF 14
ENDMDL
