MODEL 1
REMARK VINA RESULT:     -10.7      0.000      0.000
REMARK SMILES COCCS(=O)(=O)Cc1c(C(=O)NCCCCCCNC(=O)c2ccc(-c3c4nc(c(-c5ccccc5)c5ccc([nH]5)c(-c5ccccc5)c5nc(c(-c6ccccc6)c6ccc3[nH]6)C=C5)C=C4)cc2)oc2ccccc12
REMARK SMILES IDX 15 1 14 2 13 3 11 4 12 5 10 7 9 8 77 9 71 10 72 11 76 12
REMARK SMILES IDX 73 13 75 14 74 15 8 16 5 17 6 18 7 19 4 20 3 21 2 22 1 23
REMARK SMILES IDX 16 24 17 25 18 26 19 27 20 28 21 29 22 31 23 32 24 33 70 34
REMARK SMILES IDX 25 35 69 36 26 37 27 38 28 39 63 40 29 41 68 42 62 43 64 44
REMARK SMILES IDX 30 45 67 46 61 47 60 48 31 50 53 51 38 52 52 53 39 54 42 55
REMARK SMILES IDX 51 56 65 57 40 58 41 59 50 61 66 62 43 63 32 64 33 65 37 66
REMARK SMILES IDX 34 67 36 68 35 69 54 70 55 71 59 72 56 73 58 74 57 75 44 76
REMARK SMILES IDX 45 77 49 78 46 79 48 80 47 81
REMARK H PARENT 13 6 20 30 64 49 42 60
REMARK Flexibility Score: inf
ROOT
ATOM      1  C   UNL A   1      31.790  28.278  27.395  1.00  0.00     0.021 C 
ENDROOT
BRANCH   1   2
ATOM      2  C   UNL A   1      32.437  27.138  26.612  1.00  0.00     0.116 C 
BRANCH   2   3
ATOM      3  N   UNL A   1      31.592  25.966  26.680  1.00  0.00    -0.349 N 
ATOM      4  C   UNL A   1      31.713  24.746  26.086  1.00  0.00     0.287 C 
ATOM      5  O   UNL A   1      30.672  24.094  25.985  1.00  0.00    -0.266 OA
ATOM      6  H   UNL A   1      30.796  26.067  27.250  1.00  0.00     0.163 HD
BRANCH   4   7
ATOM      7  C   UNL A   1      32.999  24.207  25.702  1.00  0.00     0.196 A 
ATOM      8  C   UNL A   1      33.863  24.545  24.660  1.00  0.00     0.027 A 
ATOM      9  C   UNL A   1      34.940  23.584  24.730  1.00  0.00     0.025 A 
ATOM     10  O   UNL A   1      33.485  23.125  26.367  1.00  0.00    -0.451 OA
ATOM     11  C   UNL A   1      34.658  22.766  25.811  1.00  0.00     0.135 A 
ATOM     12  C   UNL A   1      36.127  23.324  24.017  1.00  0.00     0.012 A 
ATOM     13  C   UNL A   1      35.462  21.725  26.268  1.00  0.00     0.048 A 
ATOM     14  C   UNL A   1      36.957  22.269  24.437  1.00  0.00     0.001 A 
ATOM     15  C   UNL A   1      36.634  21.490  25.550  1.00  0.00     0.004 A 
BRANCH   8  16
ATOM     16  C   UNL A   1      33.796  25.716  23.722  1.00  0.00     0.177 C 
BRANCH  16  17
ATOM     17  S   UNL A   1      33.133  25.583  22.051  1.00  0.00     0.156 S 
ATOM     18  O   UNL A   1      33.453  24.240  21.592  1.00  0.00    -0.228 OA
ATOM     19  O   UNL A   1      33.662  26.695  21.278  1.00  0.00    -0.228 OA
BRANCH  17  20
ATOM     20  C   UNL A   1      31.345  25.745  22.099  1.00  0.00     0.165 C 
BRANCH  20  21
ATOM     21  C   UNL A   1      30.856  26.958  22.866  1.00  0.00     0.176 C 
BRANCH  21  22
ATOM     22  O   UNL A   1      30.347  27.980  22.003  1.00  0.00    -0.384 OA
ATOM     23  C   UNL A   1      29.788  29.087  22.692  1.00  0.00     0.194 C 
ENDBRANCH  21  22
ENDBRANCH  20  21
ENDBRANCH  17  20
ENDBRANCH  16  17
ENDBRANCH   8  16
ENDBRANCH   4   7
ENDBRANCH   2   3
ENDBRANCH   1   2
BRANCH   1  24
ATOM     24  C   UNL A   1      32.410  29.653  27.112  1.00  0.00     0.002 C 
BRANCH  24  25
ATOM     25  C   UNL A   1      31.583  30.556  26.189  1.00  0.00     0.002 C 
BRANCH  25  26
ATOM     26  C   UNL A   1      31.424  31.994  26.681  1.00  0.00     0.021 C 
BRANCH  26  27
ATOM     27  C   UNL A   1      32.679  32.573  27.313  1.00  0.00     0.116 C 
BRANCH  27  28
ATOM     28  N   UNL A   1      32.496  33.959  27.703  1.00  0.00    -0.352 N 
ATOM     29  C   UNL A   1      33.213  34.690  28.616  1.00  0.00     0.251 C 
ATOM     30  H   UNL A   1      31.762  34.438  27.255  1.00  0.00     0.163 HD
ATOM     31  O   UNL A   1      32.814  35.785  28.994  1.00  0.00    -0.269 OA
BRANCH  29  32
ATOM     32  C   UNL A   1      34.465  34.126  29.161  1.00  0.00     0.039 A 
ATOM     33  C   UNL A   1      34.419  33.413  30.359  1.00  0.00     0.014 A 
ATOM     34  C   UNL A   1      35.674  34.280  28.473  1.00  0.00     0.014 A 
ATOM     35  C   UNL A   1      35.579  32.809  30.843  1.00  0.00     0.010 A 
ATOM     36  C   UNL A   1      36.808  33.606  28.912  1.00  0.00     0.010 A 
ATOM     37  C   UNL A   1      36.775  32.873  30.107  1.00  0.00    -0.014 A 
BRANCH  37  38
ATOM     38  C   UNL A   1      38.002  32.185  30.579  1.00  0.00     0.031 A 
ATOM     39  C   UNL A   1      38.838  32.797  31.669  1.00  0.00     0.074 A 
ATOM     40  C   UNL A   1      38.390  31.036  29.992  1.00  0.00     0.049 A 
ATOM     41  N   UNL A   1      39.962  32.368  32.185  1.00  0.00    -0.248 NA
ATOM     42  C   UNL A   1      38.364  34.069  32.241  1.00  0.00     0.031 C 
ATOM     43  C   UNL A   1      37.686  30.360  28.899  1.00  0.00     0.029 A 
ATOM     44  N   UNL A   1      39.476  30.232  30.231  1.00  0.00    -0.354 N 
ATOM     45  C   UNL A   1      40.333  33.320  33.126  1.00  0.00     0.074 A 
ATOM     46  C   UNL A   1      39.347  34.376  33.074  1.00  0.00     0.031 C 
ATOM     47  C   UNL A   1      38.338  29.229  28.588  1.00  0.00     0.029 A 
ATOM     48  C   UNL A   1      39.531  29.123  29.422  1.00  0.00     0.049 A 
ATOM     49  H   UNL A   1      40.152  30.432  30.918  1.00  0.00     0.167 HD
ATOM     50  C   UNL A   1      41.388  33.307  33.974  1.00  0.00     0.031 A 
ATOM     51  C   UNL A   1      40.445  28.137  29.352  1.00  0.00     0.031 A 
ATOM     52  C   UNL A   1      42.365  32.252  34.031  1.00  0.00     0.049 A 
ATOM     53  C   UNL A   1      41.624  28.165  30.286  1.00  0.00     0.074 A 
ATOM     54  C   UNL A   1      43.441  32.122  34.892  1.00  0.00     0.029 A 
ATOM     55  N   UNL A   1      42.387  31.150  33.192  1.00  0.00    -0.354 N 
ATOM     56  N   UNL A   1      41.920  29.035  31.220  1.00  0.00    -0.248 NA
ATOM     57  C   UNL A   1      42.590  27.063  30.162  1.00  0.00     0.031 C 
ATOM     58  C   UNL A   1      44.150  30.973  34.531  1.00  0.00     0.029 A 
ATOM     59  C   UNL A   1      43.476  30.350  33.494  1.00  0.00     0.049 A 
ATOM     60  H   UNL A   1      41.727  30.964  32.485  1.00  0.00     0.167 HD
ATOM     61  C   UNL A   1      43.084  28.570  31.816  1.00  0.00     0.074 A 
ATOM     62  C   UNL A   1      43.430  27.331  31.151  1.00  0.00     0.031 C 
ATOM     63  C   UNL A   1      43.805  29.118  32.826  1.00  0.00     0.031 A 
BRANCH  50  64
ATOM     64  C   UNL A   1      41.549  34.476  34.906  1.00  0.00    -0.014 A 
ATOM     65  C   UNL A   1      42.305  35.602  34.541  1.00  0.00     0.009 A 
ATOM     66  C   UNL A   1      40.890  34.476  36.146  1.00  0.00     0.009 A 
ATOM     67  C   UNL A   1      42.422  36.688  35.412  1.00  0.00     0.001 A 
ATOM     68  C   UNL A   1      40.983  35.576  37.000  1.00  0.00     0.001 A 
ATOM     69  C   UNL A   1      41.756  36.677  36.636  1.00  0.00     0.000 A 
ENDBRANCH  50  64
BRANCH  51  70
ATOM     70  C   UNL A   1      40.287  27.034  28.366  1.00  0.00    -0.014 A 
ATOM     71  C   UNL A   1      40.811  27.152  27.069  1.00  0.00     0.009 A 
ATOM     72  C   UNL A   1      39.584  25.868  28.707  1.00  0.00     0.009 A 
ATOM     73  C   UNL A   1      40.600  26.145  26.125  1.00  0.00     0.001 A 
ATOM     74  C   UNL A   1      39.406  24.846  27.771  1.00  0.00     0.001 A 
ATOM     75  C   UNL A   1      39.901  24.991  26.477  1.00  0.00     0.000 A 
ENDBRANCH  51  70
BRANCH  63  76
ATOM     76  C   UNL A   1      45.012  28.359  33.303  1.00  0.00    -0.014 A 
ATOM     77  C   UNL A   1      44.913  27.371  34.294  1.00  0.00     0.009 A 
ATOM     78  C   UNL A   1      46.263  28.612  32.717  1.00  0.00     0.009 A 
ATOM     79  C   UNL A   1      46.049  26.678  34.715  1.00  0.00     0.001 A 
ATOM     80  C   UNL A   1      47.391  27.893  33.115  1.00  0.00     0.001 A 
ATOM     81  C   UNL A   1      47.285  26.936  34.122  1.00  0.00     0.000 A 
ENDBRANCH  63  76
ENDBRANCH  37  38
ENDBRANCH  29  32
ENDBRANCH  27  28
ENDBRANCH  26  27
ENDBRANCH  25  26
ENDBRANCH  24  25
ENDBRANCH   1  24
TORSDOF 18
ENDMDL
MODEL 2
REMARK VINA RESULT:     -10.6      1.274      5.989
REMARK SMILES COCCS(=O)(=O)Cc1c(C(=O)NCCCCCCNC(=O)c2ccc(-c3c4nc(c(-c5ccccc5)c5ccc([nH]5)c(-c5ccccc5)c5nc(c(-c6ccccc6)c6ccc3[nH]6)C=C5)C=C4)cc2)oc2ccccc12
REMARK SMILES IDX 15 1 14 2 13 3 11 4 12 5 10 7 9 8 77 9 71 10 72 11 76 12
REMARK SMILES IDX 73 13 75 14 74 15 8 16 5 17 6 18 7 19 4 20 3 21 2 22 1 23
REMARK SMILES IDX 16 24 17 25 18 26 19 27 20 28 21 29 22 31 23 32 24 33 70 34
REMARK SMILES IDX 25 35 69 36 26 37 27 38 28 39 63 40 29 41 68 42 62 43 64 44
REMARK SMILES IDX 30 45 67 46 61 47 60 48 31 50 53 51 38 52 52 53 39 54 42 55
REMARK SMILES IDX 51 56 65 57 40 58 41 59 50 61 66 62 43 63 32 64 33 65 37 66
REMARK SMILES IDX 34 67 36 68 35 69 54 70 55 71 59 72 56 73 58 74 57 75 44 76
REMARK SMILES IDX 45 77 49 78 46 79 48 80 47 81
REMARK H PARENT 13 6 20 30 64 49 42 60
REMARK Flexibility Score: inf
ROOT
ATOM      1  C   UNL A   1      33.282  28.971  27.228  1.00  0.00     0.021 C 
ENDROOT
BRANCH   1   2
ATOM      2  C   UNL A   1      33.442  27.758  26.315  1.00  0.00     0.116 C 
BRANCH   2   3
ATOM      3  N   UNL A   1      32.537  26.712  26.741  1.00  0.00    -0.349 N 
ATOM      4  C   UNL A   1      32.392  25.429  26.306  1.00  0.00     0.287 C 
ATOM      5  O   UNL A   1      31.303  24.903  26.546  1.00  0.00    -0.266 OA
ATOM      6  H   UNL A   1      31.924  26.971  27.466  1.00  0.00     0.163 HD
BRANCH   4   7
ATOM      7  C   UNL A   1      33.483  24.699  25.701  1.00  0.00     0.196 A 
ATOM      8  C   UNL A   1      34.029  24.757  24.418  1.00  0.00     0.027 A 
ATOM      9  C   UNL A   1      35.029  23.714  24.381  1.00  0.00     0.025 A 
ATOM     10  O   UNL A   1      34.082  23.703  26.409  1.00  0.00    -0.451 OA
ATOM     11  C   UNL A   1      35.026  23.132  25.637  1.00  0.00     0.135 A 
ATOM     12  C   UNL A   1      35.947  23.210  23.438  1.00  0.00     0.012 A 
ATOM     13  C   UNL A   1      35.871  22.107  26.054  1.00  0.00     0.048 A 
ATOM     14  C   UNL A   1      36.806  22.162  23.817  1.00  0.00     0.001 A 
ATOM     15  C   UNL A   1      36.774  21.627  25.106  1.00  0.00     0.004 A 
BRANCH   8  16
ATOM     16  C   UNL A   1      33.758  25.747  23.322  1.00  0.00     0.177 C 
BRANCH  16  17
ATOM     17  S   UNL A   1      32.529  25.457  22.036  1.00  0.00     0.156 S 
ATOM     18  O   UNL A   1      31.885  24.195  22.366  1.00  0.00    -0.228 OA
ATOM     19  O   UNL A   1      33.207  25.542  20.752  1.00  0.00    -0.228 OA
BRANCH  17  20
ATOM     20  C   UNL A   1      31.285  26.751  22.090  1.00  0.00     0.165 C 
BRANCH  20  21
ATOM     21  C   UNL A   1      31.454  27.721  23.243  1.00  0.00     0.176 C 
BRANCH  21  22
ATOM     22  O   UNL A   1      30.597  27.412  24.346  1.00  0.00    -0.384 OA
ATOM     23  C   UNL A   1      29.464  26.634  23.992  1.00  0.00     0.194 C 
ENDBRANCH  21  22
ENDBRANCH  20  21
ENDBRANCH  17  20
ENDBRANCH  16  17
ENDBRANCH   8  16
ENDBRANCH   4   7
ENDBRANCH   2   3
ENDBRANCH   1   2
BRANCH   1  24
ATOM     24  C   UNL A   1      31.895  29.621  27.155  1.00  0.00     0.002 C 
BRANCH  24  25
ATOM     25  C   UNL A   1      31.753  30.720  26.095  1.00  0.00     0.002 C 
BRANCH  25  26
ATOM     26  C   UNL A   1      31.449  32.109  26.653  1.00  0.00     0.021 C 
BRANCH  26  27
ATOM     27  C   UNL A   1      32.631  32.772  27.340  1.00  0.00     0.116 C 
BRANCH  27  28
ATOM     28  N   UNL A   1      32.379  34.175  27.615  1.00  0.00    -0.352 N 
ATOM     29  C   UNL A   1      32.971  34.979  28.554  1.00  0.00     0.251 C 
ATOM     30  H   UNL A   1      31.695  34.605  27.054  1.00  0.00     0.163 HD
ATOM     31  O   UNL A   1      32.511  36.086  28.811  1.00  0.00    -0.269 OA
BRANCH  29  32
ATOM     32  C   UNL A   1      34.160  34.483  29.277  1.00  0.00     0.039 A 
ATOM     33  C   UNL A   1      33.992  33.896  30.531  1.00  0.00     0.014 A 
ATOM     34  C   UNL A   1      35.432  34.574  28.701  1.00  0.00     0.014 A 
ATOM     35  C   UNL A   1      35.096  33.353  31.188  1.00  0.00     0.010 A 
ATOM     36  C   UNL A   1      36.514  33.957  29.318  1.00  0.00     0.010 A 
ATOM     37  C   UNL A   1      36.359  33.350  30.573  1.00  0.00    -0.014 A 
BRANCH  37  38
ATOM     38  C   UNL A   1      37.530  32.722  31.233  1.00  0.00     0.031 A 
ATOM     39  C   UNL A   1      38.200  31.530  30.607  1.00  0.00     0.074 A 
ATOM     40  C   UNL A   1      37.959  33.193  32.420  1.00  0.00     0.049 A 
ATOM     41  N   UNL A   1      39.208  30.822  31.051  1.00  0.00    -0.248 NA
ATOM     42  C   UNL A   1      37.656  31.056  29.323  1.00  0.00     0.031 C 
ATOM     43  C   UNL A   1      37.372  34.320  33.149  1.00  0.00     0.029 A 
ATOM     44  N   UNL A   1      38.991  32.781  33.226  1.00  0.00    -0.354 N 
ATOM     45  C   UNL A   1      39.405  29.816  30.113  1.00  0.00     0.074 A 
ATOM     46  C   UNL A   1      38.382  29.970  29.103  1.00  0.00     0.031 C 
ATOM     47  C   UNL A   1      38.072  34.530  34.275  1.00  0.00     0.029 A 
ATOM     48  C   UNL A   1      39.127  33.525  34.373  1.00  0.00     0.049 A 
ATOM     49  H   UNL A   1      39.579  32.024  33.002  1.00  0.00     0.167 HD
ATOM     50  C   UNL A   1      40.366  28.863  30.084  1.00  0.00     0.031 A 
ATOM     51  C   UNL A   1      39.996  33.405  35.394  1.00  0.00     0.031 A 
ATOM     52  C   UNL A   1      41.388  28.714  31.084  1.00  0.00     0.049 A 
ATOM     53  C   UNL A   1      41.033  32.317  35.349  1.00  0.00     0.074 A 
ATOM     54  C   UNL A   1      42.438  27.813  31.115  1.00  0.00     0.029 A 
ATOM     55  N   UNL A   1      41.487  29.485  32.231  1.00  0.00    -0.354 N 
ATOM     56  N   UNL A   1      41.251  31.420  34.418  1.00  0.00    -0.248 NA
ATOM     57  C   UNL A   1      41.953  32.233  36.492  1.00  0.00     0.031 C 
ATOM     58  C   UNL A   1      43.134  27.996  32.313  1.00  0.00     0.029 A 
ATOM     59  C   UNL A   1      42.561  29.059  32.993  1.00  0.00     0.049 A 
ATOM     60  H   UNL A   1      40.882  30.225  32.470  1.00  0.00     0.167 HD
ATOM     61  C   UNL A   1      42.351  30.689  34.847  1.00  0.00     0.074 A 
ATOM     62  C   UNL A   1      42.767  31.260  36.111  1.00  0.00     0.031 C 
ATOM     63  C   UNL A   1      42.965  29.639  34.248  1.00  0.00     0.031 A 
BRANCH  50  64
ATOM     64  C   UNL A   1      40.352  27.894  28.933  1.00  0.00    -0.014 A 
ATOM     65  C   UNL A   1      39.657  26.676  29.013  1.00  0.00     0.009 A 
ATOM     66  C   UNL A   1      40.996  28.228  27.732  1.00  0.00     0.009 A 
ATOM     67  C   UNL A   1      39.636  25.801  27.924  1.00  0.00     0.001 A 
ATOM     68  C   UNL A   1      40.947  27.366  26.635  1.00  0.00     0.001 A 
ATOM     69  C   UNL A   1      40.274  26.150  26.735  1.00  0.00     0.000 A 
ENDBRANCH  50  64
BRANCH  51  70
ATOM     70  C   UNL A   1      39.931  34.341  36.550  1.00  0.00    -0.014 A 
ATOM     71  C   UNL A   1      39.181  34.018  37.691  1.00  0.00     0.009 A 
ATOM     72  C   UNL A   1      40.597  35.576  36.505  1.00  0.00     0.009 A 
ATOM     73  C   UNL A   1      39.065  34.928  38.745  1.00  0.00     0.001 A 
ATOM     74  C   UNL A   1      40.508  36.469  37.575  1.00  0.00     0.001 A 
ATOM     75  C   UNL A   1      39.731  36.151  38.688  1.00  0.00     0.000 A 
ENDBRANCH  51  70
BRANCH  63  76
ATOM     76  C   UNL A   1      44.178  29.068  34.929  1.00  0.00    -0.014 A 
ATOM     77  C   UNL A   1      45.464  29.568  34.678  1.00  0.00     0.009 A 
ATOM     78  C   UNL A   1      44.021  28.039  35.872  1.00  0.00     0.009 A 
ATOM     79  C   UNL A   1      46.573  29.023  35.328  1.00  0.00     0.001 A 
ATOM     80  C   UNL A   1      45.126  27.520  36.546  1.00  0.00     0.001 A 
ATOM     81  C   UNL A   1      46.402  28.004  36.266  1.00  0.00     0.000 A 
ENDBRANCH  63  76
ENDBRANCH  37  38
ENDBRANCH  29  32
ENDBRANCH  27  28
ENDBRANCH  26  27
ENDBRANCH  25  26
ENDBRANCH  24  25
ENDBRANCH   1  24
TORSDOF 18
ENDMDL
MODEL 3
REMARK VINA RESULT:     -10.5      1.395      3.895
REMARK SMILES COCCS(=O)(=O)Cc1c(C(=O)NCCCCCCNC(=O)c2ccc(-c3c4nc(c(-c5ccccc5)c5ccc([nH]5)c(-c5ccccc5)c5nc(c(-c6ccccc6)c6ccc3[nH]6)C=C5)C=C4)cc2)oc2ccccc12
REMARK SMILES IDX 15 1 14 2 13 3 11 4 12 5 10 7 9 8 77 9 71 10 72 11 76 12
REMARK SMILES IDX 73 13 75 14 74 15 8 16 5 17 6 18 7 19 4 20 3 21 2 22 1 23
REMARK SMILES IDX 16 24 17 25 18 26 19 27 20 28 21 29 22 31 23 32 24 33 70 34
REMARK SMILES IDX 25 35 69 36 26 37 27 38 28 39 63 40 29 41 68 42 62 43 64 44
REMARK SMILES IDX 30 45 67 46 61 47 60 48 31 50 53 51 38 52 52 53 39 54 42 55
REMARK SMILES IDX 51 56 65 57 40 58 41 59 50 61 66 62 43 63 32 64 33 65 37 66
REMARK SMILES IDX 34 67 36 68 35 69 54 70 55 71 59 72 56 73 58 74 57 75 44 76
REMARK SMILES IDX 45 77 49 78 46 79 48 80 47 81
REMARK H PARENT 13 6 20 30 64 49 42 60
REMARK Flexibility Score: inf
ROOT
ATOM      1  C   UNL A   1      34.274  28.902  26.971  1.00  0.00     0.021 C 
ENDROOT
BRANCH   1   2
ATOM      2  C   UNL A   1      33.437  28.172  25.923  1.00  0.00     0.116 C 
BRANCH   2   3
ATOM      3  N   UNL A   1      33.871  28.566  24.600  1.00  0.00    -0.349 N 
ATOM      4  C   UNL A   1      33.194  28.615  23.419  1.00  0.00     0.287 C 
ATOM      5  O   UNL A   1      33.890  28.588  22.402  1.00  0.00    -0.266 OA
ATOM      6  H   UNL A   1      34.813  28.844  24.545  1.00  0.00     0.163 HD
BRANCH   4   7
ATOM      7  C   UNL A   1      31.761  28.799  23.367  1.00  0.00     0.196 A 
ATOM      8  C   UNL A   1      30.738  27.941  22.960  1.00  0.00     0.027 A 
ATOM      9  C   UNL A   1      29.528  28.725  23.038  1.00  0.00     0.025 A 
ATOM     10  O   UNL A   1      31.241  30.019  23.669  1.00  0.00    -0.451 OA
ATOM     11  C   UNL A   1      29.905  29.973  23.504  1.00  0.00     0.135 A 
ATOM     12  C   UNL A   1      28.156  28.519  22.787  1.00  0.00     0.012 A 
ATOM     13  C   UNL A   1      29.042  31.032  23.769  1.00  0.00     0.048 A 
ATOM     14  C   UNL A   1      27.254  29.571  23.025  1.00  0.00     0.001 A 
ATOM     15  C   UNL A   1      27.689  30.804  23.518  1.00  0.00     0.004 A 
BRANCH   8  16
ATOM     16  C   UNL A   1      30.812  26.479  22.624  1.00  0.00     0.177 C 
BRANCH  16  17
ATOM     17  S   UNL A   1      30.946  25.199  23.886  1.00  0.00     0.156 S 
ATOM     18  O   UNL A   1      30.402  23.986  23.294  1.00  0.00    -0.228 OA
ATOM     19  O   UNL A   1      30.303  25.699  25.090  1.00  0.00    -0.228 OA
BRANCH  17  20
ATOM     20  C   UNL A   1      32.677  24.907  24.264  1.00  0.00     0.165 C 
BRANCH  20  21
ATOM     21  C   UNL A   1      32.921  23.693  25.139  1.00  0.00     0.176 C 
BRANCH  21  22
ATOM     22  O   UNL A   1      32.728  23.975  26.528  1.00  0.00    -0.384 OA
ATOM     23  C   UNL A   1      32.634  22.817  27.342  1.00  0.00     0.194 C 
ENDBRANCH  21  22
ENDBRANCH  20  21
ENDBRANCH  17  20
ENDBRANCH  16  17
ENDBRANCH   8  16
ENDBRANCH   4   7
ENDBRANCH   2   3
ENDBRANCH   1   2
BRANCH   1  24
ATOM     24  C   UNL A   1      33.628  30.195  27.487  1.00  0.00     0.002 C 
BRANCH  24  25
ATOM     25  C   UNL A   1      32.181  30.418  27.033  1.00  0.00     0.002 C 
BRANCH  25  26
ATOM     26  C   UNL A   1      31.738  31.880  27.012  1.00  0.00     0.021 C 
BRANCH  26  27
ATOM     27  C   UNL A   1      32.887  32.874  27.022  1.00  0.00     0.116 C 
BRANCH  27  28
ATOM     28  N   UNL A   1      32.532  34.102  27.711  1.00  0.00    -0.352 N 
ATOM     29  C   UNL A   1      33.122  34.661  28.816  1.00  0.00     0.251 C 
ATOM     30  H   UNL A   1      31.769  34.598  27.337  1.00  0.00     0.163 HD
ATOM     31  O   UNL A   1      32.585  35.588  29.410  1.00  0.00    -0.269 OA
BRANCH  29  32
ATOM     32  C   UNL A   1      34.404  34.110  29.301  1.00  0.00     0.039 A 
ATOM     33  C   UNL A   1      34.401  33.277  30.419  1.00  0.00     0.014 A 
ATOM     34  C   UNL A   1      35.599  34.395  28.632  1.00  0.00     0.014 A 
ATOM     35  C   UNL A   1      35.593  32.687  30.839  1.00  0.00     0.010 A 
ATOM     36  C   UNL A   1      36.769  33.740  29.000  1.00  0.00     0.010 A 
ATOM     37  C   UNL A   1      36.780  32.888  30.114  1.00  0.00    -0.014 A 
BRANCH  37  38
ATOM     38  C   UNL A   1      38.044  32.220  30.512  1.00  0.00     0.031 A 
ATOM     39  C   UNL A   1      38.950  32.863  31.525  1.00  0.00     0.074 A 
ATOM     40  C   UNL A   1      38.398  31.060  29.926  1.00  0.00     0.049 A 
ATOM     41  N   UNL A   1      40.112  32.454  31.970  1.00  0.00    -0.248 NA
ATOM     42  C   UNL A   1      38.507  34.145  32.099  1.00  0.00     0.031 C 
ATOM     43  C   UNL A   1      37.624  30.353  28.904  1.00  0.00     0.029 A 
ATOM     44  N   UNL A   1      39.506  30.269  30.106  1.00  0.00    -0.354 N 
ATOM     45  C   UNL A   1      40.541  33.432  32.859  1.00  0.00     0.074 A 
ATOM     46  C   UNL A   1      39.544  34.479  32.853  1.00  0.00     0.031 C 
ATOM     47  C   UNL A   1      38.262  29.219  28.572  1.00  0.00     0.029 A 
ATOM     48  C   UNL A   1      39.512  29.141  29.322  1.00  0.00     0.049 A 
ATOM     49  H   UNL A   1      40.227  30.490  30.738  1.00  0.00     0.167 HD
ATOM     50  C   UNL A   1      41.654  33.446  33.629  1.00  0.00     0.031 A 
ATOM     51  C   UNL A   1      40.427  28.160  29.210  1.00  0.00     0.031 A 
ATOM     52  C   UNL A   1      42.642  32.400  33.641  1.00  0.00     0.049 A 
ATOM     53  C   UNL A   1      41.669  28.218  30.056  1.00  0.00     0.074 A 
ATOM     54  C   UNL A   1      43.777  32.298  34.426  1.00  0.00     0.029 A 
ATOM     55  N   UNL A   1      42.612  31.278  32.829  1.00  0.00    -0.354 N 
ATOM     56  N   UNL A   1      42.024  29.113  30.945  1.00  0.00    -0.248 NA
ATOM     57  C   UNL A   1      42.633  27.121  29.889  1.00  0.00     0.031 C 
ATOM     58  C   UNL A   1      44.469  31.145  34.042  1.00  0.00     0.029 A 
ATOM     59  C   UNL A   1      43.727  30.493  33.070  1.00  0.00     0.049 A 
ATOM     60  H   UNL A   1      41.905  31.070  32.176  1.00  0.00     0.167 HD
ATOM     61  C   UNL A   1      43.232  28.670  31.468  1.00  0.00     0.074 A 
ATOM     62  C   UNL A   1      43.540  27.418  30.809  1.00  0.00     0.031 C 
ATOM     63  C   UNL A   1      44.018  29.248  32.410  1.00  0.00     0.031 A 
BRANCH  50  64
ATOM     64  C   UNL A   1      41.871  34.638  34.520  1.00  0.00    -0.014 A 
ATOM     65  C   UNL A   1      41.373  34.668  35.833  1.00  0.00     0.009 A 
ATOM     66  C   UNL A   1      42.632  35.724  34.060  1.00  0.00     0.009 A 
ATOM     67  C   UNL A   1      41.605  35.775  36.653  1.00  0.00     0.001 A 
ATOM     68  C   UNL A   1      42.890  36.815  34.892  1.00  0.00     0.001 A 
ATOM     69  C   UNL A   1      42.369  36.843  36.184  1.00  0.00     0.000 A 
ENDBRANCH  50  64
BRANCH  51  70
ATOM     70  C   UNL A   1      40.209  27.032  28.263  1.00  0.00    -0.014 A 
ATOM     71  C   UNL A   1      39.525  25.877  28.672  1.00  0.00     0.009 A 
ATOM     72  C   UNL A   1      40.710  27.094  26.954  1.00  0.00     0.009 A 
ATOM     73  C   UNL A   1      39.383  24.792  27.803  1.00  0.00     0.001 A 
ATOM     74  C   UNL A   1      40.536  26.022  26.075  1.00  0.00     0.001 A 
ATOM     75  C   UNL A   1      39.885  24.867  26.505  1.00  0.00     0.000 A 
ENDBRANCH  51  70
BRANCH  63  76
ATOM     76  C   UNL A   1      45.263  28.508  32.818  1.00  0.00    -0.014 A 
ATOM     77  C   UNL A   1      46.495  28.744  32.190  1.00  0.00     0.009 A 
ATOM     78  C   UNL A   1      45.204  27.592  33.880  1.00  0.00     0.009 A 
ATOM     79  C   UNL A   1      47.636  28.047  32.593  1.00  0.00     0.001 A 
ATOM     80  C   UNL A   1      46.353  26.923  34.303  1.00  0.00     0.001 A 
ATOM     81  C   UNL A   1      47.565  27.142  33.652  1.00  0.00     0.000 A 
ENDBRANCH  63  76
ENDBRANCH  37  38
ENDBRANCH  29  32
ENDBRANCH  27  28
ENDBRANCH  26  27
ENDBRANCH  25  26
ENDBRANCH  24  25
ENDBRANCH   1  24
TORSDOF 18
ENDMDL
