MODEL 1
REMARK VINA RESULT:     -10.5      0.000      0.000
REMARK SMILES CC1(C)CCSC[C@@]1(Nc1ccccc1Br)C(=O)NCCCCCCNC(=O)c1ccc(-c2c3nc(c(-c4ccccc4)c4ccc([nH]4)c(-c4ccccc4)c4nc(c(-c5ccccc5)c5ccc2[nH]5)C=C4)C=C3)cc1
REMARK SMILES IDX 22 1 21 2 20 3 19 4 17 5 18 6 8 8 1 9 2 10 3 11 4 12 5 13
REMARK SMILES IDX 7 14 6 15 9 16 10 18 11 19 15 20 12 21 14 22 16 23 13 24
REMARK SMILES IDX 23 25 24 26 25 27 26 28 27 29 28 31 29 32 30 33 76 34 31 35
REMARK SMILES IDX 75 36 32 37 33 38 34 39 69 40 35 41 74 42 68 43 70 44 36 45
REMARK SMILES IDX 73 46 67 47 66 48 37 50 59 51 44 52 58 53 45 54 48 55 57 56
REMARK SMILES IDX 71 57 46 58 47 59 56 61 72 62 49 63 38 64 39 65 43 66 40 67
REMARK SMILES IDX 42 68 41 69 60 70 61 71 65 72 62 73 64 74 63 75 50 76 51 77
REMARK SMILES IDX 55 78 52 79 54 80 53 81
REMARK H PARENT 19 7 9 17 26 30 70 49 48 60
REMARK Flexibility Score: inf
ROOT
ATOM      1  C   UNL A   1      33.875  30.669  27.617  1.00  0.00     0.002 C 
ENDROOT
BRANCH   1   2
ATOM      2  C   UNL A   1      34.685  29.453  27.168  1.00  0.00     0.021 C 
BRANCH   2   3
ATOM      3  C   UNL A   1      34.033  28.628  26.054  1.00  0.00     0.116 C 
BRANCH   3   4
ATOM      4  N   UNL A   1      33.621  27.315  26.525  1.00  0.00    -0.354 N 
ATOM      5  C   UNL A   1      32.446  26.706  26.157  1.00  0.00     0.247 C 
ATOM      6  O   UNL A   1      31.580  26.649  27.036  1.00  0.00    -0.272 OA
ATOM      7  H   UNL A   1      34.219  26.835  27.142  1.00  0.00     0.163 HD
BRANCH   5   8
ATOM      8  C   UNL A   1      32.232  26.106  24.705  1.00  0.00     0.131 C 
ATOM      9  C   UNL A   1      30.744  28.216  24.219  1.00  0.00     0.014 C 
ATOM     10  C   UNL A   1      30.840  26.674  24.121  1.00  0.00    -0.002 C 
ATOM     11  C   UNL A   1      29.599  26.135  24.891  1.00  0.00     0.014 C 
ATOM     12  C   UNL A   1      30.629  26.283  22.627  1.00  0.00     0.020 C 
ATOM     13  C   UNL A   1      31.696  26.779  21.661  1.00  0.00     0.070 C 
ATOM     14  C   UNL A   1      33.437  26.442  23.773  1.00  0.00     0.108 C 
ATOM     15  S   UNL A   1      33.285  26.003  22.002  1.00  0.00    -0.159 SA
BRANCH   8  16
ATOM     16  N   UNL A   1      32.092  24.602  24.842  1.00  0.00    -0.369 N 
ATOM     17  H   UNL A   1      31.513  24.147  24.190  1.00  0.00     0.161 HD
BRANCH  16  18
ATOM     18  C   UNL A   1      32.705  23.801  25.807  1.00  0.00     0.049 A 
ATOM     19  C   UNL A   1      34.103  23.646  25.724  1.00  0.00     0.027 A 
ATOM     20  C   UNL A   1      32.053  23.094  26.832  1.00  0.00     0.041 A 
ATOM     21  C   UNL A   1      34.826  22.876  26.640  1.00  0.00     0.002 A 
ATOM     22  C   UNL A   1      32.777  22.317  27.752  1.00  0.00     0.018 A 
ATOM     23  Br  UNL A   1      30.166  22.969  26.992  1.00  0.00    -0.049 Br
ATOM     24  C   UNL A   1      34.162  22.215  27.662  1.00  0.00     0.001 A 
ENDBRANCH  16  18
ENDBRANCH   8  16
ENDBRANCH   5   8
ENDBRANCH   3   4
ENDBRANCH   2   3
ENDBRANCH   1   2
BRANCH   1  25
ATOM     25  C   UNL A   1      32.419  30.693  27.148  1.00  0.00     0.002 C 
BRANCH  25  26
ATOM     26  C   UNL A   1      31.776  32.080  27.045  1.00  0.00     0.021 C 
BRANCH  26  27
ATOM     27  C   UNL A   1      32.752  33.250  26.929  1.00  0.00     0.116 C 
BRANCH  27  28
ATOM     28  N   UNL A   1      32.481  34.291  27.901  1.00  0.00    -0.352 N 
ATOM     29  C   UNL A   1      33.127  34.597  29.070  1.00  0.00     0.251 C 
ATOM     30  H   UNL A   1      31.713  34.870  27.688  1.00  0.00     0.163 HD
ATOM     31  O   UNL A   1      32.629  35.406  29.848  1.00  0.00    -0.269 OA
BRANCH  29  32
ATOM     32  C   UNL A   1      34.412  33.950  29.416  1.00  0.00     0.039 A 
ATOM     33  C   UNL A   1      35.539  34.271  28.654  1.00  0.00     0.014 A 
ATOM     34  C   UNL A   1      34.507  32.998  30.436  1.00  0.00     0.014 A 
ATOM     35  C   UNL A   1      36.766  33.670  28.940  1.00  0.00     0.010 A 
ATOM     36  C   UNL A   1      35.746  32.444  30.761  1.00  0.00     0.010 A 
ATOM     37  C   UNL A   1      36.885  32.767  30.009  1.00  0.00    -0.014 A 
BRANCH  37  38
ATOM     38  C   UNL A   1      38.205  32.170  30.337  1.00  0.00     0.031 A 
ATOM     39  C   UNL A   1      39.147  32.859  31.285  1.00  0.00     0.074 A 
ATOM     40  C   UNL A   1      38.563  31.007  29.759  1.00  0.00     0.049 A 
ATOM     41  N   UNL A   1      40.311  32.450  31.732  1.00  0.00    -0.248 NA
ATOM     42  C   UNL A   1      38.749  34.184  31.784  1.00  0.00     0.031 C 
ATOM     43  C   UNL A   1      37.768  30.270  28.773  1.00  0.00     0.029 A 
ATOM     44  N   UNL A   1      39.687  30.236  29.922  1.00  0.00    -0.354 N 
ATOM     45  C   UNL A   1      40.786  33.471  32.545  1.00  0.00     0.074 A 
ATOM     46  C   UNL A   1      39.806  34.535  32.502  1.00  0.00     0.031 C 
ATOM     47  C   UNL A   1      38.414  29.138  28.446  1.00  0.00     0.029 A 
ATOM     48  C   UNL A   1      39.673  29.080  29.180  1.00  0.00     0.049 A 
ATOM     49  H   UNL A   1      40.431  30.488  30.514  1.00  0.00     0.167 HD
ATOM     50  C   UNL A   1      41.924  33.512  33.275  1.00  0.00     0.031 A 
ATOM     51  C   UNL A   1      40.569  28.078  29.108  1.00  0.00     0.031 A 
ATOM     52  C   UNL A   1      42.886  32.444  33.342  1.00  0.00     0.049 A 
ATOM     53  C   UNL A   1      41.804  28.131  29.961  1.00  0.00     0.074 A 
ATOM     54  C   UNL A   1      44.026  32.356  34.123  1.00  0.00     0.029 A 
ATOM     55  N   UNL A   1      42.825  31.279  32.593  1.00  0.00    -0.354 N 
ATOM     56  N   UNL A   1      42.182  29.056  30.811  1.00  0.00    -0.248 NA
ATOM     57  C   UNL A   1      42.724  26.990  29.862  1.00  0.00     0.031 C 
ATOM     58  C   UNL A   1      44.679  31.159  33.814  1.00  0.00     0.029 A 
ATOM     59  C   UNL A   1      43.921  30.480  32.874  1.00  0.00     0.049 A 
ATOM     60  H   UNL A   1      42.109  31.053  31.956  1.00  0.00     0.167 HD
ATOM     61  C   UNL A   1      43.371  28.599  31.361  1.00  0.00     0.074 A 
ATOM     62  C   UNL A   1      43.638  27.304  30.769  1.00  0.00     0.031 C 
ATOM     63  C   UNL A   1      44.175  29.199  32.272  1.00  0.00     0.031 A 
BRANCH  50  64
ATOM     64  C   UNL A   1      42.203  34.757  34.070  1.00  0.00    -0.014 A 
ATOM     65  C   UNL A   1      41.827  34.859  35.419  1.00  0.00     0.009 A 
ATOM     66  C   UNL A   1      42.907  35.817  33.479  1.00  0.00     0.009 A 
ATOM     67  C   UNL A   1      42.131  36.007  36.153  1.00  0.00     0.001 A 
ATOM     68  C   UNL A   1      43.230  36.954  34.222  1.00  0.00     0.001 A 
ATOM     69  C   UNL A   1      42.837  37.051  35.556  1.00  0.00     0.000 A 
ENDBRANCH  50  64
BRANCH  51  70
ATOM     70  C   UNL A   1      40.324  26.919  28.210  1.00  0.00    -0.014 A 
ATOM     71  C   UNL A   1      40.875  26.887  26.919  1.00  0.00     0.009 A 
ATOM     72  C   UNL A   1      39.518  25.851  28.631  1.00  0.00     0.009 A 
ATOM     73  C   UNL A   1      40.594  25.826  26.056  1.00  0.00     0.001 A 
ATOM     74  C   UNL A   1      39.262  24.778  27.775  1.00  0.00     0.001 A 
ATOM     75  C   UNL A   1      39.789  24.772  26.485  1.00  0.00     0.000 A 
ENDBRANCH  51  70
BRANCH  63  76
ATOM     76  C   UNL A   1      45.405  28.447  32.694  1.00  0.00    -0.014 A 
ATOM     77  C   UNL A   1      46.634  28.647  32.047  1.00  0.00     0.009 A 
ATOM     78  C   UNL A   1      45.335  27.537  33.759  1.00  0.00     0.009 A 
ATOM     79  C   UNL A   1      47.761  27.918  32.432  1.00  0.00     0.001 A 
ATOM     80  C   UNL A   1      46.470  26.831  34.161  1.00  0.00     0.001 A 
ATOM     81  C   UNL A   1      47.679  27.014  33.490  1.00  0.00     0.000 A 
ENDBRANCH  63  76
ENDBRANCH  37  38
ENDBRANCH  29  32
ENDBRANCH  27  28
ENDBRANCH  26  27
ENDBRANCH  25  26
ENDBRANCH   1  25
TORSDOF 15
ENDMDL
MODEL 2
REMARK VINA RESULT:     -10.2      3.580      8.714
REMARK SMILES CC1(C)CCSC[C@@]1(Nc1ccccc1Br)C(=O)NCCCCCCNC(=O)c1ccc(-c2c3nc(c(-c4ccccc4)c4ccc([nH]4)c(-c4ccccc4)c4nc(c(-c5ccccc5)c5ccc2[nH]5)C=C4)C=C3)cc1
REMARK SMILES IDX 22 1 21 2 20 3 19 4 17 5 18 6 8 8 1 9 2 10 3 11 4 12 5 13
REMARK SMILES IDX 7 14 6 15 9 16 10 18 11 19 15 20 12 21 14 22 16 23 13 24
REMARK SMILES IDX 23 25 24 26 25 27 26 28 27 29 28 31 29 32 30 33 76 34 31 35
REMARK SMILES IDX 75 36 32 37 33 38 34 39 69 40 35 41 74 42 68 43 70 44 36 45
REMARK SMILES IDX 73 46 67 47 66 48 37 50 59 51 44 52 58 53 45 54 48 55 57 56
REMARK SMILES IDX 71 57 46 58 47 59 56 61 72 62 49 63 38 64 39 65 43 66 40 67
REMARK SMILES IDX 42 68 41 69 60 70 61 71 65 72 62 73 64 74 63 75 50 76 51 77
REMARK SMILES IDX 55 78 52 79 54 80 53 81
REMARK H PARENT 19 7 9 17 26 30 70 49 48 60
REMARK Flexibility Score: inf
ROOT
ATOM      1  C   UNL A   1      37.174  21.883  24.364  1.00  0.00     0.002 C 
ENDROOT
BRANCH   1   2
ATOM      2  C   UNL A   1      37.443  22.921  25.454  1.00  0.00     0.021 C 
BRANCH   2   3
ATOM      3  C   UNL A   1      36.223  23.753  25.858  1.00  0.00     0.116 C 
BRANCH   3   4
ATOM      4  N   UNL A   1      35.014  22.948  25.915  1.00  0.00    -0.354 N 
ATOM      5  C   UNL A   1      33.767  23.459  26.182  1.00  0.00     0.247 C 
ATOM      6  O   UNL A   1      33.306  23.180  27.294  1.00  0.00    -0.272 OA
ATOM      7  H   UNL A   1      35.093  21.980  25.752  1.00  0.00     0.163 HD
BRANCH   5   8
ATOM      8  C   UNL A   1      32.976  24.333  25.123  1.00  0.00     0.131 C 
ATOM      9  C   UNL A   1      32.081  22.065  24.146  1.00  0.00     0.014 C 
ATOM     10  C   UNL A   1      32.722  23.433  23.809  1.00  0.00    -0.002 C 
ATOM     11  C   UNL A   1      34.037  23.095  23.046  1.00  0.00     0.014 C 
ATOM     12  C   UNL A   1      31.793  24.147  22.780  1.00  0.00     0.020 C 
ATOM     13  C   UNL A   1      30.404  24.508  23.287  1.00  0.00     0.070 C 
ATOM     14  C   UNL A   1      31.643  24.878  25.724  1.00  0.00     0.108 C 
ATOM     15  S   UNL A   1      30.496  25.747  24.592  1.00  0.00    -0.159 SA
BRANCH   8  16
ATOM     16  N   UNL A   1      33.869  25.492  24.720  1.00  0.00    -0.369 N 
ATOM     17  H   UNL A   1      34.663  25.275  24.181  1.00  0.00     0.161 HD
BRANCH  16  18
ATOM     18  C   UNL A   1      33.672  26.835  25.042  1.00  0.00     0.049 A 
ATOM     19  C   UNL A   1      33.597  27.166  26.409  1.00  0.00     0.027 A 
ATOM     20  C   UNL A   1      33.494  27.888  24.128  1.00  0.00     0.041 A 
ATOM     21  C   UNL A   1      33.412  28.480  26.851  1.00  0.00     0.002 A 
ATOM     22  C   UNL A   1      33.304  29.208  24.571  1.00  0.00     0.018 A 
ATOM     23  Br  UNL A   1      33.324  27.642  22.254  1.00  0.00    -0.049 Br
ATOM     24  C   UNL A   1      33.272  29.506  25.930  1.00  0.00     0.001 A 
ENDBRANCH  16  18
ENDBRANCH   8  16
ENDBRANCH   5   8
ENDBRANCH   3   4
ENDBRANCH   2   3
ENDBRANCH   1   2
BRANCH   1  25
ATOM     25  C   UNL A   1      36.975  20.449  24.862  1.00  0.00     0.002 C 
BRANCH  25  26
ATOM     26  C   UNL A   1      38.227  19.567  24.862  1.00  0.00     0.021 C 
BRANCH  26  27
ATOM     27  C   UNL A   1      39.236  19.855  25.973  1.00  0.00     0.116 C 
BRANCH  27  28
ATOM     28  N   UNL A   1      40.489  19.152  25.775  1.00  0.00    -0.352 N 
ATOM     29  C   UNL A   1      41.779  19.592  25.914  1.00  0.00     0.251 C 
ATOM     30  H   UNL A   1      40.399  18.212  25.498  1.00  0.00     0.163 HD
ATOM     31  O   UNL A   1      42.707  18.892  25.522  1.00  0.00    -0.269 OA
BRANCH  29  32
ATOM     32  C   UNL A   1      42.067  20.911  26.519  1.00  0.00     0.039 A 
ATOM     33  C   UNL A   1      42.402  21.970  25.670  1.00  0.00     0.014 A 
ATOM     34  C   UNL A   1      42.067  21.103  27.905  1.00  0.00     0.014 A 
ATOM     35  C   UNL A   1      42.695  23.225  26.204  1.00  0.00     0.010 A 
ATOM     36  C   UNL A   1      42.300  22.373  28.434  1.00  0.00     0.010 A 
ATOM     37  C   UNL A   1      42.626  23.444  27.590  1.00  0.00    -0.014 A 
BRANCH  37  38
ATOM     38  C   UNL A   1      42.892  24.795  28.145  1.00  0.00     0.031 A 
ATOM     39  C   UNL A   1      44.288  25.216  28.512  1.00  0.00     0.074 A 
ATOM     40  C   UNL A   1      41.862  25.642  28.336  1.00  0.00     0.049 A 
ATOM     41  N   UNL A   1      44.709  26.379  28.949  1.00  0.00    -0.248 NA
ATOM     42  C   UNL A   1      45.348  24.203  28.395  1.00  0.00     0.031 C 
ATOM     43  C   UNL A   1      40.452  25.333  28.081  1.00  0.00     0.029 A 
ATOM     44  N   UNL A   1      41.841  26.939  28.784  1.00  0.00    -0.354 N 
ATOM     45  C   UNL A   1      46.072  26.229  29.174  1.00  0.00     0.074 A 
ATOM     46  C   UNL A   1      46.403  24.856  28.863  1.00  0.00     0.031 C 
ATOM     47  C   UNL A   1      39.710  26.422  28.343  1.00  0.00     0.029 A 
ATOM     48  C   UNL A   1      40.585  27.494  28.804  1.00  0.00     0.049 A 
ATOM     49  H   UNL A   1      42.650  27.425  29.064  1.00  0.00     0.167 HD
ATOM     50  C   UNL A   1      46.969  27.156  29.584  1.00  0.00     0.031 A 
ATOM     51  C   UNL A   1      40.183  28.733  29.144  1.00  0.00     0.031 A 
ATOM     52  C   UNL A   1      46.648  28.530  29.867  1.00  0.00     0.049 A 
ATOM     53  C   UNL A   1      41.207  29.752  29.556  1.00  0.00     0.074 A 
ATOM     54  C   UNL A   1      47.504  29.565  30.202  1.00  0.00     0.029 A 
ATOM     55  N   UNL A   1      45.367  29.059  29.853  1.00  0.00    -0.354 N 
ATOM     56  N   UNL A   1      42.508  29.623  29.655  1.00  0.00    -0.248 NA
ATOM     57  C   UNL A   1      40.707  31.095  29.881  1.00  0.00     0.031 C 
ATOM     58  C   UNL A   1      46.737  30.710  30.437  1.00  0.00     0.029 A 
ATOM     59  C   UNL A   1      45.408  30.399  30.202  1.00  0.00     0.049 A 
ATOM     60  H   UNL A   1      44.550  28.557  29.629  1.00  0.00     0.167 HD
ATOM     61  C   UNL A   1      42.983  30.871  30.032  1.00  0.00     0.074 A 
ATOM     62  C   UNL A   1      41.834  31.750  30.120  1.00  0.00     0.031 C 
ATOM     63  C   UNL A   1      44.256  31.256  30.290  1.00  0.00     0.031 A 
BRANCH  50  64
ATOM     64  C   UNL A   1      48.397  26.720  29.755  1.00  0.00    -0.014 A 
ATOM     65  C   UNL A   1      49.333  26.865  28.719  1.00  0.00     0.009 A 
ATOM     66  C   UNL A   1      48.828  26.217  30.993  1.00  0.00     0.009 A 
ATOM     67  C   UNL A   1      50.664  26.492  28.911  1.00  0.00     0.001 A 
ATOM     68  C   UNL A   1      50.165  25.867  31.190  1.00  0.00     0.001 A 
ATOM     69  C   UNL A   1      51.081  26.000  30.147  1.00  0.00     0.000 A 
ENDBRANCH  50  64
BRANCH  51  70
ATOM     70  C   UNL A   1      38.742  29.094  29.088  1.00  0.00    -0.014 A 
ATOM     71  C   UNL A   1      38.169  29.567  27.897  1.00  0.00     0.009 A 
ATOM     72  C   UNL A   1      37.939  28.991  30.234  1.00  0.00     0.009 A 
ATOM     73  C   UNL A   1      36.831  29.963  27.864  1.00  0.00     0.001 A 
ATOM     74  C   UNL A   1      36.593  29.362  30.190  1.00  0.00     0.001 A 
ATOM     75  C   UNL A   1      36.044  29.859  29.010  1.00  0.00     0.000 A 
ENDBRANCH  51  70
BRANCH  63  76
ATOM     76  C   UNL A   1      44.468  32.694  30.669  1.00  0.00    -0.014 A 
ATOM     77  C   UNL A   1      44.448  33.100  32.013  1.00  0.00     0.009 A 
ATOM     78  C   UNL A   1      44.705  33.652  29.671  1.00  0.00     0.009 A 
ATOM     79  C   UNL A   1      44.618  34.445  32.345  1.00  0.00     0.001 A 
ATOM     80  C   UNL A   1      44.903  34.991  30.009  1.00  0.00     0.001 A 
ATOM     81  C   UNL A   1      44.847  35.388  31.344  1.00  0.00     0.000 A 
ENDBRANCH  63  76
ENDBRANCH  37  38
ENDBRANCH  29  32
ENDBRANCH  27  28
ENDBRANCH  26  27
ENDBRANCH  25  26
ENDBRANCH   1  25
TORSDOF 15
ENDMDL
MODEL 3
REMARK VINA RESULT:     -10.2      4.525      9.171
REMARK SMILES CC1(C)CCSC[C@@]1(Nc1ccccc1Br)C(=O)NCCCCCCNC(=O)c1ccc(-c2c3nc(c(-c4ccccc4)c4ccc([nH]4)c(-c4ccccc4)c4nc(c(-c5ccccc5)c5ccc2[nH]5)C=C4)C=C3)cc1
REMARK SMILES IDX 22 1 21 2 20 3 19 4 17 5 18 6 8 8 1 9 2 10 3 11 4 12 5 13
REMARK SMILES IDX 7 14 6 15 9 16 10 18 11 19 15 20 12 21 14 22 16 23 13 24
REMARK SMILES IDX 23 25 24 26 25 27 26 28 27 29 28 31 29 32 30 33 76 34 31 35
REMARK SMILES IDX 75 36 32 37 33 38 34 39 69 40 35 41 74 42 68 43 70 44 36 45
REMARK SMILES IDX 73 46 67 47 66 48 37 50 59 51 44 52 58 53 45 54 48 55 57 56
REMARK SMILES IDX 71 57 46 58 47 59 56 61 72 62 49 63 38 64 39 65 43 66 40 67
REMARK SMILES IDX 42 68 41 69 60 70 61 71 65 72 62 73 64 74 63 75 50 76 51 77
REMARK SMILES IDX 55 78 52 79 54 80 53 81
REMARK H PARENT 19 7 9 17 26 30 70 49 48 60
REMARK Flexibility Score: inf
ROOT
ATOM      1  C   UNL A   1      37.365  21.725  24.534  1.00  0.00     0.002 C 
ENDROOT
BRANCH   1   2
ATOM      2  C   UNL A   1      37.416  22.718  25.696  1.00  0.00     0.021 C 
BRANCH   2   3
ATOM      3  C   UNL A   1      36.080  23.395  26.016  1.00  0.00     0.116 C 
BRANCH   3   4
ATOM      4  N   UNL A   1      35.696  24.347  24.985  1.00  0.00    -0.354 N 
ATOM      5  C   UNL A   1      34.729  24.103  24.042  1.00  0.00     0.247 C 
ATOM      6  O   UNL A   1      35.143  23.915  22.893  1.00  0.00    -0.272 OA
ATOM      7  H   UNL A   1      36.156  25.217  24.964  1.00  0.00     0.163 HD
BRANCH   5   8
ATOM      8  C   UNL A   1      33.187  24.080  24.409  1.00  0.00     0.131 C 
ATOM      9  C   UNL A   1      33.431  21.473  24.619  1.00  0.00     0.014 C 
ATOM     10  C   UNL A   1      32.593  22.631  24.023  1.00  0.00    -0.002 C 
ATOM     11  C   UNL A   1      32.574  22.377  22.487  1.00  0.00     0.014 C 
ATOM     12  C   UNL A   1      31.124  22.450  24.512  1.00  0.00     0.020 C 
ATOM     13  C   UNL A   1      30.911  22.578  26.014  1.00  0.00     0.070 C 
ATOM     14  C   UNL A   1      32.960  24.422  25.914  1.00  0.00     0.108 C 
ATOM     15  S   UNL A   1      31.260  24.254  26.573  1.00  0.00    -0.159 SA
BRANCH   8  16
ATOM     16  N   UNL A   1      32.489  25.108  23.538  1.00  0.00    -0.369 N 
ATOM     17  H   UNL A   1      32.094  24.784  22.697  1.00  0.00     0.161 HD
BRANCH  16  18
ATOM     18  C   UNL A   1      32.356  26.469  23.814  1.00  0.00     0.049 A 
ATOM     19  C   UNL A   1      33.540  27.209  24.000  1.00  0.00     0.027 A 
ATOM     20  C   UNL A   1      31.146  27.167  23.972  1.00  0.00     0.041 A 
ATOM     21  C   UNL A   1      33.531  28.580  24.273  1.00  0.00     0.002 A 
ATOM     22  C   UNL A   1      31.135  28.545  24.249  1.00  0.00     0.018 A 
ATOM     23  Br  UNL A   1      29.441  26.334  23.997  1.00  0.00    -0.049 Br
ATOM     24  C   UNL A   1      32.325  29.253  24.391  1.00  0.00     0.001 A 
ENDBRANCH  16  18
ENDBRANCH   8  16
ENDBRANCH   5   8
ENDBRANCH   3   4
ENDBRANCH   2   3
ENDBRANCH   1   2
BRANCH   1  25
ATOM     25  C   UNL A   1      37.046  20.280  24.924  1.00  0.00     0.002 C 
BRANCH  25  26
ATOM     26  C   UNL A   1      38.248  19.332  25.001  1.00  0.00     0.021 C 
BRANCH  26  27
ATOM     27  C   UNL A   1      39.319  19.710  26.023  1.00  0.00     0.116 C 
BRANCH  27  28
ATOM     28  N   UNL A   1      40.469  18.828  25.967  1.00  0.00    -0.352 N 
ATOM     29  C   UNL A   1      41.807  19.119  26.005  1.00  0.00     0.251 C 
ATOM     30  H   UNL A   1      40.255  17.870  25.890  1.00  0.00     0.163 HD
ATOM     31  O   UNL A   1      42.629  18.241  25.760  1.00  0.00    -0.269 OA
BRANCH  29  32
ATOM     32  C   UNL A   1      42.275  20.486  26.323  1.00  0.00     0.039 A 
ATOM     33  C   UNL A   1      42.771  21.275  25.282  1.00  0.00     0.014 A 
ATOM     34  C   UNL A   1      42.283  20.976  27.633  1.00  0.00     0.014 A 
ATOM     35  C   UNL A   1      43.236  22.564  25.546  1.00  0.00     0.010 A 
ATOM     36  C   UNL A   1      42.690  22.286  27.887  1.00  0.00     0.010 A 
ATOM     37  C   UNL A   1      43.180  23.090  26.847  1.00  0.00    -0.014 A 
BRANCH  37  38
ATOM     38  C   UNL A   1      43.631  24.480  27.109  1.00  0.00     0.031 A 
ATOM     39  C   UNL A   1      42.654  25.536  27.548  1.00  0.00     0.074 A 
ATOM     40  C   UNL A   1      44.928  24.796  26.931  1.00  0.00     0.049 A 
ATOM     41  N   UNL A   1      42.885  26.783  27.881  1.00  0.00    -0.248 NA
ATOM     42  C   UNL A   1      41.234  25.157  27.603  1.00  0.00     0.031 C 
ATOM     43  C   UNL A   1      45.965  23.880  26.447  1.00  0.00     0.029 A 
ATOM     44  N   UNL A   1      45.599  25.974  27.143  1.00  0.00    -0.354 N 
ATOM     45  C   UNL A   1      41.643  27.337  28.166  1.00  0.00     0.074 A 
ATOM     46  C   UNL A   1      40.657  26.304  27.931  1.00  0.00     0.031 C 
ATOM     47  C   UNL A   1      47.145  24.522  26.433  1.00  0.00     0.029 A 
ATOM     48  C   UNL A   1      46.946  25.894  26.884  1.00  0.00     0.049 A 
ATOM     49  H   UNL A   1      45.157  26.798  27.452  1.00  0.00     0.167 HD
ATOM     50  C   UNL A   1      41.352  28.584  28.601  1.00  0.00     0.031 A 
ATOM     51  C   UNL A   1      47.915  26.820  27.008  1.00  0.00     0.031 A 
ATOM     52  C   UNL A   1      42.333  29.604  28.863  1.00  0.00     0.049 A 
ATOM     53  C   UNL A   1      47.568  28.184  27.533  1.00  0.00     0.074 A 
ATOM     54  C   UNL A   1      42.142  30.870  29.391  1.00  0.00     0.029 A 
ATOM     55  N   UNL A   1      43.690  29.477  28.610  1.00  0.00    -0.354 N 
ATOM     56  N   UNL A   1      46.402  28.654  27.904  1.00  0.00    -0.248 NA
ATOM     57  C   UNL A   1      48.677  29.137  27.676  1.00  0.00     0.031 C 
ATOM     58  C   UNL A   1      43.377  31.526  29.414  1.00  0.00     0.029 A 
ATOM     59  C   UNL A   1      44.343  30.651  28.945  1.00  0.00     0.049 A 
ATOM     60  H   UNL A   1      44.124  28.672  28.246  1.00  0.00     0.167 HD
ATOM     61  C   UNL A   1      46.640  29.949  28.344  1.00  0.00     0.074 A 
ATOM     62  C   UNL A   1      48.065  30.181  28.218  1.00  0.00     0.031 C 
ATOM     63  C   UNL A   1      45.759  30.868  28.807  1.00  0.00     0.031 A 
BRANCH  50  64
ATOM     64  C   UNL A   1      39.906  28.928  28.827  1.00  0.00    -0.014 A 
ATOM     65  C   UNL A   1      39.103  29.419  27.785  1.00  0.00     0.009 A 
ATOM     66  C   UNL A   1      39.323  28.697  30.083  1.00  0.00     0.009 A 
ATOM     67  C   UNL A   1      37.752  29.693  28.003  1.00  0.00     0.001 A 
ATOM     68  C   UNL A   1      37.966  28.950  30.291  1.00  0.00     0.001 A 
ATOM     69  C   UNL A   1      37.183  29.454  29.253  1.00  0.00     0.000 A 
ENDBRANCH  50  64
BRANCH  51  70
ATOM     70  C   UNL A   1      49.319  26.486  26.651  1.00  0.00    -0.014 A 
ATOM     71  C   UNL A   1      49.797  26.704  25.349  1.00  0.00     0.009 A 
ATOM     72  C   UNL A   1      50.181  25.924  27.604  1.00  0.00     0.009 A 
ATOM     73  C   UNL A   1      51.096  26.333  25.001  1.00  0.00     0.001 A 
ATOM     74  C   UNL A   1      51.489  25.580  27.260  1.00  0.00     0.001 A 
ATOM     75  C   UNL A   1      51.942  25.773  25.957  1.00  0.00     0.000 A 
ENDBRANCH  51  70
BRANCH  63  76
ATOM     76  C   UNL A   1      46.318  32.196  29.228  1.00  0.00    -0.014 A 
ATOM     77  C   UNL A   1      46.782  32.405  30.536  1.00  0.00     0.009 A 
ATOM     78  C   UNL A   1      46.394  33.247  28.302  1.00  0.00     0.009 A 
ATOM     79  C   UNL A   1      47.272  33.655  30.919  1.00  0.00     0.001 A 
ATOM     80  C   UNL A   1      46.910  34.487  28.679  1.00  0.00     0.001 A 
ATOM     81  C   UNL A   1      47.338  34.693  29.991  1.00  0.00     0.000 A 
ENDBRANCH  63  76
ENDBRANCH  37  38
ENDBRANCH  29  32
ENDBRANCH  27  28
ENDBRANCH  26  27
ENDBRANCH  25  26
ENDBRANCH   1  25
TORSDOF 15
ENDMDL
