MODEL 1
REMARK VINA RESULT:     -10.6      0.000      0.000
REMARK SMILES CC[C@@H](C)[C@@H](C(=O)NCCCCCCNC(=O)c1ccc(-c2c3nc(c(-c4ccccc4)c4ccc([nH]4)c(-c4ccccc4)c4nc(c(-c5ccccc5)c5ccc2[nH]5)C=C4)C=C3)cc1)S(=O)(=O)c1ccc(OC)cc1
REMARK SMILES IDX 11 1 10 2 9 3 8 4 6 5 7 6 5 8 3 9 4 10 2 11 1 12 66 13 67 14
REMARK SMILES IDX 68 15 69 16 70 17 76 18 71 19 75 20 72 21 73 22 74 23 12 24
REMARK SMILES IDX 13 25 14 26 15 27 16 28 17 30 18 31 19 32 65 33 20 34 64 35
REMARK SMILES IDX 21 36 22 37 23 38 58 39 24 40 63 41 57 42 59 43 25 44 62 45
REMARK SMILES IDX 56 46 55 47 26 49 48 50 33 51 47 52 34 53 37 54 46 55 60 56
REMARK SMILES IDX 35 57 36 58 45 60 61 61 38 62 27 63 28 64 32 65 29 66 31 67
REMARK SMILES IDX 30 68 49 69 50 70 54 71 51 72 53 73 52 74 39 75 40 76 44 77
REMARK SMILES IDX 41 78 43 79 42 80
REMARK H PARENT 8 7 15 29 59 48 37 59
REMARK Flexibility Score: inf
ROOT
ATOM      1  C   UNL A   1      30.516  29.525  24.249  1.00  0.00     0.002 C 
ENDROOT
BRANCH   1   2
ATOM      2  C   UNL A   1      31.201  29.022  22.980  1.00  0.00     0.021 C 
BRANCH   2   3
ATOM      3  C   UNL A   1      30.661  27.689  22.428  1.00  0.00     0.116 C 
BRANCH   3   4
ATOM      4  N   UNL A   1      31.703  27.041  21.656  1.00  0.00    -0.355 N 
ATOM      5  C   UNL A   1      32.684  26.171  22.035  1.00  0.00     0.239 C 
ATOM      6  O   UNL A   1      33.723  26.257  21.379  1.00  0.00    -0.274 OA
ATOM      7  H   UNL A   1      31.704  27.266  20.698  1.00  0.00     0.163 HD
BRANCH   5   8
ATOM      8  C   UNL A   1      32.500  25.145  23.165  1.00  0.00     0.205 C 
BRANCH   8   9
ATOM      9  C   UNL A   1      32.743  25.678  24.621  1.00  0.00     0.014 C 
ATOM     10  C   UNL A   1      31.446  25.916  25.409  1.00  0.00     0.009 C 
BRANCH   9  11
ATOM     11  C   UNL A   1      33.554  26.985  24.653  1.00  0.00     0.002 C 
ATOM     12  C   UNL A   1      33.994  27.457  26.033  1.00  0.00     0.004 C 
ENDBRANCH   9  11
ENDBRANCH   8   9
BRANCH   8  13
ATOM     13  S   UNL A   1      33.561  23.727  22.682  1.00  0.00     0.190 S 
ATOM     14  O   UNL A   1      33.383  23.422  21.274  1.00  0.00    -0.223 OA
ATOM     15  O   UNL A   1      34.911  24.030  23.137  1.00  0.00    -0.223 OA
BRANCH  13  16
ATOM     16  C   UNL A   1      33.024  22.262  23.567  1.00  0.00     0.068 A 
ATOM     17  C   UNL A   1      33.243  22.136  24.939  1.00  0.00     0.024 A 
ATOM     18  C   UNL A   1      32.445  21.202  22.861  1.00  0.00     0.024 A 
ATOM     19  C   UNL A   1      33.019  20.912  25.569  1.00  0.00     0.048 A 
ATOM     20  C   UNL A   1      32.165  19.993  23.514  1.00  0.00     0.048 A 
ATOM     21  C   UNL A   1      32.482  19.835  24.864  1.00  0.00     0.118 A 
BRANCH  21  22
ATOM     22  O   UNL A   1      32.338  18.694  25.603  1.00  0.00    -0.497 OA
ATOM     23  C   UNL A   1      32.498  17.464  24.912  1.00  0.00     0.278 C 
ENDBRANCH  21  22
ENDBRANCH  13  16
ENDBRANCH   8  13
ENDBRANCH   5   8
ENDBRANCH   3   4
ENDBRANCH   2   3
ENDBRANCH   1   2
BRANCH   1  24
ATOM     24  C   UNL A   1      31.469  29.902  25.382  1.00  0.00     0.002 C 
BRANCH  24  25
ATOM     25  C   UNL A   1      31.212  31.271  26.015  1.00  0.00     0.021 C 
BRANCH  25  26
ATOM     26  C   UNL A   1      32.275  31.724  27.011  1.00  0.00     0.116 C 
BRANCH  26  27
ATOM     27  N   UNL A   1      32.175  33.146  27.301  1.00  0.00    -0.352 N 
ATOM     28  C   UNL A   1      32.980  33.923  28.093  1.00  0.00     0.251 C 
ATOM     29  H   UNL A   1      31.425  33.615  26.869  1.00  0.00     0.163 HD
ATOM     30  O   UNL A   1      32.623  35.052  28.429  1.00  0.00    -0.269 OA
BRANCH  28  31
ATOM     31  C   UNL A   1      34.280  33.396  28.548  1.00  0.00     0.039 A 
ATOM     32  C   UNL A   1      35.434  33.695  27.817  1.00  0.00     0.014 A 
ATOM     33  C   UNL A   1      34.355  32.600  29.694  1.00  0.00     0.014 A 
ATOM     34  C   UNL A   1      36.672  33.234  28.267  1.00  0.00     0.010 A 
ATOM     35  C   UNL A   1      35.596  32.207  30.180  1.00  0.00     0.010 A 
ATOM     36  C   UNL A   1      36.766  32.508  29.465  1.00  0.00    -0.014 A 
BRANCH  36  37
ATOM     37  C   UNL A   1      38.069  32.021  29.980  1.00  0.00     0.031 A 
ATOM     38  C   UNL A   1      38.637  30.727  29.467  1.00  0.00     0.074 A 
ATOM     39  C   UNL A   1      38.703  32.698  30.957  1.00  0.00     0.049 A 
ATOM     40  N   UNL A   1      39.701  30.075  29.862  1.00  0.00    -0.248 NA
ATOM     41  C   UNL A   1      37.892  30.062  28.383  1.00  0.00     0.031 C 
ATOM     42  C   UNL A   1      38.246  33.953  31.557  1.00  0.00     0.029 A 
ATOM     43  N   UNL A   1      39.867  32.414  31.628  1.00  0.00    -0.354 N 
ATOM     44  C   UNL A   1      39.738  28.918  29.094  1.00  0.00     0.074 A 
ATOM     45  C   UNL A   1      38.566  28.930  28.248  1.00  0.00     0.031 C 
ATOM     46  C   UNL A   1      39.129  34.341  32.491  1.00  0.00     0.029 A 
ATOM     47  C   UNL A   1      40.188  33.340  32.591  1.00  0.00     0.049 A 
ATOM     48  H   UNL A   1      40.419  31.621  31.438  1.00  0.00     0.167 HD
ATOM     49  C   UNL A   1      40.675  27.940  29.081  1.00  0.00     0.031 A 
ATOM     50  C   UNL A   1      41.211  33.373  33.464  1.00  0.00     0.031 A 
ATOM     51  C   UNL A   1      41.846  27.935  29.914  1.00  0.00     0.049 A 
ATOM     52  C   UNL A   1      42.225  32.261  33.449  1.00  0.00     0.074 A 
ATOM     53  C   UNL A   1      42.880  27.015  29.943  1.00  0.00     0.029 A 
ATOM     54  N   UNL A   1      42.138  28.897  30.869  1.00  0.00    -0.354 N 
ATOM     55  N   UNL A   1      42.277  31.200  32.680  1.00  0.00    -0.248 NA
ATOM     56  C   UNL A   1      43.328  32.357  34.416  1.00  0.00     0.031 C 
ATOM     57  C   UNL A   1      43.770  27.392  30.953  1.00  0.00     0.029 A 
ATOM     58  C   UNL A   1      43.326  28.583  31.506  1.00  0.00     0.049 A 
ATOM     59  H   UNL A   1      41.584  29.688  31.063  1.00  0.00     0.167 HD
ATOM     60  C   UNL A   1      43.436  30.526  33.042  1.00  0.00     0.074 A 
ATOM     61  C   UNL A   1      44.060  31.300  34.095  1.00  0.00     0.031 C 
ATOM     62  C   UNL A   1      43.940  29.371  32.542  1.00  0.00     0.031 A 
BRANCH  49  63
ATOM     63  C   UNL A   1      40.460  26.786  28.141  1.00  0.00    -0.014 A 
ATOM     64  C   UNL A   1      40.984  26.798  26.837  1.00  0.00     0.009 A 
ATOM     65  C   UNL A   1      39.749  25.655  28.573  1.00  0.00     0.009 A 
ATOM     66  C   UNL A   1      40.766  25.720  25.976  1.00  0.00     0.001 A 
ATOM     67  C   UNL A   1      39.560  24.566  27.721  1.00  0.00     0.001 A 
ATOM     68  C   UNL A   1      40.059  24.604  26.420  1.00  0.00     0.000 A 
ENDBRANCH  49  63
BRANCH  50  69
ATOM     69  C   UNL A   1      41.340  34.502  34.423  1.00  0.00    -0.014 A 
ATOM     70  C   UNL A   1      40.733  34.436  35.687  1.00  0.00     0.009 A 
ATOM     71  C   UNL A   1      42.062  35.656  34.078  1.00  0.00     0.009 A 
ATOM     72  C   UNL A   1      40.820  35.514  36.572  1.00  0.00     0.001 A 
ATOM     73  C   UNL A   1      42.175  36.718  34.978  1.00  0.00     0.001 A 
ATOM     74  C   UNL A   1      41.544  36.652  36.219  1.00  0.00     0.000 A 
ENDBRANCH  50  69
BRANCH  62  75
ATOM     75  C   UNL A   1      45.263  28.901  33.080  1.00  0.00    -0.014 A 
ATOM     76  C   UNL A   1      46.478  29.325  32.521  1.00  0.00     0.009 A 
ATOM     77  C   UNL A   1      45.288  28.068  34.211  1.00  0.00     0.009 A 
ATOM     78  C   UNL A   1      47.691  28.899  33.068  1.00  0.00     0.001 A 
ATOM     79  C   UNL A   1      46.500  27.670  34.773  1.00  0.00     0.001 A 
ATOM     80  C   UNL A   1      47.701  28.081  34.197  1.00  0.00     0.000 A 
ENDBRANCH  62  75
ENDBRANCH  36  37
ENDBRANCH  28  31
ENDBRANCH  26  27
ENDBRANCH  25  26
ENDBRANCH  24  25
ENDBRANCH   1  24
TORSDOF 18
ENDMDL
MODEL 2
REMARK VINA RESULT:     -10.4      1.874      3.977
REMARK SMILES CC[C@@H](C)[C@@H](C(=O)NCCCCCCNC(=O)c1ccc(-c2c3nc(c(-c4ccccc4)c4ccc([nH]4)c(-c4ccccc4)c4nc(c(-c5ccccc5)c5ccc2[nH]5)C=C4)C=C3)cc1)S(=O)(=O)c1ccc(OC)cc1
REMARK SMILES IDX 11 1 10 2 9 3 8 4 6 5 7 6 5 8 3 9 4 10 2 11 1 12 66 13 67 14
REMARK SMILES IDX 68 15 69 16 70 17 76 18 71 19 75 20 72 21 73 22 74 23 12 24
REMARK SMILES IDX 13 25 14 26 15 27 16 28 17 30 18 31 19 32 65 33 20 34 64 35
REMARK SMILES IDX 21 36 22 37 23 38 58 39 24 40 63 41 57 42 59 43 25 44 62 45
REMARK SMILES IDX 56 46 55 47 26 49 48 50 33 51 47 52 34 53 37 54 46 55 60 56
REMARK SMILES IDX 35 57 36 58 45 60 61 61 38 62 27 63 28 64 32 65 29 66 31 67
REMARK SMILES IDX 30 68 49 69 50 70 54 71 51 72 53 73 52 74 39 75 40 76 44 77
REMARK SMILES IDX 41 78 43 79 42 80
REMARK H PARENT 8 7 15 29 59 48 37 59
REMARK Flexibility Score: inf
ROOT
ATOM      1  C   UNL A   1      32.358  29.639  26.132  1.00  0.00     0.002 C 
ENDROOT
BRANCH   1   2
ATOM      2  C   UNL A   1      31.904  28.771  27.304  1.00  0.00     0.021 C 
BRANCH   2   3
ATOM      3  C   UNL A   1      31.951  27.253  27.052  1.00  0.00     0.116 C 
BRANCH   3   4
ATOM      4  N   UNL A   1      33.103  26.946  26.227  1.00  0.00    -0.355 N 
ATOM      5  C   UNL A   1      33.254  26.067  25.195  1.00  0.00     0.239 C 
ATOM      6  O   UNL A   1      34.384  25.588  25.093  1.00  0.00    -0.274 OA
ATOM      7  H   UNL A   1      33.914  27.459  26.449  1.00  0.00     0.163 HD
BRANCH   5   8
ATOM      8  C   UNL A   1      32.118  25.724  24.217  1.00  0.00     0.205 C 
BRANCH   8   9
ATOM      9  C   UNL A   1      32.071  24.237  23.715  1.00  0.00     0.014 C 
ATOM     10  C   UNL A   1      30.670  23.785  23.275  1.00  0.00     0.009 C 
BRANCH   9  11
ATOM     11  C   UNL A   1      32.575  23.234  24.767  1.00  0.00     0.002 C 
ATOM     12  C   UNL A   1      33.603  22.222  24.277  1.00  0.00     0.004 C 
ENDBRANCH   9  11
ENDBRANCH   8   9
BRANCH   8  13
ATOM     13  S   UNL A   1      32.259  26.977  22.883  1.00  0.00     0.190 S 
ATOM     14  O   UNL A   1      33.273  27.959  23.221  1.00  0.00    -0.223 OA
ATOM     15  O   UNL A   1      32.418  26.251  21.631  1.00  0.00    -0.223 OA
BRANCH  13  16
ATOM     16  C   UNL A   1      30.719  27.890  22.769  1.00  0.00     0.068 A 
ATOM     17  C   UNL A   1      30.687  29.172  22.222  1.00  0.00     0.024 A 
ATOM     18  C   UNL A   1      29.548  27.339  23.303  1.00  0.00     0.024 A 
ATOM     19  C   UNL A   1      29.534  29.949  22.337  1.00  0.00     0.048 A 
ATOM     20  C   UNL A   1      28.375  28.104  23.361  1.00  0.00     0.048 A 
ATOM     21  C   UNL A   1      28.374  29.423  22.906  1.00  0.00     0.118 A 
BRANCH  21  22
ATOM     22  O   UNL A   1      27.331  30.304  22.974  1.00  0.00    -0.497 OA
ATOM     23  C   UNL A   1      27.574  31.529  23.649  1.00  0.00     0.278 C 
ENDBRANCH  21  22
ENDBRANCH  13  16
ENDBRANCH   8  13
ENDBRANCH   5   8
ENDBRANCH   3   4
ENDBRANCH   2   3
ENDBRANCH   1   2
BRANCH   1  24
ATOM     24  C   UNL A   1      31.296  30.603  25.604  1.00  0.00     0.002 C 
BRANCH  24  25
ATOM     25  C   UNL A   1      31.176  31.918  26.376  1.00  0.00     0.021 C 
BRANCH  25  26
ATOM     26  C   UNL A   1      32.480  32.422  26.987  1.00  0.00     0.116 C 
BRANCH  26  27
ATOM     27  N   UNL A   1      32.370  33.801  27.439  1.00  0.00    -0.352 N 
ATOM     28  C   UNL A   1      33.069  34.442  28.427  1.00  0.00     0.251 C 
ATOM     29  H   UNL A   1      31.698  34.348  26.970  1.00  0.00     0.163 HD
ATOM     30  O   UNL A   1      32.691  35.535  28.852  1.00  0.00    -0.269 OA
BRANCH  28  31
ATOM     31  C   UNL A   1      34.280  33.814  28.987  1.00  0.00     0.039 A 
ATOM     32  C   UNL A   1      35.537  34.256  28.568  1.00  0.00     0.014 A 
ATOM     33  C   UNL A   1      34.168  32.782  29.923  1.00  0.00     0.014 A 
ATOM     34  C   UNL A   1      36.687  33.693  29.126  1.00  0.00     0.010 A 
ATOM     35  C   UNL A   1      35.311  32.277  30.532  1.00  0.00     0.010 A 
ATOM     36  C   UNL A   1      36.582  32.718  30.130  1.00  0.00    -0.014 A 
BRANCH  36  37
ATOM     37  C   UNL A   1      37.783  32.115  30.758  1.00  0.00     0.031 A 
ATOM     38  C   UNL A   1      38.516  31.007  30.052  1.00  0.00     0.074 A 
ATOM     39  C   UNL A   1      38.170  32.506  31.987  1.00  0.00     0.049 A 
ATOM     40  N   UNL A   1      39.517  30.276  30.474  1.00  0.00    -0.248 NA
ATOM     41  C   UNL A   1      38.041  30.655  28.703  1.00  0.00     0.031 C 
ATOM     42  C   UNL A   1      37.531  33.552  32.787  1.00  0.00     0.029 A 
ATOM     43  N   UNL A   1      39.192  32.056  32.786  1.00  0.00    -0.354 N 
ATOM     44  C   UNL A   1      39.773  29.368  29.455  1.00  0.00     0.074 A 
ATOM     45  C   UNL A   1      38.793  29.602  28.418  1.00  0.00     0.031 C 
ATOM     46  C   UNL A   1      38.187  33.679  33.952  1.00  0.00     0.029 A 
ATOM     47  C   UNL A   1      39.262  32.691  34.002  1.00  0.00     0.049 A 
ATOM     48  H   UNL A   1      39.816  31.346  32.513  1.00  0.00     0.167 HD
ATOM     49  C   UNL A   1      40.749  28.432  29.380  1.00  0.00     0.031 A 
ATOM     50  C   UNL A   1      40.088  32.492  35.046  1.00  0.00     0.031 A 
ATOM     51  C   UNL A   1      41.730  28.207  30.407  1.00  0.00     0.049 A 
ATOM     52  C   UNL A   1      41.148  31.428  34.949  1.00  0.00     0.074 A 
ATOM     53  C   UNL A   1      42.790  27.317  30.406  1.00  0.00     0.029 A 
ATOM     54  N   UNL A   1      41.770  28.879  31.619  1.00  0.00    -0.354 N 
ATOM     55  N   UNL A   1      41.413  30.612  33.958  1.00  0.00    -0.248 NA
ATOM     56  C   UNL A   1      42.030  31.264  36.114  1.00  0.00     0.031 C 
ATOM     57  C   UNL A   1      43.438  27.412  31.641  1.00  0.00     0.029 A 
ATOM     58  C   UNL A   1      42.825  28.409  32.383  1.00  0.00     0.049 A 
ATOM     59  H   UNL A   1      41.144  29.587  31.894  1.00  0.00     0.167 HD
ATOM     60  C   UNL A   1      42.514  29.869  34.362  1.00  0.00     0.074 A 
ATOM     61  C   UNL A   1      42.871  30.334  35.686  1.00  0.00     0.031 C 
ATOM     62  C   UNL A   1      43.175  28.892  33.693  1.00  0.00     0.031 A 
BRANCH  49  63
ATOM     63  C   UNL A   1      40.793  27.571  28.147  1.00  0.00    -0.014 A 
ATOM     64  C   UNL A   1      41.568  27.931  27.032  1.00  0.00     0.009 A 
ATOM     65  C   UNL A   1      40.072  26.367  28.110  1.00  0.00     0.009 A 
ATOM     66  C   UNL A   1      41.588  27.124  25.893  1.00  0.00     0.001 A 
ATOM     67  C   UNL A   1      40.120  25.546  26.982  1.00  0.00     0.001 A 
ATOM     68  C   UNL A   1      40.869  25.930  25.871  1.00  0.00     0.000 A 
ENDBRANCH  49  63
BRANCH  50  69
ATOM     69  C   UNL A   1      39.958  33.323  36.272  1.00  0.00    -0.014 A 
ATOM     70  C   UNL A   1      39.125  32.914  37.325  1.00  0.00     0.009 A 
ATOM     71  C   UNL A   1      40.658  34.534  36.394  1.00  0.00     0.009 A 
ATOM     72  C   UNL A   1      38.971  33.714  38.459  1.00  0.00     0.001 A 
ATOM     73  C   UNL A   1      40.528  35.316  37.543  1.00  0.00     0.001 A 
ATOM     74  C   UNL A   1      39.677  34.912  38.570  1.00  0.00     0.000 A 
ENDBRANCH  50  69
BRANCH  62  75
ATOM     75  C   UNL A   1      44.389  28.299  34.350  1.00  0.00    -0.014 A 
ATOM     76  C   UNL A   1      44.310  27.131  35.124  1.00  0.00     0.009 A 
ATOM     77  C   UNL A   1      45.645  28.889  34.133  1.00  0.00     0.009 A 
ATOM     78  C   UNL A   1      45.465  26.583  35.691  1.00  0.00     0.001 A 
ATOM     79  C   UNL A   1      46.799  28.322  34.674  1.00  0.00     0.001 A 
ATOM     80  C   UNL A   1      46.707  27.173  35.458  1.00  0.00     0.000 A 
ENDBRANCH  62  75
ENDBRANCH  36  37
ENDBRANCH  28  31
ENDBRANCH  26  27
ENDBRANCH  25  26
ENDBRANCH  24  25
ENDBRANCH   1  24
TORSDOF 18
ENDMDL
MODEL 3
REMARK VINA RESULT:     -10.4      2.653      6.943
REMARK SMILES CC[C@@H](C)[C@@H](C(=O)NCCCCCCNC(=O)c1ccc(-c2c3nc(c(-c4ccccc4)c4ccc([nH]4)c(-c4ccccc4)c4nc(c(-c5ccccc5)c5ccc2[nH]5)C=C4)C=C3)cc1)S(=O)(=O)c1ccc(OC)cc1
REMARK SMILES IDX 11 1 10 2 9 3 8 4 6 5 7 6 5 8 3 9 4 10 2 11 1 12 66 13 67 14
REMARK SMILES IDX 68 15 69 16 70 17 76 18 71 19 75 20 72 21 73 22 74 23 12 24
REMARK SMILES IDX 13 25 14 26 15 27 16 28 17 30 18 31 19 32 65 33 20 34 64 35
REMARK SMILES IDX 21 36 22 37 23 38 58 39 24 40 63 41 57 42 59 43 25 44 62 45
REMARK SMILES IDX 56 46 55 47 26 49 48 50 33 51 47 52 34 53 37 54 46 55 60 56
REMARK SMILES IDX 35 57 36 58 45 60 61 61 38 62 27 63 28 64 32 65 29 66 31 67
REMARK SMILES IDX 30 68 49 69 50 70 54 71 51 72 53 73 52 74 39 75 40 76 44 77
REMARK SMILES IDX 41 78 43 79 42 80
REMARK H PARENT 8 7 15 29 59 48 37 59
REMARK Flexibility Score: inf
ROOT
ATOM      1  C   UNL A   1      31.724  27.003  24.743  1.00  0.00     0.002 C 
ENDROOT
BRANCH   1   2
ATOM      2  C   UNL A   1      31.717  26.563  23.280  1.00  0.00     0.021 C 
BRANCH   2   3
ATOM      3  C   UNL A   1      33.107  26.419  22.632  1.00  0.00     0.116 C 
BRANCH   3   4
ATOM      4  N   UNL A   1      33.299  25.040  22.229  1.00  0.00    -0.355 N 
ATOM      5  C   UNL A   1      33.706  23.950  22.941  1.00  0.00     0.239 C 
ATOM      6  O   UNL A   1      34.336  23.118  22.286  1.00  0.00    -0.274 OA
ATOM      7  H   UNL A   1      33.104  24.859  21.281  1.00  0.00     0.163 HD
BRANCH   5   8
ATOM      8  C   UNL A   1      33.380  23.757  24.431  1.00  0.00     0.205 C 
BRANCH   8   9
ATOM      9  C   UNL A   1      34.555  23.226  25.326  1.00  0.00     0.014 C 
ATOM     10  C   UNL A   1      34.213  23.186  26.824  1.00  0.00     0.009 C 
BRANCH   9  11
ATOM     11  C   UNL A   1      35.848  24.044  25.167  1.00  0.00     0.002 C 
ATOM     12  C   UNL A   1      37.110  23.406  25.734  1.00  0.00     0.004 C 
ENDBRANCH   9  11
ENDBRANCH   8   9
BRANCH   8  13
ATOM     13  S   UNL A   1      31.874  22.708  24.445  1.00  0.00     0.190 S 
ATOM     14  O   UNL A   1      31.231  22.768  25.744  1.00  0.00    -0.223 OA
ATOM     15  O   UNL A   1      31.080  23.087  23.285  1.00  0.00    -0.223 OA
BRANCH  13  16
ATOM     16  C   UNL A   1      32.350  20.993  24.218  1.00  0.00     0.068 A 
ATOM     17  C   UNL A   1      32.228  20.377  22.973  1.00  0.00     0.024 A 
ATOM     18  C   UNL A   1      32.778  20.244  25.320  1.00  0.00     0.024 A 
ATOM     19  C   UNL A   1      32.395  18.996  22.862  1.00  0.00     0.048 A 
ATOM     20  C   UNL A   1      33.003  18.866  25.188  1.00  0.00     0.048 A 
ATOM     21  C   UNL A   1      32.780  18.233  23.963  1.00  0.00     0.118 A 
BRANCH  21  22
ATOM     22  O   UNL A   1      32.882  16.893  23.713  1.00  0.00    -0.497 OA
ATOM     23  C   UNL A   1      33.301  16.073  24.794  1.00  0.00     0.278 C 
ENDBRANCH  21  22
ENDBRANCH  13  16
ENDBRANCH   8  13
ENDBRANCH   5   8
ENDBRANCH   3   4
ENDBRANCH   2   3
ENDBRANCH   1   2
BRANCH   1  24
ATOM     24  C   UNL A   1      33.110  27.072  25.381  1.00  0.00     0.002 C 
BRANCH  24  25
ATOM     25  C   UNL A   1      33.559  28.472  25.802  1.00  0.00     0.021 C 
BRANCH  25  26
ATOM     26  C   UNL A   1      33.687  28.677  27.309  1.00  0.00     0.116 C 
BRANCH  26  27
ATOM     27  N   UNL A   1      33.653  30.085  27.670  1.00  0.00    -0.352 N 
ATOM     28  C   UNL A   1      34.592  30.826  28.339  1.00  0.00     0.251 C 
ATOM     29  H   UNL A   1      32.843  30.573  27.396  1.00  0.00     0.163 HD
ATOM     30  O   UNL A   1      34.310  31.941  28.780  1.00  0.00    -0.269 OA
BRANCH  28  31
ATOM     31  C   UNL A   1      35.947  30.279  28.535  1.00  0.00     0.039 A 
ATOM     32  C   UNL A   1      36.860  30.314  27.478  1.00  0.00     0.014 A 
ATOM     33  C   UNL A   1      36.310  29.723  29.766  1.00  0.00     0.014 A 
ATOM     34  C   UNL A   1      38.157  29.835  27.671  1.00  0.00     0.010 A 
ATOM     35  C   UNL A   1      37.622  29.318  29.979  1.00  0.00     0.010 A 
ATOM     36  C   UNL A   1      38.555  29.357  28.930  1.00  0.00    -0.014 A 
BRANCH  36  37
ATOM     37  C   UNL A   1      39.932  28.860  29.174  1.00  0.00     0.031 A 
ATOM     38  C   UNL A   1      40.960  29.779  29.774  1.00  0.00     0.074 A 
ATOM     39  C   UNL A   1      40.277  27.616  28.793  1.00  0.00     0.049 A 
ATOM     40  N   UNL A   1      42.239  29.577  29.968  1.00  0.00    -0.248 NA
ATOM     41  C   UNL A   1      40.494  31.115  30.183  1.00  0.00     0.031 C 
ATOM     42  C   UNL A   1      39.380  26.635  28.179  1.00  0.00     0.029 A 
ATOM     43  N   UNL A   1      41.486  26.967  28.853  1.00  0.00    -0.354 N 
ATOM     44  C   UNL A   1      42.730  30.763  30.497  1.00  0.00     0.074 A 
ATOM     45  C   UNL A   1      41.627  31.697  30.546  1.00  0.00     0.031 C 
ATOM     46  C   UNL A   1      40.062  25.503  27.940  1.00  0.00     0.029 A 
ATOM     47  C   UNL A   1      41.454  25.694  28.337  1.00  0.00     0.049 A 
ATOM     48  H   UNL A   1      42.297  27.376  29.232  1.00  0.00     0.167 HD
ATOM     49  C   UNL A   1      43.984  31.046  30.922  1.00  0.00     0.031 A 
ATOM     50  C   UNL A   1      42.439  24.789  28.187  1.00  0.00     0.031 A 
ATOM     51  C   UNL A   1      45.077  30.113  30.883  1.00  0.00     0.049 A 
ATOM     52  C   UNL A   1      43.831  25.135  28.643  1.00  0.00     0.074 A 
ATOM     53  C   UNL A   1      46.374  30.285  31.334  1.00  0.00     0.029 A 
ATOM     54  N   UNL A   1      45.001  28.830  30.361  1.00  0.00    -0.354 N 
ATOM     55  N   UNL A   1      44.270  26.242  29.191  1.00  0.00    -0.248 NA
ATOM     56  C   UNL A   1      44.862  24.102  28.467  1.00  0.00     0.031 C 
ATOM     57  C   UNL A   1      47.097  29.126  31.034  1.00  0.00     0.029 A 
ATOM     58  C   UNL A   1      46.233  28.208  30.460  1.00  0.00     0.049 A 
ATOM     59  H   UNL A   1      44.190  28.423  29.979  1.00  0.00     0.167 HD
ATOM     60  C   UNL A   1      45.614  26.024  29.463  1.00  0.00     0.074 A 
ATOM     61  C   UNL A   1      45.918  24.678  29.024  1.00  0.00     0.031 C 
ATOM     62  C   UNL A   1      46.515  26.863  30.031  1.00  0.00     0.031 A 
BRANCH  49  63
ATOM     63  C   UNL A   1      44.242  32.429  31.454  1.00  0.00    -0.014 A 
ATOM     64  C   UNL A   1      44.642  33.475  30.606  1.00  0.00     0.009 A 
ATOM     65  C   UNL A   1      44.053  32.698  32.819  1.00  0.00     0.009 A 
ATOM     66  C   UNL A   1      44.886  34.750  31.122  1.00  0.00     0.001 A 
ATOM     67  C   UNL A   1      44.266  33.982  33.326  1.00  0.00     0.001 A 
ATOM     68  C   UNL A   1      44.692  35.003  32.479  1.00  0.00     0.000 A 
ENDBRANCH  49  63
BRANCH  50  69
ATOM     69  C   UNL A   1      42.147  23.459  27.589  1.00  0.00    -0.014 A 
ATOM     70  C   UNL A   1      42.381  23.224  26.225  1.00  0.00     0.009 A 
ATOM     71  C   UNL A   1      41.624  22.419  28.375  1.00  0.00     0.009 A 
ATOM     72  C   UNL A   1      42.068  21.988  25.655  1.00  0.00     0.001 A 
ATOM     73  C   UNL A   1      41.343  21.174  27.809  1.00  0.00     0.001 A 
ATOM     74  C   UNL A   1      41.554  20.962  26.447  1.00  0.00     0.000 A 
ENDBRANCH  50  69
BRANCH  62  75
ATOM     75  C   UNL A   1      47.901  26.334  30.270  1.00  0.00    -0.014 A 
ATOM     76  C   UNL A   1      48.264  25.744  31.490  1.00  0.00     0.009 A 
ATOM     77  C   UNL A   1      48.840  26.371  29.225  1.00  0.00     0.009 A 
ATOM     78  C   UNL A   1      49.551  25.228  31.667  1.00  0.00     0.001 A 
ATOM     79  C   UNL A   1      50.113  25.827  29.395  1.00  0.00     0.001 A 
ATOM     80  C   UNL A   1      50.469  25.262  30.618  1.00  0.00     0.000 A 
ENDBRANCH  62  75
ENDBRANCH  36  37
ENDBRANCH  28  31
ENDBRANCH  26  27
ENDBRANCH  25  26
ENDBRANCH  24  25
ENDBRANCH   1  24
TORSDOF 18
ENDMDL
