MODEL 1
REMARK VINA RESULT:     -10.1      0.000      0.000
REMARK SMILES CC(C)[C@@H](NC(=O)[C@H]1CCCO1)C(=O)NCCCCCCNC(=O)c1ccc(-c2c3nc(c(-c4ccccc4)c4ccc([nH]4)c(-c4ccccc4)c4nc(c(-c5ccccc5)c5ccc2[nH]5)C=C4)C=C3)cc1
REMARK SMILES IDX 18 1 17 2 16 3 15 4 13 5 14 6 4 8 2 9 1 10 3 11 5 12 6 13
REMARK SMILES IDX 7 15 8 16 9 17 12 18 10 19 11 20 19 21 20 22 21 23 22 24
REMARK SMILES IDX 23 25 24 27 25 28 26 29 72 30 27 31 71 32 28 33 29 34 30 35
REMARK SMILES IDX 65 36 31 37 70 38 64 39 66 40 32 41 69 42 63 43 62 44 33 46
REMARK SMILES IDX 55 47 40 48 54 49 41 50 44 51 53 52 67 53 42 54 43 55 52 57
REMARK SMILES IDX 68 58 45 59 34 60 35 61 39 62 36 63 38 64 37 65 56 66 57 67
REMARK SMILES IDX 61 68 58 69 60 70 59 71 46 72 47 73 51 74 48 75 50 76 49 77
REMARK H PARENT 15 7 5 14 22 26 66 45 44 56
REMARK Flexibility Score: inf
ROOT
ATOM      1  C   UNL A   1      36.648  23.579  24.635  1.00  0.00     0.002 C 
ENDROOT
BRANCH   1   2
ATOM      2  C   UNL A   1      35.399  24.069  25.371  1.00  0.00     0.021 C 
BRANCH   2   3
ATOM      3  C   UNL A   1      34.123  23.429  24.850  1.00  0.00     0.116 C 
BRANCH   3   4
ATOM      4  N   UNL A   1      33.207  23.171  25.945  1.00  0.00    -0.354 N 
ATOM      5  C   UNL A   1      32.183  23.929  26.428  1.00  0.00     0.242 C 
ATOM      6  O   UNL A   1      31.611  23.523  27.446  1.00  0.00    -0.273 OA
ATOM      7  H   UNL A   1      33.347  22.316  26.411  1.00  0.00     0.163 HD
BRANCH   5   8
ATOM      8  C   UNL A   1      31.932  25.336  25.869  1.00  0.00     0.174 C 
BRANCH   8   9
ATOM      9  C   UNL A   1      30.780  25.189  24.805  1.00  0.00     0.015 C 
ATOM     10  C   UNL A   1      29.571  26.090  25.058  1.00  0.00     0.010 C 
ATOM     11  C   UNL A   1      31.261  25.410  23.359  1.00  0.00     0.010 C 
ENDBRANCH   8   9
BRANCH   8  12
ATOM     12  N   UNL A   1      31.570  26.300  26.930  1.00  0.00    -0.342 N 
ATOM     13  C   UNL A   1      31.578  27.664  26.966  1.00  0.00     0.249 C 
ATOM     14  H   UNL A   1      31.266  25.879  27.766  1.00  0.00     0.164 HD
ATOM     15  O   UNL A   1      30.998  28.179  27.932  1.00  0.00    -0.272 OA
BRANCH  13  16
ATOM     16  C   UNL A   1      32.342  28.580  25.969  1.00  0.00     0.207 C 
ATOM     17  C   UNL A   1      33.809  28.156  25.824  1.00  0.00     0.044 C 
ATOM     18  O   UNL A   1      31.837  28.796  24.663  1.00  0.00    -0.368 OA
ATOM     19  C   UNL A   1      34.026  27.990  24.340  1.00  0.00     0.032 C 
ATOM     20  C   UNL A   1      32.937  28.845  23.743  1.00  0.00     0.161 C 
ENDBRANCH  13  16
ENDBRANCH   8  12
ENDBRANCH   5   8
ENDBRANCH   3   4
ENDBRANCH   2   3
ENDBRANCH   1   2
BRANCH   1  21
ATOM     21  C   UNL A   1      36.547  22.149  24.094  1.00  0.00     0.002 C 
BRANCH  21  22
ATOM     22  C   UNL A   1      37.024  21.065  25.056  1.00  0.00     0.021 C 
BRANCH  22  23
ATOM     23  C   UNL A   1      38.426  21.297  25.600  1.00  0.00     0.116 C 
BRANCH  23  24
ATOM     24  N   UNL A   1      39.233  20.087  25.583  1.00  0.00    -0.352 N 
ATOM     25  C   UNL A   1      40.552  19.933  25.940  1.00  0.00     0.251 C 
ATOM     26  H   UNL A   1      38.776  19.272  25.275  1.00  0.00     0.163 HD
ATOM     27  O   UNL A   1      41.148  18.891  25.730  1.00  0.00    -0.269 OA
BRANCH  25  28
ATOM     28  C   UNL A   1      41.242  21.085  26.553  1.00  0.00     0.039 A 
ATOM     29  C   UNL A   1      41.872  22.013  25.724  1.00  0.00     0.014 A 
ATOM     30  C   UNL A   1      41.174  21.283  27.935  1.00  0.00     0.014 A 
ATOM     31  C   UNL A   1      42.365  23.195  26.277  1.00  0.00     0.010 A 
ATOM     32  C   UNL A   1      41.594  22.493  28.470  1.00  0.00     0.010 A 
ATOM     33  C   UNL A   1      42.182  23.464  27.644  1.00  0.00    -0.014 A 
BRANCH  33  34
ATOM     34  C   UNL A   1      42.561  24.771  28.229  1.00  0.00     0.031 A 
ATOM     35  C   UNL A   1      41.525  25.842  28.413  1.00  0.00     0.074 A 
ATOM     36  C   UNL A   1      43.856  25.020  28.508  1.00  0.00     0.049 A 
ATOM     37  N   UNL A   1      41.679  27.074  28.826  1.00  0.00    -0.248 NA
ATOM     38  C   UNL A   1      40.140  25.492  28.061  1.00  0.00     0.031 C 
ATOM     39  C   UNL A   1      44.961  24.075  28.327  1.00  0.00     0.029 A 
ATOM     40  N   UNL A   1      44.464  26.151  28.992  1.00  0.00    -0.354 N 
ATOM     41  C   UNL A   1      40.416  27.648  28.769  1.00  0.00     0.074 A 
ATOM     42  C   UNL A   1      39.518  26.649  28.233  1.00  0.00     0.031 C 
ATOM     43  C   UNL A   1      46.106  24.656  28.720  1.00  0.00     0.029 A 
ATOM     44  C   UNL A   1      45.825  26.026  29.135  1.00  0.00     0.049 A 
ATOM     45  H   UNL A   1      43.971  26.974  29.216  1.00  0.00     0.167 HD
ATOM     46  C   UNL A   1      40.036  28.891  29.147  1.00  0.00     0.031 A 
ATOM     47  C   UNL A   1      46.746  26.920  29.541  1.00  0.00     0.031 A 
ATOM     48  C   UNL A   1      40.931  29.879  29.686  1.00  0.00     0.049 A 
ATOM     49  C   UNL A   1      46.302  28.304  29.923  1.00  0.00     0.074 A 
ATOM     50  C   UNL A   1      40.633  31.142  30.163  1.00  0.00     0.029 A 
ATOM     51  N   UNL A   1      42.302  29.716  29.808  1.00  0.00    -0.354 N 
ATOM     52  N   UNL A   1      45.091  28.806  29.941  1.00  0.00    -0.248 NA
ATOM     53  C   UNL A   1      47.352  29.244  30.338  1.00  0.00     0.031 C 
ATOM     54  C   UNL A   1      41.832  31.768  30.519  1.00  0.00     0.029 A 
ATOM     55  C   UNL A   1      42.870  30.872  30.317  1.00  0.00     0.049 A 
ATOM     56  H   UNL A   1      42.799  28.899  29.570  1.00  0.00     0.167 HD
ATOM     57  C   UNL A   1      45.231  30.115  30.385  1.00  0.00     0.074 A 
ATOM     58  C   UNL A   1      46.640  30.320  30.646  1.00  0.00     0.031 C 
ATOM     59  C   UNL A   1      44.276  31.061  30.558  1.00  0.00     0.031 A 
BRANCH  46  60
ATOM     60  C   UNL A   1      38.587  29.252  28.981  1.00  0.00    -0.014 A 
ATOM     61  C   UNL A   1      37.694  29.199  30.064  1.00  0.00     0.009 A 
ATOM     62  C   UNL A   1      38.112  29.683  27.732  1.00  0.00     0.009 A 
ATOM     63  C   UNL A   1      36.350  29.535  29.891  1.00  0.00     0.001 A 
ATOM     64  C   UNL A   1      36.775  30.047  27.569  1.00  0.00     0.001 A 
ATOM     65  C   UNL A   1      35.893  29.964  28.645  1.00  0.00     0.000 A 
ENDBRANCH  46  60
BRANCH  47  66
ATOM     66  C   UNL A   1      48.181  26.536  29.604  1.00  0.00    -0.014 A 
ATOM     67  C   UNL A   1      49.024  26.751  28.504  1.00  0.00     0.009 A 
ATOM     68  C   UNL A   1      48.715  25.953  30.764  1.00  0.00     0.009 A 
ATOM     69  C   UNL A   1      50.367  26.368  28.555  1.00  0.00     0.001 A 
ATOM     70  C   UNL A   1      50.065  25.598  30.823  1.00  0.00     0.001 A 
ATOM     71  C   UNL A   1      50.886  25.796  29.715  1.00  0.00     0.000 A 
ENDBRANCH  47  66
BRANCH  59  72
ATOM     72  C   UNL A   1      44.726  32.404  31.059  1.00  0.00    -0.014 A 
ATOM     73  C   UNL A   1      44.828  32.666  32.434  1.00  0.00     0.009 A 
ATOM     74  C   UNL A   1      45.104  33.400  30.145  1.00  0.00     0.009 A 
ATOM     75  C   UNL A   1      45.278  33.909  32.883  1.00  0.00     0.001 A 
ATOM     76  C   UNL A   1      45.580  34.630  30.597  1.00  0.00     0.001 A 
ATOM     77  C   UNL A   1      45.659  34.886  31.965  1.00  0.00     0.000 A 
ENDBRANCH  59  72
ENDBRANCH  33  34
ENDBRANCH  25  28
ENDBRANCH  23  24
ENDBRANCH  22  23
ENDBRANCH  21  22
ENDBRANCH   1  21
TORSDOF 16
ENDMDL
MODEL 2
REMARK VINA RESULT:     -10.0      1.084      6.457
REMARK SMILES CC(C)[C@@H](NC(=O)[C@H]1CCCO1)C(=O)NCCCCCCNC(=O)c1ccc(-c2c3nc(c(-c4ccccc4)c4ccc([nH]4)c(-c4ccccc4)c4nc(c(-c5ccccc5)c5ccc2[nH]5)C=C4)C=C3)cc1
REMARK SMILES IDX 18 1 17 2 16 3 15 4 13 5 14 6 4 8 2 9 1 10 3 11 5 12 6 13
REMARK SMILES IDX 7 15 8 16 9 17 12 18 10 19 11 20 19 21 20 22 21 23 22 24
REMARK SMILES IDX 23 25 24 27 25 28 26 29 72 30 27 31 71 32 28 33 29 34 30 35
REMARK SMILES IDX 65 36 31 37 70 38 64 39 66 40 32 41 69 42 63 43 62 44 33 46
REMARK SMILES IDX 55 47 40 48 54 49 41 50 44 51 53 52 67 53 42 54 43 55 52 57
REMARK SMILES IDX 68 58 45 59 34 60 35 61 39 62 36 63 38 64 37 65 56 66 57 67
REMARK SMILES IDX 61 68 58 69 60 70 59 71 46 72 47 73 51 74 48 75 50 76 49 77
REMARK H PARENT 15 7 5 14 22 26 66 45 44 56
REMARK Flexibility Score: inf
ROOT
ATOM      1  C   UNL A   1      35.490  22.356  24.020  1.00  0.00     0.002 C 
ENDROOT
BRANCH   1   2
ATOM      2  C   UNL A   1      35.007  23.551  23.195  1.00  0.00     0.021 C 
BRANCH   2   3
ATOM      3  C   UNL A   1      34.738  24.781  24.045  1.00  0.00     0.116 C 
BRANCH   3   4
ATOM      4  N   UNL A   1      33.588  25.502  23.534  1.00  0.00    -0.354 N 
ATOM      5  C   UNL A   1      32.641  26.223  24.196  1.00  0.00     0.242 C 
ATOM      6  O   UNL A   1      31.697  26.663  23.531  1.00  0.00    -0.273 OA
ATOM      7  H   UNL A   1      33.474  25.465  22.558  1.00  0.00     0.163 HD
BRANCH   5   8
ATOM      8  C   UNL A   1      32.634  26.265  25.731  1.00  0.00     0.174 C 
BRANCH   8   9
ATOM      9  C   UNL A   1      32.408  27.772  26.131  1.00  0.00     0.015 C 
ATOM     10  C   UNL A   1      31.759  27.968  27.502  1.00  0.00     0.010 C 
ATOM     11  C   UNL A   1      33.698  28.611  26.076  1.00  0.00     0.010 C 
ENDBRANCH   8   9
BRANCH   8  12
ATOM     12  N   UNL A   1      31.590  25.390  26.306  1.00  0.00    -0.342 N 
ATOM     13  C   UNL A   1      31.600  24.073  26.666  1.00  0.00     0.249 C 
ATOM     14  H   UNL A   1      30.729  25.840  26.457  1.00  0.00     0.164 HD
ATOM     15  O   UNL A   1      30.627  23.692  27.333  1.00  0.00    -0.272 OA
BRANCH  13  16
ATOM     16  C   UNL A   1      32.658  23.030  26.210  1.00  0.00     0.207 C 
ATOM     17  C   UNL A   1      33.845  22.968  27.180  1.00  0.00     0.044 C 
ATOM     18  O   UNL A   1      32.275  21.694  25.932  1.00  0.00    -0.368 OA
ATOM     19  C   UNL A   1      33.978  21.511  27.548  1.00  0.00     0.032 C 
ATOM     20  C   UNL A   1      33.305  20.810  26.394  1.00  0.00     0.161 C 
ENDBRANCH  13  16
ENDBRANCH   8  12
ENDBRANCH   5   8
ENDBRANCH   3   4
ENDBRANCH   2   3
ENDBRANCH   1   2
BRANCH   1  21
ATOM     21  C   UNL A   1      37.012  22.251  24.157  1.00  0.00     0.002 C 
BRANCH  21  22
ATOM     22  C   UNL A   1      37.517  20.907  24.676  1.00  0.00     0.021 C 
BRANCH  22  23
ATOM     23  C   UNL A   1      38.630  21.024  25.706  1.00  0.00     0.116 C 
BRANCH  23  24
ATOM     24  N   UNL A   1      39.523  19.876  25.687  1.00  0.00    -0.352 N 
ATOM     25  C   UNL A   1      40.861  19.828  26.002  1.00  0.00     0.251 C 
ATOM     26  H   UNL A   1      39.118  19.022  25.413  1.00  0.00     0.163 HD
ATOM     27  O   UNL A   1      41.526  18.827  25.794  1.00  0.00    -0.269 OA
BRANCH  25  28
ATOM     28  C   UNL A   1      41.484  21.042  26.566  1.00  0.00     0.039 A 
ATOM     29  C   UNL A   1      42.101  21.947  25.702  1.00  0.00     0.014 A 
ATOM     30  C   UNL A   1      41.365  21.316  27.931  1.00  0.00     0.014 A 
ATOM     31  C   UNL A   1      42.528  23.178  26.199  1.00  0.00     0.010 A 
ATOM     32  C   UNL A   1      41.718  22.572  28.405  1.00  0.00     0.010 A 
ATOM     33  C   UNL A   1      42.291  23.517  27.542  1.00  0.00    -0.014 A 
BRANCH  33  34
ATOM     34  C   UNL A   1      42.598  24.872  28.059  1.00  0.00     0.031 A 
ATOM     35  C   UNL A   1      43.987  25.203  28.523  1.00  0.00     0.074 A 
ATOM     36  C   UNL A   1      41.602  25.769  28.192  1.00  0.00     0.049 A 
ATOM     37  N   UNL A   1      44.428  26.300  29.083  1.00  0.00    -0.248 NA
ATOM     38  C   UNL A   1      45.008  24.155  28.361  1.00  0.00     0.031 C 
ATOM     39  C   UNL A   1      40.202  25.547  27.821  1.00  0.00     0.029 A 
ATOM     40  N   UNL A   1      41.612  27.048  28.691  1.00  0.00    -0.354 N 
ATOM     41  C   UNL A   1      45.770  26.069  29.354  1.00  0.00     0.074 A 
ATOM     42  C   UNL A   1      46.059  24.712  28.945  1.00  0.00     0.031 C 
ATOM     43  C   UNL A   1      39.496  26.660  28.079  1.00  0.00     0.029 A 
ATOM     44  C   UNL A   1      40.380  27.655  28.677  1.00  0.00     0.049 A 
ATOM     45  H   UNL A   1      42.427  27.488  29.026  1.00  0.00     0.167 HD
ATOM     46  C   UNL A   1      46.684  26.918  29.878  1.00  0.00     0.031 A 
ATOM     47  C   UNL A   1      40.001  28.872  29.111  1.00  0.00     0.031 A 
ATOM     48  C   UNL A   1      46.393  28.269  30.277  1.00  0.00     0.049 A 
ATOM     49  C   UNL A   1      41.028  29.783  29.720  1.00  0.00     0.074 A 
ATOM     50  C   UNL A   1      47.264  29.232  30.755  1.00  0.00     0.029 A 
ATOM     51  N   UNL A   1      45.132  28.843  30.253  1.00  0.00    -0.354 N 
ATOM     52  N   UNL A   1      42.312  29.579  29.894  1.00  0.00    -0.248 NA
ATOM     53  C   UNL A   1      40.555  31.090  30.195  1.00  0.00     0.031 C 
ATOM     54  C   UNL A   1      46.519  30.370  31.077  1.00  0.00     0.029 A 
ATOM     55  C   UNL A   1      45.194  30.135  30.746  1.00  0.00     0.049 A 
ATOM     56  H   UNL A   1      44.314  28.399  29.932  1.00  0.00     0.167 HD
ATOM     57  C   UNL A   1      42.803  30.737  30.483  1.00  0.00     0.074 A 
ATOM     58  C   UNL A   1      41.683  31.647  30.615  1.00  0.00     0.031 C 
ATOM     59  C   UNL A   1      44.067  31.021  30.881  1.00  0.00     0.031 A 
BRANCH  46  60
ATOM     60  C   UNL A   1      48.084  26.403  30.058  1.00  0.00    -0.014 A 
ATOM     61  C   UNL A   1      48.489  25.798  31.259  1.00  0.00     0.009 A 
ATOM     62  C   UNL A   1      49.003  26.493  29.001  1.00  0.00     0.009 A 
ATOM     63  C   UNL A   1      49.795  25.328  31.410  1.00  0.00     0.001 A 
ATOM     64  C   UNL A   1      50.299  25.995  29.144  1.00  0.00     0.001 A 
ATOM     65  C   UNL A   1      50.697  25.422  30.351  1.00  0.00     0.000 A 
ENDBRANCH  46  60
BRANCH  47  66
ATOM     66  C   UNL A   1      38.583  29.299  28.986  1.00  0.00    -0.014 A 
ATOM     67  C   UNL A   1      37.713  29.205  30.084  1.00  0.00     0.009 A 
ATOM     68  C   UNL A   1      38.090  29.802  27.772  1.00  0.00     0.009 A 
ATOM     69  C   UNL A   1      36.374  29.584  29.961  1.00  0.00     0.001 A 
ATOM     70  C   UNL A   1      36.758  30.207  27.660  1.00  0.00     0.001 A 
ATOM     71  C   UNL A   1      35.899  30.089  28.751  1.00  0.00     0.000 A 
ENDBRANCH  47  66
BRANCH  59  72
ATOM     72  C   UNL A   1      44.307  32.372  31.491  1.00  0.00    -0.014 A 
ATOM     73  C   UNL A   1      44.233  32.562  32.879  1.00  0.00     0.009 A 
ATOM     74  C   UNL A   1      44.666  33.454  30.673  1.00  0.00     0.009 A 
ATOM     75  C   UNL A   1      44.491  33.817  33.433  1.00  0.00     0.001 A 
ATOM     76  C   UNL A   1      44.952  34.699  31.232  1.00  0.00     0.001 A 
ATOM     77  C   UNL A   1      44.856  34.882  32.611  1.00  0.00     0.000 A 
ENDBRANCH  59  72
ENDBRANCH  33  34
ENDBRANCH  25  28
ENDBRANCH  23  24
ENDBRANCH  22  23
ENDBRANCH  21  22
ENDBRANCH   1  21
TORSDOF 16
ENDMDL
MODEL 3
REMARK VINA RESULT:     -10.0      2.374      7.210
REMARK SMILES CC(C)[C@@H](NC(=O)[C@H]1CCCO1)C(=O)NCCCCCCNC(=O)c1ccc(-c2c3nc(c(-c4ccccc4)c4ccc([nH]4)c(-c4ccccc4)c4nc(c(-c5ccccc5)c5ccc2[nH]5)C=C4)C=C3)cc1
REMARK SMILES IDX 18 1 17 2 16 3 15 4 13 5 14 6 4 8 2 9 1 10 3 11 5 12 6 13
REMARK SMILES IDX 7 15 8 16 9 17 12 18 10 19 11 20 19 21 20 22 21 23 22 24
REMARK SMILES IDX 23 25 24 27 25 28 26 29 72 30 27 31 71 32 28 33 29 34 30 35
REMARK SMILES IDX 65 36 31 37 70 38 64 39 66 40 32 41 69 42 63 43 62 44 33 46
REMARK SMILES IDX 55 47 40 48 54 49 41 50 44 51 53 52 67 53 42 54 43 55 52 57
REMARK SMILES IDX 68 58 45 59 34 60 35 61 39 62 36 63 38 64 37 65 56 66 57 67
REMARK SMILES IDX 61 68 58 69 60 70 59 71 46 72 47 73 51 74 48 75 50 76 49 77
REMARK H PARENT 15 7 5 14 22 26 66 45 44 56
REMARK Flexibility Score: inf
ROOT
ATOM      1  C   UNL A   1      34.436  22.977  23.050  1.00  0.00     0.002 C 
ENDROOT
BRANCH   1   2
ATOM      2  C   UNL A   1      33.434  23.946  22.419  1.00  0.00     0.021 C 
BRANCH   2   3
ATOM      3  C   UNL A   1      33.410  25.298  23.109  1.00  0.00     0.116 C 
BRANCH   3   4
ATOM      4  N   UNL A   1      32.094  25.897  22.997  1.00  0.00    -0.354 N 
ATOM      5  C   UNL A   1      31.293  26.439  23.956  1.00  0.00     0.242 C 
ATOM      6  O   UNL A   1      30.161  26.798  23.612  1.00  0.00    -0.273 OA
ATOM      7  H   UNL A   1      31.722  25.914  22.087  1.00  0.00     0.163 HD
BRANCH   5   8
ATOM      8  C   UNL A   1      31.702  26.372  25.435  1.00  0.00     0.174 C 
BRANCH   8   9
ATOM      9  C   UNL A   1      31.473  27.815  26.023  1.00  0.00     0.015 C 
ATOM     10  C   UNL A   1      31.639  27.909  27.540  1.00  0.00     0.010 C 
ATOM     11  C   UNL A   1      32.363  28.885  25.365  1.00  0.00     0.010 C 
ENDBRANCH   8   9
BRANCH   8  12
ATOM     12  N   UNL A   1      30.931  25.354  26.179  1.00  0.00    -0.342 N 
ATOM     13  C   UNL A   1      31.245  24.089  26.587  1.00  0.00     0.249 C 
ATOM     14  H   UNL A   1      30.023  25.642  26.427  1.00  0.00     0.164 HD
ATOM     15  O   UNL A   1      30.456  23.575  27.393  1.00  0.00    -0.272 OA
BRANCH  13  16
ATOM     16  C   UNL A   1      32.422  23.238  26.034  1.00  0.00     0.207 C 
ATOM     17  C   UNL A   1      33.716  23.488  26.819  1.00  0.00     0.044 C 
ATOM     18  O   UNL A   1      32.285  21.836  25.886  1.00  0.00    -0.368 OA
ATOM     19  C   UNL A   1      34.191  22.118  27.239  1.00  0.00     0.032 C 
ATOM     20  C   UNL A   1      33.527  21.209  26.236  1.00  0.00     0.161 C 
ENDBRANCH  13  16
ENDBRANCH   8  12
ENDBRANCH   5   8
ENDBRANCH   3   4
ENDBRANCH   2   3
ENDBRANCH   1   2
BRANCH   1  21
ATOM     21  C   UNL A   1      35.618  23.653  23.752  1.00  0.00     0.002 C 
BRANCH  21  22
ATOM     22  C   UNL A   1      36.727  22.703  24.197  1.00  0.00     0.021 C 
BRANCH  22  23
ATOM     23  C   UNL A   1      37.427  23.131  25.478  1.00  0.00     0.116 C 
BRANCH  23  24
ATOM     24  N   UNL A   1      38.670  22.407  25.697  1.00  0.00    -0.352 N 
ATOM     25  C   UNL A   1      39.849  22.873  26.228  1.00  0.00     0.251 C 
ATOM     26  H   UNL A   1      38.666  21.460  25.430  1.00  0.00     0.163 HD
ATOM     27  O   UNL A   1      40.863  22.196  26.213  1.00  0.00    -0.269 OA
BRANCH  25  28
ATOM     28  C   UNL A   1      39.865  24.240  26.786  1.00  0.00     0.039 A 
ATOM     29  C   UNL A   1      39.349  24.452  28.065  1.00  0.00     0.014 A 
ATOM     30  C   UNL A   1      40.476  25.276  26.076  1.00  0.00     0.014 A 
ATOM     31  C   UNL A   1      39.525  25.695  28.672  1.00  0.00     0.010 A 
ATOM     32  C   UNL A   1      40.719  26.485  26.711  1.00  0.00     0.010 A 
ATOM     33  C   UNL A   1      40.257  26.702  28.018  1.00  0.00    -0.014 A 
BRANCH  33  34
ATOM     34  C   UNL A   1      40.586  27.977  28.697  1.00  0.00     0.031 A 
ATOM     35  C   UNL A   1      41.922  28.153  29.359  1.00  0.00     0.074 A 
ATOM     36  C   UNL A   1      39.646  28.938  28.791  1.00  0.00     0.049 A 
ATOM     37  N   UNL A   1      42.361  29.159  30.072  1.00  0.00    -0.248 NA
ATOM     38  C   UNL A   1      42.880  27.044  29.225  1.00  0.00     0.031 C 
ATOM     39  C   UNL A   1      38.295  28.863  28.230  1.00  0.00     0.029 A 
ATOM     40  N   UNL A   1      39.680  30.163  29.407  1.00  0.00    -0.354 N 
ATOM     41  C   UNL A   1      43.637  28.797  30.483  1.00  0.00     0.074 A 
ATOM     42  C   UNL A   1      43.882  27.461  29.986  1.00  0.00     0.031 C 
ATOM     43  C   UNL A   1      37.641  30.003  28.504  1.00  0.00     0.029 A 
ATOM     44  C   UNL A   1      38.505  30.867  29.299  1.00  0.00     0.049 A 
ATOM     45  H   UNL A   1      40.473  30.506  29.882  1.00  0.00     0.167 HD
ATOM     46  C   UNL A   1      44.531  29.521  31.196  1.00  0.00     0.031 A 
ATOM     47  C   UNL A   1      38.158  32.069  29.797  1.00  0.00     0.031 A 
ATOM     48  C   UNL A   1      44.286  30.851  31.684  1.00  0.00     0.049 A 
ATOM     49  C   UNL A   1      39.158  32.838  30.614  1.00  0.00     0.074 A 
ATOM     50  C   UNL A   1      45.151  31.696  32.355  1.00  0.00     0.029 A 
ATOM     51  N   UNL A   1      43.082  31.526  31.558  1.00  0.00    -0.354 N 
ATOM     52  N   UNL A   1      40.390  32.517  30.925  1.00  0.00    -0.248 NA
ATOM     53  C   UNL A   1      38.718  34.133  31.149  1.00  0.00     0.031 C 
ATOM     54  C   UNL A   1      44.451  32.859  32.690  1.00  0.00     0.029 A 
ATOM     55  C   UNL A   1      43.168  32.762  32.176  1.00  0.00     0.049 A 
ATOM     56  H   UNL A   1      42.283  31.179  31.097  1.00  0.00     0.167 HD
ATOM     57  C   UNL A   1      40.879  33.576  31.678  1.00  0.00     0.074 A 
ATOM     58  C   UNL A   1      39.818  34.559  31.757  1.00  0.00     0.031 C 
ATOM     59  C   UNL A   1      42.097  33.721  32.255  1.00  0.00     0.031 A 
BRANCH  46  60
ATOM     60  C   UNL A   1      45.856  28.880  31.498  1.00  0.00    -0.014 A 
ATOM     61  C   UNL A   1      46.949  29.020  30.627  1.00  0.00     0.009 A 
ATOM     62  C   UNL A   1      46.027  28.154  32.687  1.00  0.00     0.009 A 
ATOM     63  C   UNL A   1      48.173  28.416  30.922  1.00  0.00     0.001 A 
ATOM     64  C   UNL A   1      47.259  27.576  32.994  1.00  0.00     0.001 A 
ATOM     65  C   UNL A   1      48.328  27.699  32.108  1.00  0.00     0.000 A 
ENDBRANCH  46  60
BRANCH  47  66
ATOM     66  C   UNL A   1      36.801  32.618  29.540  1.00  0.00    -0.014 A 
ATOM     67  C   UNL A   1      35.759  32.398  30.453  1.00  0.00     0.009 A 
ATOM     68  C   UNL A   1      36.540  33.366  28.381  1.00  0.00     0.009 A 
ATOM     69  C   UNL A   1      34.478  32.894  30.200  1.00  0.00     0.001 A 
ATOM     70  C   UNL A   1      35.265  33.886  28.144  1.00  0.00     0.001 A 
ATOM     71  C   UNL A   1      34.233  33.641  29.049  1.00  0.00     0.000 A 
ENDBRANCH  47  66
BRANCH  59  72
ATOM     72  C   UNL A   1      42.349  34.990  33.017  1.00  0.00    -0.014 A 
ATOM     73  C   UNL A   1      41.856  35.162  34.319  1.00  0.00     0.009 A 
ATOM     74  C   UNL A   1      43.135  36.003  32.446  1.00  0.00     0.009 A 
ATOM     75  C   UNL A   1      42.126  36.335  35.026  1.00  0.00     0.001 A 
ATOM     76  C   UNL A   1      43.427  37.162  33.166  1.00  0.00     0.001 A 
ATOM     77  C   UNL A   1      42.916  37.330  34.452  1.00  0.00     0.000 A 
ENDBRANCH  59  72
ENDBRANCH  33  34
ENDBRANCH  25  28
ENDBRANCH  23  24
ENDBRANCH  22  23
ENDBRANCH  21  22
ENDBRANCH   1  21
TORSDOF 16
ENDMDL
