MODEL 1
REMARK VINA RESULT:     -10.6      0.000      0.000
REMARK SMILES Cc1cscc1-c1nc(C)c(C(=O)NCCCCCCNC(=O)c2ccc(-c3c4nc(c(-c5ccccc5)c5ccc([nH]5)c(-c5ccccc5)c5nc(c(-c6ccccc6)c6ccc3[nH]6)C=C5)C=C4)cc2)c(C)n1
REMARK SMILES IDX 18 1 17 2 16 3 15 4 14 5 12 6 13 7 11 9 7 10 8 11 74 12 9 13
REMARK SMILES IDX 72 14 10 15 73 16 6 17 1 18 2 19 3 20 4 21 5 22 19 23 20 24
REMARK SMILES IDX 21 25 22 26 23 28 24 29 25 30 71 31 26 32 70 33 27 34 28 35
REMARK SMILES IDX 29 36 64 37 30 38 69 39 63 40 65 41 31 42 68 43 62 44 61 45
REMARK SMILES IDX 32 47 54 48 39 49 53 50 40 51 43 52 52 53 66 54 41 55 42 56
REMARK SMILES IDX 51 58 67 59 44 60 33 61 34 62 38 63 35 64 37 65 36 66 55 67
REMARK SMILES IDX 56 68 60 69 57 70 59 71 58 72 45 73 46 74 50 75 47 76 49 77
REMARK SMILES IDX 48 78
REMARK H PARENT 14 8 21 27 65 46 43 57
REMARK Flexibility Score: inf
ROOT
ATOM      1  C   UNL A   1      35.073  23.584  24.065  1.00  0.00     0.002 C 
ENDROOT
BRANCH   1   2
ATOM      2  C   UNL A   1      34.438  24.973  23.923  1.00  0.00     0.002 C 
BRANCH   2   3
ATOM      3  C   UNL A   1      34.058  25.639  25.252  1.00  0.00     0.021 C 
BRANCH   3   4
ATOM      4  C   UNL A   1      32.754  26.440  25.166  1.00  0.00     0.116 C 
BRANCH   4   5
ATOM      5  N   UNL A   1      31.691  25.757  25.860  1.00  0.00    -0.352 N 
ATOM      6  C   UNL A   1      31.261  24.502  26.169  1.00  0.00     0.254 C 
ATOM      7  O   UNL A   1      30.205  24.565  26.811  1.00  0.00    -0.269 OA
ATOM      8  H   UNL A   1      31.066  26.418  26.236  1.00  0.00     0.163 HD
BRANCH   6   9
ATOM      9  C   UNL A   1      31.855  23.151  25.873  1.00  0.00     0.082 A 
ATOM     10  C   UNL A   1      32.830  20.704  25.039  1.00  0.00     0.160 A 
ATOM     11  N   UNL A   1      33.093  21.110  26.278  1.00  0.00    -0.232 NA
ATOM     12  N   UNL A   1      32.135  21.406  24.155  1.00  0.00    -0.232 NA
ATOM     13  C   UNL A   1      32.646  22.330  26.679  1.00  0.00     0.054 A 
ATOM     14  C   UNL A   1      31.640  22.607  24.578  1.00  0.00     0.054 A 
ATOM     15  C   UNL A   1      33.134  22.579  28.060  1.00  0.00     0.068 C 
ATOM     16  C   UNL A   1      30.831  23.273  23.494  1.00  0.00     0.068 C 
BRANCH  10  17
ATOM     17  C   UNL A   1      33.313  19.383  24.688  1.00  0.00     0.033 A 
ATOM     18  C   UNL A   1      35.859  19.843  24.934  1.00  0.00     0.046 C 
ATOM     19  C   UNL A   1      34.695  18.973  24.587  1.00  0.00    -0.029 A 
ATOM     20  C   UNL A   1      34.792  17.674  24.125  1.00  0.00     0.069 A 
ATOM     21  S   UNL A   1      33.267  16.953  23.847  1.00  0.00    -0.151 S 
ATOM     22  C   UNL A   1      32.445  18.370  24.333  1.00  0.00     0.077 A 
ENDBRANCH  10  17
ENDBRANCH   6   9
ENDBRANCH   4   5
ENDBRANCH   3   4
ENDBRANCH   2   3
ENDBRANCH   1   2
BRANCH   1  23
ATOM     23  C   UNL A   1      36.582  23.588  24.323  1.00  0.00     0.021 C 
BRANCH  23  24
ATOM     24  C   UNL A   1      36.962  23.488  25.796  1.00  0.00     0.116 C 
BRANCH  24  25
ATOM     25  N   UNL A   1      38.019  22.511  26.009  1.00  0.00    -0.352 N 
ATOM     26  C   UNL A   1      39.321  22.710  26.379  1.00  0.00     0.251 C 
ATOM     27  H   UNL A   1      37.759  21.571  25.867  1.00  0.00     0.163 HD
ATOM     28  O   UNL A   1      40.145  21.803  26.265  1.00  0.00    -0.269 OA
BRANCH  26  29
ATOM     29  C   UNL A   1      39.736  24.019  26.915  1.00  0.00     0.039 A 
ATOM     30  C   UNL A   1      40.324  24.953  26.059  1.00  0.00     0.014 A 
ATOM     31  C   UNL A   1      39.567  24.310  28.272  1.00  0.00     0.014 A 
ATOM     32  C   UNL A   1      40.699  26.202  26.555  1.00  0.00     0.010 A 
ATOM     33  C   UNL A   1      39.881  25.577  28.751  1.00  0.00     0.010 A 
ATOM     34  C   UNL A   1      40.457  26.531  27.898  1.00  0.00    -0.014 A 
BRANCH  34  35
ATOM     35  C   UNL A   1      40.818  27.859  28.448  1.00  0.00     0.031 A 
ATOM     36  C   UNL A   1      42.230  28.122  28.892  1.00  0.00     0.074 A 
ATOM     37  C   UNL A   1      39.866  28.796  28.611  1.00  0.00     0.049 A 
ATOM     38  N   UNL A   1      42.721  29.170  29.502  1.00  0.00    -0.248 NA
ATOM     39  C   UNL A   1      43.216  27.059  28.633  1.00  0.00     0.031 C 
ATOM     40  C   UNL A   1      38.458  28.653  28.234  1.00  0.00     0.029 A 
ATOM     41  N   UNL A   1      39.940  30.056  29.150  1.00  0.00    -0.354 N 
ATOM     42  C   UNL A   1      44.065  28.886  29.713  1.00  0.00     0.074 A 
ATOM     43  C   UNL A   1      44.303  27.552  29.209  1.00  0.00     0.031 C 
ATOM     44  C   UNL A   1      37.806  29.788  28.535  1.00  0.00     0.029 A 
ATOM     45  C   UNL A   1      38.736  30.718  29.167  1.00  0.00     0.049 A 
ATOM     46  H   UNL A   1      40.776  30.448  29.492  1.00  0.00     0.167 HD
ATOM     47  C   UNL A   1      45.020  29.675  30.259  1.00  0.00     0.031 A 
ATOM     48  C   UNL A   1      38.418  31.932  29.651  1.00  0.00     0.031 A 
ATOM     49  C   UNL A   1      44.785  31.004  30.751  1.00  0.00     0.049 A 
ATOM     50  C   UNL A   1      39.492  32.772  30.289  1.00  0.00     0.074 A 
ATOM     51  C   UNL A   1      45.691  31.893  31.302  1.00  0.00     0.029 A 
ATOM     52  N   UNL A   1      43.554  31.640  30.741  1.00  0.00    -0.354 N 
ATOM     53  N   UNL A   1      40.764  32.502  30.450  1.00  0.00    -0.248 NA
ATOM     54  C   UNL A   1      39.085  34.088  30.802  1.00  0.00     0.031 C 
ATOM     55  C   UNL A   1      45.000  33.055  31.661  1.00  0.00     0.029 A 
ATOM     56  C   UNL A   1      43.674  32.907  31.285  1.00  0.00     0.049 A 
ATOM     57  H   UNL A   1      42.717  31.249  30.399  1.00  0.00     0.167 HD
ATOM     58  C   UNL A   1      41.316  33.629  31.045  1.00  0.00     0.074 A 
ATOM     59  C   UNL A   1      40.243  34.587  31.210  1.00  0.00     0.031 C 
ATOM     60  C   UNL A   1      42.600  33.853  31.418  1.00  0.00     0.031 A 
BRANCH  47  61
ATOM     61  C   UNL A   1      46.413  29.119  30.348  1.00  0.00    -0.014 A 
ATOM     62  C   UNL A   1      46.827  28.388  31.473  1.00  0.00     0.009 A 
ATOM     63  C   UNL A   1      47.306  29.283  29.278  1.00  0.00     0.009 A 
ATOM     64  C   UNL A   1      48.117  27.856  31.535  1.00  0.00     0.001 A 
ATOM     65  C   UNL A   1      48.585  28.727  29.332  1.00  0.00     0.001 A 
ATOM     66  C   UNL A   1      48.992  28.022  30.464  1.00  0.00     0.000 A 
ENDBRANCH  47  61
BRANCH  48  67
ATOM     67  C   UNL A   1      37.025  32.442  29.550  1.00  0.00    -0.014 A 
ATOM     68  C   UNL A   1      36.102  32.196  30.579  1.00  0.00     0.009 A 
ATOM     69  C   UNL A   1      36.602  33.150  28.415  1.00  0.00     0.009 A 
ATOM     70  C   UNL A   1      34.776  32.616  30.456  1.00  0.00     0.001 A 
ATOM     71  C   UNL A   1      35.282  33.595  28.308  1.00  0.00     0.001 A 
ATOM     72  C   UNL A   1      34.368  33.316  29.323  1.00  0.00     0.000 A 
ENDBRANCH  48  67
BRANCH  60  73
ATOM     73  C   UNL A   1      42.928  35.206  31.980  1.00  0.00    -0.014 A 
ATOM     74  C   UNL A   1      42.707  35.512  33.331  1.00  0.00     0.009 A 
ATOM     75  C   UNL A   1      43.524  36.169  31.149  1.00  0.00     0.009 A 
ATOM     76  C   UNL A   1      43.051  36.768  33.832  1.00  0.00     0.001 A 
ATOM     77  C   UNL A   1      43.892  37.413  31.660  1.00  0.00     0.001 A 
ATOM     78  C   UNL A   1      43.650  37.714  32.999  1.00  0.00     0.000 A 
ENDBRANCH  60  73
ENDBRANCH  34  35
ENDBRANCH  26  29
ENDBRANCH  24  25
ENDBRANCH  23  24
ENDBRANCH   1  23
TORSDOF 14
ENDMDL
MODEL 2
REMARK VINA RESULT:     -10.5      2.841      7.674
REMARK SMILES Cc1cscc1-c1nc(C)c(C(=O)NCCCCCCNC(=O)c2ccc(-c3c4nc(c(-c5ccccc5)c5ccc([nH]5)c(-c5ccccc5)c5nc(c(-c6ccccc6)c6ccc3[nH]6)C=C5)C=C4)cc2)c(C)n1
REMARK SMILES IDX 18 1 17 2 16 3 15 4 14 5 12 6 13 7 11 9 7 10 8 11 74 12 9 13
REMARK SMILES IDX 72 14 10 15 73 16 6 17 1 18 2 19 3 20 4 21 5 22 19 23 20 24
REMARK SMILES IDX 21 25 22 26 23 28 24 29 25 30 71 31 26 32 70 33 27 34 28 35
REMARK SMILES IDX 29 36 64 37 30 38 69 39 63 40 65 41 31 42 68 43 62 44 61 45
REMARK SMILES IDX 32 47 54 48 39 49 53 50 40 51 43 52 52 53 66 54 41 55 42 56
REMARK SMILES IDX 51 58 67 59 44 60 33 61 34 62 38 63 35 64 37 65 36 66 55 67
REMARK SMILES IDX 56 68 60 69 57 70 59 71 58 72 45 73 46 74 50 75 47 76 49 77
REMARK SMILES IDX 48 78
REMARK H PARENT 14 8 21 27 65 46 43 57
REMARK Flexibility Score: inf
ROOT
ATOM      1  C   UNL A   1      36.967  20.881  24.567  1.00  0.00     0.002 C 
ENDROOT
BRANCH   1   2
ATOM      2  C   UNL A   1      35.669  20.898  25.385  1.00  0.00     0.002 C 
BRANCH   2   3
ATOM      3  C   UNL A   1      34.562  19.986  24.842  1.00  0.00     0.021 C 
BRANCH   3   4
ATOM      4  C   UNL A   1      33.177  20.330  25.403  1.00  0.00     0.116 C 
BRANCH   4   5
ATOM      5  N   UNL A   1      33.296  21.136  26.593  1.00  0.00    -0.352 N 
ATOM      6  C   UNL A   1      33.034  22.389  27.056  1.00  0.00     0.254 C 
ATOM      7  O   UNL A   1      33.403  22.490  28.232  1.00  0.00    -0.269 OA
ATOM      8  H   UNL A   1      33.702  20.601  27.312  1.00  0.00     0.163 HD
BRANCH   6   9
ATOM      9  C   UNL A   1      32.393  23.577  26.389  1.00  0.00     0.082 A 
ATOM     10  C   UNL A   1      31.502  25.825  25.052  1.00  0.00     0.160 A 
ATOM     11  N   UNL A   1      30.619  25.077  25.707  1.00  0.00    -0.232 NA
ATOM     12  N   UNL A   1      32.799  25.558  24.980  1.00  0.00    -0.232 NA
ATOM     13  C   UNL A   1      31.049  23.951  26.335  1.00  0.00     0.054 A 
ATOM     14  C   UNL A   1      33.236  24.456  25.656  1.00  0.00     0.054 A 
ATOM     15  C   UNL A   1      29.871  23.258  26.918  1.00  0.00     0.068 C 
ATOM     16  C   UNL A   1      34.731  24.299  25.531  1.00  0.00     0.068 C 
BRANCH  10  17
ATOM     17  C   UNL A   1      30.979  27.026  24.430  1.00  0.00     0.033 A 
ATOM     18  C   UNL A   1      32.328  28.772  25.804  1.00  0.00     0.046 C 
ATOM     19  C   UNL A   1      31.304  28.388  24.784  1.00  0.00    -0.029 A 
ATOM     20  C   UNL A   1      30.541  29.283  24.059  1.00  0.00     0.069 A 
ATOM     21  S   UNL A   1      29.482  28.513  22.959  1.00  0.00    -0.151 S 
ATOM     22  C   UNL A   1      30.020  26.963  23.439  1.00  0.00     0.077 A 
ENDBRANCH  10  17
ENDBRANCH   6   9
ENDBRANCH   4   5
ENDBRANCH   3   4
ENDBRANCH   2   3
ENDBRANCH   1   2
BRANCH   1  23
ATOM     23  C   UNL A   1      37.969  19.795  24.969  1.00  0.00     0.021 C 
BRANCH  23  24
ATOM     24  C   UNL A   1      39.097  20.293  25.866  1.00  0.00     0.116 C 
BRANCH  24  25
ATOM     25  N   UNL A   1      40.181  19.325  25.946  1.00  0.00    -0.352 N 
ATOM     26  C   UNL A   1      41.521  19.537  26.123  1.00  0.00     0.251 C 
ATOM     27  H   UNL A   1      39.910  18.381  25.861  1.00  0.00     0.163 HD
ATOM     28  O   UNL A   1      42.326  18.631  25.912  1.00  0.00    -0.269 OA
BRANCH  26  29
ATOM     29  C   UNL A   1      41.999  20.858  26.570  1.00  0.00     0.039 A 
ATOM     30  C   UNL A   1      42.444  21.780  25.620  1.00  0.00     0.014 A 
ATOM     31  C   UNL A   1      42.031  21.173  27.931  1.00  0.00     0.014 A 
ATOM     32  C   UNL A   1      42.876  23.040  26.033  1.00  0.00     0.010 A 
ATOM     33  C   UNL A   1      42.400  22.450  28.336  1.00  0.00     0.010 A 
ATOM     34  C   UNL A   1      42.834  23.392  27.391  1.00  0.00    -0.014 A 
BRANCH  34  35
ATOM     35  C   UNL A   1      43.260  24.733  27.858  1.00  0.00     0.031 A 
ATOM     36  C   UNL A   1      42.224  25.772  28.185  1.00  0.00     0.074 A 
ATOM     37  C   UNL A   1      44.571  25.033  27.920  1.00  0.00     0.049 A 
ATOM     38  N   UNL A   1      42.390  27.032  28.497  1.00  0.00    -0.248 NA
ATOM     39  C   UNL A   1      40.817  25.344  28.136  1.00  0.00     0.031 C 
ATOM     40  C   UNL A   1      45.670  24.115  27.612  1.00  0.00     0.029 A 
ATOM     41  N   UNL A   1      45.201  26.206  28.253  1.00  0.00    -0.354 N 
ATOM     42  C   UNL A   1      41.111  27.548  28.665  1.00  0.00     0.074 A 
ATOM     43  C   UNL A   1      40.179  26.480  28.378  1.00  0.00     0.031 C 
ATOM     44  C   UNL A   1      46.838  24.753  27.790  1.00  0.00     0.029 A 
ATOM     45  C   UNL A   1      46.571  26.135  28.178  1.00  0.00     0.049 A 
ATOM     46  H   UNL A   1      44.717  27.021  28.520  1.00  0.00     0.167 HD
ATOM     47  C   UNL A   1      40.745  28.794  29.047  1.00  0.00     0.031 A 
ATOM     48  C   UNL A   1      47.505  27.081  28.385  1.00  0.00     0.031 A 
ATOM     49  C   UNL A   1      41.672  29.852  29.343  1.00  0.00     0.049 A 
ATOM     50  C   UNL A   1      47.068  28.469  28.770  1.00  0.00     0.074 A 
ATOM     51  C   UNL A   1      41.402  31.144  29.760  1.00  0.00     0.029 A 
ATOM     52  N   UNL A   1      43.051  29.735  29.263  1.00  0.00    -0.354 N 
ATOM     53  N   UNL A   1      45.856  28.931  28.958  1.00  0.00    -0.248 NA
ATOM     54  C   UNL A   1      48.131  29.462  28.981  1.00  0.00     0.031 C 
ATOM     55  C   UNL A   1      42.618  31.821  29.895  1.00  0.00     0.029 A 
ATOM     56  C   UNL A   1      43.645  30.934  29.614  1.00  0.00     0.049 A 
ATOM     57  H   UNL A   1      43.535  28.921  28.996  1.00  0.00     0.167 HD
ATOM     58  C   UNL A   1      46.013  30.255  29.347  1.00  0.00     0.074 A 
ATOM     59  C   UNL A   1      47.437  30.519  29.375  1.00  0.00     0.031 C 
ATOM     60  C   UNL A   1      45.063  31.170  29.659  1.00  0.00     0.031 A 
BRANCH  47  61
ATOM     61  C   UNL A   1      39.276  29.080  29.171  1.00  0.00    -0.014 A 
ATOM     62  C   UNL A   1      38.544  29.582  28.083  1.00  0.00     0.009 A 
ATOM     63  C   UNL A   1      38.603  28.799  30.371  1.00  0.00     0.009 A 
ATOM     64  C   UNL A   1      37.174  29.822  28.203  1.00  0.00     0.001 A 
ATOM     65  C   UNL A   1      37.228  29.016  30.478  1.00  0.00     0.001 A 
ATOM     66  C   UNL A   1      36.517  29.534  29.397  1.00  0.00     0.000 A 
ENDBRANCH  47  61
BRANCH  48  67
ATOM     67  C   UNL A   1      48.949  26.759  28.243  1.00  0.00    -0.014 A 
ATOM     68  C   UNL A   1      49.587  26.889  27.001  1.00  0.00     0.009 A 
ATOM     69  C   UNL A   1      49.689  26.292  29.340  1.00  0.00     0.009 A 
ATOM     70  C   UNL A   1      50.927  26.523  26.850  1.00  0.00     0.001 A 
ATOM     71  C   UNL A   1      51.037  25.955  29.194  1.00  0.00     0.001 A 
ATOM     72  C   UNL A   1      51.650  26.059  27.947  1.00  0.00     0.000 A 
ENDBRANCH  48  67
BRANCH  60  73
ATOM     73  C   UNL A   1      45.531  32.520  30.119  1.00  0.00    -0.014 A 
ATOM     74  C   UNL A   1      45.803  32.779  31.470  1.00  0.00     0.009 A 
ATOM     75  C   UNL A   1      45.758  33.529  29.170  1.00  0.00     0.009 A 
ATOM     76  C   UNL A   1      46.268  34.035  31.865  1.00  0.00     0.001 A 
ATOM     77  C   UNL A   1      46.248  34.774  29.564  1.00  0.00     0.001 A 
ATOM     78  C   UNL A   1      46.496  35.028  30.912  1.00  0.00     0.000 A 
ENDBRANCH  60  73
ENDBRANCH  34  35
ENDBRANCH  26  29
ENDBRANCH  24  25
ENDBRANCH  23  24
ENDBRANCH   1  23
TORSDOF 14
ENDMDL
MODEL 3
REMARK VINA RESULT:     -10.5      3.389      8.192
REMARK SMILES Cc1cscc1-c1nc(C)c(C(=O)NCCCCCCNC(=O)c2ccc(-c3c4nc(c(-c5ccccc5)c5ccc([nH]5)c(-c5ccccc5)c5nc(c(-c6ccccc6)c6ccc3[nH]6)C=C5)C=C4)cc2)c(C)n1
REMARK SMILES IDX 18 1 17 2 16 3 15 4 14 5 12 6 13 7 11 9 7 10 8 11 74 12 9 13
REMARK SMILES IDX 72 14 10 15 73 16 6 17 1 18 2 19 3 20 4 21 5 22 19 23 20 24
REMARK SMILES IDX 21 25 22 26 23 28 24 29 25 30 71 31 26 32 70 33 27 34 28 35
REMARK SMILES IDX 29 36 64 37 30 38 69 39 63 40 65 41 31 42 68 43 62 44 61 45
REMARK SMILES IDX 32 47 54 48 39 49 53 50 40 51 43 52 52 53 66 54 41 55 42 56
REMARK SMILES IDX 51 58 67 59 44 60 33 61 34 62 38 63 35 64 37 65 36 66 55 67
REMARK SMILES IDX 56 68 60 69 57 70 59 71 58 72 45 73 46 74 50 75 47 76 49 77
REMARK SMILES IDX 48 78
REMARK H PARENT 14 8 21 27 65 46 43 57
REMARK Flexibility Score: inf
ROOT
ATOM      1  C   UNL A   1      33.188  26.763  25.901  1.00  0.00     0.002 C 
ENDROOT
BRANCH   1   2
ATOM      2  C   UNL A   1      34.361  26.305  25.025  1.00  0.00     0.002 C 
BRANCH   2   3
ATOM      3  C   UNL A   1      34.641  24.798  25.072  1.00  0.00     0.021 C 
BRANCH   3   4
ATOM      4  C   UNL A   1      33.475  23.992  25.656  1.00  0.00     0.116 C 
BRANCH   4   5
ATOM      5  N   UNL A   1      32.664  23.434  24.602  1.00  0.00    -0.352 N 
ATOM      6  C   UNL A   1      31.749  23.798  23.663  1.00  0.00     0.254 C 
ATOM      7  O   UNL A   1      31.378  22.804  23.027  1.00  0.00    -0.269 OA
ATOM      8  H   UNL A   1      32.826  22.465  24.542  1.00  0.00     0.163 HD
BRANCH   6   9
ATOM      9  C   UNL A   1      31.178  25.145  23.306  1.00  0.00     0.082 A 
ATOM     10  C   UNL A   1      29.987  27.610  22.930  1.00  0.00     0.160 A 
ATOM     11  N   UNL A   1      30.808  27.146  21.993  1.00  0.00    -0.232 NA
ATOM     12  N   UNL A   1      29.705  26.972  24.058  1.00  0.00    -0.232 NA
ATOM     13  C   UNL A   1      31.424  25.950  22.192  1.00  0.00     0.054 A 
ATOM     14  C   UNL A   1      30.282  25.747  24.230  1.00  0.00     0.054 A 
ATOM     15  C   UNL A   1      32.340  25.697  21.049  1.00  0.00     0.068 C 
ATOM     16  C   UNL A   1      29.838  25.115  25.525  1.00  0.00     0.068 C 
BRANCH  10  17
ATOM     17  C   UNL A   1      29.344  28.876  22.640  1.00  0.00     0.033 A 
ATOM     18  C   UNL A   1      26.951  28.271  23.453  1.00  0.00     0.046 C 
ATOM     19  C   UNL A   1      27.946  29.192  22.825  1.00  0.00    -0.029 A 
ATOM     20  C   UNL A   1      27.657  30.454  22.344  1.00  0.00     0.069 A 
ATOM     21  S   UNL A   1      29.029  31.254  21.711  1.00  0.00    -0.151 S 
ATOM     22  C   UNL A   1      30.038  29.920  22.063  1.00  0.00     0.077 A 
ENDBRANCH  10  17
ENDBRANCH   6   9
ENDBRANCH   4   5
ENDBRANCH   3   4
ENDBRANCH   2   3
ENDBRANCH   1   2
BRANCH   1  23
ATOM     23  C   UNL A   1      33.131  28.270  26.165  1.00  0.00     0.021 C 
BRANCH  23  24
ATOM     24  C   UNL A   1      33.591  28.675  27.560  1.00  0.00     0.116 C 
BRANCH  24  25
ATOM     25  N   UNL A   1      33.631  30.122  27.711  1.00  0.00    -0.352 N 
ATOM     26  C   UNL A   1      34.611  30.910  28.248  1.00  0.00     0.251 C 
ATOM     27  H   UNL A   1      32.838  30.602  27.377  1.00  0.00     0.163 HD
ATOM     28  O   UNL A   1      34.378  32.085  28.531  1.00  0.00    -0.269 OA
BRANCH  26  29
ATOM     29  C   UNL A   1      35.952  30.347  28.488  1.00  0.00     0.039 A 
ATOM     30  C   UNL A   1      36.884  30.335  27.447  1.00  0.00     0.014 A 
ATOM     31  C   UNL A   1      36.277  29.807  29.736  1.00  0.00     0.014 A 
ATOM     32  C   UNL A   1      38.162  29.824  27.673  1.00  0.00     0.010 A 
ATOM     33  C   UNL A   1      37.571  29.359  29.978  1.00  0.00     0.010 A 
ATOM     34  C   UNL A   1      38.522  29.356  28.946  1.00  0.00    -0.014 A 
BRANCH  34  35
ATOM     35  C   UNL A   1      39.880  28.833  29.225  1.00  0.00     0.031 A 
ATOM     36  C   UNL A   1      40.901  29.722  29.880  1.00  0.00     0.074 A 
ATOM     37  C   UNL A   1      40.213  27.591  28.828  1.00  0.00     0.049 A 
ATOM     38  N   UNL A   1      42.170  29.496  30.103  1.00  0.00    -0.248 NA
ATOM     39  C   UNL A   1      40.438  31.048  30.324  1.00  0.00     0.031 C 
ATOM     40  C   UNL A   1      39.315  26.640  28.168  1.00  0.00     0.029 A 
ATOM     41  N   UNL A   1      41.406  26.918  28.912  1.00  0.00    -0.354 N 
ATOM     42  C   UNL A   1      42.658  30.653  30.698  1.00  0.00     0.074 A 
ATOM     43  C   UNL A   1      41.564  31.596  30.759  1.00  0.00     0.031 C 
ATOM     44  C   UNL A   1      39.984  25.501  27.926  1.00  0.00     0.029 A 
ATOM     45  C   UNL A   1      41.366  25.657  28.369  1.00  0.00     0.049 A 
ATOM     46  H   UNL A   1      42.214  27.304  29.322  1.00  0.00     0.167 HD
ATOM     47  C   UNL A   1      43.902  30.900  31.171  1.00  0.00     0.031 A 
ATOM     48  C   UNL A   1      42.338  24.737  28.233  1.00  0.00     0.031 A 
ATOM     49  C   UNL A   1      44.987  29.959  31.119  1.00  0.00     0.049 A 
ATOM     50  C   UNL A   1      43.722  25.054  28.732  1.00  0.00     0.074 A 
ATOM     51  C   UNL A   1      46.280  30.105  31.591  1.00  0.00     0.029 A 
ATOM     52  N   UNL A   1      44.902  28.689  30.569  1.00  0.00    -0.354 N 
ATOM     53  N   UNL A   1      44.159  26.139  29.322  1.00  0.00    -0.248 NA
ATOM     54  C   UNL A   1      44.744  24.012  28.553  1.00  0.00     0.031 C 
ATOM     55  C   UNL A   1      46.989  28.937  31.292  1.00  0.00     0.029 A 
ATOM     56  C   UNL A   1      46.121  28.045  30.682  1.00  0.00     0.049 A 
ATOM     57  H   UNL A   1      44.094  28.303  30.159  1.00  0.00     0.167 HD
ATOM     58  C   UNL A   1      45.493  25.896  29.620  1.00  0.00     0.074 A 
ATOM     59  C   UNL A   1      45.792  24.558  29.153  1.00  0.00     0.031 C 
ATOM     60  C   UNL A   1      46.391  26.706  30.232  1.00  0.00     0.031 A 
BRANCH  47  61
ATOM     61  C   UNL A   1      44.155  32.244  31.792  1.00  0.00    -0.014 A 
ATOM     62  C   UNL A   1      44.581  33.331  31.011  1.00  0.00     0.009 A 
ATOM     63  C   UNL A   1      43.920  32.442  33.161  1.00  0.00     0.009 A 
ATOM     64  C   UNL A   1      44.791  34.582  31.594  1.00  0.00     0.001 A 
ATOM     65  C   UNL A   1      44.105  33.701  33.736  1.00  0.00     0.001 A 
ATOM     66  C   UNL A   1      44.548  34.766  32.954  1.00  0.00     0.000 A 
ENDBRANCH  47  61
BRANCH  48  67
ATOM     67  C   UNL A   1      42.047  23.421  27.604  1.00  0.00    -0.014 A 
ATOM     68  C   UNL A   1      41.521  22.370  28.370  1.00  0.00     0.009 A 
ATOM     69  C   UNL A   1      42.321  23.200  26.246  1.00  0.00     0.009 A 
ATOM     70  C   UNL A   1      41.310  21.113  27.799  1.00  0.00     0.001 A 
ATOM     71  C   UNL A   1      42.081  21.950  25.669  1.00  0.00     0.001 A 
ATOM     72  C   UNL A   1      41.588  20.906  26.449  1.00  0.00     0.000 A 
ENDBRANCH  48  67
BRANCH  60  73
ATOM     73  C   UNL A   1      47.760  26.147  30.490  1.00  0.00    -0.014 A 
ATOM     74  C   UNL A   1      48.730  26.089  29.479  1.00  0.00     0.009 A 
ATOM     75  C   UNL A   1      48.097  25.726  31.787  1.00  0.00     0.009 A 
ATOM     76  C   UNL A   1      50.005  25.593  29.757  1.00  0.00     0.001 A 
ATOM     77  C   UNL A   1      49.380  25.256  32.068  1.00  0.00     0.001 A 
ATOM     78  C   UNL A   1      50.331  25.185  31.051  1.00  0.00     0.000 A 
ENDBRANCH  60  73
ENDBRANCH  34  35
ENDBRANCH  26  29
ENDBRANCH  24  25
ENDBRANCH  23  24
ENDBRANCH   1  23
TORSDOF 14
ENDMDL
