MODEL 1
REMARK VINA RESULT:     -10.9      0.000      0.000
REMARK SMILES CCCCOC(=O)c1ccc(N2C[C@H](C(=O)NCCCCCCNC(=O)c3ccc(-c4c5nc(c(-c6ccccc6)c6ccc([nH]6)c(-c6ccccc6)c6nc(c(-c7ccccc7)c7ccc4[nH]7)C=C6)C=C5)cc3)CC2=O)cc1
REMARK SMILES IDX 18 1 17 2 15 3 16 4 14 6 12 7 13 8 76 9 75 10 77 11 11 12
REMARK SMILES IDX 8 13 9 14 79 15 10 16 78 17 6 18 7 19 5 20 4 21 3 22 2 23
REMARK SMILES IDX 1 24 19 25 20 26 21 27 22 28 23 29 24 30 25 31 26 33 27 34
REMARK SMILES IDX 28 35 74 36 29 37 73 38 30 39 31 40 32 41 67 42 33 43 72 44
REMARK SMILES IDX 66 45 68 46 34 47 71 48 65 49 64 50 35 52 57 53 42 54 56 55
REMARK SMILES IDX 43 56 46 57 55 58 69 59 44 60 45 61 54 63 70 64 47 65 36 66
REMARK SMILES IDX 37 67 41 68 38 69 40 70 39 71 58 72 59 73 63 74 60 75 62 76
REMARK SMILES IDX 61 77 48 78 49 79 53 80 50 81 52 82 51 83
REMARK H PARENT 17 5 24 32 68 51 46 62
REMARK Flexibility Score: inf
ROOT
ATOM      1  C   UNL A   1      33.284  26.010  23.625  1.00  0.00     0.116 C 
ENDROOT
BRANCH   1   2
ATOM      2  N   UNL A   1      32.397  27.157  23.577  1.00  0.00    -0.356 N 
ATOM      3  C   UNL A   1      31.144  27.386  24.034  1.00  0.00     0.225 C 
ATOM      4  O   UNL A   1      30.709  28.534  23.880  1.00  0.00    -0.275 OA
ATOM      5  H   UNL A   1      32.789  27.931  23.114  1.00  0.00     0.163 HD
BRANCH   3   6
ATOM      6  C   UNL A   1      30.210  26.328  24.602  1.00  0.00     0.107 C 
ATOM      7  N   UNL A   1      30.961  24.102  24.820  1.00  0.00    -0.312 N 
ATOM      8  C   UNL A   1      30.379  25.016  23.866  1.00  0.00     0.139 C 
ATOM      9  C   UNL A   1      30.918  24.622  26.118  1.00  0.00     0.227 C 
ATOM     10  C   UNL A   1      30.279  25.990  26.074  1.00  0.00     0.116 C 
ATOM     11  O   UNL A   1      31.335  24.131  27.157  1.00  0.00    -0.274 OA
BRANCH   7  12
ATOM     12  C   UNL A   1      31.446  22.818  24.444  1.00  0.00     0.044 A 
ATOM     13  C   UNL A   1      32.346  20.251  23.707  1.00  0.00     0.060 A 
ATOM     14  C   UNL A   1      32.147  20.550  25.052  1.00  0.00     0.018 A 
ATOM     15  C   UNL A   1      32.118  21.215  22.729  1.00  0.00     0.018 A 
ATOM     16  C   UNL A   1      31.712  21.832  25.415  1.00  0.00     0.027 A 
ATOM     17  C   UNL A   1      31.669  22.486  23.100  1.00  0.00     0.027 A 
BRANCH  13  18
ATOM     18  C   UNL A   1      32.728  18.899  23.294  1.00  0.00     0.338 C 
ATOM     19  O   UNL A   1      32.241  18.335  22.327  1.00  0.00    -0.246 OA
BRANCH  18  20
ATOM     20  O   UNL A   1      33.703  18.458  24.118  1.00  0.00    -0.462 OA
BRANCH  20  21
ATOM     21  C   UNL A   1      34.421  17.293  23.678  1.00  0.00     0.233 C 
BRANCH  21  22
ATOM     22  C   UNL A   1      34.640  16.325  24.839  1.00  0.00     0.041 C 
BRANCH  22  23
ATOM     23  C   UNL A   1      33.450  16.187  25.790  1.00  0.00     0.000 C 
ATOM     24  C   UNL A   1      32.518  15.040  25.430  1.00  0.00     0.004 C 
ENDBRANCH  22  23
ENDBRANCH  21  22
ENDBRANCH  20  21
ENDBRANCH  18  20
ENDBRANCH  13  18
ENDBRANCH   7  12
ENDBRANCH   3   6
ENDBRANCH   1   2
BRANCH   1  25
ATOM     25  C   UNL A   1      34.058  25.911  24.938  1.00  0.00     0.021 C 
BRANCH  25  26
ATOM     26  C   UNL A   1      34.592  24.514  25.277  1.00  0.00     0.002 C 
BRANCH  26  27
ATOM     27  C   UNL A   1      35.011  23.641  24.088  1.00  0.00     0.002 C 
BRANCH  27  28
ATOM     28  C   UNL A   1      36.456  23.133  24.100  1.00  0.00     0.021 C 
BRANCH  28  29
ATOM     29  C   UNL A   1      37.299  23.576  25.293  1.00  0.00     0.116 C 
BRANCH  29  30
ATOM     30  N   UNL A   1      38.414  22.681  25.550  1.00  0.00    -0.352 N 
ATOM     31  C   UNL A   1      39.616  22.931  26.163  1.00  0.00     0.251 C 
ATOM     32  H   UNL A   1      38.288  21.755  25.237  1.00  0.00     0.163 HD
ATOM     33  O   UNL A   1      40.501  22.080  26.147  1.00  0.00    -0.269 OA
BRANCH  31  34
ATOM     34  C   UNL A   1      39.867  24.230  26.829  1.00  0.00     0.039 A 
ATOM     35  C   UNL A   1      39.366  24.431  28.119  1.00  0.00     0.014 A 
ATOM     36  C   UNL A   1      40.558  25.258  26.180  1.00  0.00     0.014 A 
ATOM     37  C   UNL A   1      39.603  25.639  28.779  1.00  0.00     0.010 A 
ATOM     38  C   UNL A   1      40.841  26.443  26.860  1.00  0.00     0.010 A 
ATOM     39  C   UNL A   1      40.363  26.645  28.164  1.00  0.00    -0.014 A 
BRANCH  39  40
ATOM     40  C   UNL A   1      40.665  27.918  28.868  1.00  0.00     0.031 A 
ATOM     41  C   UNL A   1      41.996  28.117  29.538  1.00  0.00     0.074 A 
ATOM     42  C   UNL A   1      39.722  28.875  28.950  1.00  0.00     0.049 A 
ATOM     43  N   UNL A   1      42.418  29.130  30.251  1.00  0.00    -0.248 NA
ATOM     44  C   UNL A   1      42.974  27.025  29.405  1.00  0.00     0.031 C 
ATOM     45  C   UNL A   1      38.380  28.800  28.368  1.00  0.00     0.029 A 
ATOM     46  N   UNL A   1      39.747  30.101  29.568  1.00  0.00    -0.354 N 
ATOM     47  C   UNL A   1      43.699  28.792  30.665  1.00  0.00     0.074 A 
ATOM     48  C   UNL A   1      43.973  27.466  30.155  1.00  0.00     0.031 C 
ATOM     49  C   UNL A   1      37.720  29.937  28.638  1.00  0.00     0.029 A 
ATOM     50  C   UNL A   1      38.576  30.807  29.439  1.00  0.00     0.049 A 
ATOM     51  H   UNL A   1      40.531  30.442  30.056  1.00  0.00     0.167 HD
ATOM     52  C   UNL A   1      44.578  29.524  31.393  1.00  0.00     0.031 A 
ATOM     53  C   UNL A   1      38.228  32.016  29.917  1.00  0.00     0.031 A 
ATOM     54  C   UNL A   1      44.317  30.847  31.892  1.00  0.00     0.049 A 
ATOM     55  C   UNL A   1      39.216  32.802  30.731  1.00  0.00     0.074 A 
ATOM     56  C   UNL A   1      45.163  31.684  32.600  1.00  0.00     0.029 A 
ATOM     57  N   UNL A   1      43.121  31.526  31.735  1.00  0.00    -0.354 N 
ATOM     58  N   UNL A   1      40.440  32.487  31.072  1.00  0.00    -0.248 NA
ATOM     59  C   UNL A   1      38.772  34.117  31.218  1.00  0.00     0.031 C 
ATOM     60  C   UNL A   1      44.465  32.858  32.900  1.00  0.00     0.029 A 
ATOM     61  C   UNL A   1      43.199  32.767  32.345  1.00  0.00     0.049 A 
ATOM     62  H   UNL A   1      42.331  31.178  31.260  1.00  0.00     0.167 HD
ATOM     63  C   UNL A   1      40.922  33.572  31.793  1.00  0.00     0.074 A 
ATOM     64  C   UNL A   1      39.862  34.558  31.829  1.00  0.00     0.031 C 
ATOM     65  C   UNL A   1      42.136  33.736  32.371  1.00  0.00     0.031 A 
BRANCH  52  66
ATOM     66  C   UNL A   1      45.909  28.897  31.694  1.00  0.00    -0.014 A 
ATOM     67  C   UNL A   1      47.002  29.067  30.830  1.00  0.00     0.009 A 
ATOM     68  C   UNL A   1      46.080  28.151  32.871  1.00  0.00     0.009 A 
ATOM     69  C   UNL A   1      48.231  28.474  31.122  1.00  0.00     0.001 A 
ATOM     70  C   UNL A   1      47.318  27.579  33.171  1.00  0.00     0.001 A 
ATOM     71  C   UNL A   1      48.390  27.734  32.293  1.00  0.00     0.000 A 
ENDBRANCH  52  66
BRANCH  53  72
ATOM     72  C   UNL A   1      36.882  32.571  29.624  1.00  0.00    -0.014 A 
ATOM     73  C   UNL A   1      35.835  32.409  30.543  1.00  0.00     0.009 A 
ATOM     74  C   UNL A   1      36.637  33.257  28.424  1.00  0.00     0.009 A 
ATOM     75  C   UNL A   1      34.561  32.904  30.257  1.00  0.00     0.001 A 
ATOM     76  C   UNL A   1      35.368  33.770  28.152  1.00  0.00     0.001 A 
ATOM     77  C   UNL A   1      34.329  33.587  29.064  1.00  0.00     0.000 A 
ENDBRANCH  53  72
BRANCH  65  78
ATOM     78  C   UNL A   1      42.392  35.043  33.062  1.00  0.00    -0.014 A 
ATOM     79  C   UNL A   1      41.899  35.290  34.353  1.00  0.00     0.009 A 
ATOM     80  C   UNL A   1      43.166  36.026  32.426  1.00  0.00     0.009 A 
ATOM     81  C   UNL A   1      42.152  36.510  34.982  1.00  0.00     0.001 A 
ATOM     82  C   UNL A   1      43.436  37.236  33.067  1.00  0.00     0.001 A 
ATOM     83  C   UNL A   1      42.924  37.480  34.340  1.00  0.00     0.000 A 
ENDBRANCH  65  78
ENDBRANCH  39  40
ENDBRANCH  31  34
ENDBRANCH  29  30
ENDBRANCH  28  29
ENDBRANCH  27  28
ENDBRANCH  26  27
ENDBRANCH  25  26
ENDBRANCH   1  25
TORSDOF 19
ENDMDL
MODEL 2
REMARK VINA RESULT:     -10.5      3.416      8.201
REMARK SMILES CCCCOC(=O)c1ccc(N2C[C@H](C(=O)NCCCCCCNC(=O)c3ccc(-c4c5nc(c(-c6ccccc6)c6ccc([nH]6)c(-c6ccccc6)c6nc(c(-c7ccccc7)c7ccc4[nH]7)C=C6)C=C5)cc3)CC2=O)cc1
REMARK SMILES IDX 18 1 17 2 15 3 16 4 14 6 12 7 13 8 76 9 75 10 77 11 11 12
REMARK SMILES IDX 8 13 9 14 79 15 10 16 78 17 6 18 7 19 5 20 4 21 3 22 2 23
REMARK SMILES IDX 1 24 19 25 20 26 21 27 22 28 23 29 24 30 25 31 26 33 27 34
REMARK SMILES IDX 28 35 74 36 29 37 73 38 30 39 31 40 32 41 67 42 33 43 72 44
REMARK SMILES IDX 66 45 68 46 34 47 71 48 65 49 64 50 35 52 57 53 42 54 56 55
REMARK SMILES IDX 43 56 46 57 55 58 69 59 44 60 45 61 54 63 70 64 47 65 36 66
REMARK SMILES IDX 37 67 41 68 38 69 40 70 39 71 58 72 59 73 63 74 60 75 62 76
REMARK SMILES IDX 61 77 48 78 49 79 53 80 50 81 52 82 51 83
REMARK H PARENT 17 5 24 32 68 51 46 62
REMARK Flexibility Score: inf
ROOT
ATOM      1  C   UNL A   1      35.007  30.827  27.628  1.00  0.00     0.116 C 
ENDROOT
BRANCH   1   2
ATOM      2  N   UNL A   1      33.567  30.994  27.578  1.00  0.00    -0.356 N 
ATOM      3  C   UNL A   1      32.598  30.498  26.774  1.00  0.00     0.225 C 
ATOM      4  O   UNL A   1      31.436  30.799  27.072  1.00  0.00    -0.275 OA
ATOM      5  H   UNL A   1      33.221  31.596  28.276  1.00  0.00     0.163 HD
BRANCH   3   6
ATOM      6  C   UNL A   1      32.837  29.714  25.493  1.00  0.00     0.107 C 
ATOM      7  N   UNL A   1      32.607  27.366  25.500  1.00  0.00    -0.312 N 
ATOM      8  C   UNL A   1      33.556  28.415  25.789  1.00  0.00     0.139 C 
ATOM      9  C   UNL A   1      31.493  27.858  24.813  1.00  0.00     0.227 C 
ATOM     10  C   UNL A   1      31.661  29.346  24.616  1.00  0.00     0.116 C 
ATOM     11  O   UNL A   1      30.498  27.260  24.432  1.00  0.00    -0.274 OA
BRANCH   7  12
ATOM     12  C   UNL A   1      32.852  26.005  25.839  1.00  0.00     0.044 A 
ATOM     13  C   UNL A   1      33.306  23.293  26.456  1.00  0.00     0.060 A 
ATOM     14  C   UNL A   1      32.069  23.865  26.739  1.00  0.00     0.018 A 
ATOM     15  C   UNL A   1      34.321  24.055  25.885  1.00  0.00     0.018 A 
ATOM     16  C   UNL A   1      31.852  25.218  26.443  1.00  0.00     0.027 A 
ATOM     17  C   UNL A   1      34.090  25.399  25.579  1.00  0.00     0.027 A 
BRANCH  13  18
ATOM     18  C   UNL A   1      33.535  21.864  26.686  1.00  0.00     0.338 C 
ATOM     19  O   UNL A   1      34.318  21.442  27.522  1.00  0.00    -0.246 OA
BRANCH  18  20
ATOM     20  O   UNL A   1      32.717  21.162  25.873  1.00  0.00    -0.462 OA
BRANCH  20  21
ATOM     21  C   UNL A   1      33.298  20.696  24.644  1.00  0.00     0.233 C 
BRANCH  21  22
ATOM     22  C   UNL A   1      32.408  21.056  23.456  1.00  0.00     0.041 C 
BRANCH  22  23
ATOM     23  C   UNL A   1      32.610  22.472  22.913  1.00  0.00     0.000 C 
ATOM     24  C   UNL A   1      31.422  23.389  23.162  1.00  0.00     0.004 C 
ENDBRANCH  22  23
ENDBRANCH  21  22
ENDBRANCH  20  21
ENDBRANCH  18  20
ENDBRANCH  13  18
ENDBRANCH   7  12
ENDBRANCH   3   6
ENDBRANCH   1   2
BRANCH   1  25
ATOM     25  C   UNL A   1      35.742  32.107  28.018  1.00  0.00     0.021 C 
BRANCH  25  26
ATOM     26  C   UNL A   1      34.909  33.123  28.807  1.00  0.00     0.002 C 
BRANCH  26  27
ATOM     27  C   UNL A   1      35.156  34.602  28.483  1.00  0.00     0.002 C 
BRANCH  27  28
ATOM     28  C   UNL A   1      34.016  35.567  28.819  1.00  0.00     0.021 C 
BRANCH  28  29
ATOM     29  C   UNL A   1      32.848  34.961  29.591  1.00  0.00     0.116 C 
BRANCH  29  30
ATOM     30  N   UNL A   1      32.515  35.720  30.784  1.00  0.00    -0.352 N 
ATOM     31  C   UNL A   1      33.051  35.652  32.045  1.00  0.00     0.251 C 
ATOM     32  H   UNL A   1      31.796  36.384  30.671  1.00  0.00     0.163 HD
ATOM     33  O   UNL A   1      32.527  36.269  32.969  1.00  0.00    -0.269 OA
BRANCH  31  34
ATOM     34  C   UNL A   1      34.248  34.821  32.312  1.00  0.00     0.039 A 
ATOM     35  C   UNL A   1      35.513  35.390  32.133  1.00  0.00     0.014 A 
ATOM     36  C   UNL A   1      34.134  33.483  32.699  1.00  0.00     0.014 A 
ATOM     37  C   UNL A   1      36.660  34.638  32.394  1.00  0.00     0.010 A 
ATOM     38  C   UNL A   1      35.279  32.749  33.012  1.00  0.00     0.010 A 
ATOM     39  C   UNL A   1      36.552  33.318  32.859  1.00  0.00    -0.014 A 
BRANCH  39  40
ATOM     40  C   UNL A   1      37.759  32.517  33.186  1.00  0.00     0.031 A 
ATOM     41  C   UNL A   1      38.510  32.766  34.464  1.00  0.00     0.074 A 
ATOM     42  C   UNL A   1      38.210  31.601  32.309  1.00  0.00     0.049 A 
ATOM     43  N   UNL A   1      39.617  32.213  34.892  1.00  0.00    -0.248 NA
ATOM     44  C   UNL A   1      37.956  33.783  35.371  1.00  0.00     0.031 C 
ATOM     45  C   UNL A   1      37.591  31.279  31.022  1.00  0.00     0.029 A 
ATOM     46  N   UNL A   1      39.307  30.777  32.366  1.00  0.00    -0.354 N 
ATOM     47  C   UNL A   1      39.900  32.826  36.106  1.00  0.00     0.074 A 
ATOM     48  C   UNL A   1      38.870  33.818  36.330  1.00  0.00     0.031 C 
ATOM     49  C   UNL A   1      38.304  30.313  30.421  1.00  0.00     0.029 A 
ATOM     50  C   UNL A   1      39.447  29.971  31.263  1.00  0.00     0.049 A 
ATOM     51  H   UNL A   1      39.932  30.764  33.126  1.00  0.00     0.167 HD
ATOM     52  C   UNL A   1      40.917  32.578  36.966  1.00  0.00     0.031 A 
ATOM     53  C   UNL A   1      40.393  29.063  30.959  1.00  0.00     0.031 A 
ATOM     54  C   UNL A   1      41.937  31.586  36.755  1.00  0.00     0.049 A 
ATOM     55  C   UNL A   1      41.517  28.814  31.924  1.00  0.00     0.074 A 
ATOM     56  C   UNL A   1      42.982  31.232  37.593  1.00  0.00     0.029 A 
ATOM     57  N   UNL A   1      42.039  30.788  35.628  1.00  0.00    -0.354 N 
ATOM     58  N   UNL A   1      41.742  29.369  33.089  1.00  0.00    -0.248 NA
ATOM     59  C   UNL A   1      42.513  27.805  31.533  1.00  0.00     0.031 C 
ATOM     60  C   UNL A   1      43.736  30.241  36.955  1.00  0.00     0.029 A 
ATOM     61  C   UNL A   1      43.138  29.953  35.739  1.00  0.00     0.049 A 
ATOM     62  H   UNL A   1      41.422  30.813  34.861  1.00  0.00     0.167 HD
ATOM     63  C   UNL A   1      42.890  28.761  33.581  1.00  0.00     0.074 A 
ATOM     64  C   UNL A   1      43.307  27.788  32.594  1.00  0.00     0.031 C 
ATOM     65  C   UNL A   1      43.539  28.990  34.748  1.00  0.00     0.031 A 
BRANCH  52  66
ATOM     66  C   UNL A   1      40.974  33.405  38.218  1.00  0.00    -0.014 A 
ATOM     67  C   UNL A   1      41.708  34.601  38.263  1.00  0.00     0.009 A 
ATOM     68  C   UNL A   1      40.262  33.000  39.357  1.00  0.00     0.009 A 
ATOM     69  C   UNL A   1      41.756  35.356  39.436  1.00  0.00     0.001 A 
ATOM     70  C   UNL A   1      40.293  33.771  40.522  1.00  0.00     0.001 A 
ATOM     71  C   UNL A   1      41.045  34.943  40.562  1.00  0.00     0.000 A 
ENDBRANCH  52  66
BRANCH  53  72
ATOM     72  C   UNL A   1      40.311  28.302  29.687  1.00  0.00    -0.014 A 
ATOM     73  C   UNL A   1      40.937  28.790  28.530  1.00  0.00     0.009 A 
ATOM     74  C   UNL A   1      39.603  27.092  29.621  1.00  0.00     0.009 A 
ATOM     75  C   UNL A   1      40.837  28.092  27.324  1.00  0.00     0.001 A 
ATOM     76  C   UNL A   1      39.525  26.385  28.419  1.00  0.00     0.001 A 
ATOM     77  C   UNL A   1      40.134  26.889  27.271  1.00  0.00     0.000 A 
ENDBRANCH  53  72
BRANCH  65  78
ATOM     78  C   UNL A   1      44.748  28.148  35.033  1.00  0.00    -0.014 A 
ATOM     79  C   UNL A   1      46.032  28.573  34.661  1.00  0.00     0.009 A 
ATOM     80  C   UNL A   1      44.601  26.929  35.714  1.00  0.00     0.009 A 
ATOM     81  C   UNL A   1      47.146  27.779  34.940  1.00  0.00     0.001 A 
ATOM     82  C   UNL A   1      45.719  26.148  36.011  1.00  0.00     0.001 A 
ATOM     83  C   UNL A   1      46.989  26.569  35.618  1.00  0.00     0.000 A 
ENDBRANCH  65  78
ENDBRANCH  39  40
ENDBRANCH  31  34
ENDBRANCH  29  30
ENDBRANCH  28  29
ENDBRANCH  27  28
ENDBRANCH  26  27
ENDBRANCH  25  26
ENDBRANCH   1  25
TORSDOF 19
ENDMDL
MODEL 3
REMARK VINA RESULT:     -10.5      2.213      7.179
REMARK SMILES CCCCOC(=O)c1ccc(N2C[C@H](C(=O)NCCCCCCNC(=O)c3ccc(-c4c5nc(c(-c6ccccc6)c6ccc([nH]6)c(-c6ccccc6)c6nc(c(-c7ccccc7)c7ccc4[nH]7)C=C6)C=C5)cc3)CC2=O)cc1
REMARK SMILES IDX 18 1 17 2 15 3 16 4 14 6 12 7 13 8 76 9 75 10 77 11 11 12
REMARK SMILES IDX 8 13 9 14 79 15 10 16 78 17 6 18 7 19 5 20 4 21 3 22 2 23
REMARK SMILES IDX 1 24 19 25 20 26 21 27 22 28 23 29 24 30 25 31 26 33 27 34
REMARK SMILES IDX 28 35 74 36 29 37 73 38 30 39 31 40 32 41 67 42 33 43 72 44
REMARK SMILES IDX 66 45 68 46 34 47 71 48 65 49 64 50 35 52 57 53 42 54 56 55
REMARK SMILES IDX 43 56 46 57 55 58 69 59 44 60 45 61 54 63 70 64 47 65 36 66
REMARK SMILES IDX 37 67 41 68 38 69 40 70 39 71 58 72 59 73 63 74 60 75 62 76
REMARK SMILES IDX 61 77 48 78 49 79 53 80 50 81 52 82 51 83
REMARK H PARENT 17 5 24 32 68 51 46 62
REMARK Flexibility Score: inf
ROOT
ATOM      1  C   UNL A   1      31.429  29.187  24.857  1.00  0.00     0.116 C 
ENDROOT
BRANCH   1   2
ATOM      2  N   UNL A   1      30.918  29.718  23.608  1.00  0.00    -0.356 N 
ATOM      3  C   UNL A   1      30.165  29.197  22.611  1.00  0.00     0.225 C 
ATOM      4  O   UNL A   1      29.845  29.977  21.706  1.00  0.00    -0.275 OA
ATOM      5  H   UNL A   1      31.175  30.655  23.450  1.00  0.00     0.163 HD
BRANCH   3   6
ATOM      6  C   UNL A   1      29.792  27.730  22.468  1.00  0.00     0.107 C 
ATOM      7  N   UNL A   1      31.252  26.068  23.291  1.00  0.00    -0.312 N 
ATOM      8  C   UNL A   1      31.013  26.899  22.135  1.00  0.00     0.139 C 
ATOM      9  C   UNL A   1      30.170  26.102  24.177  1.00  0.00     0.227 C 
ATOM     10  C   UNL A   1      29.110  27.021  23.618  1.00  0.00     0.116 C 
ATOM     11  O   UNL A   1      30.041  25.539  25.254  1.00  0.00    -0.274 OA
BRANCH   7  12
ATOM     12  C   UNL A   1      32.431  25.283  23.432  1.00  0.00     0.044 A 
ATOM     13  C   UNL A   1      34.788  23.756  23.660  1.00  0.00     0.060 A 
ATOM     14  C   UNL A   1      33.798  23.362  22.765  1.00  0.00     0.018 A 
ATOM     15  C   UNL A   1      34.614  24.888  24.452  1.00  0.00     0.018 A 
ATOM     16  C   UNL A   1      32.621  24.118  22.665  1.00  0.00     0.027 A 
ATOM     17  C   UNL A   1      33.444  25.643  24.334  1.00  0.00     0.027 A 
BRANCH  13  18
ATOM     18  C   UNL A   1      36.058  23.029  23.732  1.00  0.00     0.338 C 
ATOM     19  O   UNL A   1      36.743  22.786  22.750  1.00  0.00    -0.246 OA
BRANCH  18  20
ATOM     20  O   UNL A   1      36.319  22.749  25.026  1.00  0.00    -0.462 OA
BRANCH  20  21
ATOM     21  C   UNL A   1      36.315  21.357  25.384  1.00  0.00     0.233 C 
BRANCH  21  22
ATOM     22  C   UNL A   1      34.979  20.712  25.025  1.00  0.00     0.041 C 
BRANCH  22  23
ATOM     23  C   UNL A   1      33.891  20.858  26.091  1.00  0.00     0.000 C 
ATOM     24  C   UNL A   1      34.294  21.767  27.243  1.00  0.00     0.004 C 
ENDBRANCH  22  23
ENDBRANCH  21  22
ENDBRANCH  20  21
ENDBRANCH  18  20
ENDBRANCH  13  18
ENDBRANCH   7  12
ENDBRANCH   3   6
ENDBRANCH   1   2
BRANCH   1  25
ATOM     25  C   UNL A   1      32.937  29.369  25.010  1.00  0.00     0.021 C 
BRANCH  25  26
ATOM     26  C   UNL A   1      33.387  30.007  26.329  1.00  0.00     0.002 C 
BRANCH  26  27
ATOM     27  C   UNL A   1      32.272  30.410  27.303  1.00  0.00     0.002 C 
BRANCH  27  28
ATOM     28  C   UNL A   1      31.739  31.839  27.167  1.00  0.00     0.021 C 
BRANCH  28  29
ATOM     29  C   UNL A   1      32.800  32.920  26.970  1.00  0.00     0.116 C 
BRANCH  29  30
ATOM     30  N   UNL A   1      32.538  34.107  27.765  1.00  0.00    -0.352 N 
ATOM     31  C   UNL A   1      33.211  34.598  28.856  1.00  0.00     0.251 C 
ATOM     32  H   UNL A   1      31.761  34.640  27.478  1.00  0.00     0.163 HD
ATOM     33  O   UNL A   1      32.742  35.537  29.494  1.00  0.00    -0.269 OA
BRANCH  31  34
ATOM     34  C   UNL A   1      34.492  33.991  29.289  1.00  0.00     0.039 A 
ATOM     35  C   UNL A   1      34.485  33.118  30.381  1.00  0.00     0.014 A 
ATOM     36  C   UNL A   1      35.696  34.303  28.651  1.00  0.00     0.014 A 
ATOM     37  C   UNL A   1      35.674  32.517  30.801  1.00  0.00     0.010 A 
ATOM     38  C   UNL A   1      36.873  33.660  29.035  1.00  0.00     0.010 A 
ATOM     39  C   UNL A   1      36.874  32.764  30.115  1.00  0.00    -0.014 A 
BRANCH  39  40
ATOM     40  C   UNL A   1      38.139  32.099  30.517  1.00  0.00     0.031 A 
ATOM     41  C   UNL A   1      39.047  32.744  31.527  1.00  0.00     0.074 A 
ATOM     42  C   UNL A   1      38.498  30.939  29.935  1.00  0.00     0.049 A 
ATOM     43  N   UNL A   1      40.219  32.347  31.955  1.00  0.00    -0.248 NA
ATOM     44  C   UNL A   1      38.587  34.010  32.117  1.00  0.00     0.031 C 
ATOM     45  C   UNL A   1      37.722  30.220  28.923  1.00  0.00     0.029 A 
ATOM     46  N   UNL A   1      39.618  30.164  30.107  1.00  0.00    -0.354 N 
ATOM     47  C   UNL A   1      40.642  33.321  32.850  1.00  0.00     0.074 A 
ATOM     48  C   UNL A   1      39.620  34.345  32.876  1.00  0.00     0.031 C 
ATOM     49  C   UNL A   1      38.379  29.100  28.580  1.00  0.00     0.029 A 
ATOM     50  C   UNL A   1      39.635  29.038  29.321  1.00  0.00     0.049 A 
ATOM     51  H   UNL A   1      40.340  30.394  30.736  1.00  0.00     0.167 HD
ATOM     52  C   UNL A   1      41.773  33.356  33.595  1.00  0.00     0.031 A 
ATOM     53  C   UNL A   1      40.560  28.068  29.205  1.00  0.00     0.031 A 
ATOM     54  C   UNL A   1      42.787  32.336  33.584  1.00  0.00     0.049 A 
ATOM     55  C   UNL A   1      41.811  28.135  30.034  1.00  0.00     0.074 A 
ATOM     56  C   UNL A   1      43.946  32.263  34.338  1.00  0.00     0.029 A 
ATOM     57  N   UNL A   1      42.763  31.211  32.777  1.00  0.00    -0.354 N 
ATOM     58  N   UNL A   1      42.173  29.039  30.910  1.00  0.00    -0.248 NA
ATOM     59  C   UNL A   1      42.778  27.040  29.862  1.00  0.00     0.031 C 
ATOM     60  C   UNL A   1      44.640  31.107  33.963  1.00  0.00     0.029 A 
ATOM     61  C   UNL A   1      43.893  30.443  33.003  1.00  0.00     0.049 A 
ATOM     62  H   UNL A   1      42.048  30.990  32.136  1.00  0.00     0.167 HD
ATOM     63  C   UNL A   1      43.396  28.611  31.411  1.00  0.00     0.074 A 
ATOM     64  C   UNL A   1      43.707  27.362  30.750  1.00  0.00     0.031 C 
ATOM     65  C   UNL A   1      44.188  29.202  32.337  1.00  0.00     0.031 A 
BRANCH  52  66
ATOM     66  C   UNL A   1      41.971  34.548  34.487  1.00  0.00    -0.014 A 
ATOM     67  C   UNL A   1      41.520  34.542  35.816  1.00  0.00     0.009 A 
ATOM     68  C   UNL A   1      42.643  35.681  34.001  1.00  0.00     0.009 A 
ATOM     69  C   UNL A   1      41.707  35.659  36.631  1.00  0.00     0.001 A 
ATOM     70  C   UNL A   1      42.849  36.789  34.827  1.00  0.00     0.001 A 
ATOM     71  C   UNL A   1      42.374  36.780  36.137  1.00  0.00     0.000 A 
ENDBRANCH  52  66
BRANCH  53  72
ATOM     72  C   UNL A   1      40.333  26.932  28.276  1.00  0.00    -0.014 A 
ATOM     73  C   UNL A   1      40.802  26.993  26.956  1.00  0.00     0.009 A 
ATOM     74  C   UNL A   1      39.641  25.787  28.701  1.00  0.00     0.009 A 
ATOM     75  C   UNL A   1      40.565  25.940  26.071  1.00  0.00     0.001 A 
ATOM     76  C   UNL A   1      39.425  24.726  27.821  1.00  0.00     0.001 A 
ATOM     77  C   UNL A   1      39.880  24.806  26.505  1.00  0.00     0.000 A 
ENDBRANCH  53  72
BRANCH  65  78
ATOM     78  C   UNL A   1      45.451  28.485  32.713  1.00  0.00    -0.014 A 
ATOM     79  C   UNL A   1      46.659  28.747  32.051  1.00  0.00     0.009 A 
ATOM     80  C   UNL A   1      45.436  27.559  33.768  1.00  0.00     0.009 A 
ATOM     81  C   UNL A   1      47.825  28.074  32.419  1.00  0.00     0.001 A 
ATOM     82  C   UNL A   1      46.609  26.904  34.149  1.00  0.00     0.001 A 
ATOM     83  C   UNL A   1      47.800  27.156  33.469  1.00  0.00     0.000 A 
ENDBRANCH  65  78
ENDBRANCH  39  40
ENDBRANCH  31  34
ENDBRANCH  29  30
ENDBRANCH  28  29
ENDBRANCH  27  28
ENDBRANCH  26  27
ENDBRANCH  25  26
ENDBRANCH   1  25
TORSDOF 19
ENDMDL
