MODEL 1
REMARK VINA RESULT:     -13.2      0.000      0.000
REMARK SMILES Cc1ccccc1-c1c(Cl)ccc2c1C=C(C(=O)NCCCCCCNC(=O)c1ccc(-c3c4nc(c(-c5ccccc5)c5ccc([nH]5)c(-c5ccccc5)c5nc(c(-c6ccccc6)c6ccc3[nH]6)C=C5)C=C4)cc1)[C@@H](C(F)(F)F)O2
REMARK SMILES IDX 23 1 22 2 21 3 20 4 19 5 17 6 18 7 16 9 8 10 9 11 14 12
REMARK SMILES IDX 10 13 11 14 13 15 15 16 12 17 82 18 77 19 7 20 1 21 2 22
REMARK SMILES IDX 3 23 4 24 6 25 5 26 78 27 79 28 80 29 81 30 24 31 25 32
REMARK SMILES IDX 26 33 27 34 28 36 29 37 30 38 76 39 31 40 75 41 32 42 33 43
REMARK SMILES IDX 34 44 69 45 35 46 74 47 68 48 70 49 36 50 73 51 67 52 66 53
REMARK SMILES IDX 37 55 59 56 44 57 58 58 45 59 48 60 57 61 71 62 46 63 47 64
REMARK SMILES IDX 56 66 72 67 49 68 38 69 39 70 43 71 40 72 42 73 41 74 60 75
REMARK SMILES IDX 61 76 65 77 62 78 64 79 63 80 50 81 51 82 55 83 52 84 54 85
REMARK SMILES IDX 53 86
REMARK H PARENT 19 8 26 35 70 54 48 65
REMARK Flexibility Score: inf
ROOT
ATOM      1  C   UNL A   1      40.235  21.978  27.314  1.00  0.00     0.002 C 
ENDROOT
BRANCH   1   2
ATOM      2  C   UNL A   1      39.620  22.690  26.097  1.00  0.00     0.002 C 
BRANCH   2   3
ATOM      3  C   UNL A   1      38.087  22.774  26.013  1.00  0.00     0.021 C 
BRANCH   3   4
ATOM      4  C   UNL A   1      37.399  21.802  25.055  1.00  0.00     0.116 C 
BRANCH   4   5
ATOM      5  N   UNL A   1      36.723  22.467  23.967  1.00  0.00    -0.352 N 
ATOM      6  C   UNL A   1      35.608  23.242  23.954  1.00  0.00     0.251 C 
ATOM      7  O   UNL A   1      35.255  23.709  22.873  1.00  0.00    -0.270 OA
ATOM      8  H   UNL A   1      37.142  22.339  23.085  1.00  0.00     0.163 HD
BRANCH   6   9
ATOM      9  C   UNL A   1      34.793  23.472  25.205  1.00  0.00     0.067 C 
ATOM     10  C   UNL A   1      32.080  25.995  24.741  1.00  0.00     0.012 A 
ATOM     11  C   UNL A   1      30.871  25.991  23.999  1.00  0.00     0.049 A 
ATOM     12  C   UNL A   1      32.789  24.768  24.835  1.00  0.00     0.027 A 
ATOM     13  Cl  UNL A   1      29.980  27.447  23.681  1.00  0.00    -0.084 Cl
ATOM     14  C   UNL A   1      30.334  24.810  23.475  1.00  0.00     0.025 A 
ATOM     15  C   UNL A   1      32.176  23.575  24.397  1.00  0.00     0.128 A 
ATOM     16  C   UNL A   1      34.200  24.682  25.293  1.00  0.00     0.026 C 
ATOM     17  C   UNL A   1      30.966  23.597  23.712  1.00  0.00     0.049 A 
ATOM     18  O   UNL A   1      32.703  22.324  24.604  1.00  0.00    -0.475 OA
ATOM     19  C   UNL A   1      33.886  22.267  25.435  1.00  0.00     0.314 C 
BRANCH  10  20
ATOM     20  C   UNL A   1      32.471  27.203  25.518  1.00  0.00    -0.013 A 
ATOM     21  C   UNL A   1      34.027  28.203  23.738  1.00  0.00     0.045 C 
ATOM     22  C   UNL A   1      33.345  28.215  25.074  1.00  0.00    -0.043 A 
ATOM     23  C   UNL A   1      33.637  29.306  25.922  1.00  0.00     0.004 A 
ATOM     24  C   UNL A   1      33.053  29.425  27.180  1.00  0.00     0.000 A 
ATOM     25  C   UNL A   1      31.904  27.347  26.807  1.00  0.00     0.009 A 
ATOM     26  C   UNL A   1      32.176  28.446  27.622  1.00  0.00     0.001 A 
ENDBRANCH  10  20
BRANCH  19  27
ATOM     27  C   UNL A   1      33.538  22.065  26.919  1.00  0.00     0.429 C 
ATOM     28  F   UNL A   1      33.547  20.754  27.255  1.00  0.00    -0.167 F 
ATOM     29  F   UNL A   1      34.447  22.680  27.718  1.00  0.00    -0.167 F 
ATOM     30  F   UNL A   1      32.323  22.559  27.251  1.00  0.00    -0.167 F 
ENDBRANCH  19  27
ENDBRANCH   6   9
ENDBRANCH   4   5
ENDBRANCH   3   4
ENDBRANCH   2   3
ENDBRANCH   1   2
BRANCH   1  31
ATOM     31  C   UNL A   1      40.797  20.571  27.096  1.00  0.00     0.021 C 
BRANCH  31  32
ATOM     32  C   UNL A   1      42.310  20.454  27.248  1.00  0.00     0.116 C 
BRANCH  32  33
ATOM     33  N   UNL A   1      42.993  19.836  26.114  1.00  0.00    -0.352 N 
ATOM     34  C   UNL A   1      43.820  20.431  25.169  1.00  0.00     0.251 C 
ATOM     35  H   UNL A   1      42.848  18.868  26.006  1.00  0.00     0.163 HD
ATOM     36  O   UNL A   1      44.358  19.767  24.304  1.00  0.00    -0.269 OA
BRANCH  34  37
ATOM     37  C   UNL A   1      44.146  21.872  25.319  1.00  0.00     0.039 A 
ATOM     38  C   UNL A   1      45.205  22.214  26.165  1.00  0.00     0.014 A 
ATOM     39  C   UNL A   1      43.279  22.851  24.846  1.00  0.00     0.014 A 
ATOM     40  C   UNL A   1      45.216  23.475  26.758  1.00  0.00     0.010 A 
ATOM     41  C   UNL A   1      43.223  24.061  25.509  1.00  0.00     0.010 A 
ATOM     42  C   UNL A   1      44.145  24.337  26.522  1.00  0.00    -0.014 A 
BRANCH  42  43
ATOM     43  C   UNL A   1      43.841  25.471  27.386  1.00  0.00     0.031 A 
ATOM     44  C   UNL A   1      42.550  26.169  27.289  1.00  0.00     0.074 A 
ATOM     45  C   UNL A   1      44.745  25.902  28.297  1.00  0.00     0.049 A 
ATOM     46  N   UNL A   1      42.403  27.431  27.522  1.00  0.00    -0.248 NA
ATOM     47  C   UNL A   1      41.320  25.498  26.884  1.00  0.00     0.031 C 
ATOM     48  C   UNL A   1      44.528  26.882  29.360  1.00  0.00     0.029 A 
ATOM     49  N   UNL A   1      46.126  25.715  28.292  1.00  0.00    -0.354 N 
ATOM     50  C   UNL A   1      41.053  27.661  27.615  1.00  0.00     0.074 A 
ATOM     51  C   UNL A   1      40.421  26.460  27.114  1.00  0.00     0.031 C 
ATOM     52  C   UNL A   1      45.709  27.441  29.670  1.00  0.00     0.029 A 
ATOM     53  C   UNL A   1      46.690  26.925  28.732  1.00  0.00     0.049 A 
ATOM     54  H   UNL A   1      46.610  24.898  28.033  1.00  0.00     0.167 HD
ATOM     55  C   UNL A   1      40.587  28.768  28.252  1.00  0.00     0.031 A 
ATOM     56  C   UNL A   1      47.558  27.667  27.984  1.00  0.00     0.031 A 
ATOM     57  C   UNL A   1      41.647  29.623  28.772  1.00  0.00     0.049 A 
ATOM     58  C   UNL A   1      47.094  29.092  27.738  1.00  0.00     0.074 A 
ATOM     59  C   UNL A   1      42.168  29.855  30.036  1.00  0.00     0.029 A 
ATOM     60  N   UNL A   1      42.537  30.202  27.883  1.00  0.00    -0.354 N 
ATOM     61  N   UNL A   1      45.960  29.581  28.152  1.00  0.00    -0.248 NA
ATOM     62  C   UNL A   1      47.817  30.032  26.877  1.00  0.00     0.031 C 
ATOM     63  C   UNL A   1      43.368  30.606  29.896  1.00  0.00     0.029 A 
ATOM     64  C   UNL A   1      43.571  30.832  28.548  1.00  0.00     0.049 A 
ATOM     65  H   UNL A   1      42.446  30.168  26.904  1.00  0.00     0.167 HD
ATOM     66  C   UNL A   1      45.756  30.815  27.589  1.00  0.00     0.074 A 
ATOM     67  C   UNL A   1      46.949  31.056  26.801  1.00  0.00     0.031 C 
ATOM     68  C   UNL A   1      44.595  31.509  27.769  1.00  0.00     0.031 A 
BRANCH  55  69
ATOM     69  C   UNL A   1      39.137  28.901  28.628  1.00  0.00    -0.014 A 
ATOM     70  C   UNL A   1      38.200  29.334  27.675  1.00  0.00     0.009 A 
ATOM     71  C   UNL A   1      38.651  28.647  29.921  1.00  0.00     0.009 A 
ATOM     72  C   UNL A   1      36.871  29.600  28.018  1.00  0.00     0.001 A 
ATOM     73  C   UNL A   1      37.331  28.952  30.282  1.00  0.00     0.001 A 
ATOM     74  C   UNL A   1      36.444  29.442  29.330  1.00  0.00     0.000 A 
ENDBRANCH  55  69
BRANCH  56  75
ATOM     75  C   UNL A   1      48.338  26.862  27.003  1.00  0.00    -0.014 A 
ATOM     76  C   UNL A   1      47.814  26.707  25.703  1.00  0.00     0.009 A 
ATOM     77  C   UNL A   1      49.701  26.610  27.213  1.00  0.00     0.009 A 
ATOM     78  C   UNL A   1      48.659  26.442  24.622  1.00  0.00     0.001 A 
ATOM     79  C   UNL A   1      50.538  26.321  26.130  1.00  0.00     0.001 A 
ATOM     80  C   UNL A   1      50.024  26.280  24.833  1.00  0.00     0.000 A 
ENDBRANCH  56  75
BRANCH  68  81
ATOM     81  C   UNL A   1      44.283  32.869  27.192  1.00  0.00    -0.014 A 
ATOM     82  C   UNL A   1      43.999  33.999  27.970  1.00  0.00     0.009 A 
ATOM     83  C   UNL A   1      44.153  33.022  25.793  1.00  0.00     0.009 A 
ATOM     84  C   UNL A   1      43.683  35.231  27.379  1.00  0.00     0.001 A 
ATOM     85  C   UNL A   1      43.818  34.240  25.199  1.00  0.00     0.001 A 
ATOM     86  C   UNL A   1      43.598  35.353  25.994  1.00  0.00     0.000 A 
ENDBRANCH  68  81
ENDBRANCH  42  43
ENDBRANCH  34  37
ENDBRANCH  32  33
ENDBRANCH  31  32
ENDBRANCH   1  31
TORSDOF 15
ENDMDL
MODEL 2
REMARK VINA RESULT:     -13.1      4.606      9.718
REMARK SMILES Cc1ccccc1-c1c(Cl)ccc2c1C=C(C(=O)NCCCCCCNC(=O)c1ccc(-c3c4nc(c(-c5ccccc5)c5ccc([nH]5)c(-c5ccccc5)c5nc(c(-c6ccccc6)c6ccc3[nH]6)C=C5)C=C4)cc1)[C@@H](C(F)(F)F)O2
REMARK SMILES IDX 23 1 22 2 21 3 20 4 19 5 17 6 18 7 16 9 8 10 9 11 14 12
REMARK SMILES IDX 10 13 11 14 13 15 15 16 12 17 82 18 77 19 7 20 1 21 2 22
REMARK SMILES IDX 3 23 4 24 6 25 5 26 78 27 79 28 80 29 81 30 24 31 25 32
REMARK SMILES IDX 26 33 27 34 28 36 29 37 30 38 76 39 31 40 75 41 32 42 33 43
REMARK SMILES IDX 34 44 69 45 35 46 74 47 68 48 70 49 36 50 73 51 67 52 66 53
REMARK SMILES IDX 37 55 59 56 44 57 58 58 45 59 48 60 57 61 71 62 46 63 47 64
REMARK SMILES IDX 56 66 72 67 49 68 38 69 39 70 43 71 40 72 42 73 41 74 60 75
REMARK SMILES IDX 61 76 65 77 62 78 64 79 63 80 50 81 51 82 55 83 52 84 54 85
REMARK SMILES IDX 53 86
REMARK H PARENT 19 8 26 35 70 54 48 65
REMARK Flexibility Score: inf
ROOT
ATOM      1  C   UNL A   1      33.584  33.381  27.648  1.00  0.00     0.002 C 
ENDROOT
BRANCH   1   2
ATOM      2  C   UNL A   1      33.714  31.893  28.013  1.00  0.00     0.002 C 
BRANCH   2   3
ATOM      3  C   UNL A   1      34.979  31.148  27.558  1.00  0.00     0.021 C 
BRANCH   3   4
ATOM      4  C   UNL A   1      34.844  29.643  27.328  1.00  0.00     0.116 C 
BRANCH   4   5
ATOM      5  N   UNL A   1      33.636  29.093  27.894  1.00  0.00    -0.352 N 
ATOM      6  C   UNL A   1      32.712  28.248  27.368  1.00  0.00     0.251 C 
ATOM      7  O   UNL A   1      31.773  27.916  28.088  1.00  0.00    -0.270 OA
ATOM      8  H   UNL A   1      33.450  29.378  28.818  1.00  0.00     0.163 HD
BRANCH   6   9
ATOM      9  C   UNL A   1      32.798  27.780  25.934  1.00  0.00     0.067 C 
ATOM     10  C   UNL A   1      33.084  24.071  25.620  1.00  0.00     0.012 A 
ATOM     11  C   UNL A   1      32.183  23.005  25.875  1.00  0.00     0.049 A 
ATOM     12  C   UNL A   1      32.562  25.391  25.676  1.00  0.00     0.027 A 
ATOM     13  Cl  UNL A   1      32.714  21.356  25.982  1.00  0.00    -0.084 Cl
ATOM     14  C   UNL A   1      30.814  23.229  26.063  1.00  0.00     0.025 A 
ATOM     15  C   UNL A   1      31.167  25.584  25.756  1.00  0.00     0.128 A 
ATOM     16  C   UNL A   1      33.424  26.599  25.748  1.00  0.00     0.026 C 
ATOM     17  C   UNL A   1      30.302  24.515  25.961  1.00  0.00     0.049 A 
ATOM     18  O   UNL A   1      30.557  26.810  25.641  1.00  0.00    -0.475 OA
ATOM     19  C   UNL A   1      31.422  27.914  25.287  1.00  0.00     0.314 C 
BRANCH  10  20
ATOM     20  C   UNL A   1      34.465  23.779  25.146  1.00  0.00    -0.013 A 
ATOM     21  C   UNL A   1      33.851  23.390  22.684  1.00  0.00     0.045 C 
ATOM     22  C   UNL A   1      34.828  23.477  23.819  1.00  0.00    -0.043 A 
ATOM     23  C   UNL A   1      36.180  23.209  23.510  1.00  0.00     0.004 A 
ATOM     24  C   UNL A   1      37.174  23.271  24.483  1.00  0.00     0.000 A 
ATOM     25  C   UNL A   1      35.496  23.821  26.114  1.00  0.00     0.009 A 
ATOM     26  C   UNL A   1      36.833  23.585  25.789  1.00  0.00     0.001 A 
ENDBRANCH  10  20
BRANCH  19  27
ATOM     27  C   UNL A   1      31.503  28.118  23.765  1.00  0.00     0.429 C 
ATOM     28  F   UNL A   1      31.410  26.941  23.103  1.00  0.00    -0.167 F 
ATOM     29  F   UNL A   1      30.482  28.896  23.325  1.00  0.00    -0.167 F 
ATOM     30  F   UNL A   1      32.652  28.714  23.371  1.00  0.00    -0.167 F 
ENDBRANCH  19  27
ENDBRANCH   6   9
ENDBRANCH   4   5
ENDBRANCH   3   4
ENDBRANCH   2   3
ENDBRANCH   1   2
BRANCH   1  31
ATOM     31  C   UNL A   1      32.927  34.304  28.677  1.00  0.00     0.021 C 
BRANCH  31  32
ATOM     32  C   UNL A   1      33.755  35.522  29.067  1.00  0.00     0.116 C 
BRANCH  32  33
ATOM     33  N   UNL A   1      34.076  35.614  30.490  1.00  0.00    -0.352 N 
ATOM     34  C   UNL A   1      34.925  34.812  31.242  1.00  0.00     0.251 C 
ATOM     35  H   UNL A   1      33.631  36.342  30.980  1.00  0.00     0.163 HD
ATOM     36  O   UNL A   1      35.128  35.046  32.418  1.00  0.00    -0.269 OA
BRANCH  34  37
ATOM     37  C   UNL A   1      35.691  33.745  30.549  1.00  0.00     0.039 A 
ATOM     38  C   UNL A   1      35.670  32.462  31.106  1.00  0.00     0.014 A 
ATOM     39  C   UNL A   1      36.598  34.059  29.541  1.00  0.00     0.014 A 
ATOM     40  C   UNL A   1      36.735  31.599  30.857  1.00  0.00     0.010 A 
ATOM     41  C   UNL A   1      37.706  33.253  29.375  1.00  0.00     0.010 A 
ATOM     42  C   UNL A   1      37.810  32.061  30.097  1.00  0.00    -0.014 A 
BRANCH  42  43
ATOM     43  C   UNL A   1      39.122  31.427  30.122  1.00  0.00     0.031 A 
ATOM     44  C   UNL A   1      39.345  30.129  29.465  1.00  0.00     0.074 A 
ATOM     45  C   UNL A   1      40.161  32.023  30.751  1.00  0.00     0.049 A 
ATOM     46  N   UNL A   1      40.191  29.251  29.892  1.00  0.00    -0.248 NA
ATOM     47  C   UNL A   1      38.601  29.705  28.286  1.00  0.00     0.031 C 
ATOM     48  C   UNL A   1      41.567  31.627  30.703  1.00  0.00     0.029 A 
ATOM     49  N   UNL A   1      40.118  32.978  31.766  1.00  0.00    -0.354 N 
ATOM     50  C   UNL A   1      40.333  28.321  28.894  1.00  0.00     0.074 A 
ATOM     51  C   UNL A   1      39.257  28.586  27.963  1.00  0.00     0.031 C 
ATOM     52  C   UNL A   1      42.171  32.064  31.819  1.00  0.00     0.029 A 
ATOM     53  C   UNL A   1      41.144  32.642  32.667  1.00  0.00     0.049 A 
ATOM     54  H   UNL A   1      39.495  33.736  31.837  1.00  0.00     0.167 HD
ATOM     55  C   UNL A   1      41.430  27.519  28.852  1.00  0.00     0.031 A 
ATOM     56  C   UNL A   1      40.924  32.347  33.982  1.00  0.00     0.031 A 
ATOM     57  C   UNL A   1      42.361  27.760  29.949  1.00  0.00     0.049 A 
ATOM     58  C   UNL A   1      41.430  30.978  34.398  1.00  0.00     0.074 A 
ATOM     59  C   UNL A   1      43.583  28.406  30.053  1.00  0.00     0.029 A 
ATOM     60  N   UNL A   1      41.937  27.537  31.248  1.00  0.00    -0.354 N 
ATOM     61  N   UNL A   1      41.990  30.121  33.592  1.00  0.00    -0.248 NA
ATOM     62  C   UNL A   1      41.211  30.414  35.732  1.00  0.00     0.031 C 
ATOM     63  C   UNL A   1      43.902  28.542  31.433  1.00  0.00     0.029 A 
ATOM     64  C   UNL A   1      42.875  27.976  32.162  1.00  0.00     0.049 A 
ATOM     65  H   UNL A   1      41.079  27.121  31.489  1.00  0.00     0.167 HD
ATOM     66  C   UNL A   1      42.138  28.916  34.228  1.00  0.00     0.074 A 
ATOM     67  C   UNL A   1      41.639  29.149  35.570  1.00  0.00     0.031 C 
ATOM     68  C   UNL A   1      42.602  27.807  33.581  1.00  0.00     0.031 A 
BRANCH  55  69
ATOM     69  C   UNL A   1      41.759  26.708  27.630  1.00  0.00    -0.014 A 
ATOM     70  C   UNL A   1      41.708  25.305  27.682  1.00  0.00     0.009 A 
ATOM     71  C   UNL A   1      42.164  27.280  26.412  1.00  0.00     0.009 A 
ATOM     72  C   UNL A   1      42.136  24.513  26.612  1.00  0.00     0.001 A 
ATOM     73  C   UNL A   1      42.634  26.494  25.352  1.00  0.00     0.001 A 
ATOM     74  C   UNL A   1      42.632  25.107  25.458  1.00  0.00     0.000 A 
ENDBRANCH  55  69
BRANCH  56  75
ATOM     75  C   UNL A   1      39.701  32.990  34.540  1.00  0.00    -0.014 A 
ATOM     76  C   UNL A   1      38.453  32.389  34.275  1.00  0.00     0.009 A 
ATOM     77  C   UNL A   1      39.798  33.900  35.602  1.00  0.00     0.009 A 
ATOM     78  C   UNL A   1      37.370  32.589  35.135  1.00  0.00     0.001 A 
ATOM     79  C   UNL A   1      38.703  34.114  36.446  1.00  0.00     0.001 A 
ATOM     80  C   UNL A   1      37.506  33.427  36.237  1.00  0.00     0.000 A 
ENDBRANCH  56  75
BRANCH  68  81
ATOM     81  C   UNL A   1      42.799  26.443  34.197  1.00  0.00    -0.014 A 
ATOM     82  C   UNL A   1      43.876  25.601  33.897  1.00  0.00     0.009 A 
ATOM     83  C   UNL A   1      41.803  25.911  35.047  1.00  0.00     0.009 A 
ATOM     84  C   UNL A   1      43.991  24.328  34.476  1.00  0.00     0.001 A 
ATOM     85  C   UNL A   1      41.901  24.637  35.611  1.00  0.00     0.001 A 
ATOM     86  C   UNL A   1      43.007  23.849  35.337  1.00  0.00     0.000 A 
ENDBRANCH  68  81
ENDBRANCH  42  43
ENDBRANCH  34  37
ENDBRANCH  32  33
ENDBRANCH  31  32
ENDBRANCH   1  31
TORSDOF 15
ENDMDL
MODEL 3
REMARK VINA RESULT:     -12.8      4.993      9.742
REMARK SMILES Cc1ccccc1-c1c(Cl)ccc2c1C=C(C(=O)NCCCCCCNC(=O)c1ccc(-c3c4nc(c(-c5ccccc5)c5ccc([nH]5)c(-c5ccccc5)c5nc(c(-c6ccccc6)c6ccc3[nH]6)C=C5)C=C4)cc1)[C@@H](C(F)(F)F)O2
REMARK SMILES IDX 23 1 22 2 21 3 20 4 19 5 17 6 18 7 16 9 8 10 9 11 14 12
REMARK SMILES IDX 10 13 11 14 13 15 15 16 12 17 82 18 77 19 7 20 1 21 2 22
REMARK SMILES IDX 3 23 4 24 6 25 5 26 78 27 79 28 80 29 81 30 24 31 25 32
REMARK SMILES IDX 26 33 27 34 28 36 29 37 30 38 76 39 31 40 75 41 32 42 33 43
REMARK SMILES IDX 34 44 69 45 35 46 74 47 68 48 70 49 36 50 73 51 67 52 66 53
REMARK SMILES IDX 37 55 59 56 44 57 58 58 45 59 48 60 57 61 71 62 46 63 47 64
REMARK SMILES IDX 56 66 72 67 49 68 38 69 39 70 43 71 40 72 42 73 41 74 60 75
REMARK SMILES IDX 61 76 65 77 62 78 64 79 63 80 50 81 51 82 55 83 52 84 54 85
REMARK SMILES IDX 53 86
REMARK H PARENT 19 8 26 35 70 54 48 65
REMARK Flexibility Score: inf
ROOT
ATOM      1  C   UNL A   1      34.407  32.987  28.361  1.00  0.00     0.002 C 
ENDROOT
BRANCH   1   2
ATOM      2  C   UNL A   1      34.010  31.643  27.728  1.00  0.00     0.002 C 
BRANCH   2   3
ATOM      3  C   UNL A   1      35.084  30.547  27.635  1.00  0.00     0.021 C 
BRANCH   3   4
ATOM      4  C   UNL A   1      34.616  29.167  27.174  1.00  0.00     0.116 C 
BRANCH   4   5
ATOM      5  N   UNL A   1      33.364  28.767  27.769  1.00  0.00    -0.352 N 
ATOM      6  C   UNL A   1      32.369  27.972  27.298  1.00  0.00     0.251 C 
ATOM      7  O   UNL A   1      31.404  27.776  28.035  1.00  0.00    -0.270 OA
ATOM      8  H   UNL A   1      33.205  29.132  28.670  1.00  0.00     0.163 HD
BRANCH   6   9
ATOM      9  C   UNL A   1      32.413  27.398  25.902  1.00  0.00     0.067 C 
ATOM     10  C   UNL A   1      33.179  23.745  25.844  1.00  0.00     0.012 A 
ATOM     11  C   UNL A   1      32.453  22.596  26.254  1.00  0.00     0.049 A 
ATOM     12  C   UNL A   1      32.488  24.985  25.845  1.00  0.00     0.027 A 
ATOM     13  Cl  UNL A   1      33.211  21.046  26.440  1.00  0.00    -0.084 Cl
ATOM     14  C   UNL A   1      31.084  22.655  26.539  1.00  0.00     0.025 A 
ATOM     15  C   UNL A   1      31.088  25.001  26.027  1.00  0.00     0.128 A 
ATOM     16  C   UNL A   1      33.179  26.297  25.754  1.00  0.00     0.026 C 
ATOM     17  C   UNL A   1      30.395  23.850  26.384  1.00  0.00     0.049 A 
ATOM     18  O   UNL A   1      30.311  26.122  25.871  1.00  0.00    -0.475 OA
ATOM     19  C   UNL A   1      30.988  27.296  25.364  1.00  0.00     0.314 C 
BRANCH  10  20
ATOM     20  C   UNL A   1      34.549  23.595  25.280  1.00  0.00    -0.013 A 
ATOM     21  C   UNL A   1      33.822  23.263  22.840  1.00  0.00     0.045 C 
ATOM     22  C   UNL A   1      34.855  23.385  23.921  1.00  0.00    -0.043 A 
ATOM     23  C   UNL A   1      36.203  23.250  23.523  1.00  0.00     0.004 A 
ATOM     24  C   UNL A   1      37.246  23.355  24.441  1.00  0.00     0.000 A 
ATOM     25  C   UNL A   1      35.630  23.685  26.189  1.00  0.00     0.009 A 
ATOM     26  C   UNL A   1      36.959  23.581  25.778  1.00  0.00     0.001 A 
ENDBRANCH  10  20
BRANCH  19  27
ATOM     27  C   UNL A   1      30.929  27.377  23.830  1.00  0.00     0.429 C 
ATOM     28  F   UNL A   1      29.671  27.622  23.395  1.00  0.00    -0.167 F 
ATOM     29  F   UNL A   1      31.706  28.390  23.368  1.00  0.00    -0.167 F 
ATOM     30  F   UNL A   1      31.354  26.246  23.223  1.00  0.00    -0.167 F 
ENDBRANCH  19  27
ENDBRANCH   6   9
ENDBRANCH   4   5
ENDBRANCH   3   4
ENDBRANCH   2   3
ENDBRANCH   1   2
BRANCH   1  31
ATOM     31  C   UNL A   1      35.316  32.945  29.591  1.00  0.00     0.021 C 
BRANCH  31  32
ATOM     32  C   UNL A   1      34.647  32.445  30.867  1.00  0.00     0.116 C 
BRANCH  32  33
ATOM     33  N   UNL A   1      34.056  33.491  31.699  1.00  0.00    -0.352 N 
ATOM     34  C   UNL A   1      34.652  34.238  32.707  1.00  0.00     0.251 C 
ATOM     35  H   UNL A   1      33.109  33.692  31.521  1.00  0.00     0.163 HD
ATOM     36  O   UNL A   1      34.037  35.114  33.283  1.00  0.00    -0.269 OA
BRANCH  34  37
ATOM     37  C   UNL A   1      36.101  34.043  32.973  1.00  0.00     0.039 A 
ATOM     38  C   UNL A   1      37.010  34.719  32.154  1.00  0.00     0.014 A 
ATOM     39  C   UNL A   1      36.537  33.035  33.827  1.00  0.00     0.014 A 
ATOM     40  C   UNL A   1      38.289  34.193  31.985  1.00  0.00     0.010 A 
ATOM     41  C   UNL A   1      37.763  32.448  33.583  1.00  0.00     0.010 A 
ATOM     42  C   UNL A   1      38.603  32.982  32.602  1.00  0.00    -0.014 A 
BRANCH  42  43
ATOM     43  C   UNL A   1      39.718  32.147  32.175  1.00  0.00     0.031 A 
ATOM     44  C   UNL A   1      39.487  30.926  31.387  1.00  0.00     0.074 A 
ATOM     45  C   UNL A   1      40.990  32.481  32.495  1.00  0.00     0.049 A 
ATOM     46  N   UNL A   1      40.234  29.874  31.466  1.00  0.00    -0.248 NA
ATOM     47  C   UNL A   1      38.366  30.783  30.466  1.00  0.00     0.031 C 
ATOM     48  C   UNL A   1      42.218  31.872  31.987  1.00  0.00     0.029 A 
ATOM     49  N   UNL A   1      41.428  33.290  33.542  1.00  0.00    -0.354 N 
ATOM     50  C   UNL A   1      39.898  29.071  30.406  1.00  0.00     0.074 A 
ATOM     51  C   UNL A   1      38.671  29.624  29.874  1.00  0.00     0.031 C 
ATOM     52  C   UNL A   1      43.191  32.058  32.893  1.00  0.00     0.029 A 
ATOM     53  C   UNL A   1      42.585  32.679  34.057  1.00  0.00     0.049 A 
ATOM     54  H   UNL A   1      41.010  34.123  33.859  1.00  0.00     0.167 HD
ATOM     55  C   UNL A   1      40.760  28.114  29.969  1.00  0.00     0.031 A 
ATOM     56  C   UNL A   1      42.703  32.257  35.350  1.00  0.00     0.031 A 
ATOM     57  C   UNL A   1      41.996  28.057  30.740  1.00  0.00     0.049 A 
ATOM     58  C   UNL A   1      43.033  30.781  35.486  1.00  0.00     0.074 A 
ATOM     59  C   UNL A   1      43.297  28.478  30.511  1.00  0.00     0.029 A 
ATOM     60  N   UNL A   1      41.932  27.740  32.086  1.00  0.00    -0.354 N 
ATOM     61  N   UNL A   1      43.159  29.957  34.485  1.00  0.00    -0.248 NA
ATOM     62  C   UNL A   1      43.104  30.093  36.777  1.00  0.00     0.031 C 
ATOM     63  C   UNL A   1      44.022  28.382  31.731  1.00  0.00     0.029 A 
ATOM     64  C   UNL A   1      43.161  27.899  32.697  1.00  0.00     0.049 A 
ATOM     65  H   UNL A   1      41.117  27.440  32.549  1.00  0.00     0.167 HD
ATOM     66  C   UNL A   1      43.249  28.671  34.954  1.00  0.00     0.074 A 
ATOM     67  C   UNL A   1      43.214  28.807  36.397  1.00  0.00     0.031 C 
ATOM     68  C   UNL A   1      43.282  27.595  34.115  1.00  0.00     0.031 A 
BRANCH  55  69
ATOM     69  C   UNL A   1      40.558  27.425  28.648  1.00  0.00    -0.014 A 
ATOM     70  C   UNL A   1      39.762  26.270  28.571  1.00  0.00     0.009 A 
ATOM     71  C   UNL A   1      41.164  27.855  27.455  1.00  0.00     0.009 A 
ATOM     72  C   UNL A   1      39.660  25.524  27.393  1.00  0.00     0.001 A 
ATOM     73  C   UNL A   1      41.100  27.090  26.283  1.00  0.00     0.001 A 
ATOM     74  C   UNL A   1      40.356  25.916  26.256  1.00  0.00     0.000 A 
ENDBRANCH  55  69
BRANCH  56  75
ATOM     75  C   UNL A   1      41.842  33.011  36.303  1.00  0.00    -0.014 A 
ATOM     76  C   UNL A   1      42.276  34.284  36.728  1.00  0.00     0.009 A 
ATOM     77  C   UNL A   1      40.490  32.675  36.458  1.00  0.00     0.009 A 
ATOM     78  C   UNL A   1      41.356  35.239  37.169  1.00  0.00     0.001 A 
ATOM     79  C   UNL A   1      39.577  33.628  36.922  1.00  0.00     0.001 A 
ATOM     80  C   UNL A   1      40.004  34.920  37.235  1.00  0.00     0.000 A 
ENDBRANCH  56  75
BRANCH  68  81
ATOM     81  C   UNL A   1      43.382  26.150  34.537  1.00  0.00    -0.014 A 
ATOM     82  C   UNL A   1      44.503  25.344  34.301  1.00  0.00     0.009 A 
ATOM     83  C   UNL A   1      42.258  25.510  35.109  1.00  0.00     0.009 A 
ATOM     84  C   UNL A   1      44.528  23.996  34.688  1.00  0.00     0.001 A 
ATOM     85  C   UNL A   1      42.269  24.163  35.477  1.00  0.00     0.001 A 
ATOM     86  C   UNL A   1      43.413  23.407  35.280  1.00  0.00     0.000 A 
ENDBRANCH  68  81
ENDBRANCH  42  43
ENDBRANCH  34  37
ENDBRANCH  32  33
ENDBRANCH  31  32
ENDBRANCH   1  31
TORSDOF 15
ENDMDL
