MODEL 1
REMARK VINA RESULT:     -11.1      0.000      0.000
REMARK SMILES CCC[C@@H](C(=O)NCCCCCCNC(=O)c1ccc(-c2c3nc(c(-c4ccccc4)c4ccc([nH]4)c(-c4ccccc4)c4nc(c(-c5ccccc5)c5ccc2[nH]5)C=C4)C=C3)cc1)n1nc(/C=C/c2ccc(OC)cc2)ccc1=O
REMARK SMILES IDX 9 1 8 2 7 3 5 4 6 5 4 7 3 8 2 9 1 10 65 11 66 12 80 13 67 14
REMARK SMILES IDX 79 15 81 16 78 17 68 18 69 19 70 20 71 21 77 22 72 23 76 24
REMARK SMILES IDX 73 25 74 26 75 27 10 28 11 29 12 30 13 31 14 32 15 33 16 35
REMARK SMILES IDX 17 36 18 37 64 38 19 39 63 40 20 41 21 42 22 43 57 44 23 45
REMARK SMILES IDX 62 46 56 47 58 48 24 49 61 50 55 51 54 52 25 54 47 55 32 56
REMARK SMILES IDX 46 57 33 58 36 59 45 60 59 61 34 62 35 63 44 65 60 66 37 67
REMARK SMILES IDX 26 68 27 69 31 70 28 71 30 72 29 73 48 74 49 75 53 76 50 77
REMARK SMILES IDX 52 78 51 79 38 80 39 81 43 82 40 83 42 84 41 85
REMARK H PARENT 7 6 14 34 58 53 36 64
REMARK Flexibility Score: inf
ROOT
ATOM      1  C   UNL A   1      35.727  22.609  23.942  1.00  0.00     0.021 C 
ENDROOT
BRANCH   1   2
ATOM      2  C   UNL A   1      35.179  23.998  24.279  1.00  0.00     0.116 C 
BRANCH   2   3
ATOM      3  N   UNL A   1      34.276  24.434  23.243  1.00  0.00    -0.354 N 
ATOM      4  C   UNL A   1      33.194  25.264  23.282  1.00  0.00     0.245 C 
ATOM      5  O   UNL A   1      32.557  25.325  22.224  1.00  0.00    -0.273 OA
ATOM      6  H   UNL A   1      34.473  24.067  22.351  1.00  0.00     0.163 HD
BRANCH   4   7
ATOM      7  C   UNL A   1      32.822  26.078  24.560  1.00  0.00     0.200 C 
BRANCH   7   8
ATOM      8  C   UNL A   1      34.009  26.544  25.432  1.00  0.00     0.037 C 
BRANCH   8   9
ATOM      9  C   UNL A   1      34.041  27.990  25.926  1.00  0.00    -0.001 C 
ATOM     10  C   UNL A   1      33.197  28.277  27.158  1.00  0.00     0.004 C 
ENDBRANCH   8   9
ENDBRANCH   7   8
BRANCH   7  11
ATOM     11  N   UNL A   1      31.964  25.154  25.345  1.00  0.00    -0.217 N 
ATOM     12  N   UNL A   1      32.291  23.811  25.270  1.00  0.00    -0.170 NA
ATOM     13  C   UNL A   1      30.802  25.623  25.936  1.00  0.00     0.267 A 
ATOM     14  C   UNL A   1      31.449  22.939  25.733  1.00  0.00     0.084 A 
ATOM     15  C   UNL A   1      29.908  24.595  26.511  1.00  0.00     0.075 A 
ATOM     16  O   UNL A   1      30.478  26.806  26.008  1.00  0.00    -0.268 OA
ATOM     17  C   UNL A   1      30.187  23.293  26.407  1.00  0.00     0.036 A 
BRANCH  14  18
ATOM     18  C   UNL A   1      31.815  21.502  25.583  1.00  0.00     0.031 C 
ATOM     19  C   UNL A   1      32.226  20.871  24.474  1.00  0.00     0.010 C 
BRANCH  19  20
ATOM     20  C   UNL A   1      32.534  19.432  24.446  1.00  0.00    -0.025 A 
ATOM     21  C   UNL A   1      32.753  18.751  25.647  1.00  0.00     0.012 A 
ATOM     22  C   UNL A   1      32.690  18.733  23.242  1.00  0.00     0.012 A 
ATOM     23  C   UNL A   1      33.108  17.398  25.640  1.00  0.00     0.047 A 
ATOM     24  C   UNL A   1      33.045  17.378  23.236  1.00  0.00     0.047 A 
ATOM     25  C   UNL A   1      33.258  16.704  24.437  1.00  0.00     0.118 A 
BRANCH  25  26
ATOM     26  O   UNL A   1      33.620  15.393  24.570  1.00  0.00    -0.497 OA
ATOM     27  C   UNL A   1      32.832  14.595  25.445  1.00  0.00     0.278 C 
ENDBRANCH  25  26
ENDBRANCH  19  20
ENDBRANCH  14  18
ENDBRANCH   7  11
ENDBRANCH   4   7
ENDBRANCH   2   3
ENDBRANCH   1   2
BRANCH   1  28
ATOM     28  C   UNL A   1      36.124  21.783  25.168  1.00  0.00     0.002 C 
BRANCH  28  29
ATOM     29  C   UNL A   1      36.090  20.267  24.957  1.00  0.00     0.002 C 
BRANCH  29  30
ATOM     30  C   UNL A   1      37.455  19.601  24.763  1.00  0.00     0.021 C 
BRANCH  30  31
ATOM     31  C   UNL A   1      38.595  20.217  25.569  1.00  0.00     0.116 C 
BRANCH  31  32
ATOM     32  N   UNL A   1      39.725  19.311  25.699  1.00  0.00    -0.352 N 
ATOM     33  C   UNL A   1      41.024  19.572  26.052  1.00  0.00     0.251 C 
ATOM     34  H   UNL A   1      39.526  18.366  25.503  1.00  0.00     0.163 HD
ATOM     35  O   UNL A   1      41.884  18.709  25.908  1.00  0.00    -0.269 OA
BRANCH  33  36
ATOM     36  C   UNL A   1      41.396  20.894  26.597  1.00  0.00     0.039 A 
ATOM     37  C   UNL A   1      41.904  21.861  25.725  1.00  0.00     0.014 A 
ATOM     38  C   UNL A   1      41.288  21.170  27.963  1.00  0.00     0.014 A 
ATOM     39  C   UNL A   1      42.258  23.121  26.214  1.00  0.00     0.010 A 
ATOM     40  C   UNL A   1      41.581  22.445  28.440  1.00  0.00     0.010 A 
ATOM     41  C   UNL A   1      42.077  23.430  27.571  1.00  0.00    -0.014 A 
BRANCH  41  42
ATOM     42  C   UNL A   1      42.409  24.776  28.097  1.00  0.00     0.031 A 
ATOM     43  C   UNL A   1      43.822  25.115  28.482  1.00  0.00     0.074 A 
ATOM     44  C   UNL A   1      41.427  25.681  28.276  1.00  0.00     0.049 A 
ATOM     45  N   UNL A   1      44.299  26.232  28.974  1.00  0.00    -0.248 NA
ATOM     46  C   UNL A   1      44.828  24.056  28.314  1.00  0.00     0.031 C 
ATOM     47  C   UNL A   1      40.010  25.464  27.975  1.00  0.00     0.029 A 
ATOM     48  N   UNL A   1      41.474  26.966  28.753  1.00  0.00    -0.354 N 
ATOM     49  C   UNL A   1      45.650  26.001  29.194  1.00  0.00     0.074 A 
ATOM     50  C   UNL A   1      45.910  24.627  28.822  1.00  0.00     0.031 C 
ATOM     51  C   UNL A   1      39.330  26.591  28.239  1.00  0.00     0.029 A 
ATOM     52  C   UNL A   1      40.254  27.595  28.759  1.00  0.00     0.049 A 
ATOM     53  H   UNL A   1      42.304  27.396  29.061  1.00  0.00     0.167 HD
ATOM     54  C   UNL A   1      46.595  26.858  29.649  1.00  0.00     0.031 A 
ATOM     55  C   UNL A   1      39.916  28.841  29.136  1.00  0.00     0.031 A 
ATOM     56  C   UNL A   1      46.343  28.229  30.004  1.00  0.00     0.049 A 
ATOM     57  C   UNL A   1      40.981  29.771  29.645  1.00  0.00     0.074 A 
ATOM     58  C   UNL A   1      47.246  29.198  30.404  1.00  0.00     0.029 A 
ATOM     59  N   UNL A   1      45.090  28.824  30.006  1.00  0.00    -0.354 N 
ATOM     60  N   UNL A   1      42.268  29.561  29.775  1.00  0.00    -0.248 NA
ATOM     61  C   UNL A   1      40.543  31.115  30.048  1.00  0.00     0.031 C 
ATOM     62  C   UNL A   1      46.534  30.367  30.695  1.00  0.00     0.029 A 
ATOM     63  C   UNL A   1      45.193  30.139  30.427  1.00  0.00     0.049 A 
ATOM     64  H   UNL A   1      44.253  28.378  29.746  1.00  0.00     0.167 HD
ATOM     65  C   UNL A   1      42.799  30.754  30.249  1.00  0.00     0.074 A 
ATOM     66  C   UNL A   1      41.696  31.684  30.371  1.00  0.00     0.031 C 
ATOM     67  C   UNL A   1      44.087  31.051  30.552  1.00  0.00     0.031 A 
BRANCH  54  68
ATOM     68  C   UNL A   1      47.992  26.323  29.804  1.00  0.00    -0.014 A 
ATOM     69  C   UNL A   1      48.897  26.321  28.730  1.00  0.00     0.009 A 
ATOM     70  C   UNL A   1      48.414  25.828  31.047  1.00  0.00     0.009 A 
ATOM     71  C   UNL A   1      50.179  25.792  28.887  1.00  0.00     0.001 A 
ATOM     72  C   UNL A   1      49.707  25.326  31.209  1.00  0.00     0.001 A 
ATOM     73  C   UNL A   1      50.584  25.297  30.126  1.00  0.00     0.000 A 
ENDBRANCH  54  68
BRANCH  55  74
ATOM     74  C   UNL A   1      38.509  29.299  29.010  1.00  0.00    -0.014 A 
ATOM     75  C   UNL A   1      37.654  29.262  30.121  1.00  0.00     0.009 A 
ATOM     76  C   UNL A   1      38.015  29.776  27.787  1.00  0.00     0.009 A 
ATOM     77  C   UNL A   1      36.325  29.675  30.007  1.00  0.00     0.001 A 
ATOM     78  C   UNL A   1      36.692  30.212  27.681  1.00  0.00     0.001 A 
ATOM     79  C   UNL A   1      35.847  30.154  28.789  1.00  0.00     0.000 A 
ENDBRANCH  55  74
BRANCH  67  80
ATOM     80  C   UNL A   1      44.371  32.451  31.016  1.00  0.00    -0.014 A 
ATOM     81  C   UNL A   1      44.660  33.476  30.103  1.00  0.00     0.009 A 
ATOM     82  C   UNL A   1      44.325  32.750  32.387  1.00  0.00     0.009 A 
ATOM     83  C   UNL A   1      44.933  34.768  30.558  1.00  0.00     0.001 A 
ATOM     84  C   UNL A   1      44.571  34.049  32.836  1.00  0.00     0.001 A 
ATOM     85  C   UNL A   1      44.884  35.054  31.922  1.00  0.00     0.000 A 
ENDBRANCH  67  80
ENDBRANCH  41  42
ENDBRANCH  33  36
ENDBRANCH  31  32
ENDBRANCH  30  31
ENDBRANCH  29  30
ENDBRANCH  28  29
ENDBRANCH   1  28
TORSDOF 19
ENDMDL
MODEL 2
REMARK VINA RESULT:     -11.0      0.315      5.732
REMARK SMILES CCC[C@@H](C(=O)NCCCCCCNC(=O)c1ccc(-c2c3nc(c(-c4ccccc4)c4ccc([nH]4)c(-c4ccccc4)c4nc(c(-c5ccccc5)c5ccc2[nH]5)C=C4)C=C3)cc1)n1nc(/C=C/c2ccc(OC)cc2)ccc1=O
REMARK SMILES IDX 9 1 8 2 7 3 5 4 6 5 4 7 3 8 2 9 1 10 65 11 66 12 80 13 67 14
REMARK SMILES IDX 79 15 81 16 78 17 68 18 69 19 70 20 71 21 77 22 72 23 76 24
REMARK SMILES IDX 73 25 74 26 75 27 10 28 11 29 12 30 13 31 14 32 15 33 16 35
REMARK SMILES IDX 17 36 18 37 64 38 19 39 63 40 20 41 21 42 22 43 57 44 23 45
REMARK SMILES IDX 62 46 56 47 58 48 24 49 61 50 55 51 54 52 25 54 47 55 32 56
REMARK SMILES IDX 46 57 33 58 36 59 45 60 59 61 34 62 35 63 44 65 60 66 37 67
REMARK SMILES IDX 26 68 27 69 31 70 28 71 30 72 29 73 48 74 49 75 53 76 50 77
REMARK SMILES IDX 52 78 51 79 38 80 39 81 43 82 40 83 42 84 41 85
REMARK H PARENT 7 6 14 34 58 53 36 64
REMARK Flexibility Score: inf
ROOT
ATOM      1  C   UNL A   1      35.766  22.604  23.847  1.00  0.00     0.021 C 
ENDROOT
BRANCH   1   2
ATOM      2  C   UNL A   1      35.231  24.007  24.149  1.00  0.00     0.116 C 
BRANCH   2   3
ATOM      3  N   UNL A   1      34.307  24.410  23.118  1.00  0.00    -0.354 N 
ATOM      4  C   UNL A   1      33.220  25.234  23.156  1.00  0.00     0.245 C 
ATOM      5  O   UNL A   1      32.564  25.265  22.108  1.00  0.00    -0.273 OA
ATOM      6  H   UNL A   1      34.492  24.024  22.232  1.00  0.00     0.163 HD
BRANCH   4   7
ATOM      7  C   UNL A   1      32.864  26.075  24.420  1.00  0.00     0.200 C 
BRANCH   7   8
ATOM      8  C   UNL A   1      34.061  26.561  25.266  1.00  0.00     0.037 C 
BRANCH   8   9
ATOM      9  C   UNL A   1      33.833  27.654  26.311  1.00  0.00    -0.001 C 
ATOM     10  C   UNL A   1      33.618  29.053  25.755  1.00  0.00     0.004 C 
ENDBRANCH   8   9
ENDBRANCH   7   8
BRANCH   7  11
ATOM     11  N   UNL A   1      32.017  25.168  25.236  1.00  0.00    -0.217 N 
ATOM     12  N   UNL A   1      32.333  23.822  25.172  1.00  0.00    -0.170 NA
ATOM     13  C   UNL A   1      30.872  25.654  25.846  1.00  0.00     0.267 A 
ATOM     14  C   UNL A   1      31.495  22.963  25.666  1.00  0.00     0.084 A 
ATOM     15  C   UNL A   1      29.983  24.640  26.455  1.00  0.00     0.075 A 
ATOM     16  O   UNL A   1      30.558  26.840  25.910  1.00  0.00    -0.268 OA
ATOM     17  C   UNL A   1      30.251  23.335  26.363  1.00  0.00     0.036 A 
BRANCH  14  18
ATOM     18  C   UNL A   1      31.848  21.521  25.528  1.00  0.00     0.031 C 
ATOM     19  C   UNL A   1      32.237  20.874  24.420  1.00  0.00     0.010 C 
BRANCH  19  20
ATOM     20  C   UNL A   1      32.534  19.433  24.404  1.00  0.00    -0.025 A 
ATOM     21  C   UNL A   1      32.720  18.754  25.613  1.00  0.00     0.012 A 
ATOM     22  C   UNL A   1      32.711  18.728  23.206  1.00  0.00     0.012 A 
ATOM     23  C   UNL A   1      33.063  17.398  25.618  1.00  0.00     0.047 A 
ATOM     24  C   UNL A   1      33.053  17.369  23.213  1.00  0.00     0.047 A 
ATOM     25  C   UNL A   1      33.233  16.699  24.421  1.00  0.00     0.118 A 
BRANCH  25  26
ATOM     26  O   UNL A   1      33.581  15.385  24.567  1.00  0.00    -0.497 OA
ATOM     27  C   UNL A   1      32.812  14.615  25.484  1.00  0.00     0.278 C 
ENDBRANCH  25  26
ENDBRANCH  19  20
ENDBRANCH  14  18
ENDBRANCH   7  11
ENDBRANCH   4   7
ENDBRANCH   2   3
ENDBRANCH   1   2
BRANCH   1  28
ATOM     28  C   UNL A   1      36.230  21.836  25.087  1.00  0.00     0.002 C 
BRANCH  28  29
ATOM     29  C   UNL A   1      36.074  20.316  24.995  1.00  0.00     0.002 C 
BRANCH  29  30
ATOM     30  C   UNL A   1      37.383  19.527  24.901  1.00  0.00     0.021 C 
BRANCH  30  31
ATOM     31  C   UNL A   1      38.607  20.234  25.477  1.00  0.00     0.116 C 
BRANCH  31  32
ATOM     32  N   UNL A   1      39.725  19.324  25.667  1.00  0.00    -0.352 N 
ATOM     33  C   UNL A   1      41.015  19.586  26.052  1.00  0.00     0.251 C 
ATOM     34  H   UNL A   1      39.525  18.376  25.493  1.00  0.00     0.163 HD
ATOM     35  O   UNL A   1      41.872  18.714  25.958  1.00  0.00    -0.269 OA
BRANCH  33  36
ATOM     36  C   UNL A   1      41.381  20.921  26.569  1.00  0.00     0.039 A 
ATOM     37  C   UNL A   1      41.202  21.187  27.929  1.00  0.00     0.014 A 
ATOM     38  C   UNL A   1      41.859  21.920  25.716  1.00  0.00     0.014 A 
ATOM     39  C   UNL A   1      41.546  22.439  28.443  1.00  0.00     0.010 A 
ATOM     40  C   UNL A   1      42.261  23.146  26.240  1.00  0.00     0.010 A 
ATOM     41  C   UNL A   1      42.100  23.420  27.606  1.00  0.00    -0.014 A 
BRANCH  41  42
ATOM     42  C   UNL A   1      42.510  24.740  28.147  1.00  0.00     0.031 A 
ATOM     43  C   UNL A   1      41.489  25.822  28.365  1.00  0.00     0.074 A 
ATOM     44  C   UNL A   1      43.811  24.982  28.394  1.00  0.00     0.049 A 
ATOM     45  N   UNL A   1      41.661  27.041  28.812  1.00  0.00    -0.248 NA
ATOM     46  C   UNL A   1      40.097  25.502  28.015  1.00  0.00     0.031 C 
ATOM     47  C   UNL A   1      44.905  24.029  28.191  1.00  0.00     0.029 A 
ATOM     48  N   UNL A   1      44.435  26.106  28.873  1.00  0.00    -0.354 N 
ATOM     49  C   UNL A   1      40.408  27.638  28.775  1.00  0.00     0.074 A 
ATOM     50  C   UNL A   1      39.492  26.662  28.223  1.00  0.00     0.031 C 
ATOM     51  C   UNL A   1      46.058  24.597  28.579  1.00  0.00     0.029 A 
ATOM     52  C   UNL A   1      45.791  25.961  29.024  1.00  0.00     0.049 A 
ATOM     53  H   UNL A   1      43.953  26.938  29.089  1.00  0.00     0.167 HD
ATOM     54  C   UNL A   1      40.045  28.878  29.178  1.00  0.00     0.031 A 
ATOM     55  C   UNL A   1      46.717  26.827  29.474  1.00  0.00     0.031 A 
ATOM     56  C   UNL A   1      40.950  29.844  29.742  1.00  0.00     0.049 A 
ATOM     57  C   UNL A   1      46.291  28.201  29.908  1.00  0.00     0.074 A 
ATOM     58  C   UNL A   1      40.667  31.101  30.249  1.00  0.00     0.029 A 
ATOM     59  N   UNL A   1      42.318  29.661  29.868  1.00  0.00    -0.354 N 
ATOM     60  N   UNL A   1      45.089  28.723  29.938  1.00  0.00    -0.248 NA
ATOM     61  C   UNL A   1      47.353  29.100  30.381  1.00  0.00     0.031 C 
ATOM     62  C   UNL A   1      41.871  31.698  30.638  1.00  0.00     0.029 A 
ATOM     63  C   UNL A   1      42.897  30.793  30.418  1.00  0.00     0.049 A 
ATOM     64  H   UNL A   1      42.806  28.848  29.605  1.00  0.00     0.167 HD
ATOM     65  C   UNL A   1      45.246  30.001  30.458  1.00  0.00     0.074 A 
ATOM     66  C   UNL A   1      46.657  30.169  30.740  1.00  0.00     0.031 C 
ATOM     67  C   UNL A   1      44.303  30.949  30.686  1.00  0.00     0.031 A 
BRANCH  54  68
ATOM     68  C   UNL A   1      38.602  29.265  29.004  1.00  0.00    -0.014 A 
ATOM     69  C   UNL A   1      37.690  29.180  30.069  1.00  0.00     0.009 A 
ATOM     70  C   UNL A   1      38.152  29.734  27.761  1.00  0.00     0.009 A 
ATOM     71  C   UNL A   1      36.348  29.515  29.878  1.00  0.00     0.001 A 
ATOM     72  C   UNL A   1      36.815  30.096  27.581  1.00  0.00     0.001 A 
ATOM     73  C   UNL A   1      35.912  29.974  28.636  1.00  0.00     0.000 A 
ENDBRANCH  54  68
BRANCH  55  74
ATOM     74  C   UNL A   1      48.138  26.408  29.576  1.00  0.00    -0.014 A 
ATOM     75  C   UNL A   1      48.611  25.807  30.752  1.00  0.00     0.009 A 
ATOM     76  C   UNL A   1      49.023  26.599  28.505  1.00  0.00     0.009 A 
ATOM     77  C   UNL A   1      49.950  25.425  30.862  1.00  0.00     0.001 A 
ATOM     78  C   UNL A   1      50.356  26.194  28.608  1.00  0.00     0.001 A 
ATOM     79  C   UNL A   1      50.819  25.614  29.789  1.00  0.00     0.000 A 
ENDBRANCH  55  74
BRANCH  67  80
ATOM     80  C   UNL A   1      44.769  32.240  31.296  1.00  0.00    -0.014 A 
ATOM     81  C   UNL A   1      44.921  32.376  32.683  1.00  0.00     0.009 A 
ATOM     82  C   UNL A   1      45.082  33.327  30.464  1.00  0.00     0.009 A 
ATOM     83  C   UNL A   1      45.345  33.590  33.230  1.00  0.00     0.001 A 
ATOM     84  C   UNL A   1      45.531  34.530  31.012  1.00  0.00     0.001 A 
ATOM     85  C   UNL A   1      45.652  34.663  32.395  1.00  0.00     0.000 A 
ENDBRANCH  67  80
ENDBRANCH  41  42
ENDBRANCH  33  36
ENDBRANCH  31  32
ENDBRANCH  30  31
ENDBRANCH  29  30
ENDBRANCH  28  29
ENDBRANCH   1  28
TORSDOF 19
ENDMDL
MODEL 3
REMARK VINA RESULT:     -10.3      5.258      9.759
REMARK SMILES CCC[C@@H](C(=O)NCCCCCCNC(=O)c1ccc(-c2c3nc(c(-c4ccccc4)c4ccc([nH]4)c(-c4ccccc4)c4nc(c(-c5ccccc5)c5ccc2[nH]5)C=C4)C=C3)cc1)n1nc(/C=C/c2ccc(OC)cc2)ccc1=O
REMARK SMILES IDX 9 1 8 2 7 3 5 4 6 5 4 7 3 8 2 9 1 10 65 11 66 12 80 13 67 14
REMARK SMILES IDX 79 15 81 16 78 17 68 18 69 19 70 20 71 21 77 22 72 23 76 24
REMARK SMILES IDX 73 25 74 26 75 27 10 28 11 29 12 30 13 31 14 32 15 33 16 35
REMARK SMILES IDX 17 36 18 37 64 38 19 39 63 40 20 41 21 42 22 43 57 44 23 45
REMARK SMILES IDX 62 46 56 47 58 48 24 49 61 50 55 51 54 52 25 54 47 55 32 56
REMARK SMILES IDX 46 57 33 58 36 59 45 60 59 61 34 62 35 63 44 65 60 66 37 67
REMARK SMILES IDX 26 68 27 69 31 70 28 71 30 72 29 73 48 74 49 75 53 76 50 77
REMARK SMILES IDX 52 78 51 79 38 80 39 81 43 82 40 83 42 84 41 85
REMARK H PARENT 7 6 14 34 58 53 36 64
REMARK Flexibility Score: inf
ROOT
ATOM      1  C   UNL A   1      46.330  22.925  24.400  1.00  0.00     0.021 C 
ENDROOT
BRANCH   1   2
ATOM      2  C   UNL A   1      46.345  24.126  25.349  1.00  0.00     0.116 C 
BRANCH   2   3
ATOM      3  N   UNL A   1      46.632  25.330  24.609  1.00  0.00    -0.354 N 
ATOM      4  C   UNL A   1      46.202  26.614  24.778  1.00  0.00     0.245 C 
ATOM      5  O   UNL A   1      46.544  27.391  23.878  1.00  0.00    -0.273 OA
ATOM      6  H   UNL A   1      47.244  25.205  23.850  1.00  0.00     0.163 HD
BRANCH   4   7
ATOM      7  C   UNL A   1      45.367  27.050  26.021  1.00  0.00     0.200 C 
BRANCH   7   8
ATOM      8  C   UNL A   1      43.951  27.590  25.727  1.00  0.00     0.037 C 
BRANCH   8   9
ATOM      9  C   UNL A   1      42.883  26.625  25.211  1.00  0.00    -0.001 C 
ATOM     10  C   UNL A   1      41.447  27.112  25.341  1.00  0.00     0.004 C 
ENDBRANCH   8   9
ENDBRANCH   7   8
BRANCH   7  11
ATOM     11  N   UNL A   1      46.183  28.119  26.652  1.00  0.00    -0.217 N 
ATOM     12  N   UNL A   1      45.588  29.365  26.739  1.00  0.00    -0.170 NA
ATOM     13  C   UNL A   1      47.520  27.892  26.937  1.00  0.00     0.267 A 
ATOM     14  C   UNL A   1      46.324  30.385  27.058  1.00  0.00     0.084 A 
ATOM     15  C   UNL A   1      48.300  29.073  27.363  1.00  0.00     0.075 A 
ATOM     16  O   UNL A   1      48.080  26.801  26.859  1.00  0.00    -0.268 OA
ATOM     17  C   UNL A   1      47.752  30.290  27.409  1.00  0.00     0.036 A 
BRANCH  14  18
ATOM     18  C   UNL A   1      45.655  31.717  27.087  1.00  0.00     0.031 C 
ATOM     19  C   UNL A   1      44.373  31.986  27.372  1.00  0.00     0.010 C 
BRANCH  19  20
ATOM     20  C   UNL A   1      43.821  33.350  27.341  1.00  0.00    -0.025 A 
ATOM     21  C   UNL A   1      43.268  33.895  28.504  1.00  0.00     0.012 A 
ATOM     22  C   UNL A   1      43.763  34.097  26.157  1.00  0.00     0.012 A 
ATOM     23  C   UNL A   1      42.682  35.166  28.480  1.00  0.00     0.047 A 
ATOM     24  C   UNL A   1      43.177  35.369  26.136  1.00  0.00     0.047 A 
ATOM     25  C   UNL A   1      42.631  35.909  27.299  1.00  0.00     0.118 A 
BRANCH  25  26
ATOM     26  O   UNL A   1      42.020  37.126  27.410  1.00  0.00    -0.497 OA
ATOM     27  C   UNL A   1      42.709  38.243  26.861  1.00  0.00     0.278 C 
ENDBRANCH  25  26
ENDBRANCH  19  20
ENDBRANCH  14  18
ENDBRANCH   7  11
ENDBRANCH   4   7
ENDBRANCH   2   3
ENDBRANCH   1   2
BRANCH   1  28
ATOM     28  C   UNL A   1      45.982  21.599  25.082  1.00  0.00     0.002 C 
BRANCH  28  29
ATOM     29  C   UNL A   1      46.335  20.349  24.270  1.00  0.00     0.002 C 
BRANCH  29  30
ATOM     30  C   UNL A   1      45.263  19.256  24.251  1.00  0.00     0.021 C 
BRANCH  30  31
ATOM     31  C   UNL A   1      44.514  19.061  25.567  1.00  0.00     0.116 C 
BRANCH  31  32
ATOM     32  N   UNL A   1      43.081  18.922  25.365  1.00  0.00    -0.352 N 
ATOM     33  C   UNL A   1      42.048  19.688  25.842  1.00  0.00     0.251 C 
ATOM     34  H   UNL A   1      42.811  18.163  24.798  1.00  0.00     0.163 HD
ATOM     35  O   UNL A   1      40.891  19.294  25.733  1.00  0.00    -0.269 OA
BRANCH  33  36
ATOM     36  C   UNL A   1      42.323  20.982  26.501  1.00  0.00     0.039 A 
ATOM     37  C   UNL A   1      42.650  22.084  25.705  1.00  0.00     0.014 A 
ATOM     38  C   UNL A   1      42.301  21.104  27.892  1.00  0.00     0.014 A 
ATOM     39  C   UNL A   1      42.909  23.320  26.302  1.00  0.00     0.010 A 
ATOM     40  C   UNL A   1      42.497  22.350  28.484  1.00  0.00     0.010 A 
ATOM     41  C   UNL A   1      42.811  23.467  27.695  1.00  0.00    -0.014 A 
BRANCH  41  42
ATOM     42  C   UNL A   1      43.041  24.783  28.339  1.00  0.00     0.031 A 
ATOM     43  C   UNL A   1      44.403  25.146  28.861  1.00  0.00     0.074 A 
ATOM     44  C   UNL A   1      42.010  25.634  28.501  1.00  0.00     0.049 A 
ATOM     45  N   UNL A   1      44.790  26.241  29.468  1.00  0.00    -0.248 NA
ATOM     46  C   UNL A   1      45.465  24.141  28.702  1.00  0.00     0.031 C 
ATOM     47  C   UNL A   1      40.631  25.386  28.071  1.00  0.00     0.029 A 
ATOM     48  N   UNL A   1      41.962  26.881  29.070  1.00  0.00    -0.354 N 
ATOM     49  C   UNL A   1      46.130  26.046  29.781  1.00  0.00     0.074 A 
ATOM     50  C   UNL A   1      46.477  24.714  29.335  1.00  0.00     0.031 C 
ATOM     51  C   UNL A   1      39.884  26.464  28.358  1.00  0.00     0.029 A 
ATOM     52  C   UNL A   1      40.719  27.461  29.022  1.00  0.00     0.049 A 
ATOM     53  H   UNL A   1      42.746  27.319  29.474  1.00  0.00     0.167 HD
ATOM     54  C   UNL A   1      46.997  26.902  30.371  1.00  0.00     0.031 A 
ATOM     55  C   UNL A   1      40.298  28.663  29.457  1.00  0.00     0.031 A 
ATOM     56  C   UNL A   1      46.658  28.233  30.800  1.00  0.00     0.049 A 
ATOM     57  C   UNL A   1      41.278  29.592  30.115  1.00  0.00     0.074 A 
ATOM     58  C   UNL A   1      47.484  29.203  31.340  1.00  0.00     0.029 A 
ATOM     59  N   UNL A   1      45.385  28.778  30.742  1.00  0.00    -0.354 N 
ATOM     60  N   UNL A   1      42.559  29.421  30.335  1.00  0.00    -0.248 NA
ATOM     61  C   UNL A   1      40.752  30.884  30.575  1.00  0.00     0.031 C 
ATOM     62  C   UNL A   1      46.701  30.319  31.654  1.00  0.00     0.029 A 
ATOM     63  C   UNL A   1      45.396  30.061  31.262  1.00  0.00     0.049 A 
ATOM     64  H   UNL A   1      44.591  28.321  30.384  1.00  0.00     0.167 HD
ATOM     65  C   UNL A   1      42.998  30.595  30.933  1.00  0.00     0.074 A 
ATOM     66  C   UNL A   1      41.849  31.472  31.030  1.00  0.00     0.031 C 
ATOM     67  C   UNL A   1      44.244  30.919  31.360  1.00  0.00     0.031 A 
BRANCH  54  68
ATOM     68  C   UNL A   1      48.400  26.411  30.601  1.00  0.00    -0.014 A 
ATOM     69  C   UNL A   1      49.432  26.697  29.693  1.00  0.00     0.009 A 
ATOM     70  C   UNL A   1      48.696  25.663  31.751  1.00  0.00     0.009 A 
ATOM     71  C   UNL A   1      50.721  26.206  29.910  1.00  0.00     0.001 A 
ATOM     72  C   UNL A   1      49.992  25.197  31.979  1.00  0.00     0.001 A 
ATOM     73  C   UNL A   1      51.000  25.459  31.053  1.00  0.00     0.000 A 
ENDBRANCH  54  68
BRANCH  55  74
ATOM     74  C   UNL A   1      38.887  29.075  29.249  1.00  0.00    -0.014 A 
ATOM     75  C   UNL A   1      37.963  28.976  30.300  1.00  0.00     0.009 A 
ATOM     76  C   UNL A   1      38.458  29.569  28.009  1.00  0.00     0.009 A 
ATOM     77  C   UNL A   1      36.630  29.346  30.107  1.00  0.00     0.001 A 
ATOM     78  C   UNL A   1      37.129  29.961  27.826  1.00  0.00     0.001 A 
ATOM     79  C   UNL A   1      36.216  29.843  28.873  1.00  0.00     0.000 A 
ENDBRANCH  55  74
BRANCH  67  80
ATOM     80  C   UNL A   1      44.430  32.290  31.944  1.00  0.00    -0.014 A 
ATOM     81  C   UNL A   1      44.015  32.587  33.250  1.00  0.00     0.009 A 
ATOM     82  C   UNL A   1      45.050  33.292  31.180  1.00  0.00     0.009 A 
ATOM     83  C   UNL A   1      44.187  33.873  33.769  1.00  0.00     0.001 A 
ATOM     84  C   UNL A   1      45.244  34.568  31.711  1.00  0.00     0.001 A 
ATOM     85  C   UNL A   1      44.804  34.859  33.002  1.00  0.00     0.000 A 
ENDBRANCH  67  80
ENDBRANCH  41  42
ENDBRANCH  33  36
ENDBRANCH  31  32
ENDBRANCH  30  31
ENDBRANCH  29  30
ENDBRANCH  28  29
ENDBRANCH   1  28
TORSDOF 19
ENDMDL
