MODEL 1
REMARK VINA RESULT:      -9.8      0.000      0.000
REMARK SMILES Cc1ncnc(OCCC(=O)NCCCCCCNC(=O)c2ccc(-c3c4nc(c(-c5ccccc5)c5ccc([nH]5)c(-c5ccccc5)c5nc(c(-c6ccccc6)c6ccc3[nH]6)C=C5)C=C4)cc2)c1C
REMARK SMILES IDX 15 1 14 2 13 3 12 4 10 5 11 6 9 8 8 9 7 10 6 11 1 12 2 13
REMARK SMILES IDX 3 14 70 15 4 16 71 17 5 18 16 19 17 20 18 21 19 22 20 23
REMARK SMILES IDX 21 25 22 26 23 27 69 28 24 29 68 30 25 31 26 32 27 33 62 34
REMARK SMILES IDX 28 35 67 36 61 37 63 38 29 39 66 40 60 41 59 42 30 44 52 45
REMARK SMILES IDX 37 46 51 47 38 48 41 49 50 50 64 51 39 52 40 53 49 55 65 56
REMARK SMILES IDX 42 57 31 58 32 59 36 60 33 61 35 62 34 63 53 64 54 65 58 66
REMARK SMILES IDX 55 67 57 68 56 69 43 70 44 71 48 72 45 73 47 74 46 75
REMARK H PARENT 12 7 19 24 63 43 41 54
REMARK Flexibility Score: inf
ROOT
ATOM      1  C   UNL A   1      33.210  29.862  26.099  1.00  0.00     0.002 C 
ENDROOT
BRANCH   1   2
ATOM      2  C   UNL A   1      33.474  28.539  26.826  1.00  0.00     0.021 C 
BRANCH   2   3
ATOM      3  C   UNL A   1      33.618  27.353  25.880  1.00  0.00     0.116 C 
BRANCH   3   4
ATOM      4  N   UNL A   1      33.013  26.151  26.423  1.00  0.00    -0.356 N 
ATOM      5  C   UNL A   1      31.706  25.768  26.398  1.00  0.00     0.223 C 
ATOM      6  O   UNL A   1      31.420  24.657  26.846  1.00  0.00    -0.275 OA
ATOM      7  H   UNL A   1      33.631  25.529  26.870  1.00  0.00     0.163 HD
BRANCH   5   8
ATOM      8  C   UNL A   1      30.665  26.665  25.759  1.00  0.00     0.141 C 
BRANCH   8   9
ATOM      9  C   UNL A   1      29.734  25.928  24.795  1.00  0.00     0.241 C 
BRANCH   9  10
ATOM     10  O   UNL A   1      29.952  26.166  23.402  1.00  0.00    -0.477 OA
BRANCH  10  11
ATOM     11  C   UNL A   1      31.201  26.305  22.882  1.00  0.00     0.219 A 
ATOM     12  C   UNL A   1      34.194  28.479  22.271  1.00  0.00     0.067 C 
ATOM     13  C   UNL A   1      33.221  27.333  22.272  1.00  0.00     0.047 A 
ATOM     14  N   UNL A   1      33.735  26.146  21.891  1.00  0.00    -0.241 NA
ATOM     15  C   UNL A   1      31.891  27.489  22.669  1.00  0.00     0.032 A 
ATOM     16  C   UNL A   1      32.914  25.097  21.967  1.00  0.00     0.226 A 
ATOM     17  C   UNL A   1      31.260  28.843  22.726  1.00  0.00     0.052 C 
ATOM     18  N   UNL A   1      31.691  25.107  22.500  1.00  0.00    -0.202 NA
ENDBRANCH  10  11
ENDBRANCH   9  10
ENDBRANCH   8   9
ENDBRANCH   5   8
ENDBRANCH   3   4
ENDBRANCH   2   3
ENDBRANCH   1   2
BRANCH   1  19
ATOM     19  C   UNL A   1      31.751  30.322  26.111  1.00  0.00     0.002 C 
BRANCH  19  20
ATOM     20  C   UNL A   1      31.525  31.758  26.599  1.00  0.00     0.021 C 
BRANCH  20  21
ATOM     21  C   UNL A   1      32.744  32.423  27.237  1.00  0.00     0.116 C 
BRANCH  21  22
ATOM     22  N   UNL A   1      32.479  33.800  27.625  1.00  0.00    -0.352 N 
ATOM     23  C   UNL A   1      33.133  34.573  28.553  1.00  0.00     0.251 C 
ATOM     24  H   UNL A   1      31.729  34.236  27.159  1.00  0.00     0.163 HD
ATOM     25  O   UNL A   1      32.665  35.647  28.921  1.00  0.00    -0.269 OA
BRANCH  23  26
ATOM     26  C   UNL A   1      34.402  34.088  29.134  1.00  0.00     0.039 A 
ATOM     27  C   UNL A   1      34.363  33.266  30.261  1.00  0.00     0.014 A 
ATOM     28  C   UNL A   1      35.626  34.428  28.549  1.00  0.00     0.014 A 
ATOM     29  C   UNL A   1      35.548  32.720  30.756  1.00  0.00     0.010 A 
ATOM     30  C   UNL A   1      36.798  33.828  29.001  1.00  0.00     0.010 A 
ATOM     31  C   UNL A   1      36.771  32.964  30.106  1.00  0.00    -0.014 A 
BRANCH  31  32
ATOM     32  C   UNL A   1      38.021  32.309  30.566  1.00  0.00     0.031 A 
ATOM     33  C   UNL A   1      38.816  32.894  31.698  1.00  0.00     0.074 A 
ATOM     34  C   UNL A   1      38.459  31.200  29.939  1.00  0.00     0.049 A 
ATOM     35  N   UNL A   1      39.920  32.448  32.244  1.00  0.00    -0.248 NA
ATOM     36  C   UNL A   1      38.318  34.148  32.284  1.00  0.00     0.031 C 
ATOM     37  C   UNL A   1      37.804  30.554  28.800  1.00  0.00     0.029 A 
ATOM     38  N   UNL A   1      39.560  30.413  30.178  1.00  0.00    -0.354 N 
ATOM     39  C   UNL A   1      40.247  33.366  33.233  1.00  0.00     0.074 A 
ATOM     40  C   UNL A   1      39.258  34.421  33.178  1.00  0.00     0.031 C 
ATOM     41  C   UNL A   1      38.488  29.446  28.469  1.00  0.00     0.029 A 
ATOM     42  C   UNL A   1      39.645  29.321  29.349  1.00  0.00     0.049 A 
ATOM     43  H   UNL A   1      40.224  30.613  30.877  1.00  0.00     0.167 HD
ATOM     44  C   UNL A   1      41.264  33.323  34.126  1.00  0.00     0.031 A 
ATOM     45  C   UNL A   1      40.548  28.322  29.308  1.00  0.00     0.031 A 
ATOM     46  C   UNL A   1      42.243  32.273  34.191  1.00  0.00     0.049 A 
ATOM     47  C   UNL A   1      41.682  28.309  30.294  1.00  0.00     0.074 A 
ATOM     48  C   UNL A   1      43.280  32.119  35.095  1.00  0.00     0.029 A 
ATOM     49  N   UNL A   1      42.308  31.200  33.318  1.00  0.00    -0.354 N 
ATOM     50  N   UNL A   1      41.939  29.151  31.265  1.00  0.00    -0.248 NA
ATOM     51  C   UNL A   1      42.647  27.205  30.182  1.00  0.00     0.031 C 
ATOM     52  C   UNL A   1      43.999  30.974  34.742  1.00  0.00     0.029 A 
ATOM     53  C   UNL A   1      43.382  30.392  33.646  1.00  0.00     0.049 A 
ATOM     54  H   UNL A   1      41.683  31.037  32.575  1.00  0.00     0.167 HD
ATOM     55  C   UNL A   1      43.080  28.670  31.892  1.00  0.00     0.074 A 
ATOM     56  C   UNL A   1      43.461  27.456  31.199  1.00  0.00     0.031 C 
ATOM     57  C   UNL A   1      43.750  29.189  32.947  1.00  0.00     0.031 A 
BRANCH  44  58
ATOM     58  C   UNL A   1      41.359  34.444  35.119  1.00  0.00    -0.014 A 
ATOM     59  C   UNL A   1      40.715  34.359  36.365  1.00  0.00     0.009 A 
ATOM     60  C   UNL A   1      42.138  35.575  34.832  1.00  0.00     0.009 A 
ATOM     61  C   UNL A   1      40.827  35.397  37.291  1.00  0.00     0.001 A 
ATOM     62  C   UNL A   1      42.268  36.601  35.771  1.00  0.00     0.001 A 
ATOM     63  C   UNL A   1      41.608  36.514  36.996  1.00  0.00     0.000 A 
ENDBRANCH  44  58
BRANCH  45  64
ATOM     64  C   UNL A   1      40.389  27.224  28.321  1.00  0.00    -0.014 A 
ATOM     65  C   UNL A   1      39.678  26.065  28.664  1.00  0.00     0.009 A 
ATOM     66  C   UNL A   1      40.932  27.333  27.031  1.00  0.00     0.009 A 
ATOM     67  C   UNL A   1      39.524  25.030  27.739  1.00  0.00     0.001 A 
ATOM     68  C   UNL A   1      40.757  26.307  26.101  1.00  0.00     0.001 A 
ATOM     69  C   UNL A   1      40.058  25.154  26.458  1.00  0.00     0.000 A 
ENDBRANCH  45  64
BRANCH  57  70
ATOM     70  C   UNL A   1      44.961  28.447  33.436  1.00  0.00    -0.014 A 
ATOM     71  C   UNL A   1      46.240  28.758  32.950  1.00  0.00     0.009 A 
ATOM     72  C   UNL A   1      44.828  27.489  34.452  1.00  0.00     0.009 A 
ATOM     73  C   UNL A   1      47.364  28.111  33.468  1.00  0.00     0.001 A 
ATOM     74  C   UNL A   1      45.956  26.860  34.982  1.00  0.00     0.001 A 
ATOM     75  C   UNL A   1      47.222  27.169  34.487  1.00  0.00     0.000 A 
ENDBRANCH  57  70
ENDBRANCH  31  32
ENDBRANCH  23  26
ENDBRANCH  21  22
ENDBRANCH  20  21
ENDBRANCH  19  20
ENDBRANCH   1  19
TORSDOF 16
ENDMDL
MODEL 2
REMARK VINA RESULT:      -9.7      4.803     10.445
REMARK SMILES Cc1ncnc(OCCC(=O)NCCCCCCNC(=O)c2ccc(-c3c4nc(c(-c5ccccc5)c5ccc([nH]5)c(-c5ccccc5)c5nc(c(-c6ccccc6)c6ccc3[nH]6)C=C5)C=C4)cc2)c1C
REMARK SMILES IDX 15 1 14 2 13 3 12 4 10 5 11 6 9 8 8 9 7 10 6 11 1 12 2 13
REMARK SMILES IDX 3 14 70 15 4 16 71 17 5 18 16 19 17 20 18 21 19 22 20 23
REMARK SMILES IDX 21 25 22 26 23 27 69 28 24 29 68 30 25 31 26 32 27 33 62 34
REMARK SMILES IDX 28 35 67 36 61 37 63 38 29 39 66 40 60 41 59 42 30 44 52 45
REMARK SMILES IDX 37 46 51 47 38 48 41 49 50 50 64 51 39 52 40 53 49 55 65 56
REMARK SMILES IDX 42 57 31 58 32 59 36 60 33 61 35 62 34 63 53 64 54 65 58 66
REMARK SMILES IDX 55 67 57 68 56 69 43 70 44 71 48 72 45 73 47 74 46 75
REMARK H PARENT 12 7 19 24 63 43 41 54
REMARK Flexibility Score: inf
ROOT
ATOM      1  C   UNL A   1      41.875  18.968  26.173  1.00  0.00     0.002 C 
ENDROOT
BRANCH   1   2
ATOM      2  C   UNL A   1      43.365  18.610  26.132  1.00  0.00     0.021 C 
BRANCH   2   3
ATOM      3  C   UNL A   1      43.989  18.799  24.755  1.00  0.00     0.116 C 
BRANCH   3   4
ATOM      4  N   UNL A   1      45.436  18.721  24.802  1.00  0.00    -0.356 N 
ATOM      5  C   UNL A   1      46.348  19.729  24.703  1.00  0.00     0.223 C 
ATOM      6  O   UNL A   1      47.538  19.450  24.857  1.00  0.00    -0.275 OA
ATOM      7  H   UNL A   1      45.810  17.818  24.920  1.00  0.00     0.163 HD
BRANCH   5   8
ATOM      8  C   UNL A   1      45.882  21.155  24.492  1.00  0.00     0.141 C 
BRANCH   8   9
ATOM      9  C   UNL A   1      45.641  21.918  25.795  1.00  0.00     0.241 C 
BRANCH   9  10
ATOM     10  O   UNL A   1      46.335  23.160  25.938  1.00  0.00    -0.477 OA
BRANCH  10  11
ATOM     11  C   UNL A   1      45.688  24.356  25.882  1.00  0.00     0.219 A 
ATOM     12  C   UNL A   1      45.752  28.062  26.446  1.00  0.00     0.067 C 
ATOM     13  C   UNL A   1      45.313  26.659  26.129  1.00  0.00     0.047 A 
ATOM     14  N   UNL A   1      44.147  26.563  25.458  1.00  0.00    -0.241 NA
ATOM     15  C   UNL A   1      46.078  25.545  26.480  1.00  0.00     0.032 A 
ATOM     16  C   UNL A   1      43.780  25.335  25.089  1.00  0.00     0.226 A 
ATOM     17  C   UNL A   1      47.146  25.643  27.522  1.00  0.00     0.052 C 
ATOM     18  N   UNL A   1      44.522  24.233  25.215  1.00  0.00    -0.202 NA
ENDBRANCH  10  11
ENDBRANCH   9  10
ENDBRANCH   8   9
ENDBRANCH   5   8
ENDBRANCH   3   4
ENDBRANCH   2   3
ENDBRANCH   1   2
BRANCH   1  19
ATOM     19  C   UNL A   1      41.458  19.848  27.353  1.00  0.00     0.002 C 
BRANCH  19  20
ATOM     20  C   UNL A   1      42.208  21.179  27.470  1.00  0.00     0.021 C 
BRANCH  20  21
ATOM     21  C   UNL A   1      41.828  22.228  26.425  1.00  0.00     0.116 C 
BRANCH  21  22
ATOM     22  N   UNL A   1      40.462  22.064  25.954  1.00  0.00    -0.352 N 
ATOM     23  C   UNL A   1      39.374  22.877  26.166  1.00  0.00     0.251 C 
ATOM     24  H   UNL A   1      40.293  21.262  25.407  1.00  0.00     0.163 HD
ATOM     25  O   UNL A   1      38.241  22.502  25.880  1.00  0.00    -0.269 OA
BRANCH  23  26
ATOM     26  C   UNL A   1      39.575  24.209  26.775  1.00  0.00     0.039 A 
ATOM     27  C   UNL A   1      39.208  24.409  28.107  1.00  0.00     0.014 A 
ATOM     28  C   UNL A   1      40.147  25.249  26.035  1.00  0.00     0.014 A 
ATOM     29  C   UNL A   1      39.487  25.632  28.721  1.00  0.00     0.010 A 
ATOM     30  C   UNL A   1      40.487  26.441  26.667  1.00  0.00     0.010 A 
ATOM     31  C   UNL A   1      40.165  26.644  28.017  1.00  0.00    -0.014 A 
BRANCH  31  32
ATOM     32  C   UNL A   1      40.552  27.908  28.691  1.00  0.00     0.031 A 
ATOM     33  C   UNL A   1      41.955  28.108  29.188  1.00  0.00     0.074 A 
ATOM     34  C   UNL A   1      39.626  28.867  28.887  1.00  0.00     0.049 A 
ATOM     35  N   UNL A   1      42.476  29.152  29.783  1.00  0.00    -0.248 NA
ATOM     36  C   UNL A   1      42.892  26.988  29.009  1.00  0.00     0.031 C 
ATOM     37  C   UNL A   1      38.219  28.782  28.490  1.00  0.00     0.029 A 
ATOM     38  N   UNL A   1      39.733  30.110  29.463  1.00  0.00    -0.354 N 
ATOM     39  C   UNL A   1      43.796  28.813  30.049  1.00  0.00     0.074 A 
ATOM     40  C   UNL A   1      43.984  27.451  29.602  1.00  0.00     0.031 C 
ATOM     41  C   UNL A   1      37.607  29.939  28.793  1.00  0.00     0.029 A 
ATOM     42  C   UNL A   1      38.566  30.833  29.432  1.00  0.00     0.049 A 
ATOM     43  H   UNL A   1      40.568  30.449  29.860  1.00  0.00     0.167 HD
ATOM     44  C   UNL A   1      44.773  29.577  30.593  1.00  0.00     0.031 A 
ATOM     45  C   UNL A   1      38.299  32.082  29.859  1.00  0.00     0.031 A 
ATOM     46  C   UNL A   1      44.595  30.934  31.031  1.00  0.00     0.049 A 
ATOM     47  C   UNL A   1      39.394  32.901  30.483  1.00  0.00     0.074 A 
ATOM     48  C   UNL A   1      45.541  31.802  31.547  1.00  0.00     0.029 A 
ATOM     49  N   UNL A   1      43.391  31.619  31.004  1.00  0.00    -0.354 N 
ATOM     50  N   UNL A   1      40.653  32.588  30.667  1.00  0.00    -0.248 NA
ATOM     51  C   UNL A   1      39.032  34.247  30.951  1.00  0.00     0.031 C 
ATOM     52  C   UNL A   1      44.899  33.001  31.874  1.00  0.00     0.029 A 
ATOM     53  C   UNL A   1      43.564  32.892  31.518  1.00  0.00     0.049 A 
ATOM     54  H   UNL A   1      42.540  31.254  30.670  1.00  0.00     0.167 HD
ATOM     55  C   UNL A   1      41.239  33.702  31.252  1.00  0.00     0.074 A 
ATOM     56  C   UNL A   1      40.200  34.704  31.383  1.00  0.00     0.031 C 
ATOM     57  C   UNL A   1      42.522  33.877  31.645  1.00  0.00     0.031 A 
BRANCH  44  58
ATOM     58  C   UNL A   1      46.135  28.960  30.732  1.00  0.00    -0.014 A 
ATOM     59  C   UNL A   1      46.488  28.249  31.890  1.00  0.00     0.009 A 
ATOM     60  C   UNL A   1      47.056  29.046  29.678  1.00  0.00     0.009 A 
ATOM     61  C   UNL A   1      47.748  27.660  32.002  1.00  0.00     0.001 A 
ATOM     62  C   UNL A   1      48.308  28.435  29.782  1.00  0.00     0.001 A 
ATOM     63  C   UNL A   1      48.655  27.749  30.945  1.00  0.00     0.000 A 
ENDBRANCH  44  58
BRANCH  45  64
ATOM     64  C   UNL A   1      36.940  32.651  29.672  1.00  0.00    -0.014 A 
ATOM     65  C   UNL A   1      36.616  33.326  28.486  1.00  0.00     0.009 A 
ATOM     66  C   UNL A   1      35.959  32.510  30.666  1.00  0.00     0.009 A 
ATOM     67  C   UNL A   1      35.338  33.862  28.304  1.00  0.00     0.001 A 
ATOM     68  C   UNL A   1      34.676  33.026  30.471  1.00  0.00     0.001 A 
ATOM     69  C   UNL A   1      34.369  33.707  29.293  1.00  0.00     0.000 A 
ENDBRANCH  45  64
BRANCH  57  70
ATOM     70  C   UNL A   1      42.892  35.203  32.244  1.00  0.00    -0.014 A 
ATOM     71  C   UNL A   1      42.719  35.447  33.615  1.00  0.00     0.009 A 
ATOM     72  C   UNL A   1      43.497  36.185  31.444  1.00  0.00     0.009 A 
ATOM     73  C   UNL A   1      43.136  36.658  34.171  1.00  0.00     0.001 A 
ATOM     74  C   UNL A   1      43.932  37.385  32.008  1.00  0.00     0.001 A 
ATOM     75  C   UNL A   1      43.748  37.622  33.369  1.00  0.00     0.000 A 
ENDBRANCH  57  70
ENDBRANCH  31  32
ENDBRANCH  23  26
ENDBRANCH  21  22
ENDBRANCH  20  21
ENDBRANCH  19  20
ENDBRANCH   1  19
TORSDOF 16
ENDMDL
MODEL 3
REMARK VINA RESULT:      -9.6      4.653     10.301
REMARK SMILES Cc1ncnc(OCCC(=O)NCCCCCCNC(=O)c2ccc(-c3c4nc(c(-c5ccccc5)c5ccc([nH]5)c(-c5ccccc5)c5nc(c(-c6ccccc6)c6ccc3[nH]6)C=C5)C=C4)cc2)c1C
REMARK SMILES IDX 15 1 14 2 13 3 12 4 10 5 11 6 9 8 8 9 7 10 6 11 1 12 2 13
REMARK SMILES IDX 3 14 70 15 4 16 71 17 5 18 16 19 17 20 18 21 19 22 20 23
REMARK SMILES IDX 21 25 22 26 23 27 69 28 24 29 68 30 25 31 26 32 27 33 62 34
REMARK SMILES IDX 28 35 67 36 61 37 63 38 29 39 66 40 60 41 59 42 30 44 52 45
REMARK SMILES IDX 37 46 51 47 38 48 41 49 50 50 64 51 39 52 40 53 49 55 65 56
REMARK SMILES IDX 42 57 31 58 32 59 36 60 33 61 35 62 34 63 53 64 54 65 58 66
REMARK SMILES IDX 55 67 57 68 56 69 43 70 44 71 48 72 45 73 47 74 46 75
REMARK H PARENT 12 7 19 24 63 43 41 54
REMARK Flexibility Score: inf
ROOT
ATOM      1  C   UNL A   1      41.729  19.142  26.245  1.00  0.00     0.002 C 
ENDROOT
BRANCH   1   2
ATOM      2  C   UNL A   1      43.162  18.600  26.212  1.00  0.00     0.021 C 
BRANCH   2   3
ATOM      3  C   UNL A   1      43.836  18.768  24.857  1.00  0.00     0.116 C 
BRANCH   3   4
ATOM      4  N   UNL A   1      45.279  18.660  24.952  1.00  0.00    -0.356 N 
ATOM      5  C   UNL A   1      46.218  19.642  24.840  1.00  0.00     0.223 C 
ATOM      6  O   UNL A   1      47.395  19.343  25.043  1.00  0.00    -0.275 OA
ATOM      7  H   UNL A   1      45.628  17.755  25.121  1.00  0.00     0.163 HD
BRANCH   5   8
ATOM      8  C   UNL A   1      45.793  21.068  24.553  1.00  0.00     0.141 C 
BRANCH   8   9
ATOM      9  C   UNL A   1      45.721  21.946  25.803  1.00  0.00     0.241 C 
BRANCH   9  10
ATOM     10  O   UNL A   1      46.531  23.124  25.795  1.00  0.00    -0.477 OA
BRANCH  10  11
ATOM     11  C   UNL A   1      45.996  24.366  25.951  1.00  0.00     0.219 A 
ATOM     12  C   UNL A   1      46.330  27.854  27.284  1.00  0.00     0.067 C 
ATOM     13  C   UNL A   1      45.800  26.597  26.652  1.00  0.00     0.047 A 
ATOM     14  N   UNL A   1      44.691  26.757  25.903  1.00  0.00    -0.241 NA
ATOM     15  C   UNL A   1      46.435  25.363  26.809  1.00  0.00     0.032 A 
ATOM     16  C   UNL A   1      44.251  25.674  25.261  1.00  0.00     0.226 A 
ATOM     17  C   UNL A   1      47.417  25.139  27.914  1.00  0.00     0.052 C 
ATOM     18  N   UNL A   1      44.883  24.500  25.200  1.00  0.00    -0.202 NA
ENDBRANCH  10  11
ENDBRANCH   9  10
ENDBRANCH   8   9
ENDBRANCH   5   8
ENDBRANCH   3   4
ENDBRANCH   2   3
ENDBRANCH   1   2
BRANCH   1  19
ATOM     19  C   UNL A   1      41.400  20.017  27.457  1.00  0.00     0.002 C 
BRANCH  19  20
ATOM     20  C   UNL A   1      42.180  21.334  27.541  1.00  0.00     0.021 C 
BRANCH  20  21
ATOM     21  C   UNL A   1      41.876  22.336  26.428  1.00  0.00     0.116 C 
BRANCH  21  22
ATOM     22  N   UNL A   1      40.519  22.200  25.922  1.00  0.00    -0.352 N 
ATOM     23  C   UNL A   1      39.435  23.017  26.138  1.00  0.00     0.251 C 
ATOM     24  H   UNL A   1      40.355  21.418  25.347  1.00  0.00     0.163 HD
ATOM     25  O   UNL A   1      38.304  22.662  25.816  1.00  0.00    -0.269 OA
BRANCH  23  26
ATOM     26  C   UNL A   1      39.634  24.326  26.793  1.00  0.00     0.039 A 
ATOM     27  C   UNL A   1      39.198  24.502  28.107  1.00  0.00     0.014 A 
ATOM     28  C   UNL A   1      40.273  25.370  26.115  1.00  0.00     0.014 A 
ATOM     29  C   UNL A   1      39.473  25.700  28.769  1.00  0.00     0.010 A 
ATOM     30  C   UNL A   1      40.607  26.536  26.798  1.00  0.00     0.010 A 
ATOM     31  C   UNL A   1      40.214  26.712  28.133  1.00  0.00    -0.014 A 
BRANCH  31  32
ATOM     32  C   UNL A   1      40.595  27.947  28.862  1.00  0.00     0.031 A 
ATOM     33  C   UNL A   1      39.623  29.084  28.994  1.00  0.00     0.074 A 
ATOM     34  C   UNL A   1      41.835  28.058  29.378  1.00  0.00     0.049 A 
ATOM     35  N   UNL A   1      39.776  30.230  29.610  1.00  0.00    -0.248 NA
ATOM     36  C   UNL A   1      38.315  28.924  28.340  1.00  0.00     0.031 C 
ATOM     37  C   UNL A   1      42.888  27.045  29.283  1.00  0.00     0.029 A 
ATOM     38  N   UNL A   1      42.418  29.075  30.094  1.00  0.00    -0.354 N 
ATOM     39  C   UNL A   1      38.589  30.923  29.415  1.00  0.00     0.074 A 
ATOM     40  C   UNL A   1      37.746  30.096  28.580  1.00  0.00     0.031 C 
ATOM     41  C   UNL A   1      43.969  27.471  29.956  1.00  0.00     0.029 A 
ATOM     42  C   UNL A   1      43.700  28.798  30.501  1.00  0.00     0.049 A 
ATOM     43  H   UNL A   1      41.959  29.923  30.298  1.00  0.00     0.167 HD
ATOM     44  C   UNL A   1      38.223  32.129  29.909  1.00  0.00     0.031 A 
ATOM     45  C   UNL A   1      44.560  29.524  31.239  1.00  0.00     0.031 A 
ATOM     46  C   UNL A   1      39.053  32.951  30.746  1.00  0.00     0.049 A 
ATOM     47  C   UNL A   1      44.139  30.871  31.755  1.00  0.00     0.074 A 
ATOM     48  C   UNL A   1      38.745  34.166  31.335  1.00  0.00     0.029 A 
ATOM     49  N   UNL A   1      40.352  32.644  31.112  1.00  0.00    -0.354 N 
ATOM     50  N   UNL A   1      42.988  31.483  31.615  1.00  0.00    -0.248 NA
ATOM     51  C   UNL A   1      45.132  31.624  32.534  1.00  0.00     0.031 C 
ATOM     52  C   UNL A   1      39.877  34.614  32.023  1.00  0.00     0.029 A 
ATOM     53  C   UNL A   1      40.871  33.657  31.899  1.00  0.00     0.049 A 
ATOM     54  H   UNL A   1      40.836  31.827  30.851  1.00  0.00     0.167 HD
ATOM     55  C   UNL A   1      43.111  32.682  32.305  1.00  0.00     0.074 A 
ATOM     56  C   UNL A   1      44.444  32.707  32.872  1.00  0.00     0.031 C 
ATOM     57  C   UNL A   1      42.198  33.670  32.454  1.00  0.00     0.031 A 
BRANCH  44  58
ATOM     58  C   UNL A   1      36.849  32.628  29.564  1.00  0.00    -0.014 A 
ATOM     59  C   UNL A   1      36.611  33.304  28.356  1.00  0.00     0.009 A 
ATOM     60  C   UNL A   1      35.773  32.377  30.428  1.00  0.00     0.009 A 
ATOM     61  C   UNL A   1      35.327  33.745  28.034  1.00  0.00     0.001 A 
ATOM     62  C   UNL A   1      34.484  32.798  30.091  1.00  0.00     0.001 A 
ATOM     63  C   UNL A   1      34.263  33.486  28.899  1.00  0.00     0.000 A 
ENDBRANCH  44  58
BRANCH  45  64
ATOM     64  C   UNL A   1      45.897  28.970  31.572  1.00  0.00    -0.014 A 
ATOM     65  C   UNL A   1      46.080  28.229  32.750  1.00  0.00     0.009 A 
ATOM     66  C   UNL A   1      46.990  29.162  30.712  1.00  0.00     0.009 A 
ATOM     67  C   UNL A   1      47.335  27.704  33.067  1.00  0.00     0.001 A 
ATOM     68  C   UNL A   1      48.237  28.616  31.021  1.00  0.00     0.001 A 
ATOM     69  C   UNL A   1      48.410  27.892  32.201  1.00  0.00     0.000 A 
ENDBRANCH  45  64
BRANCH  57  70
ATOM     70  C   UNL A   1      42.595  34.866  33.271  1.00  0.00    -0.014 A 
ATOM     71  C   UNL A   1      43.162  35.997  32.665  1.00  0.00     0.009 A 
ATOM     72  C   UNL A   1      42.321  34.891  34.647  1.00  0.00     0.009 A 
ATOM     73  C   UNL A   1      43.458  37.129  33.428  1.00  0.00     0.001 A 
ATOM     74  C   UNL A   1      42.598  36.031  35.402  1.00  0.00     0.001 A 
ATOM     75  C   UNL A   1      43.169  37.148  34.792  1.00  0.00     0.000 A 
ENDBRANCH  57  70
ENDBRANCH  31  32
ENDBRANCH  23  26
ENDBRANCH  21  22
ENDBRANCH  20  21
ENDBRANCH  19  20
ENDBRANCH   1  19
TORSDOF 16
ENDMDL
