MODEL 1
REMARK VINA RESULT:     -10.2      0.000      0.000
REMARK SMILES O=C(CNC(=O)c1ccco1)Nc1cccc(C(=O)NCCCCCCNC(=O)c2ccc(-c3c4nc(c(-c5ccccc5)c5ccc([nH]5)c(-c5ccccc5)c5nc(c(-c6ccccc6)c6ccc3[nH]6)C=C5)C=C4)cc2)c1
REMARK SMILES IDX 22 1 21 2 20 3 18 4 19 5 17 7 13 8 14 9 78 10 15 11 16 12
REMARK SMILES IDX 12 13 1 14 2 15 3 17 4 18 5 19 6 21 7 22 8 23 11 24 9 25
REMARK SMILES IDX 10 26 23 27 24 28 25 29 26 30 27 31 28 32 29 34 30 35 31 36
REMARK SMILES IDX 77 37 32 38 76 39 33 40 34 41 35 42 70 43 36 44 75 45 69 46
REMARK SMILES IDX 71 47 37 48 74 49 68 50 67 51 38 53 60 54 45 55 59 56 46 57
REMARK SMILES IDX 49 58 58 59 72 60 47 61 48 62 57 64 73 65 50 66 39 67 40 68
REMARK SMILES IDX 44 69 41 70 43 71 42 72 61 73 62 74 66 75 63 76 65 77 64 78
REMARK SMILES IDX 51 79 52 80 56 81 53 82 55 83 54 84
REMARK H PARENT 20 6 12 16 4 20 27 33 71 52 49 63
REMARK Flexibility Score: inf
ROOT
ATOM      1  C   UNL A   1      35.377  35.321  32.993  1.00  0.00     0.021 C 
ENDROOT
BRANCH   1   2
ATOM      2  C   UNL A   1      35.633  34.221  34.018  1.00  0.00     0.116 C 
BRANCH   2   3
ATOM      3  N   UNL A   1      35.780  32.894  33.439  1.00  0.00    -0.352 N 
ATOM      4  C   UNL A   1      36.703  31.904  33.707  1.00  0.00     0.251 C 
ATOM      5  O   UNL A   1      36.677  30.863  33.054  1.00  0.00    -0.269 OA
ATOM      6  H   UNL A   1      35.118  32.667  32.747  1.00  0.00     0.163 HD
BRANCH   4   7
ATOM      7  C   UNL A   1      37.764  32.095  34.731  1.00  0.00     0.041 A 
ATOM      8  C   UNL A   1      39.769  31.310  35.853  1.00  0.00     0.042 A 
ATOM      9  C   UNL A   1      39.582  32.287  36.836  1.00  0.00     0.026 A 
ATOM     10  C   UNL A   1      38.906  31.290  34.757  1.00  0.00     0.040 A 
ATOM     11  C   UNL A   1      38.517  33.191  36.746  1.00  0.00     0.003 A 
ATOM     12  C   UNL A   1      37.594  33.079  35.706  1.00  0.00     0.014 A 
BRANCH   8  13
ATOM     13  N   UNL A   1      40.752  30.317  36.072  1.00  0.00    -0.325 N 
ATOM     14  O   UNL A   1      40.794  29.233  34.004  1.00  0.00    -0.273 OA
ATOM     15  C   UNL A   1      41.136  29.326  35.181  1.00  0.00     0.243 C 
ATOM     16  H   UNL A   1      41.208  30.331  36.944  1.00  0.00     0.169 HD
BRANCH  15  17
ATOM     17  C   UNL A   1      41.865  28.149  35.835  1.00  0.00     0.216 C 
BRANCH  17  18
ATOM     18  N   UNL A   1      41.072  27.391  36.785  1.00  0.00    -0.340 N 
ATOM     19  C   UNL A   1      41.107  26.041  37.058  1.00  0.00     0.287 C 
ATOM     20  H   UNL A   1      40.422  27.913  37.308  1.00  0.00     0.164 HD
ATOM     21  O   UNL A   1      40.221  25.610  37.793  1.00  0.00    -0.266 OA
BRANCH  19  22
ATOM     22  C   UNL A   1      42.137  25.211  36.465  1.00  0.00     0.191 A 
ATOM     23  C   UNL A   1      43.503  25.093  36.662  1.00  0.00     0.056 A 
ATOM     24  O   UNL A   1      41.749  24.301  35.516  1.00  0.00    -0.459 OA
ATOM     25  C   UNL A   1      43.969  24.104  35.763  1.00  0.00     0.043 A 
ATOM     26  C   UNL A   1      42.860  23.648  35.093  1.00  0.00     0.196 A 
ENDBRANCH  19  22
ENDBRANCH  17  18
ENDBRANCH  15  17
ENDBRANCH   8  13
ENDBRANCH   4   7
ENDBRANCH   2   3
ENDBRANCH   1   2
BRANCH   1  27
ATOM     27  C   UNL A   1      34.191  36.246  33.268  1.00  0.00     0.002 C 
BRANCH  27  28
ATOM     28  C   UNL A   1      33.827  37.239  32.161  1.00  0.00     0.002 C 
BRANCH  28  29
ATOM     29  C   UNL A   1      32.869  36.737  31.077  1.00  0.00     0.021 C 
BRANCH  29  30
ATOM     30  C   UNL A   1      33.449  36.602  29.670  1.00  0.00     0.116 C 
BRANCH  30  31
ATOM     31  N   UNL A   1      32.698  35.690  28.828  1.00  0.00    -0.352 N 
ATOM     32  C   UNL A   1      33.024  34.446  28.349  1.00  0.00     0.251 C 
ATOM     33  H   UNL A   1      31.811  36.017  28.555  1.00  0.00     0.163 HD
ATOM     34  O   UNL A   1      32.277  33.894  27.545  1.00  0.00    -0.269 OA
BRANCH  32  35
ATOM     35  C   UNL A   1      34.275  33.764  28.762  1.00  0.00     0.039 A 
ATOM     36  C   UNL A   1      35.422  33.969  27.989  1.00  0.00     0.014 A 
ATOM     37  C   UNL A   1      34.325  32.900  29.859  1.00  0.00     0.014 A 
ATOM     38  C   UNL A   1      36.626  33.357  28.348  1.00  0.00     0.010 A 
ATOM     39  C   UNL A   1      35.543  32.341  30.256  1.00  0.00     0.010 A 
ATOM     40  C   UNL A   1      36.706  32.563  29.504  1.00  0.00    -0.014 A 
BRANCH  40  41
ATOM     41  C   UNL A   1      38.010  31.996  29.937  1.00  0.00     0.031 A 
ATOM     42  C   UNL A   1      38.893  32.728  30.909  1.00  0.00     0.074 A 
ATOM     43  C   UNL A   1      38.417  30.818  29.423  1.00  0.00     0.049 A 
ATOM     44  N   UNL A   1      40.040  32.356  31.423  1.00  0.00    -0.248 NA
ATOM     45  C   UNL A   1      38.445  34.060  31.343  1.00  0.00     0.031 C 
ATOM     46  C   UNL A   1      37.686  30.032  28.427  1.00  0.00     0.029 A 
ATOM     47  N   UNL A   1      39.542  30.074  29.673  1.00  0.00    -0.354 N 
ATOM     48  C   UNL A   1      40.454  33.408  32.230  1.00  0.00     0.074 A 
ATOM     49  C   UNL A   1      39.460  34.453  32.100  1.00  0.00     0.031 C 
ATOM     50  C   UNL A   1      38.362  28.900  28.179  1.00  0.00     0.029 A 
ATOM     51  C   UNL A   1      39.585  28.891  28.974  1.00  0.00     0.049 A 
ATOM     52  H   UNL A   1      40.251  30.358  30.295  1.00  0.00     0.167 HD
ATOM     53  C   UNL A   1      41.552  33.492  33.021  1.00  0.00     0.031 A 
ATOM     54  C   UNL A   1      40.500  27.904  28.978  1.00  0.00     0.031 A 
ATOM     55  C   UNL A   1      42.539  32.452  33.158  1.00  0.00     0.049 A 
ATOM     56  C   UNL A   1      41.695  28.009  29.882  1.00  0.00     0.074 A 
ATOM     57  C   UNL A   1      43.647  32.418  33.987  1.00  0.00     0.029 A 
ATOM     58  N   UNL A   1      42.540  31.265  32.442  1.00  0.00    -0.354 N 
ATOM     59  N   UNL A   1      42.024  28.974  30.705  1.00  0.00    -0.248 NA
ATOM     60  C   UNL A   1      42.632  26.877  29.869  1.00  0.00     0.031 C 
ATOM     61  C   UNL A   1      44.347  31.233  33.734  1.00  0.00     0.029 A 
ATOM     62  C   UNL A   1      43.645  30.503  32.789  1.00  0.00     0.049 A 
ATOM     63  H   UNL A   1      41.857  31.001  31.784  1.00  0.00     0.167 HD
ATOM     64  C   UNL A   1      43.197  28.558  31.323  1.00  0.00     0.074 A 
ATOM     65  C   UNL A   1      43.504  27.244  30.796  1.00  0.00     0.031 C 
ATOM     66  C   UNL A   1      43.952  29.208  32.241  1.00  0.00     0.031 A 
BRANCH  53  67
ATOM     67  C   UNL A   1      41.748  34.767  33.797  1.00  0.00    -0.014 A 
ATOM     68  C   UNL A   1      41.094  34.984  35.021  1.00  0.00     0.009 A 
ATOM     69  C   UNL A   1      42.626  35.749  33.314  1.00  0.00     0.009 A 
ATOM     70  C   UNL A   1      41.285  36.176  35.723  1.00  0.00     0.001 A 
ATOM     71  C   UNL A   1      42.838  36.927  34.034  1.00  0.00     0.001 A 
ATOM     72  C   UNL A   1      42.159  37.145  35.232  1.00  0.00     0.000 A 
ENDBRANCH  53  67
BRANCH  54  73
ATOM     73  C   UNL A   1      40.305  26.712  28.112  1.00  0.00    -0.014 A 
ATOM     74  C   UNL A   1      40.896  26.651  26.841  1.00  0.00     0.009 A 
ATOM     75  C   UNL A   1      39.531  25.629  28.555  1.00  0.00     0.009 A 
ATOM     76  C   UNL A   1      40.696  25.537  26.021  1.00  0.00     0.001 A 
ATOM     77  C   UNL A   1      39.356  24.506  27.746  1.00  0.00     0.001 A 
ATOM     78  C   UNL A   1      39.930  24.464  26.476  1.00  0.00     0.000 A 
ENDBRANCH  54  73
BRANCH  66  79
ATOM     79  C   UNL A   1      45.179  28.494  32.739  1.00  0.00    -0.014 A 
ATOM     80  C   UNL A   1      45.119  27.626  33.842  1.00  0.00     0.009 A 
ATOM     81  C   UNL A   1      46.410  28.689  32.095  1.00  0.00     0.009 A 
ATOM     82  C   UNL A   1      46.276  27.007  34.318  1.00  0.00     0.001 A 
ATOM     83  C   UNL A   1      47.560  28.045  32.554  1.00  0.00     0.001 A 
ATOM     84  C   UNL A   1      47.495  27.216  33.673  1.00  0.00     0.000 A 
ENDBRANCH  66  79
ENDBRANCH  40  41
ENDBRANCH  32  35
ENDBRANCH  30  31
ENDBRANCH  29  30
ENDBRANCH  28  29
ENDBRANCH  27  28
ENDBRANCH   1  27
TORSDOF 17
ENDMDL
MODEL 2
REMARK VINA RESULT:      -9.1      5.442     12.570
REMARK SMILES O=C(CNC(=O)c1ccco1)Nc1cccc(C(=O)NCCCCCCNC(=O)c2ccc(-c3c4nc(c(-c5ccccc5)c5ccc([nH]5)c(-c5ccccc5)c5nc(c(-c6ccccc6)c6ccc3[nH]6)C=C5)C=C4)cc2)c1
REMARK SMILES IDX 22 1 21 2 20 3 18 4 19 5 17 7 13 8 14 9 78 10 15 11 16 12
REMARK SMILES IDX 12 13 1 14 2 15 3 17 4 18 5 19 6 21 7 22 8 23 11 24 9 25
REMARK SMILES IDX 10 26 23 27 24 28 25 29 26 30 27 31 28 32 29 34 30 35 31 36
REMARK SMILES IDX 77 37 32 38 76 39 33 40 34 41 35 42 70 43 36 44 75 45 69 46
REMARK SMILES IDX 71 47 37 48 74 49 68 50 67 51 38 53 60 54 45 55 59 56 46 57
REMARK SMILES IDX 49 58 58 59 72 60 47 61 48 62 57 64 73 65 50 66 39 67 40 68
REMARK SMILES IDX 44 69 41 70 43 71 42 72 61 73 62 74 66 75 63 76 65 77 64 78
REMARK SMILES IDX 51 79 52 80 56 81 53 82 55 83 54 84
REMARK H PARENT 20 6 12 16 4 20 27 33 71 52 49 63
REMARK Flexibility Score: inf
ROOT
ATOM      1  C   UNL A   1      38.091  24.082  26.435  1.00  0.00     0.021 C 
ENDROOT
BRANCH   1   2
ATOM      2  C   UNL A   1      36.915  23.532  25.635  1.00  0.00     0.116 C 
BRANCH   2   3
ATOM      3  N   UNL A   1      35.728  23.265  26.433  1.00  0.00    -0.352 N 
ATOM      4  C   UNL A   1      34.392  23.381  26.107  1.00  0.00     0.251 C 
ATOM      5  O   UNL A   1      33.540  23.151  26.963  1.00  0.00    -0.269 OA
ATOM      6  H   UNL A   1      35.905  22.953  27.349  1.00  0.00     0.163 HD
BRANCH   4   7
ATOM      7  C   UNL A   1      33.963  23.837  24.757  1.00  0.00     0.041 A 
ATOM      8  C   UNL A   1      32.814  25.443  23.347  1.00  0.00     0.042 A 
ATOM      9  C   UNL A   1      32.900  24.544  22.279  1.00  0.00     0.026 A 
ATOM     10  C   UNL A   1      33.436  25.114  24.551  1.00  0.00     0.040 A 
ATOM     11  C   UNL A   1      33.550  23.315  22.437  1.00  0.00     0.003 A 
ATOM     12  C   UNL A   1      34.061  22.950  23.683  1.00  0.00     0.014 A 
BRANCH   8  13
ATOM     13  N   UNL A   1      32.006  26.593  23.192  1.00  0.00    -0.325 N 
ATOM     14  O   UNL A   1      30.231  26.120  24.635  1.00  0.00    -0.273 OA
ATOM     15  C   UNL A   1      30.767  26.816  23.774  1.00  0.00     0.243 C 
ATOM     16  H   UNL A   1      32.357  27.306  22.612  1.00  0.00     0.169 HD
BRANCH  15  17
ATOM     17  C   UNL A   1      29.942  27.907  23.086  1.00  0.00     0.216 C 
BRANCH  17  18
ATOM     18  N   UNL A   1      28.507  27.793  23.267  1.00  0.00    -0.340 N 
ATOM     19  C   UNL A   1      27.535  28.755  23.100  1.00  0.00     0.287 C 
ATOM     20  H   UNL A   1      28.182  26.906  23.545  1.00  0.00     0.164 HD
ATOM     21  O   UNL A   1      26.402  28.456  23.471  1.00  0.00    -0.266 OA
BRANCH  19  22
ATOM     22  C   UNL A   1      27.884  30.044  22.537  1.00  0.00     0.191 A 
ATOM     23  C   UNL A   1      28.167  31.284  23.087  1.00  0.00     0.056 A 
ATOM     24  O   UNL A   1      28.009  30.128  21.175  1.00  0.00    -0.459 OA
ATOM     25  C   UNL A   1      28.428  32.166  22.011  1.00  0.00     0.043 A 
ATOM     26  C   UNL A   1      28.326  31.410  20.868  1.00  0.00     0.196 A 
ENDBRANCH  19  22
ENDBRANCH  17  18
ENDBRANCH  15  17
ENDBRANCH   8  13
ENDBRANCH   4   7
ENDBRANCH   2   3
ENDBRANCH   1   2
BRANCH   1  27
ATOM     27  C   UNL A   1      39.445  23.412  26.203  1.00  0.00     0.002 C 
BRANCH  27  28
ATOM     28  C   UNL A   1      39.665  22.060  26.887  1.00  0.00     0.002 C 
BRANCH  28  29
ATOM     29  C   UNL A   1      40.035  20.884  25.979  1.00  0.00     0.021 C 
BRANCH  29  30
ATOM     30  C   UNL A   1      41.008  19.859  26.560  1.00  0.00     0.116 C 
BRANCH  30  31
ATOM     31  N   UNL A   1      42.212  19.700  25.766  1.00  0.00    -0.352 N 
ATOM     32  C   UNL A   1      43.191  20.605  25.442  1.00  0.00     0.251 C 
ATOM     33  H   UNL A   1      42.348  18.797  25.401  1.00  0.00     0.163 HD
ATOM     34  O   UNL A   1      44.073  20.282  24.649  1.00  0.00    -0.269 OA
BRANCH  32  35
ATOM     35  C   UNL A   1      43.193  21.976  26.007  1.00  0.00     0.039 A 
ATOM     36  C   UNL A   1      43.275  22.116  27.395  1.00  0.00     0.014 A 
ATOM     37  C   UNL A   1      43.071  23.113  25.203  1.00  0.00     0.014 A 
ATOM     38  C   UNL A   1      43.293  23.389  27.971  1.00  0.00     0.010 A 
ATOM     39  C   UNL A   1      43.156  24.386  25.773  1.00  0.00     0.010 A 
ATOM     40  C   UNL A   1      43.267  24.538  27.163  1.00  0.00    -0.014 A 
BRANCH  40  41
ATOM     41  C   UNL A   1      43.387  25.888  27.772  1.00  0.00     0.031 A 
ATOM     42  C   UNL A   1      44.732  26.488  28.077  1.00  0.00     0.074 A 
ATOM     43  C   UNL A   1      42.268  26.571  28.083  1.00  0.00     0.049 A 
ATOM     44  N   UNL A   1      45.016  27.669  28.568  1.00  0.00    -0.248 NA
ATOM     45  C   UNL A   1      45.911  25.645  27.821  1.00  0.00     0.031 C 
ATOM     46  C   UNL A   1      40.900  26.082  27.895  1.00  0.00     0.029 A 
ATOM     47  N   UNL A   1      42.102  27.825  28.615  1.00  0.00    -0.354 N 
ATOM     48  C   UNL A   1      46.400  27.708  28.689  1.00  0.00     0.074 A 
ATOM     49  C   UNL A   1      46.894  26.415  28.265  1.00  0.00     0.031 C 
ATOM     50  C   UNL A   1      40.037  27.038  28.271  1.00  0.00     0.029 A 
ATOM     51  C   UNL A   1      40.786  28.195  28.751  1.00  0.00     0.049 A 
ATOM     52  H   UNL A   1      42.855  28.405  28.874  1.00  0.00     0.167 HD
ATOM     53  C   UNL A   1      47.189  28.731  29.098  1.00  0.00     0.031 A 
ATOM     54  C   UNL A   1      40.239  29.339  29.202  1.00  0.00     0.031 A 
ATOM     55  C   UNL A   1      46.701  30.021  29.514  1.00  0.00     0.049 A 
ATOM     56  C   UNL A   1      41.135  30.467  29.626  1.00  0.00     0.074 A 
ATOM     57  C   UNL A   1      47.427  31.143  29.879  1.00  0.00     0.029 A 
ATOM     58  N   UNL A   1      45.362  30.360  29.627  1.00  0.00    -0.354 N 
ATOM     59  N   UNL A   1      42.445  30.517  29.649  1.00  0.00    -0.248 NA
ATOM     60  C   UNL A   1      40.475  31.704  30.067  1.00  0.00     0.031 C 
ATOM     61  C   UNL A   1      46.526  32.142  30.262  1.00  0.00     0.029 A 
ATOM     62  C   UNL A   1      45.239  31.663  30.082  1.00  0.00     0.049 A 
ATOM     63  H   UNL A   1      44.608  29.763  29.414  1.00  0.00     0.167 HD
ATOM     64  C   UNL A   1      42.766  31.795  30.089  1.00  0.00     0.074 A 
ATOM     65  C   UNL A   1      41.514  32.493  30.295  1.00  0.00     0.031 C 
ATOM     66  C   UNL A   1      43.988  32.339  30.305  1.00  0.00     0.031 A 
BRANCH  53  67
ATOM     67  C   UNL A   1      48.675  28.490  29.126  1.00  0.00    -0.014 A 
ATOM     68  C   UNL A   1      49.312  27.994  30.274  1.00  0.00     0.009 A 
ATOM     69  C   UNL A   1      49.442  28.731  27.976  1.00  0.00     0.009 A 
ATOM     70  C   UNL A   1      50.693  27.782  30.282  1.00  0.00     0.001 A 
ATOM     71  C   UNL A   1      50.818  28.490  27.977  1.00  0.00     0.001 A 
ATOM     72  C   UNL A   1      51.444  28.027  29.133  1.00  0.00     0.000 A 
ENDBRANCH  53  67
BRANCH  54  73
ATOM     73  C   UNL A   1      38.761  29.484  29.248  1.00  0.00    -0.014 A 
ATOM     74  C   UNL A   1      38.045  29.846  28.097  1.00  0.00     0.009 A 
ATOM     75  C   UNL A   1      38.060  29.255  30.442  1.00  0.00     0.009 A 
ATOM     76  C   UNL A   1      36.657  30.001  28.148  1.00  0.00     0.001 A 
ATOM     77  C   UNL A   1      36.672  29.382  30.483  1.00  0.00     0.001 A 
ATOM     78  C   UNL A   1      35.972  29.764  29.339  1.00  0.00     0.000 A 
ENDBRANCH  54  73
BRANCH  66  79
ATOM     79  C   UNL A   1      44.021  33.766  30.780  1.00  0.00    -0.014 A 
ATOM     80  C   UNL A   1      44.123  34.078  32.145  1.00  0.00     0.009 A 
ATOM     81  C   UNL A   1      43.950  34.814  29.848  1.00  0.00     0.009 A 
ATOM     82  C   UNL A   1      44.106  35.407  32.571  1.00  0.00     0.001 A 
ATOM     83  C   UNL A   1      43.965  36.143  30.274  1.00  0.00     0.001 A 
ATOM     84  C   UNL A   1      44.029  36.438  31.635  1.00  0.00     0.000 A 
ENDBRANCH  66  79
ENDBRANCH  40  41
ENDBRANCH  32  35
ENDBRANCH  30  31
ENDBRANCH  29  30
ENDBRANCH  28  29
ENDBRANCH  27  28
ENDBRANCH   1  27
TORSDOF 17
ENDMDL
MODEL 3
REMARK VINA RESULT:      -9.1      4.133     10.877
REMARK SMILES O=C(CNC(=O)c1ccco1)Nc1cccc(C(=O)NCCCCCCNC(=O)c2ccc(-c3c4nc(c(-c5ccccc5)c5ccc([nH]5)c(-c5ccccc5)c5nc(c(-c6ccccc6)c6ccc3[nH]6)C=C5)C=C4)cc2)c1
REMARK SMILES IDX 22 1 21 2 20 3 18 4 19 5 17 7 13 8 14 9 78 10 15 11 16 12
REMARK SMILES IDX 12 13 1 14 2 15 3 17 4 18 5 19 6 21 7 22 8 23 11 24 9 25
REMARK SMILES IDX 10 26 23 27 24 28 25 29 26 30 27 31 28 32 29 34 30 35 31 36
REMARK SMILES IDX 77 37 32 38 76 39 33 40 34 41 35 42 70 43 36 44 75 45 69 46
REMARK SMILES IDX 71 47 37 48 74 49 68 50 67 51 38 53 60 54 45 55 59 56 46 57
REMARK SMILES IDX 49 58 58 59 72 60 47 61 48 62 57 64 73 65 50 66 39 67 40 68
REMARK SMILES IDX 44 69 41 70 43 71 42 72 61 73 62 74 66 75 63 76 65 77 64 78
REMARK SMILES IDX 51 79 52 80 56 81 53 82 55 83 54 84
REMARK H PARENT 20 6 12 16 4 20 27 33 71 52 49 63
REMARK Flexibility Score: inf
ROOT
ATOM      1  C   UNL A   1      44.694  24.471  30.662  1.00  0.00     0.021 C 
ENDROOT
BRANCH   1   2
ATOM      2  C   UNL A   1      45.594  24.833  29.485  1.00  0.00     0.116 C 
BRANCH   2   3
ATOM      3  N   UNL A   1      45.220  26.067  28.810  1.00  0.00    -0.352 N 
ATOM      4  C   UNL A   1      44.919  26.299  27.484  1.00  0.00     0.251 C 
ATOM      5  O   UNL A   1      44.676  27.446  27.113  1.00  0.00    -0.269 OA
ATOM      6  H   UNL A   1      45.174  26.860  29.391  1.00  0.00     0.163 HD
BRANCH   4   7
ATOM      7  C   UNL A   1      44.940  25.199  26.483  1.00  0.00     0.041 A 
ATOM      8  C   UNL A   1      43.891  23.261  25.466  1.00  0.00     0.042 A 
ATOM      9  C   UNL A   1      45.097  22.964  24.824  1.00  0.00     0.026 A 
ATOM     10  C   UNL A   1      43.802  24.436  26.214  1.00  0.00     0.040 A 
ATOM     11  C   UNL A   1      46.208  23.802  24.976  1.00  0.00     0.003 A 
ATOM     12  C   UNL A   1      46.137  24.907  25.825  1.00  0.00     0.014 A 
BRANCH   8  13
ATOM     13  N   UNL A   1      42.852  22.302  25.420  1.00  0.00    -0.325 N 
ATOM     14  O   UNL A   1      42.729  21.634  27.655  1.00  0.00    -0.273 OA
ATOM     15  C   UNL A   1      42.403  21.521  26.474  1.00  0.00     0.243 C 
ATOM     16  H   UNL A   1      42.405  22.176  24.553  1.00  0.00     0.169 HD
BRANCH  15  17
ATOM     17  C   UNL A   1      41.612  20.285  26.040  1.00  0.00     0.216 C 
BRANCH  17  18
ATOM     18  N   UNL A   1      42.021  19.044  26.672  1.00  0.00    -0.340 N 
ATOM     19  C   UNL A   1      43.124  18.261  26.406  1.00  0.00     0.287 C 
ATOM     20  H   UNL A   1      41.431  18.718  27.389  1.00  0.00     0.164 HD
ATOM     21  O   UNL A   1      43.165  17.170  26.969  1.00  0.00    -0.266 OA
BRANCH  19  22
ATOM     22  C   UNL A   1      44.139  18.733  25.486  1.00  0.00     0.191 A 
ATOM     23  C   UNL A   1      45.524  18.756  25.519  1.00  0.00     0.056 A 
ATOM     24  O   UNL A   1      43.717  19.257  24.292  1.00  0.00    -0.459 OA
ATOM     25  C   UNL A   1      45.958  19.361  24.314  1.00  0.00     0.043 A 
ATOM     26  C   UNL A   1      44.819  19.641  23.599  1.00  0.00     0.196 A 
ENDBRANCH  19  22
ENDBRANCH  17  18
ENDBRANCH  15  17
ENDBRANCH   8  13
ENDBRANCH   4   7
ENDBRANCH   2   3
ENDBRANCH   1   2
BRANCH   1  27
ATOM     27  C   UNL A   1      45.143  24.962  32.038  1.00  0.00     0.002 C 
BRANCH  27  28
ATOM     28  C   UNL A   1      44.893  24.016  33.216  1.00  0.00     0.002 C 
BRANCH  28  29
ATOM     29  C   UNL A   1      46.092  23.715  34.120  1.00  0.00     0.021 C 
BRANCH  29  30
ATOM     30  C   UNL A   1      47.283  24.664  34.004  1.00  0.00     0.116 C 
BRANCH  30  31
ATOM     31  N   UNL A   1      47.620  25.314  35.257  1.00  0.00    -0.352 N 
ATOM     32  C   UNL A   1      47.059  26.403  35.875  1.00  0.00     0.251 C 
ATOM     33  H   UNL A   1      48.375  24.909  35.742  1.00  0.00     0.163 HD
ATOM     34  O   UNL A   1      47.585  26.861  36.887  1.00  0.00    -0.269 OA
BRANCH  32  35
ATOM     35  C   UNL A   1      45.844  27.057  35.332  1.00  0.00     0.039 A 
ATOM     36  C   UNL A   1      46.011  28.136  34.459  1.00  0.00     0.014 A 
ATOM     37  C   UNL A   1      44.556  26.659  35.700  1.00  0.00     0.014 A 
ATOM     38  C   UNL A   1      44.894  28.774  33.913  1.00  0.00     0.010 A 
ATOM     39  C   UNL A   1      43.441  27.253  35.103  1.00  0.00     0.010 A 
ATOM     40  C   UNL A   1      43.598  28.318  34.204  1.00  0.00    -0.014 A 
BRANCH  40  41
ATOM     41  C   UNL A   1      42.419  28.935  33.543  1.00  0.00     0.031 A 
ATOM     42  C   UNL A   1      41.579  29.963  34.251  1.00  0.00     0.074 A 
ATOM     43  C   UNL A   1      42.083  28.542  32.299  1.00  0.00     0.049 A 
ATOM     44  N   UNL A   1      40.543  30.630  33.804  1.00  0.00    -0.248 NA
ATOM     45  C   UNL A   1      41.930  30.263  35.647  1.00  0.00     0.031 C 
ATOM     46  C   UNL A   1      42.775  27.512  31.521  1.00  0.00     0.029 A 
ATOM     47  N   UNL A   1      41.078  28.967  31.467  1.00  0.00    -0.354 N 
ATOM     48  C   UNL A   1      40.114  31.420  34.864  1.00  0.00     0.074 A 
ATOM     49  C   UNL A   1      40.972  31.112  35.990  1.00  0.00     0.031 C 
ATOM     50  C   UNL A   1      42.198  27.412  30.314  1.00  0.00     0.029 A 
ATOM     51  C   UNL A   1      41.081  28.347  30.240  1.00  0.00     0.049 A 
ATOM     52  H   UNL A   1      40.418  29.651  31.723  1.00  0.00     0.167 HD
ATOM     53  C   UNL A   1      39.110  32.330  34.895  1.00  0.00     0.031 A 
ATOM     54  C   UNL A   1      40.281  28.516  29.171  1.00  0.00     0.031 A 
ATOM     55  C   UNL A   1      38.260  32.643  33.775  1.00  0.00     0.049 A 
ATOM     56  C   UNL A   1      39.192  29.549  29.220  1.00  0.00     0.074 A 
ATOM     57  C   UNL A   1      37.263  33.600  33.689  1.00  0.00     0.029 A 
ATOM     58  N   UNL A   1      38.303  32.002  32.547  1.00  0.00    -0.354 N 
ATOM     59  N   UNL A   1      38.858  30.350  30.202  1.00  0.00    -0.248 NA
ATOM     60  C   UNL A   1      38.384  29.713  28.004  1.00  0.00     0.031 C 
ATOM     61  C   UNL A   1      36.667  33.500  32.427  1.00  0.00     0.029 A 
ATOM     62  C   UNL A   1      37.331  32.521  31.706  1.00  0.00     0.049 A 
ATOM     63  H   UNL A   1      38.932  31.283  32.306  1.00  0.00     0.167 HD
ATOM     64  C   UNL A   1      37.813  31.126  29.718  1.00  0.00     0.074 A 
ATOM     65  C   UNL A   1      37.588  30.715  28.347  1.00  0.00     0.031 C 
ATOM     66  C   UNL A   1      37.102  32.089  30.352  1.00  0.00     0.031 A 
BRANCH  53  67
ATOM     67  C   UNL A   1      38.870  33.051  36.194  1.00  0.00    -0.014 A 
ATOM     68  C   UNL A   1      38.008  32.526  37.171  1.00  0.00     0.009 A 
ATOM     69  C   UNL A   1      39.540  34.255  36.458  1.00  0.00     0.009 A 
ATOM     70  C   UNL A   1      37.793  33.213  38.368  1.00  0.00     0.001 A 
ATOM     71  C   UNL A   1      39.346  34.924  37.669  1.00  0.00     0.001 A 
ATOM     72  C   UNL A   1      38.465  34.409  38.617  1.00  0.00     0.000 A 
ENDBRANCH  53  67
BRANCH  54  73
ATOM     73  C   UNL A   1      40.502  27.703  27.947  1.00  0.00    -0.014 A 
ATOM     74  C   UNL A   1      39.944  26.420  27.834  1.00  0.00     0.009 A 
ATOM     75  C   UNL A   1      41.266  28.207  26.884  1.00  0.00     0.009 A 
ATOM     76  C   UNL A   1      40.169  25.650  26.690  1.00  0.00     0.001 A 
ATOM     77  C   UNL A   1      41.465  27.447  25.732  1.00  0.00     0.001 A 
ATOM     78  C   UNL A   1      40.924  26.166  25.639  1.00  0.00     0.000 A 
ENDBRANCH  54  73
BRANCH  66  79
ATOM     79  C   UNL A   1      36.022  32.770  29.557  1.00  0.00    -0.014 A 
ATOM     80  C   UNL A   1      36.251  34.000  28.920  1.00  0.00     0.009 A 
ATOM     81  C   UNL A   1      34.757  32.172  29.442  1.00  0.00     0.009 A 
ATOM     82  C   UNL A   1      35.224  34.640  28.225  1.00  0.00     0.001 A 
ATOM     83  C   UNL A   1      33.740  32.798  28.720  1.00  0.00     0.001 A 
ATOM     84  C   UNL A   1      33.970  34.037  28.124  1.00  0.00     0.000 A 
ENDBRANCH  66  79
ENDBRANCH  40  41
ENDBRANCH  32  35
ENDBRANCH  30  31
ENDBRANCH  29  30
ENDBRANCH  28  29
ENDBRANCH  27  28
ENDBRANCH   1  27
TORSDOF 17
ENDMDL
