MODEL 1
REMARK VINA RESULT:     -11.3      0.000      0.000
REMARK SMILES Cc1ccc(NS(=O)(=O)N2CCCC[C@@H]2C(=O)NCCCCCCNC(=O)c2ccc(-c3c4nc(c(-c5ccccc5)c5ccc([nH]5)c(-c5ccccc5)c5nc(c(-c6ccccc6)c6ccc3[nH]6)C=C5)C=C4)cc2)c(C)n1
REMARK SMILES IDX 21 1 20 2 19 3 18 4 16 5 17 6 15 8 10 9 11 10 12 11 14 12
REMARK SMILES IDX 13 13 7 14 8 15 9 16 6 17 5 19 1 20 2 21 3 22 78 23 4 24
REMARK SMILES IDX 76 25 77 26 22 27 23 28 24 29 25 30 26 31 27 33 28 34 29 35
REMARK SMILES IDX 75 36 30 37 74 38 31 39 32 40 33 41 68 42 34 43 73 44 67 45
REMARK SMILES IDX 69 46 35 47 72 48 66 49 65 50 36 52 58 53 43 54 57 55 44 56
REMARK SMILES IDX 47 57 56 58 70 59 45 60 46 61 55 63 71 64 48 65 37 66 38 67
REMARK SMILES IDX 42 68 39 69 41 70 40 71 59 72 60 73 64 74 61 75 63 76 62 77
REMARK SMILES IDX 49 78 50 79 54 80 51 81 53 82 52 83
REMARK H PARENT 18 7 6 18 25 32 69 51 47 62
REMARK Flexibility Score: inf
ROOT
ATOM      1  C   UNL A   1      34.551  19.998  24.791  1.00  0.00     0.002 C 
ENDROOT
BRANCH   1   2
ATOM      2  C   UNL A   1      33.232  20.062  25.620  1.00  0.00     0.021 C 
BRANCH   2   3
ATOM      3  C   UNL A   1      31.889  20.836  25.334  1.00  0.00     0.116 C 
BRANCH   3   4
ATOM      4  N   UNL A   1      31.420  21.865  26.250  1.00  0.00    -0.355 N 
ATOM      5  C   UNL A   1      31.807  23.168  26.479  1.00  0.00     0.238 C 
ATOM      6  O   UNL A   1      31.060  23.768  27.268  1.00  0.00    -0.273 OA
ATOM      7  H   UNL A   1      30.676  21.570  26.823  1.00  0.00     0.163 HD
BRANCH   5   8
ATOM      8  C   UNL A   1      33.040  23.937  25.871  1.00  0.00     0.163 C 
ATOM      9  N   UNL A   1      33.041  24.189  24.367  1.00  0.00    -0.172 NA
ATOM     10  C   UNL A   1      34.266  24.932  23.900  1.00  0.00     0.105 C 
ATOM     11  C   UNL A   1      35.528  24.182  24.275  1.00  0.00     0.017 C 
ATOM     12  C   UNL A   1      34.403  23.393  26.344  1.00  0.00     0.030 C 
ATOM     13  C   UNL A   1      35.622  24.127  25.783  1.00  0.00     0.004 C 
BRANCH   9  14
ATOM     14  S   UNL A   1      31.655  24.952  23.701  1.00  0.00     0.302 S 
ATOM     15  O   UNL A   1      30.623  23.962  23.522  1.00  0.00    -0.189 OA
ATOM     16  O   UNL A   1      32.062  25.759  22.572  1.00  0.00    -0.189 OA
BRANCH  14  17
ATOM     17  N   UNL A   1      31.118  25.953  24.900  1.00  0.00    -0.269 N 
ATOM     18  H   UNL A   1      30.476  25.593  25.554  1.00  0.00     0.181 HD
BRANCH  17  19
ATOM     19  C   UNL A   1      31.533  27.308  25.039  1.00  0.00     0.071 A 
ATOM     20  C   UNL A   1      31.719  31.122  26.637  1.00  0.00     0.067 C 
ATOM     21  C   UNL A   1      32.047  29.842  25.942  1.00  0.00     0.038 A 
ATOM     22  C   UNL A   1      32.743  28.777  26.489  1.00  0.00     0.026 A 
ATOM     23  N   UNL A   1      31.343  29.699  24.828  1.00  0.00    -0.256 NA
ATOM     24  C   UNL A   1      32.516  27.498  26.003  1.00  0.00     0.030 A 
ATOM     25  C   UNL A   1      31.036  28.454  24.403  1.00  0.00     0.062 A 
ATOM     26  C   UNL A   1      29.963  28.570  23.388  1.00  0.00     0.069 C 
ENDBRANCH  17  19
ENDBRANCH  14  17
ENDBRANCH   9  14
ENDBRANCH   5   8
ENDBRANCH   3   4
ENDBRANCH   2   3
ENDBRANCH   1   2
BRANCH   1  27
ATOM     27  C   UNL A   1      36.034  20.479  25.010  1.00  0.00     0.002 C 
BRANCH  27  28
ATOM     28  C   UNL A   1      37.375  19.735  24.871  1.00  0.00     0.021 C 
BRANCH  28  29
ATOM     29  C   UNL A   1      38.631  20.411  25.401  1.00  0.00     0.116 C 
BRANCH  29  30
ATOM     30  N   UNL A   1      39.640  19.410  25.700  1.00  0.00    -0.352 N 
ATOM     31  C   UNL A   1      40.965  19.609  26.002  1.00  0.00     0.251 C 
ATOM     32  H   UNL A   1      39.337  18.474  25.683  1.00  0.00     0.163 HD
ATOM     33  O   UNL A   1      41.780  18.710  25.819  1.00  0.00    -0.269 OA
BRANCH  31  34
ATOM     34  C   UNL A   1      41.406  20.897  26.582  1.00  0.00     0.039 A 
ATOM     35  C   UNL A   1      41.220  21.137  27.947  1.00  0.00     0.014 A 
ATOM     36  C   UNL A   1      41.919  21.902  25.756  1.00  0.00     0.014 A 
ATOM     37  C   UNL A   1      41.550  22.385  28.482  1.00  0.00     0.010 A 
ATOM     38  C   UNL A   1      42.303  23.125  26.300  1.00  0.00     0.010 A 
ATOM     39  C   UNL A   1      42.093  23.388  27.661  1.00  0.00    -0.014 A 
BRANCH  39  40
ATOM     40  C   UNL A   1      42.386  24.737  28.206  1.00  0.00     0.031 A 
ATOM     41  C   UNL A   1      43.791  25.090  28.618  1.00  0.00     0.074 A 
ATOM     42  C   UNL A   1      41.390  25.633  28.340  1.00  0.00     0.049 A 
ATOM     43  N   UNL A   1      44.250  26.212  29.113  1.00  0.00    -0.248 NA
ATOM     44  C   UNL A   1      44.812  24.039  28.474  1.00  0.00     0.031 C 
ATOM     45  C   UNL A   1      39.987  25.396  27.995  1.00  0.00     0.029 A 
ATOM     46  N   UNL A   1      41.407  26.929  28.791  1.00  0.00    -0.354 N 
ATOM     47  C   UNL A   1      45.605  25.999  29.337  1.00  0.00     0.074 A 
ATOM     48  C   UNL A   1      45.882  24.624  28.990  1.00  0.00     0.031 C 
ATOM     49  C   UNL A   1      39.286  26.521  28.208  1.00  0.00     0.029 A 
ATOM     50  C   UNL A   1      40.179  27.544  28.741  1.00  0.00     0.049 A 
ATOM     51  H   UNL A   1      42.222  27.375  29.118  1.00  0.00     0.167 HD
ATOM     52  C   UNL A   1      46.543  26.879  29.764  1.00  0.00     0.031 A 
ATOM     53  C   UNL A   1      39.820  28.794  29.087  1.00  0.00     0.031 A 
ATOM     54  C   UNL A   1      46.262  28.247  30.107  1.00  0.00     0.049 A 
ATOM     55  C   UNL A   1      40.873  29.735  29.606  1.00  0.00     0.074 A 
ATOM     56  C   UNL A   1      47.140  29.229  30.529  1.00  0.00     0.029 A 
ATOM     57  N   UNL A   1      45.002  28.824  30.067  1.00  0.00    -0.354 N 
ATOM     58  N   UNL A   1      42.161  29.535  29.757  1.00  0.00    -0.248 NA
ATOM     59  C   UNL A   1      40.425  31.081  29.990  1.00  0.00     0.031 C 
ATOM     60  C   UNL A   1      46.402  30.387  30.795  1.00  0.00     0.029 A 
ATOM     61  C   UNL A   1      45.075  30.143  30.476  1.00  0.00     0.049 A 
ATOM     62  H   UNL A   1      44.178  28.363  29.788  1.00  0.00     0.167 HD
ATOM     63  C   UNL A   1      42.680  30.739  30.216  1.00  0.00     0.074 A 
ATOM     64  C   UNL A   1      41.572  31.667  30.300  1.00  0.00     0.031 C 
ATOM     65  C   UNL A   1      43.959  31.051  30.541  1.00  0.00     0.031 A 
BRANCH  52  66
ATOM     66  C   UNL A   1      47.960  26.384  29.878  1.00  0.00    -0.014 A 
ATOM     67  C   UNL A   1      48.444  25.841  31.080  1.00  0.00     0.009 A 
ATOM     68  C   UNL A   1      48.812  26.423  28.764  1.00  0.00     0.009 A 
ATOM     69  C   UNL A   1      49.760  25.384  31.174  1.00  0.00     0.001 A 
ATOM     70  C   UNL A   1      50.117  25.935  28.851  1.00  0.00     0.001 A 
ATOM     71  C   UNL A   1      50.594  25.426  30.058  1.00  0.00     0.000 A 
ENDBRANCH  52  66
BRANCH  53  72
ATOM     72  C   UNL A   1      38.407  29.242  28.945  1.00  0.00    -0.014 A 
ATOM     73  C   UNL A   1      37.933  29.733  27.718  1.00  0.00     0.009 A 
ATOM     74  C   UNL A   1      37.534  29.217  30.043  1.00  0.00     0.009 A 
ATOM     75  C   UNL A   1      36.631  30.227  27.607  1.00  0.00     0.001 A 
ATOM     76  C   UNL A   1      36.222  29.678  29.921  1.00  0.00     0.001 A 
ATOM     77  C   UNL A   1      35.775  30.196  28.706  1.00  0.00     0.000 A 
ENDBRANCH  53  72
BRANCH  65  78
ATOM     78  C   UNL A   1      44.233  32.466  30.968  1.00  0.00    -0.014 A 
ATOM     79  C   UNL A   1      44.198  32.845  32.319  1.00  0.00     0.009 A 
ATOM     80  C   UNL A   1      44.570  33.426  30.000  1.00  0.00     0.009 A 
ATOM     81  C   UNL A   1      44.458  34.166  32.687  1.00  0.00     0.001 A 
ATOM     82  C   UNL A   1      44.864  34.737  30.374  1.00  0.00     0.001 A 
ATOM     83  C   UNL A   1      44.796  35.108  31.716  1.00  0.00     0.000 A 
ENDBRANCH  65  78
ENDBRANCH  39  40
ENDBRANCH  31  34
ENDBRANCH  29  30
ENDBRANCH  28  29
ENDBRANCH  27  28
ENDBRANCH   1  27
TORSDOF 16
ENDMDL
MODEL 2
REMARK VINA RESULT:     -11.0      0.553      5.877
REMARK SMILES Cc1ccc(NS(=O)(=O)N2CCCC[C@@H]2C(=O)NCCCCCCNC(=O)c2ccc(-c3c4nc(c(-c5ccccc5)c5ccc([nH]5)c(-c5ccccc5)c5nc(c(-c6ccccc6)c6ccc3[nH]6)C=C5)C=C4)cc2)c(C)n1
REMARK SMILES IDX 21 1 20 2 19 3 18 4 16 5 17 6 15 8 10 9 11 10 12 11 14 12
REMARK SMILES IDX 13 13 7 14 8 15 9 16 6 17 5 19 1 20 2 21 3 22 78 23 4 24
REMARK SMILES IDX 76 25 77 26 22 27 23 28 24 29 25 30 26 31 27 33 28 34 29 35
REMARK SMILES IDX 75 36 30 37 74 38 31 39 32 40 33 41 68 42 34 43 73 44 67 45
REMARK SMILES IDX 69 46 35 47 72 48 66 49 65 50 36 52 58 53 43 54 57 55 44 56
REMARK SMILES IDX 47 57 56 58 70 59 45 60 46 61 55 63 71 64 48 65 37 66 38 67
REMARK SMILES IDX 42 68 39 69 41 70 40 71 59 72 60 73 64 74 61 75 63 76 62 77
REMARK SMILES IDX 49 78 50 79 54 80 51 81 53 82 52 83
REMARK H PARENT 18 7 6 18 25 32 69 51 47 62
REMARK Flexibility Score: inf
ROOT
ATOM      1  C   UNL A   1      34.705  19.448  24.593  1.00  0.00     0.002 C 
ENDROOT
BRANCH   1   2
ATOM      2  C   UNL A   1      33.274  19.511  25.210  1.00  0.00     0.021 C 
BRANCH   2   3
ATOM      3  C   UNL A   1      32.131  20.578  25.015  1.00  0.00     0.116 C 
BRANCH   3   4
ATOM      4  N   UNL A   1      31.755  21.464  26.106  1.00  0.00    -0.355 N 
ATOM      5  C   UNL A   1      32.242  22.677  26.544  1.00  0.00     0.238 C 
ATOM      6  O   UNL A   1      31.555  23.184  27.445  1.00  0.00    -0.273 OA
ATOM      7  H   UNL A   1      30.999  21.129  26.641  1.00  0.00     0.163 HD
BRANCH   5   8
ATOM      8  C   UNL A   1      33.521  23.448  26.044  1.00  0.00     0.163 C 
ATOM      9  N   UNL A   1      33.607  23.782  24.558  1.00  0.00    -0.172 NA
ATOM     10  C   UNL A   1      34.869  24.519  24.195  1.00  0.00     0.105 C 
ATOM     11  C   UNL A   1      36.094  23.720  24.592  1.00  0.00     0.017 C 
ATOM     12  C   UNL A   1      34.847  22.845  26.554  1.00  0.00     0.030 C 
ATOM     13  C   UNL A   1      36.109  23.579  26.097  1.00  0.00     0.004 C 
BRANCH   9  14
ATOM     14  S   UNL A   1      32.273  24.614  23.866  1.00  0.00     0.302 S 
ATOM     15  O   UNL A   1      31.207  23.671  23.639  1.00  0.00    -0.189 OA
ATOM     16  O   UNL A   1      32.747  25.423  22.765  1.00  0.00    -0.189 OA
BRANCH  14  17
ATOM     17  N   UNL A   1      31.743  25.615  25.067  1.00  0.00    -0.269 N 
ATOM     18  H   UNL A   1      31.103  25.256  25.723  1.00  0.00     0.181 HD
BRANCH  17  19
ATOM     19  C   UNL A   1      32.161  26.969  25.205  1.00  0.00     0.071 A 
ATOM     20  C   UNL A   1      32.500  30.729  26.906  1.00  0.00     0.067 C 
ATOM     21  C   UNL A   1      32.756  29.477  26.133  1.00  0.00     0.038 A 
ATOM     22  C   UNL A   1      33.518  28.401  26.558  1.00  0.00     0.026 A 
ATOM     23  N   UNL A   1      31.930  29.364  25.102  1.00  0.00    -0.256 NA
ATOM     24  C   UNL A   1      33.247  27.138  26.056  1.00  0.00     0.030 A 
ATOM     25  C   UNL A   1      31.585  28.131  24.672  1.00  0.00     0.062 A 
ATOM     26  C   UNL A   1      30.401  28.268  23.792  1.00  0.00     0.069 C 
ENDBRANCH  17  19
ENDBRANCH  14  17
ENDBRANCH   9  14
ENDBRANCH   5   8
ENDBRANCH   3   4
ENDBRANCH   2   3
ENDBRANCH   1   2
BRANCH   1  27
ATOM     27  C   UNL A   1      36.121  20.006  24.993  1.00  0.00     0.002 C 
BRANCH  27  28
ATOM     28  C   UNL A   1      37.513  19.347  24.982  1.00  0.00     0.021 C 
BRANCH  28  29
ATOM     29  C   UNL A   1      38.711  20.190  25.397  1.00  0.00     0.116 C 
BRANCH  29  30
ATOM     30  N   UNL A   1      39.813  19.324  25.776  1.00  0.00    -0.352 N 
ATOM     31  C   UNL A   1      41.099  19.684  26.100  1.00  0.00     0.251 C 
ATOM     32  H   UNL A   1      39.615  18.360  25.804  1.00  0.00     0.163 HD
ATOM     33  O   UNL A   1      42.013  18.873  25.988  1.00  0.00    -0.269 OA
BRANCH  31  34
ATOM     34  C   UNL A   1      41.378  21.042  26.618  1.00  0.00     0.039 A 
ATOM     35  C   UNL A   1      41.663  22.076  25.721  1.00  0.00     0.014 A 
ATOM     36  C   UNL A   1      41.449  21.268  27.997  1.00  0.00     0.014 A 
ATOM     37  C   UNL A   1      42.017  23.337  26.209  1.00  0.00     0.010 A 
ATOM     38  C   UNL A   1      41.744  22.540  28.481  1.00  0.00     0.010 A 
ATOM     39  C   UNL A   1      42.061  23.577  27.592  1.00  0.00    -0.014 A 
BRANCH  39  40
ATOM     40  C   UNL A   1      42.498  24.893  28.119  1.00  0.00     0.031 A 
ATOM     41  C   UNL A   1      41.489  25.993  28.323  1.00  0.00     0.074 A 
ATOM     42  C   UNL A   1      43.799  25.100  28.401  1.00  0.00     0.049 A 
ATOM     43  N   UNL A   1      41.670  27.209  28.773  1.00  0.00    -0.248 NA
ATOM     44  C   UNL A   1      40.095  25.694  27.953  1.00  0.00     0.031 C 
ATOM     45  C   UNL A   1      44.870  24.118  28.223  1.00  0.00     0.029 A 
ATOM     46  N   UNL A   1      44.440  26.202  28.908  1.00  0.00    -0.354 N 
ATOM     47  C   UNL A   1      40.420  27.814  28.740  1.00  0.00     0.074 A 
ATOM     48  C   UNL A   1      39.501  26.859  28.163  1.00  0.00     0.031 C 
ATOM     49  C   UNL A   1      46.027  24.646  28.654  1.00  0.00     0.029 A 
ATOM     50  C   UNL A   1      45.787  26.015  29.098  1.00  0.00     0.049 A 
ATOM     51  H   UNL A   1      43.977  27.046  29.117  1.00  0.00     0.167 HD
ATOM     52  C   UNL A   1      40.060  29.044  29.179  1.00  0.00     0.031 A 
ATOM     53  C   UNL A   1      46.722  26.856  29.579  1.00  0.00     0.031 A 
ATOM     54  C   UNL A   1      40.979  29.990  29.753  1.00  0.00     0.049 A 
ATOM     55  C   UNL A   1      46.304  28.235  30.013  1.00  0.00     0.074 A 
ATOM     56  C   UNL A   1      40.718  31.254  30.251  1.00  0.00     0.029 A 
ATOM     57  N   UNL A   1      42.340  29.771  29.905  1.00  0.00    -0.354 N 
ATOM     58  N   UNL A   1      45.106  28.771  30.028  1.00  0.00    -0.248 NA
ATOM     59  C   UNL A   1      47.366  29.121  30.510  1.00  0.00     0.031 C 
ATOM     60  C   UNL A   1      41.930  31.822  30.655  1.00  0.00     0.029 A 
ATOM     61  C   UNL A   1      42.936  30.884  30.470  1.00  0.00     0.049 A 
ATOM     62  H   UNL A   1      42.811  28.946  29.650  1.00  0.00     0.167 HD
ATOM     63  C   UNL A   1      45.266  30.040  30.570  1.00  0.00     0.074 A 
ATOM     64  C   UNL A   1      46.672  30.185  30.887  1.00  0.00     0.031 C 
ATOM     65  C   UNL A   1      44.335  31.001  30.786  1.00  0.00     0.031 A 
BRANCH  52  66
ATOM     66  C   UNL A   1      38.611  29.430  29.057  1.00  0.00    -0.014 A 
ATOM     67  C   UNL A   1      38.080  29.878  27.835  1.00  0.00     0.009 A 
ATOM     68  C   UNL A   1      37.754  29.311  30.162  1.00  0.00     0.009 A 
ATOM     69  C   UNL A   1      36.733  30.233  27.734  1.00  0.00     0.001 A 
ATOM     70  C   UNL A   1      36.400  29.635  30.049  1.00  0.00     0.001 A 
ATOM     71  C   UNL A   1      35.893  30.105  28.839  1.00  0.00     0.000 A 
ENDBRANCH  52  66
BRANCH  53  72
ATOM     72  C   UNL A   1      48.142  26.425  29.692  1.00  0.00    -0.014 A 
ATOM     73  C   UNL A   1      49.027  26.585  28.613  1.00  0.00     0.009 A 
ATOM     74  C   UNL A   1      48.614  25.815  30.865  1.00  0.00     0.009 A 
ATOM     75  C   UNL A   1      50.337  26.108  28.693  1.00  0.00     0.001 A 
ATOM     76  C   UNL A   1      49.935  25.371  30.955  1.00  0.00     0.001 A 
ATOM     77  C   UNL A   1      50.792  25.505  29.864  1.00  0.00     0.000 A 
ENDBRANCH  53  72
BRANCH  65  78
ATOM     78  C   UNL A   1      44.801  32.273  31.439  1.00  0.00    -0.014 A 
ATOM     79  C   UNL A   1      45.224  33.376  30.680  1.00  0.00     0.009 A 
ATOM     80  C   UNL A   1      44.776  32.379  32.839  1.00  0.00     0.009 A 
ATOM     81  C   UNL A   1      45.650  34.544  31.313  1.00  0.00     0.001 A 
ATOM     82  C   UNL A   1      45.169  33.560  33.467  1.00  0.00     0.001 A 
ATOM     83  C   UNL A   1      45.616  34.638  32.705  1.00  0.00     0.000 A 
ENDBRANCH  65  78
ENDBRANCH  39  40
ENDBRANCH  31  34
ENDBRANCH  29  30
ENDBRANCH  28  29
ENDBRANCH  27  28
ENDBRANCH   1  27
TORSDOF 16
ENDMDL
MODEL 3
REMARK VINA RESULT:     -10.9      2.835      8.756
REMARK SMILES Cc1ccc(NS(=O)(=O)N2CCCC[C@@H]2C(=O)NCCCCCCNC(=O)c2ccc(-c3c4nc(c(-c5ccccc5)c5ccc([nH]5)c(-c5ccccc5)c5nc(c(-c6ccccc6)c6ccc3[nH]6)C=C5)C=C4)cc2)c(C)n1
REMARK SMILES IDX 21 1 20 2 19 3 18 4 16 5 17 6 15 8 10 9 11 10 12 11 14 12
REMARK SMILES IDX 13 13 7 14 8 15 9 16 6 17 5 19 1 20 2 21 3 22 78 23 4 24
REMARK SMILES IDX 76 25 77 26 22 27 23 28 24 29 25 30 26 31 27 33 28 34 29 35
REMARK SMILES IDX 75 36 30 37 74 38 31 39 32 40 33 41 68 42 34 43 73 44 67 45
REMARK SMILES IDX 69 46 35 47 72 48 66 49 65 50 36 52 58 53 43 54 57 55 44 56
REMARK SMILES IDX 47 57 56 58 70 59 45 60 46 61 55 63 71 64 48 65 37 66 38 67
REMARK SMILES IDX 42 68 39 69 41 70 40 71 59 72 60 73 64 74 61 75 63 76 62 77
REMARK SMILES IDX 49 78 50 79 54 80 51 81 53 82 52 83
REMARK H PARENT 18 7 6 18 25 32 69 51 47 62
REMARK Flexibility Score: inf
ROOT
ATOM      1  C   UNL A   1      29.991  30.445  23.962  1.00  0.00     0.002 C 
ENDROOT
BRANCH   1   2
ATOM      2  C   UNL A   1      29.857  29.486  22.739  1.00  0.00     0.021 C 
BRANCH   2   3
ATOM      3  C   UNL A   1      30.232  27.963  22.598  1.00  0.00     0.116 C 
BRANCH   3   4
ATOM      4  N   UNL A   1      31.486  27.566  21.976  1.00  0.00    -0.355 N 
ATOM      5  C   UNL A   1      32.709  27.183  22.485  1.00  0.00     0.238 C 
ATOM      6  O   UNL A   1      33.501  26.790  21.613  1.00  0.00    -0.273 OA
ATOM      7  H   UNL A   1      31.456  27.573  20.992  1.00  0.00     0.163 HD
BRANCH   5   8
ATOM      8  C   UNL A   1      33.182  27.192  23.987  1.00  0.00     0.163 C 
ATOM      9  N   UNL A   1      32.316  26.456  25.004  1.00  0.00    -0.172 NA
ATOM     10  C   UNL A   1      32.865  26.531  26.404  1.00  0.00     0.105 C 
ATOM     11  C   UNL A   1      33.026  27.971  26.845  1.00  0.00     0.017 C 
ATOM     12  C   UNL A   1      33.576  28.591  24.504  1.00  0.00     0.030 C 
ATOM     13  C   UNL A   1      34.055  28.634  25.956  1.00  0.00     0.004 C 
BRANCH   9  14
ATOM     14  S   UNL A   1      31.925  24.820  24.659  1.00  0.00     0.302 S 
ATOM     15  O   UNL A   1      30.879  24.793  23.668  1.00  0.00    -0.189 OA
ATOM     16  O   UNL A   1      31.735  24.112  25.906  1.00  0.00    -0.189 OA
BRANCH  14  17
ATOM     17  N   UNL A   1      33.271  24.223  23.913  1.00  0.00    -0.269 N 
ATOM     18  H   UNL A   1      33.397  24.416  22.956  1.00  0.00     0.181 HD
BRANCH  17  19
ATOM     19  C   UNL A   1      34.260  23.443  24.578  1.00  0.00     0.071 A 
ATOM     20  C   UNL A   1      37.783  21.328  25.083  1.00  0.00     0.067 C 
ATOM     21  C   UNL A   1      36.558  22.150  25.318  1.00  0.00     0.038 A 
ATOM     22  C   UNL A   1      36.509  23.532  25.389  1.00  0.00     0.026 A 
ATOM     23  N   UNL A   1      35.453  21.434  25.157  1.00  0.00    -0.256 NA
ATOM     24  C   UNL A   1      35.333  24.186  25.057  1.00  0.00     0.030 A 
ATOM     25  C   UNL A   1      34.328  22.052  24.738  1.00  0.00     0.062 A 
ATOM     26  C   UNL A   1      33.376  21.011  24.287  1.00  0.00     0.069 C 
ENDBRANCH  17  19
ENDBRANCH  14  17
ENDBRANCH   9  14
ENDBRANCH   5   8
ENDBRANCH   3   4
ENDBRANCH   2   3
ENDBRANCH   1   2
BRANCH   1  27
ATOM     27  C   UNL A   1      31.107  30.746  25.030  1.00  0.00     0.002 C 
BRANCH  27  28
ATOM     28  C   UNL A   1      31.051  31.490  26.377  1.00  0.00     0.021 C 
BRANCH  28  29
ATOM     29  C   UNL A   1      32.358  31.979  26.985  1.00  0.00     0.116 C 
BRANCH  29  30
ATOM     30  N   UNL A   1      32.271  33.402  27.259  1.00  0.00    -0.352 N 
ATOM     31  C   UNL A   1      32.959  34.124  28.204  1.00  0.00     0.251 C 
ATOM     32  H   UNL A   1      31.641  33.912  26.700  1.00  0.00     0.163 HD
ATOM     33  O   UNL A   1      32.507  35.189  28.614  1.00  0.00    -0.269 OA
BRANCH  31  34
ATOM     34  C   UNL A   1      34.263  33.637  28.703  1.00  0.00     0.039 A 
ATOM     35  C   UNL A   1      35.420  33.877  27.956  1.00  0.00     0.014 A 
ATOM     36  C   UNL A   1      34.327  32.860  29.865  1.00  0.00     0.014 A 
ATOM     37  C   UNL A   1      36.640  33.340  28.375  1.00  0.00     0.010 A 
ATOM     38  C   UNL A   1      35.552  32.375  30.314  1.00  0.00     0.010 A 
ATOM     39  C   UNL A   1      36.714  32.585  29.557  1.00  0.00    -0.014 A 
BRANCH  39  40
ATOM     40  C   UNL A   1      37.991  31.956  29.976  1.00  0.00     0.031 A 
ATOM     41  C   UNL A   1      38.866  32.641  30.993  1.00  0.00     0.074 A 
ATOM     42  C   UNL A   1      38.365  30.781  29.435  1.00  0.00     0.049 A 
ATOM     43  N   UNL A   1      40.014  32.256  31.490  1.00  0.00    -0.248 NA
ATOM     44  C   UNL A   1      38.399  33.941  31.506  1.00  0.00     0.031 C 
ATOM     45  C   UNL A   1      37.611  30.036  28.426  1.00  0.00     0.029 A 
ATOM     46  N   UNL A   1      39.470  30.001  29.667  1.00  0.00    -0.354 N 
ATOM     47  C   UNL A   1      40.403  33.261  32.367  1.00  0.00     0.074 A 
ATOM     48  C   UNL A   1      39.406  34.304  32.285  1.00  0.00     0.031 C 
ATOM     49  C   UNL A   1      38.253  28.888  28.156  1.00  0.00     0.029 A 
ATOM     50  C   UNL A   1      39.482  28.835  28.940  1.00  0.00     0.049 A 
ATOM     51  H   UNL A   1      40.186  30.253  30.295  1.00  0.00     0.167 HD
ATOM     52  C   UNL A   1      41.477  33.300  33.191  1.00  0.00     0.031 A 
ATOM     53  C   UNL A   1      40.385  27.837  28.913  1.00  0.00     0.031 A 
ATOM     54  C   UNL A   1      42.466  32.259  33.268  1.00  0.00     0.049 A 
ATOM     55  C   UNL A   1      41.596  27.930  29.803  1.00  0.00     0.074 A 
ATOM     56  C   UNL A   1      43.581  32.186  34.083  1.00  0.00     0.029 A 
ATOM     57  N   UNL A   1      42.455  31.106  32.498  1.00  0.00    -0.354 N 
ATOM     58  N   UNL A   1      41.918  28.861  30.669  1.00  0.00    -0.248 NA
ATOM     59  C   UNL A   1      42.562  26.825  29.720  1.00  0.00     0.031 C 
ATOM     60  C   UNL A   1      44.275  31.013  33.768  1.00  0.00     0.029 A 
ATOM     61  C   UNL A   1      43.555  30.324  32.803  1.00  0.00     0.049 A 
ATOM     62  H   UNL A   1      41.766  30.877  31.833  1.00  0.00     0.167 HD
ATOM     63  C   UNL A   1      43.101  28.436  31.259  1.00  0.00     0.074 A 
ATOM     64  C   UNL A   1      43.428  27.156  30.666  1.00  0.00     0.031 C 
ATOM     65  C   UNL A   1      43.853  29.048  32.207  1.00  0.00     0.031 A 
BRANCH  52  66
ATOM     66  C   UNL A   1      41.633  34.508  34.075  1.00  0.00    -0.014 A 
ATOM     67  C   UNL A   1      41.117  34.523  35.382  1.00  0.00     0.009 A 
ATOM     68  C   UNL A   1      42.335  35.632  33.614  1.00  0.00     0.009 A 
ATOM     69  C   UNL A   1      41.268  35.649  36.193  1.00  0.00     0.001 A 
ATOM     70  C   UNL A   1      42.514  36.745  34.439  1.00  0.00     0.001 A 
ATOM     71  C   UNL A   1      41.972  36.757  35.723  1.00  0.00     0.000 A 
ENDBRANCH  52  66
BRANCH  53  72
ATOM     72  C   UNL A   1      40.182  26.656  28.031  1.00  0.00    -0.014 A 
ATOM     73  C   UNL A   1      39.483  25.529  28.494  1.00  0.00     0.009 A 
ATOM     74  C   UNL A   1      40.717  26.632  26.733  1.00  0.00     0.009 A 
ATOM     75  C   UNL A   1      39.362  24.391  27.693  1.00  0.00     0.001 A 
ATOM     76  C   UNL A   1      40.563  25.506  25.921  1.00  0.00     0.001 A 
ATOM     77  C   UNL A   1      39.898  24.381  26.407  1.00  0.00     0.000 A 
ENDBRANCH  53  72
BRANCH  65  78
ATOM     78  C   UNL A   1      45.072  28.317  32.694  1.00  0.00    -0.014 A 
ATOM     79  C   UNL A   1      45.004  27.401  33.756  1.00  0.00     0.009 A 
ATOM     80  C   UNL A   1      46.304  28.522  32.050  1.00  0.00     0.009 A 
ATOM     81  C   UNL A   1      46.152  26.735  34.187  1.00  0.00     0.001 A 
ATOM     82  C   UNL A   1      47.442  27.829  32.460  1.00  0.00     0.001 A 
ATOM     83  C   UNL A   1      47.368  26.944  33.535  1.00  0.00     0.000 A 
ENDBRANCH  65  78
ENDBRANCH  39  40
ENDBRANCH  31  34
ENDBRANCH  29  30
ENDBRANCH  28  29
ENDBRANCH  27  28
ENDBRANCH   1  27
TORSDOF 16
ENDMDL
