MODEL 1
REMARK VINA RESULT:     -10.8      0.000      0.000
REMARK SMILES CC(C)(C)OC(=O)N[C@@H](C(=O)NCCCCCCNC(=O)c1ccc(-c2c3nc(c(-c4ccccc4)c4ccc([nH]4)c(-c4ccccc4)c4nc(c(-c5ccccc5)c5ccc2[nH]5)C=C4)C=C3)cc1)[C@H](O)c1ccccc1F
REMARK SMILES IDX 15 1 14 2 13 3 12 4 10 5 11 6 9 8 8 9 6 10 7 11 5 13 2 14
REMARK SMILES IDX 1 15 3 16 4 17 70 18 72 19 73 20 77 21 74 22 76 23 78 24
REMARK SMILES IDX 75 25 71 26 16 28 17 29 18 30 19 31 20 32 21 34 22 35 23 36
REMARK SMILES IDX 69 37 24 38 68 39 25 40 26 41 27 42 62 43 28 44 67 45 61 46
REMARK SMILES IDX 63 47 29 48 66 49 60 50 59 51 30 53 52 54 37 55 51 56 38 57
REMARK SMILES IDX 41 58 50 59 64 60 39 61 40 62 49 64 65 65 42 66 31 67 32 68
REMARK SMILES IDX 36 69 33 70 35 71 34 72 53 73 54 74 58 75 55 76 57 77 56 78
REMARK SMILES IDX 43 79 44 80 48 81 45 82 47 83 46 84
REMARK H PARENT 12 7 8 12 71 27 19 33 63 52 41 63
REMARK Flexibility Score: inf
ROOT
ATOM      1  C   UNL A   1      35.825  22.332  24.357  1.00  0.00     0.002 C 
ENDROOT
BRANCH   1   2
ATOM      2  C   UNL A   1      34.309  22.378  24.117  1.00  0.00     0.021 C 
BRANCH   2   3
ATOM      3  C   UNL A   1      33.646  23.617  24.724  1.00  0.00     0.116 C 
BRANCH   3   4
ATOM      4  N   UNL A   1      32.588  23.210  25.621  1.00  0.00    -0.354 N 
ATOM      5  C   UNL A   1      31.673  24.015  26.244  1.00  0.00     0.245 C 
ATOM      6  O   UNL A   1      31.250  23.617  27.330  1.00  0.00    -0.273 OA
ATOM      7  H   UNL A   1      32.517  22.246  25.803  1.00  0.00     0.163 HD
BRANCH   5   8
ATOM      8  C   UNL A   1      31.279  25.357  25.589  1.00  0.00     0.208 C 
BRANCH   8   9
ATOM      9  N   UNL A   1      30.902  26.292  26.660  1.00  0.00    -0.307 N 
ATOM     10  C   UNL A   1      31.498  27.472  26.975  1.00  0.00     0.408 C 
ATOM     11  O   UNL A   1      31.104  28.151  27.916  1.00  0.00    -0.225 OA
ATOM     12  H   UNL A   1      30.130  26.032  27.213  1.00  0.00     0.168 HD
BRANCH  10  13
ATOM     13  O   UNL A   1      32.557  27.761  26.182  1.00  0.00    -0.444 OA
BRANCH  13  14
ATOM     14  C   UNL A   1      32.802  29.117  25.721  1.00  0.00     0.106 C 
ATOM     15  C   UNL A   1      33.617  28.959  24.426  1.00  0.00     0.056 C 
ATOM     16  C   UNL A   1      33.654  29.910  26.721  1.00  0.00     0.056 C 
ATOM     17  C   UNL A   1      31.491  29.833  25.389  1.00  0.00     0.056 C 
ENDBRANCH  13  14
ENDBRANCH  10  13
ENDBRANCH   8   9
BRANCH   8  18
ATOM     18  C   UNL A   1      30.118  25.240  24.562  1.00  0.00     0.179 C 
BRANCH  18  19
ATOM     19  C   UNL A   1      29.815  26.499  23.772  1.00  0.00     0.019 A 
ATOM     20  C   UNL A   1      30.784  27.178  23.016  1.00  0.00     0.009 A 
ATOM     21  C   UNL A   1      28.521  27.033  23.789  1.00  0.00     0.129 A 
ATOM     22  C   UNL A   1      30.480  28.376  22.361  1.00  0.00     0.001 A 
ATOM     23  C   UNL A   1      28.202  28.211  23.116  1.00  0.00     0.039 A 
ATOM     24  F   UNL A   1      27.548  26.405  24.464  1.00  0.00    -0.207 F 
ATOM     25  C   UNL A   1      29.188  28.895  22.413  1.00  0.00     0.003 A 
ENDBRANCH  18  19
BRANCH  18  26
ATOM     26  O   UNL A   1      30.271  24.105  23.704  1.00  0.00    -0.386 OA
ATOM     27  H   UNL A   1      31.176  23.765  23.778  1.00  0.00     0.211 HD
ENDBRANCH  18  26
ENDBRANCH   8  18
ENDBRANCH   5   8
ENDBRANCH   3   4
ENDBRANCH   2   3
ENDBRANCH   1   2
BRANCH   1  28
ATOM     28  C   UNL A   1      36.294  21.160  25.226  1.00  0.00     0.002 C 
BRANCH  28  29
ATOM     29  C   UNL A   1      37.606  20.521  24.765  1.00  0.00     0.021 C 
BRANCH  29  30
ATOM     30  C   UNL A   1      38.776  20.793  25.701  1.00  0.00     0.116 C 
BRANCH  30  31
ATOM     31  N   UNL A   1      39.700  19.669  25.748  1.00  0.00    -0.352 N 
ATOM     32  C   UNL A   1      41.044  19.683  26.025  1.00  0.00     0.251 C 
ATOM     33  H   UNL A   1      39.310  18.785  25.556  1.00  0.00     0.163 HD
ATOM     34  O   UNL A   1      41.742  18.696  25.821  1.00  0.00    -0.269 OA
BRANCH  32  35
ATOM     35  C   UNL A   1      41.642  20.923  26.556  1.00  0.00     0.039 A 
ATOM     36  C   UNL A   1      42.119  21.890  25.670  1.00  0.00     0.014 A 
ATOM     37  C   UNL A   1      41.676  21.140  27.936  1.00  0.00     0.014 A 
ATOM     38  C   UNL A   1      42.575  23.111  26.170  1.00  0.00     0.010 A 
ATOM     39  C   UNL A   1      42.053  22.384  28.423  1.00  0.00     0.010 A 
ATOM     40  C   UNL A   1      42.511  23.380  27.546  1.00  0.00    -0.014 A 
BRANCH  40  41
ATOM     41  C   UNL A   1      42.942  24.681  28.115  1.00  0.00     0.031 A 
ATOM     42  C   UNL A   1      41.910  25.742  28.387  1.00  0.00     0.074 A 
ATOM     43  C   UNL A   1      44.250  24.942  28.301  1.00  0.00     0.049 A 
ATOM     44  N   UNL A   1      42.081  26.995  28.723  1.00  0.00    -0.248 NA
ATOM     45  C   UNL A   1      40.500  25.348  28.233  1.00  0.00     0.031 C 
ATOM     46  C   UNL A   1      45.350  24.006  28.060  1.00  0.00     0.029 A 
ATOM     47  N   UNL A   1      44.879  26.090  28.720  1.00  0.00    -0.354 N 
ATOM     48  C   UNL A   1      40.805  27.538  28.805  1.00  0.00     0.074 A 
ATOM     49  C   UNL A   1      39.874  26.498  28.427  1.00  0.00     0.031 C 
ATOM     50  C   UNL A   1      46.515  24.613  28.342  1.00  0.00     0.029 A 
ATOM     51  C   UNL A   1      46.250  25.995  28.732  1.00  0.00     0.049 A 
ATOM     52  H   UNL A   1      44.393  26.904  28.986  1.00  0.00     0.167 HD
ATOM     53  C   UNL A   1      40.438  28.782  29.186  1.00  0.00     0.031 A 
ATOM     54  C   UNL A   1      47.188  26.924  29.000  1.00  0.00     0.031 A 
ATOM     55  C   UNL A   1      41.363  29.815  29.565  1.00  0.00     0.049 A 
ATOM     56  C   UNL A   1      46.753  28.319  29.367  1.00  0.00     0.074 A 
ATOM     57  C   UNL A   1      41.089  31.104  29.985  1.00  0.00     0.029 A 
ATOM     58  N   UNL A   1      42.741  29.671  29.579  1.00  0.00    -0.354 N 
ATOM     59  N   UNL A   1      45.540  28.806  29.477  1.00  0.00    -0.248 NA
ATOM     60  C   UNL A   1      47.817  29.292  29.657  1.00  0.00     0.031 C 
ATOM     61  C   UNL A   1      42.304  31.757  30.206  1.00  0.00     0.029 A 
ATOM     62  C   UNL A   1      43.332  30.852  29.989  1.00  0.00     0.049 A 
ATOM     63  H   UNL A   1      43.226  28.850  29.333  1.00  0.00     0.167 HD
ATOM     64  C   UNL A   1      45.697  30.124  29.891  1.00  0.00     0.074 A 
ATOM     65  C   UNL A   1      47.119  30.357  30.022  1.00  0.00     0.031 C 
ATOM     66  C   UNL A   1      44.747  31.056  30.143  1.00  0.00     0.031 A 
BRANCH  53  67
ATOM     67  C   UNL A   1      38.968  29.094  29.218  1.00  0.00    -0.014 A 
ATOM     68  C   UNL A   1      38.224  28.945  30.400  1.00  0.00     0.009 A 
ATOM     69  C   UNL A   1      38.329  29.592  28.072  1.00  0.00     0.009 A 
ATOM     70  C   UNL A   1      36.864  29.257  30.424  1.00  0.00     0.001 A 
ATOM     71  C   UNL A   1      36.977  29.935  28.108  1.00  0.00     0.001 A 
ATOM     72  C   UNL A   1      36.244  29.759  29.282  1.00  0.00     0.000 A 
ENDBRANCH  53  67
BRANCH  54  73
ATOM     73  C   UNL A   1      48.635  26.588  28.915  1.00  0.00    -0.014 A 
ATOM     74  C   UNL A   1      49.339  26.160  30.051  1.00  0.00     0.009 A 
ATOM     75  C   UNL A   1      49.334  26.744  27.707  1.00  0.00     0.009 A 
ATOM     76  C   UNL A   1      50.719  25.944  29.992  1.00  0.00     0.001 A 
ATOM     77  C   UNL A   1      50.706  26.491  27.641  1.00  0.00     0.001 A 
ATOM     78  C   UNL A   1      51.400  26.108  28.788  1.00  0.00     0.000 A 
ENDBRANCH  54  73
BRANCH  66  79
ATOM     79  C   UNL A   1      45.201  32.394  30.659  1.00  0.00    -0.014 A 
ATOM     80  C   UNL A   1      45.466  33.465  29.794  1.00  0.00     0.009 A 
ATOM     81  C   UNL A   1      45.293  32.597  32.046  1.00  0.00     0.009 A 
ATOM     82  C   UNL A   1      45.836  34.710  30.309  1.00  0.00     0.001 A 
ATOM     83  C   UNL A   1      45.632  33.850  32.558  1.00  0.00     0.001 A 
ATOM     84  C   UNL A   1      45.911  34.903  31.689  1.00  0.00     0.000 A 
ENDBRANCH  66  79
ENDBRANCH  40  41
ENDBRANCH  32  35
ENDBRANCH  30  31
ENDBRANCH  29  30
ENDBRANCH  28  29
ENDBRANCH   1  28
TORSDOF 19
ENDMDL
MODEL 2
REMARK VINA RESULT:     -10.6      1.579      6.442
REMARK SMILES CC(C)(C)OC(=O)N[C@@H](C(=O)NCCCCCCNC(=O)c1ccc(-c2c3nc(c(-c4ccccc4)c4ccc([nH]4)c(-c4ccccc4)c4nc(c(-c5ccccc5)c5ccc2[nH]5)C=C4)C=C3)cc1)[C@H](O)c1ccccc1F
REMARK SMILES IDX 15 1 14 2 13 3 12 4 10 5 11 6 9 8 8 9 6 10 7 11 5 13 2 14
REMARK SMILES IDX 1 15 3 16 4 17 70 18 72 19 73 20 77 21 74 22 76 23 78 24
REMARK SMILES IDX 75 25 71 26 16 28 17 29 18 30 19 31 20 32 21 34 22 35 23 36
REMARK SMILES IDX 69 37 24 38 68 39 25 40 26 41 27 42 62 43 28 44 67 45 61 46
REMARK SMILES IDX 63 47 29 48 66 49 60 50 59 51 30 53 52 54 37 55 51 56 38 57
REMARK SMILES IDX 41 58 50 59 64 60 39 61 40 62 49 64 65 65 42 66 31 67 32 68
REMARK SMILES IDX 36 69 33 70 35 71 34 72 53 73 54 74 58 75 55 76 57 77 56 78
REMARK SMILES IDX 43 79 44 80 48 81 45 82 47 83 46 84
REMARK H PARENT 12 7 8 12 71 27 19 33 63 52 41 63
REMARK Flexibility Score: inf
ROOT
ATOM      1  C   UNL A   1      36.880  22.106  24.764  1.00  0.00     0.002 C 
ENDROOT
BRANCH   1   2
ATOM      2  C   UNL A   1      35.566  22.898  24.706  1.00  0.00     0.021 C 
BRANCH   2   3
ATOM      3  C   UNL A   1      35.285  23.683  25.989  1.00  0.00     0.116 C 
BRANCH   3   4
ATOM      4  N   UNL A   1      34.552  22.850  26.916  1.00  0.00    -0.354 N 
ATOM      5  C   UNL A   1      33.214  22.902  27.198  1.00  0.00     0.245 C 
ATOM      6  O   UNL A   1      32.884  22.553  28.333  1.00  0.00    -0.273 OA
ATOM      7  H   UNL A   1      35.074  22.169  27.398  1.00  0.00     0.163 HD
BRANCH   5   8
ATOM      8  C   UNL A   1      32.236  23.428  26.125  1.00  0.00     0.208 C 
BRANCH   8   9
ATOM      9  N   UNL A   1      31.453  24.521  26.721  1.00  0.00    -0.307 N 
ATOM     10  C   UNL A   1      31.233  25.759  26.204  1.00  0.00     0.408 C 
ATOM     11  O   UNL A   1      30.582  26.596  26.815  1.00  0.00    -0.225 OA
ATOM     12  H   UNL A   1      31.041  24.335  27.596  1.00  0.00     0.168 HD
BRANCH  10  13
ATOM     13  O   UNL A   1      31.836  25.949  25.006  1.00  0.00    -0.444 OA
BRANCH  13  14
ATOM     14  C   UNL A   1      32.828  26.994  24.821  1.00  0.00     0.106 C 
ATOM     15  C   UNL A   1      33.682  26.532  23.629  1.00  0.00     0.056 C 
ATOM     16  C   UNL A   1      33.750  27.122  26.042  1.00  0.00     0.056 C 
ATOM     17  C   UNL A   1      32.165  28.326  24.461  1.00  0.00     0.056 C 
ENDBRANCH  13  14
ENDBRANCH  10  13
ENDBRANCH   8   9
BRANCH   8  18
ATOM     18  C   UNL A   1      31.277  22.343  25.560  1.00  0.00     0.179 C 
BRANCH  18  19
ATOM     19  C   UNL A   1      31.951  21.118  24.972  1.00  0.00     0.019 A 
ATOM     20  C   UNL A   1      32.456  20.072  25.760  1.00  0.00     0.009 A 
ATOM     21  C   UNL A   1      32.096  21.007  23.584  1.00  0.00     0.129 A 
ATOM     22  C   UNL A   1      33.135  18.994  25.180  1.00  0.00     0.001 A 
ATOM     23  C   UNL A   1      32.746  19.924  22.996  1.00  0.00     0.039 A 
ATOM     24  F   UNL A   1      31.599  21.959  22.782  1.00  0.00    -0.207 F 
ATOM     25  C   UNL A   1      33.282  18.921  23.797  1.00  0.00     0.003 A 
ENDBRANCH  18  19
BRANCH  18  26
ATOM     26  O   UNL A   1      30.259  21.983  26.500  1.00  0.00    -0.386 OA
ATOM     27  H   UNL A   1      30.394  21.067  26.786  1.00  0.00     0.211 HD
ENDBRANCH  18  26
ENDBRANCH   8  18
ENDBRANCH   5   8
ENDBRANCH   3   4
ENDBRANCH   2   3
ENDBRANCH   1   2
BRANCH   1  28
ATOM     28  C   UNL A   1      36.703  20.599  24.981  1.00  0.00     0.002 C 
BRANCH  28  29
ATOM     29  C   UNL A   1      37.992  19.787  24.837  1.00  0.00     0.021 C 
BRANCH  29  30
ATOM     30  C   UNL A   1      39.090  20.214  25.801  1.00  0.00     0.116 C 
BRANCH  30  31
ATOM     31  N   UNL A   1      40.163  19.233  25.862  1.00  0.00    -0.352 N 
ATOM     32  C   UNL A   1      41.501  19.446  26.086  1.00  0.00     0.251 C 
ATOM     33  H   UNL A   1      39.896  18.295  25.726  1.00  0.00     0.163 HD
ATOM     34  O   UNL A   1      42.323  18.557  25.901  1.00  0.00    -0.269 OA
BRANCH  32  35
ATOM     35  C   UNL A   1      41.936  20.782  26.538  1.00  0.00     0.039 A 
ATOM     36  C   UNL A   1      42.400  21.707  25.602  1.00  0.00     0.014 A 
ATOM     37  C   UNL A   1      41.829  21.126  27.888  1.00  0.00     0.014 A 
ATOM     38  C   UNL A   1      42.699  23.007  26.013  1.00  0.00     0.010 A 
ATOM     39  C   UNL A   1      42.048  22.440  28.279  1.00  0.00     0.010 A 
ATOM     40  C   UNL A   1      42.490  23.392  27.346  1.00  0.00    -0.014 A 
BRANCH  40  41
ATOM     41  C   UNL A   1      42.750  24.776  27.816  1.00  0.00     0.031 A 
ATOM     42  C   UNL A   1      44.140  25.155  28.249  1.00  0.00     0.074 A 
ATOM     43  C   UNL A   1      41.737  25.655  27.936  1.00  0.00     0.049 A 
ATOM     44  N   UNL A   1      44.552  26.246  28.843  1.00  0.00    -0.248 NA
ATOM     45  C   UNL A   1      45.202  24.164  28.009  1.00  0.00     0.031 C 
ATOM     46  C   UNL A   1      40.343  25.406  27.566  1.00  0.00     0.029 A 
ATOM     47  N   UNL A   1      41.724  26.938  28.428  1.00  0.00    -0.354 N 
ATOM     48  C   UNL A   1      45.912  26.064  29.058  1.00  0.00     0.074 A 
ATOM     49  C   UNL A   1      46.245  24.738  28.588  1.00  0.00     0.031 C 
ATOM     50  C   UNL A   1      39.613  26.501  27.836  1.00  0.00     0.029 A 
ATOM     51  C   UNL A   1      40.474  27.509  28.447  1.00  0.00     0.049 A 
ATOM     52  H   UNL A   1      42.535  27.403  28.739  1.00  0.00     0.167 HD
ATOM     53  C   UNL A   1      46.810  26.932  29.577  1.00  0.00     0.031 A 
ATOM     54  C   UNL A   1      40.065  28.700  28.926  1.00  0.00     0.031 A 
ATOM     55  C   UNL A   1      46.481  28.251  30.042  1.00  0.00     0.049 A 
ATOM     56  C   UNL A   1      41.077  29.625  29.551  1.00  0.00     0.074 A 
ATOM     57  C   UNL A   1      47.323  29.214  30.568  1.00  0.00     0.029 A 
ATOM     58  N   UNL A   1      45.206  28.795  30.026  1.00  0.00    -0.354 N 
ATOM     59  N   UNL A   1      42.367  29.453  29.713  1.00  0.00    -0.248 NA
ATOM     60  C   UNL A   1      40.578  30.915  30.052  1.00  0.00     0.031 C 
ATOM     61  C   UNL A   1      46.550  30.324  30.917  1.00  0.00     0.029 A 
ATOM     62  C   UNL A   1      45.238  30.077  30.545  1.00  0.00     0.049 A 
ATOM     63  H   UNL A   1      44.400  28.338  29.696  1.00  0.00     0.167 HD
ATOM     64  C   UNL A   1      42.837  30.627  30.290  1.00  0.00     0.074 A 
ATOM     65  C   UNL A   1      41.697  31.506  30.442  1.00  0.00     0.031 C 
ATOM     66  C   UNL A   1      44.100  30.949  30.660  1.00  0.00     0.031 A 
BRANCH  53  67
ATOM     67  C   UNL A   1      48.242  26.482  29.664  1.00  0.00    -0.014 A 
ATOM     68  C   UNL A   1      49.156  26.782  28.640  1.00  0.00     0.009 A 
ATOM     69  C   UNL A   1      48.696  25.796  30.801  1.00  0.00     0.009 A 
ATOM     70  C   UNL A   1      50.488  26.378  28.740  1.00  0.00     0.001 A 
ATOM     71  C   UNL A   1      50.037  25.422  30.912  1.00  0.00     0.001 A 
ATOM     72  C   UNL A   1      50.929  25.705  29.878  1.00  0.00     0.000 A 
ENDBRANCH  53  67
BRANCH  54  73
ATOM     73  C   UNL A   1      38.631  29.091  28.862  1.00  0.00    -0.014 A 
ATOM     74  C   UNL A   1      38.099  29.677  27.702  1.00  0.00     0.009 A 
ATOM     75  C   UNL A   1      37.796  28.929  29.979  1.00  0.00     0.009 A 
ATOM     76  C   UNL A   1      36.780  30.138  27.680  1.00  0.00     0.001 A 
ATOM     77  C   UNL A   1      36.466  29.356  29.942  1.00  0.00     0.001 A 
ATOM     78  C   UNL A   1      35.965  29.975  28.798  1.00  0.00     0.000 A 
ENDBRANCH  54  73
BRANCH  66  79
ATOM     79  C   UNL A   1      44.340  32.334  31.193  1.00  0.00    -0.014 A 
ATOM     80  C   UNL A   1      44.620  33.412  30.342  1.00  0.00     0.009 A 
ATOM     81  C   UNL A   1      44.208  32.569  32.572  1.00  0.00     0.009 A 
ATOM     82  C   UNL A   1      44.788  34.696  30.866  1.00  0.00     0.001 A 
ATOM     83  C   UNL A   1      44.344  33.858  33.088  1.00  0.00     0.001 A 
ATOM     84  C   UNL A   1      44.642  34.919  32.235  1.00  0.00     0.000 A 
ENDBRANCH  66  79
ENDBRANCH  40  41
ENDBRANCH  32  35
ENDBRANCH  30  31
ENDBRANCH  29  30
ENDBRANCH  28  29
ENDBRANCH   1  28
TORSDOF 19
ENDMDL
MODEL 3
REMARK VINA RESULT:     -10.5      1.272      2.621
REMARK SMILES CC(C)(C)OC(=O)N[C@@H](C(=O)NCCCCCCNC(=O)c1ccc(-c2c3nc(c(-c4ccccc4)c4ccc([nH]4)c(-c4ccccc4)c4nc(c(-c5ccccc5)c5ccc2[nH]5)C=C4)C=C3)cc1)[C@H](O)c1ccccc1F
REMARK SMILES IDX 15 1 14 2 13 3 12 4 10 5 11 6 9 8 8 9 6 10 7 11 5 13 2 14
REMARK SMILES IDX 1 15 3 16 4 17 70 18 72 19 73 20 77 21 74 22 76 23 78 24
REMARK SMILES IDX 75 25 71 26 16 28 17 29 18 30 19 31 20 32 21 34 22 35 23 36
REMARK SMILES IDX 69 37 24 38 68 39 25 40 26 41 27 42 62 43 28 44 67 45 61 46
REMARK SMILES IDX 63 47 29 48 66 49 60 50 59 51 30 53 52 54 37 55 51 56 38 57
REMARK SMILES IDX 41 58 50 59 64 60 39 61 40 62 49 64 65 65 42 66 31 67 32 68
REMARK SMILES IDX 36 69 33 70 35 71 34 72 53 73 54 74 58 75 55 76 57 77 56 78
REMARK SMILES IDX 43 79 44 80 48 81 45 82 47 83 46 84
REMARK H PARENT 12 7 8 12 71 27 19 33 63 52 41 63
REMARK Flexibility Score: inf
ROOT
ATOM      1  C   UNL A   1      35.351  21.808  24.635  1.00  0.00     0.002 C 
ENDROOT
BRANCH   1   2
ATOM      2  C   UNL A   1      35.954  23.203  24.857  1.00  0.00     0.021 C 
BRANCH   2   3
ATOM      3  C   UNL A   1      35.242  23.991  25.960  1.00  0.00     0.116 C 
BRANCH   3   4
ATOM      4  N   UNL A   1      34.506  23.081  26.808  1.00  0.00    -0.354 N 
ATOM      5  C   UNL A   1      33.184  23.156  27.154  1.00  0.00     0.245 C 
ATOM      6  O   UNL A   1      32.882  22.682  28.250  1.00  0.00    -0.273 OA
ATOM      7  H   UNL A   1      35.012  22.322  27.177  1.00  0.00     0.163 HD
BRANCH   5   8
ATOM      8  C   UNL A   1      32.192  23.855  26.199  1.00  0.00     0.208 C 
BRANCH   8   9
ATOM      9  N   UNL A   1      31.578  24.978  26.925  1.00  0.00    -0.307 N 
ATOM     10  C   UNL A   1      31.424  26.257  26.494  1.00  0.00     0.408 C 
ATOM     11  O   UNL A   1      30.919  27.113  27.209  1.00  0.00    -0.225 OA
ATOM     12  H   UNL A   1      31.240  24.779  27.829  1.00  0.00     0.168 HD
BRANCH  10  13
ATOM     13  O   UNL A   1      31.920  26.462  25.250  1.00  0.00    -0.444 OA
BRANCH  13  14
ATOM     14  C   UNL A   1      31.058  26.874  24.156  1.00  0.00     0.106 C 
ATOM     15  C   UNL A   1      31.820  26.487  22.876  1.00  0.00     0.056 C 
ATOM     16  C   UNL A   1      30.850  28.395  24.141  1.00  0.00     0.056 C 
ATOM     17  C   UNL A   1      29.729  26.114  24.182  1.00  0.00     0.056 C 
ENDBRANCH  13  14
ENDBRANCH  10  13
ENDBRANCH   8   9
BRANCH   8  18
ATOM     18  C   UNL A   1      31.082  22.918  25.645  1.00  0.00     0.179 C 
BRANCH  18  19
ATOM     19  C   UNL A   1      31.552  21.853  24.675  1.00  0.00     0.019 A 
ATOM     20  C   UNL A   1      31.978  20.579  25.085  1.00  0.00     0.009 A 
ATOM     21  C   UNL A   1      31.580  22.130  23.303  1.00  0.00     0.129 A 
ATOM     22  C   UNL A   1      32.471  19.651  24.162  1.00  0.00     0.001 A 
ATOM     23  C   UNL A   1      32.044  21.201  22.373  1.00  0.00     0.039 A 
ATOM     24  F   UNL A   1      31.150  23.316  22.852  1.00  0.00    -0.207 F 
ATOM     25  C   UNL A   1      32.507  19.962  22.806  1.00  0.00     0.003 A 
ENDBRANCH  18  19
BRANCH  18  26
ATOM     26  O   UNL A   1      30.279  22.361  26.691  1.00  0.00    -0.386 OA
ATOM     27  H   UNL A   1      30.323  21.393  26.650  1.00  0.00     0.211 HD
ENDBRANCH  18  26
ENDBRANCH   8  18
ENDBRANCH   5   8
ENDBRANCH   3   4
ENDBRANCH   2   3
ENDBRANCH   1   2
BRANCH   1  28
ATOM     28  C   UNL A   1      36.263  20.649  25.052  1.00  0.00     0.002 C 
BRANCH  28  29
ATOM     29  C   UNL A   1      37.722  20.812  24.624  1.00  0.00     0.021 C 
BRANCH  29  30
ATOM     30  C   UNL A   1      38.693  20.894  25.793  1.00  0.00     0.116 C 
BRANCH  30  31
ATOM     31  N   UNL A   1      39.647  19.795  25.779  1.00  0.00    -0.352 N 
ATOM     32  C   UNL A   1      40.997  19.834  26.025  1.00  0.00     0.251 C 
ATOM     33  H   UNL A   1      39.276  18.908  25.567  1.00  0.00     0.163 HD
ATOM     34  O   UNL A   1      41.715  18.874  25.771  1.00  0.00    -0.269 OA
BRANCH  32  35
ATOM     35  C   UNL A   1      41.576  21.071  26.584  1.00  0.00     0.039 A 
ATOM     36  C   UNL A   1      42.067  22.051  25.720  1.00  0.00     0.014 A 
ATOM     37  C   UNL A   1      41.579  21.271  27.967  1.00  0.00     0.014 A 
ATOM     38  C   UNL A   1      42.504  23.269  26.244  1.00  0.00     0.010 A 
ATOM     39  C   UNL A   1      41.938  22.511  28.477  1.00  0.00     0.010 A 
ATOM     40  C   UNL A   1      42.409  23.521  27.622  1.00  0.00    -0.014 A 
BRANCH  40  41
ATOM     41  C   UNL A   1      42.820  24.817  28.215  1.00  0.00     0.031 A 
ATOM     42  C   UNL A   1      41.787  25.892  28.419  1.00  0.00     0.074 A 
ATOM     43  C   UNL A   1      44.116  25.060  28.486  1.00  0.00     0.049 A 
ATOM     44  N   UNL A   1      41.953  27.143  28.763  1.00  0.00    -0.248 NA
ATOM     45  C   UNL A   1      40.385  25.517  28.175  1.00  0.00     0.031 C 
ATOM     46  C   UNL A   1      45.216  24.109  28.318  1.00  0.00     0.029 A 
ATOM     47  N   UNL A   1      44.732  26.201  28.943  1.00  0.00    -0.354 N 
ATOM     48  C   UNL A   1      40.682  27.704  28.762  1.00  0.00     0.074 A 
ATOM     49  C   UNL A   1      39.764  26.676  28.326  1.00  0.00     0.031 C 
ATOM     50  C   UNL A   1      46.369  24.701  28.674  1.00  0.00     0.029 A 
ATOM     51  C   UNL A   1      46.099  26.087  29.044  1.00  0.00     0.049 A 
ATOM     52  H   UNL A   1      44.241  27.022  29.176  1.00  0.00     0.167 HD
ATOM     53  C   UNL A   1      40.308  28.954  29.116  1.00  0.00     0.031 A 
ATOM     54  C   UNL A   1      47.029  27.004  29.371  1.00  0.00     0.031 A 
ATOM     55  C   UNL A   1      41.220  29.975  29.553  1.00  0.00     0.049 A 
ATOM     56  C   UNL A   1      46.591  28.406  29.708  1.00  0.00     0.074 A 
ATOM     57  C   UNL A   1      40.938  31.269  29.952  1.00  0.00     0.029 A 
ATOM     58  N   UNL A   1      42.593  29.812  29.657  1.00  0.00    -0.354 N 
ATOM     59  N   UNL A   1      45.380  28.910  29.738  1.00  0.00    -0.248 NA
ATOM     60  C   UNL A   1      47.647  29.365  30.064  1.00  0.00     0.031 C 
ATOM     61  C   UNL A   1      42.145  31.906  30.251  1.00  0.00     0.029 A 
ATOM     62  C   UNL A   1      43.171  30.987  30.102  1.00  0.00     0.049 A 
ATOM     63  H   UNL A   1      43.082  28.985  29.444  1.00  0.00     0.167 HD
ATOM     64  C   UNL A   1      45.528  30.226  30.159  1.00  0.00     0.074 A 
ATOM     65  C   UNL A   1      46.942  30.441  30.382  1.00  0.00     0.031 C 
ATOM     66  C   UNL A   1      44.577  31.172  30.347  1.00  0.00     0.031 A 
BRANCH  53  67
ATOM     67  C   UNL A   1      38.844  29.286  29.053  1.00  0.00    -0.014 A 
ATOM     68  C   UNL A   1      38.251  29.710  27.852  1.00  0.00     0.009 A 
ATOM     69  C   UNL A   1      38.036  29.126  30.189  1.00  0.00     0.009 A 
ATOM     70  C   UNL A   1      36.886  29.996  27.798  1.00  0.00     0.001 A 
ATOM     71  C   UNL A   1      36.665  29.381  30.124  1.00  0.00     0.001 A 
ATOM     72  C   UNL A   1      36.093  29.824  28.931  1.00  0.00     0.000 A 
ENDBRANCH  53  67
BRANCH  54  73
ATOM     73  C   UNL A   1      48.474  26.648  29.380  1.00  0.00    -0.014 A 
ATOM     74  C   UNL A   1      49.050  26.016  30.494  1.00  0.00     0.009 A 
ATOM     75  C   UNL A   1      49.300  26.987  28.296  1.00  0.00     0.009 A 
ATOM     76  C   UNL A   1      50.426  25.776  30.542  1.00  0.00     0.001 A 
ATOM     77  C   UNL A   1      50.669  26.711  28.331  1.00  0.00     0.001 A 
ATOM     78  C   UNL A   1      51.233  26.122  29.461  1.00  0.00     0.000 A 
ENDBRANCH  54  73
BRANCH  66  79
ATOM     79  C   UNL A   1      45.015  32.504  30.890  1.00  0.00    -0.014 A 
ATOM     80  C   UNL A   1      45.111  32.741  32.269  1.00  0.00     0.009 A 
ATOM     81  C   UNL A   1      45.407  33.513  29.995  1.00  0.00     0.009 A 
ATOM     82  C   UNL A   1      45.570  33.973  32.740  1.00  0.00     0.001 A 
ATOM     83  C   UNL A   1      45.894  34.731  30.469  1.00  0.00     0.001 A 
ATOM     84  C   UNL A   1      45.968  34.963  31.841  1.00  0.00     0.000 A 
ENDBRANCH  66  79
ENDBRANCH  40  41
ENDBRANCH  32  35
ENDBRANCH  30  31
ENDBRANCH  29  30
ENDBRANCH  28  29
ENDBRANCH   1  28
TORSDOF 19
ENDMDL
