MODEL 1
REMARK VINA RESULT:     -12.2      0.000      0.000
REMARK SMILES [NH3+][C@@]1(C(=O)NCCCCCCNC(=O)c2ccc(-c3c4nc(c(-c5ccccc5)c5ccc([nH]5)c(-c5ccccc5)c5nc(c(-c6ccccc6)c6ccc3[nH]6)C=C5)C=C4)cc2)CC[N@H+](Cc2ccc(OCC(=O)N3CCCCC3)cc2)C1
REMARK SMILES IDX 7 1 6 2 5 3 3 4 4 5 2 7 63 8 83 9 64 10 65 11 1 13 66 17
REMARK SMILES IDX 67 18 68 19 82 20 69 21 81 22 70 23 71 24 72 25 73 26 74 27
REMARK SMILES IDX 75 28 76 29 80 30 77 31 79 32 78 33 8 34 9 35 10 36 11 37
REMARK SMILES IDX 12 38 13 39 14 41 15 42 16 43 62 44 17 45 61 46 18 47 19 48
REMARK SMILES IDX 20 49 55 50 21 51 60 52 54 53 56 54 22 55 59 56 53 57 52 58
REMARK SMILES IDX 23 60 45 61 30 62 44 63 31 64 34 65 43 66 57 67 32 68 33 69
REMARK SMILES IDX 42 71 58 72 35 73 24 74 25 75 29 76 26 77 28 78 27 79 46 80
REMARK SMILES IDX 47 81 51 82 48 83 50 84 49 85 36 86 37 87 41 88 38 89 40 90
REMARK SMILES IDX 39 91
REMARK H PARENT 5 6 65 12 1 14 1 15 1 16 12 40 56 59 34 70
REMARK Flexibility Score: inf
ROOT
ATOM      1  C   UNL A   1      36.483  23.768  25.008  1.00  0.00     0.021 C 
ENDROOT
BRANCH   1   2
ATOM      2  C   UNL A   1      34.687  24.939  25.438  1.00  0.00     0.116 C 
BRANCH   2   3
ATOM      3  N   UNL A   1      33.337  24.813  26.099  1.00  0.00    -0.350 N 
ATOM      4  C   UNL A   1      32.479  25.892  26.195  1.00  0.00     0.287 C 
ATOM      5  O   UNL A   1      31.358  25.667  26.679  1.00  0.00    -0.268 OA
ATOM      6  H   UNL A   1      33.062  23.945  26.472  1.00  0.00     0.163 HD
BRANCH   4   7
ATOM      7  C   UNL A   1      32.818  27.394  25.646  1.00  0.00     0.228 C 
ATOM      8  C   UNL A   1      31.720  28.398  26.028  1.00  0.00     0.146 C 
ATOM      9  C   UNL A   1      33.043  27.711  24.136  1.00  0.00     0.342 C 
ATOM     10  C   UNL A   1      31.038  28.847  24.731  1.00  0.00     0.270 C 
ATOM     11  N   UNL A   1      31.833  28.369  23.610  1.00  0.00    -0.325 N 
ATOM     12  H   UNL A   1      32.195  29.148  23.060  1.00  0.00     0.348 HD
BRANCH   7  13
ATOM     13  N   UNL A   1      34.065  27.764  26.399  1.00  0.00    -0.340 N 
ATOM     14  H   UNL A   1      33.815  28.089  27.333  1.00  0.00     0.345 HD
ATOM     15  H   UNL A   1      34.556  28.507  25.900  1.00  0.00     0.345 HD
ATOM     16  H   UNL A   1      34.673  26.948  26.475  1.00  0.00     0.345 HD
ENDBRANCH   7  13
BRANCH  11  17
ATOM     17  C   UNL A   1      31.121  27.877  22.418  1.00  0.00     0.299 C 
BRANCH  17  18
ATOM     18  C   UNL A   1      31.132  26.353  22.230  1.00  0.00     0.006 A 
ATOM     19  C   UNL A   1      32.639  25.704  21.471  1.00  0.00     0.013 A 
ATOM     20  C   UNL A   1      30.172  25.328  23.390  1.00  0.00     0.013 A 
ATOM     21  C   UNL A   1      33.304  24.123  22.023  1.00  0.00     0.047 A 
ATOM     22  C   UNL A   1      30.865  23.746  23.947  1.00  0.00     0.047 A 
ATOM     23  C   UNL A   1      32.405  23.132  23.219  1.00  0.00     0.120 A 
BRANCH  23  24
ATOM     24  O   UNL A   1      32.972  21.920  23.455  1.00  0.00    -0.484 OA
BRANCH  24  25
ATOM     25  C   UNL A   1      33.397  21.646  24.774  1.00  0.00     0.329 C 
BRANCH  25  26
ATOM     26  C   UNL A   1      34.267  20.403  24.896  1.00  0.00     0.260 C 
ATOM     27  O   UNL A   1      35.444  20.530  25.247  1.00  0.00    -0.271 OA
ATOM     28  N   UNL A   1      33.683  19.166  24.661  1.00  0.00    -0.340 N 
ATOM     29  C   UNL A   1      34.482  17.965  24.860  1.00  0.00     0.119 C 
ATOM     30  C   UNL A   1      32.332  18.908  24.149  1.00  0.00     0.119 C 
ATOM     31  C   UNL A   1      34.639  17.215  23.544  1.00  0.00     0.022 C 
ATOM     32  C   UNL A   1      32.394  18.156  22.819  1.00  0.00     0.022 C 
ATOM     33  C   UNL A   1      33.278  16.910  22.914  1.00  0.00     0.004 C 
ENDBRANCH  25  26
ENDBRANCH  24  25
ENDBRANCH  23  24
ENDBRANCH  17  18
ENDBRANCH  11  17
ENDBRANCH   4   7
ENDBRANCH   2   3
ENDBRANCH   1   2
BRANCH   1  34
ATOM     34  C   UNL A   1      37.874  23.277  25.910  1.00  0.00     0.002 C 
BRANCH  34  35
ATOM     35  C   UNL A   1      38.475  21.869  25.742  1.00  0.00     0.002 C 
BRANCH  35  36
ATOM     36  C   UNL A   1      39.953  21.746  26.085  1.00  0.00     0.021 C 
BRANCH  36  37
ATOM     37  C   UNL A   1      40.322  20.409  26.705  1.00  0.00     0.116 C 
BRANCH  37  38
ATOM     38  N   UNL A   1      41.512  19.827  26.088  1.00  0.00    -0.352 N 
ATOM     39  C   UNL A   1      42.713  20.413  25.797  1.00  0.00     0.251 C 
ATOM     40  H   UNL A   1      41.439  18.875  25.847  1.00  0.00     0.163 HD
ATOM     41  O   UNL A   1      43.541  19.858  25.085  1.00  0.00    -0.269 OA
BRANCH  39  42
ATOM     42  C   UNL A   1      42.976  21.741  26.360  1.00  0.00     0.039 A 
ATOM     43  C   UNL A   1      43.127  22.830  25.503  1.00  0.00     0.014 A 
ATOM     44  C   UNL A   1      42.978  21.899  27.749  1.00  0.00     0.014 A 
ATOM     45  C   UNL A   1      43.232  24.103  26.051  1.00  0.00     0.010 A 
ATOM     46  C   UNL A   1      42.967  23.172  28.284  1.00  0.00     0.010 A 
ATOM     47  C   UNL A   1      43.122  24.281  27.442  1.00  0.00    -0.014 A 
BRANCH  47  48
ATOM     48  C   UNL A   1      43.219  25.623  28.047  1.00  0.00     0.031 A 
ATOM     49  C   UNL A   1      44.564  26.137  28.474  1.00  0.00     0.074 A 
ATOM     50  C   UNL A   1      42.099  26.338  28.256  1.00  0.00     0.049 A 
ATOM     51  N   UNL A   1      44.868  27.274  29.043  1.00  0.00    -0.248 NA
ATOM     52  C   UNL A   1      45.716  25.240  28.273  1.00  0.00     0.031 C 
ATOM     53  C   UNL A   1      40.736  25.896  27.942  1.00  0.00     0.029 A 
ATOM     54  N   UNL A   1      41.929  27.591  28.779  1.00  0.00    -0.354 N 
ATOM     55  C   UNL A   1      46.233  27.213  29.289  1.00  0.00     0.074 A 
ATOM     56  C   UNL A   1      46.688  25.907  28.873  1.00  0.00     0.031 C 
ATOM     57  C   UNL A   1      39.876  26.885  28.234  1.00  0.00     0.029 A 
ATOM     58  C   UNL A   1      40.622  28.013  28.781  1.00  0.00     0.049 A 
ATOM     59  H   UNL A   1      42.673  28.139  29.121  1.00  0.00     0.167 HD
ATOM     60  C   UNL A   1      47.044  28.175  29.785  1.00  0.00     0.031 A 
ATOM     61  C   UNL A   1      40.095  29.187  29.170  1.00  0.00     0.031 A 
ATOM     62  C   UNL A   1      46.583  29.482  30.159  1.00  0.00     0.049 A 
ATOM     63  C   UNL A   1      41.021  30.256  29.676  1.00  0.00     0.074 A 
ATOM     64  C   UNL A   1      47.319  30.563  30.606  1.00  0.00     0.029 A 
ATOM     65  N   UNL A   1      45.256  29.883  30.120  1.00  0.00    -0.354 N 
ATOM     66  N   UNL A   1      42.323  30.217  29.827  1.00  0.00    -0.248 NA
ATOM     67  C   UNL A   1      40.407  31.537  30.049  1.00  0.00     0.031 C 
ATOM     68  C   UNL A   1      46.429  31.609  30.874  1.00  0.00     0.029 A 
ATOM     69  C   UNL A   1      45.147  31.193  30.550  1.00  0.00     0.049 A 
ATOM     70  H   UNL A   1      44.503  29.319  29.829  1.00  0.00     0.167 HD
ATOM     71  C   UNL A   1      42.689  31.471  30.294  1.00  0.00     0.074 A 
ATOM     72  C   UNL A   1      41.472  32.254  30.379  1.00  0.00     0.031 C 
ATOM     73  C   UNL A   1      43.917  31.938  30.626  1.00  0.00     0.031 A 
BRANCH  60  74
ATOM     74  C   UNL A   1      48.500  27.837  29.938  1.00  0.00    -0.014 A 
ATOM     75  C   UNL A   1      48.996  27.276  31.127  1.00  0.00     0.009 A 
ATOM     76  C   UNL A   1      49.390  28.083  28.882  1.00  0.00     0.009 A 
ATOM     77  C   UNL A   1      50.358  27.009  31.269  1.00  0.00     0.001 A 
ATOM     78  C   UNL A   1      50.747  27.786  29.016  1.00  0.00     0.001 A 
ATOM     79  C   UNL A   1      51.233  27.259  30.213  1.00  0.00     0.000 A 
ENDBRANCH  60  74
BRANCH  61  80
ATOM     80  C   UNL A   1      38.634  29.425  29.048  1.00  0.00    -0.014 A 
ATOM     81  C   UNL A   1      38.069  29.745  27.804  1.00  0.00     0.009 A 
ATOM     82  C   UNL A   1      37.794  29.322  30.168  1.00  0.00     0.009 A 
ATOM     83  C   UNL A   1      36.697  29.983  27.689  1.00  0.00     0.001 A 
ATOM     84  C   UNL A   1      36.419  29.535  30.045  1.00  0.00     0.001 A 
ATOM     85  C   UNL A   1      35.873  29.875  28.807  1.00  0.00     0.000 A 
ENDBRANCH  61  80
BRANCH  73  86
ATOM     86  C   UNL A   1      43.998  33.361  31.092  1.00  0.00    -0.014 A 
ATOM     87  C   UNL A   1      44.004  34.423  30.175  1.00  0.00     0.009 A 
ATOM     88  C   UNL A   1      44.028  33.641  32.466  1.00  0.00     0.009 A 
ATOM     89  C   UNL A   1      44.074  35.740  30.627  1.00  0.00     0.001 A 
ATOM     90  C   UNL A   1      44.068  34.961  32.916  1.00  0.00     0.001 A 
ATOM     91  C   UNL A   1      44.101  36.008  31.996  1.00  0.00     0.000 A 
ENDBRANCH  73  86
ENDBRANCH  47  48
ENDBRANCH  39  42
ENDBRANCH  37  38
ENDBRANCH  36  37
ENDBRANCH  35  36
ENDBRANCH  34  35
ENDBRANCH   1  34
TORSDOF 19
ENDMDL
MODEL 2
REMARK VINA RESULT:     -12.0      5.245      9.715
REMARK SMILES [NH3+][C@@]1(C(=O)NCCCCCCNC(=O)c2ccc(-c3c4nc(c(-c5ccccc5)c5ccc([nH]5)c(-c5ccccc5)c5nc(c(-c6ccccc6)c6ccc3[nH]6)C=C5)C=C4)cc2)CC[N@H+](Cc2ccc(OCC(=O)N3CCCCC3)cc2)C1
REMARK SMILES IDX 7 1 6 2 5 3 3 4 4 5 2 7 63 8 83 9 64 10 65 11 1 13 66 17
REMARK SMILES IDX 67 18 68 19 82 20 69 21 81 22 70 23 71 24 72 25 73 26 74 27
REMARK SMILES IDX 75 28 76 29 80 30 77 31 79 32 78 33 8 34 9 35 10 36 11 37
REMARK SMILES IDX 12 38 13 39 14 41 15 42 16 43 62 44 17 45 61 46 18 47 19 48
REMARK SMILES IDX 20 49 55 50 21 51 60 52 54 53 56 54 22 55 59 56 53 57 52 58
REMARK SMILES IDX 23 60 45 61 30 62 44 63 31 64 34 65 43 66 57 67 32 68 33 69
REMARK SMILES IDX 42 71 58 72 35 73 24 74 25 75 29 76 26 77 28 78 27 79 46 80
REMARK SMILES IDX 47 81 51 82 48 83 50 84 49 85 36 86 37 87 41 88 38 89 40 90
REMARK SMILES IDX 39 91
REMARK H PARENT 5 6 65 12 1 14 1 15 1 16 12 40 56 59 34 70
REMARK Flexibility Score: inf
ROOT
ATOM      1  C   UNL A   1      45.931  24.808  29.122  1.00  0.00     0.021 C 
ENDROOT
BRANCH   1   2
ATOM      2  C   UNL A   1      44.929  23.260  27.946  1.00  0.00     0.116 C 
BRANCH   2   3
ATOM      3  N   UNL A   1      44.200  23.070  26.639  1.00  0.00    -0.350 N 
ATOM      4  C   UNL A   1      42.823  23.144  26.565  1.00  0.00     0.287 C 
ATOM      5  O   UNL A   1      42.322  23.058  25.433  1.00  0.00    -0.268 OA
ATOM      6  H   UNL A   1      44.717  22.887  25.822  1.00  0.00     0.163 HD
BRANCH   4   7
ATOM      7  C   UNL A   1      41.842  23.412  27.846  1.00  0.00     0.228 C 
ATOM      8  C   UNL A   1      40.362  23.424  27.434  1.00  0.00     0.146 C 
ATOM      9  C   UNL A   1      41.946  24.688  28.737  1.00  0.00     0.342 C 
ATOM     10  C   UNL A   1      39.842  24.852  27.638  1.00  0.00     0.270 C 
ATOM     11  N   UNL A   1      40.845  25.601  28.379  1.00  0.00    -0.325 N 
ATOM     12  H   UNL A   1      40.479  25.909  29.280  1.00  0.00     0.348 HD
BRANCH   7  13
ATOM     13  N   UNL A   1      42.070  22.207  28.714  1.00  0.00    -0.340 N 
ATOM     14  H   UNL A   1      41.571  22.324  29.596  1.00  0.00     0.345 HD
ATOM     15  H   UNL A   1      43.069  22.105  28.900  1.00  0.00     0.345 HD
ATOM     16  H   UNL A   1      41.728  21.373  28.237  1.00  0.00     0.345 HD
ENDBRANCH   7  13
BRANCH  11  17
ATOM     17  C   UNL A   1      41.074  27.007  28.006  1.00  0.00     0.299 C 
BRANCH  17  18
ATOM     18  C   UNL A   1      40.335  28.041  28.868  1.00  0.00     0.006 A 
ATOM     19  C   UNL A   1      38.930  28.831  28.048  1.00  0.00     0.013 A 
ATOM     20  C   UNL A   1      40.345  27.831  30.677  1.00  0.00     0.013 A 
ATOM     21  C   UNL A   1      37.449  29.218  28.998  1.00  0.00     0.047 A 
ATOM     22  C   UNL A   1      38.838  28.212  31.615  1.00  0.00     0.047 A 
ATOM     23  C   UNL A   1      37.417  28.952  30.772  1.00  0.00     0.120 A 
BRANCH  23  24
ATOM     24  O   UNL A   1      36.277  29.391  31.366  1.00  0.00    -0.484 OA
BRANCH  24  25
ATOM     25  C   UNL A   1      36.392  30.452  32.293  1.00  0.00     0.329 C 
BRANCH  25  26
ATOM     26  C   UNL A   1      36.011  31.811  31.727  1.00  0.00     0.260 C 
ATOM     27  O   UNL A   1      34.816  32.116  31.660  1.00  0.00    -0.271 OA
ATOM     28  N   UNL A   1      37.028  32.679  31.357  1.00  0.00    -0.340 N 
ATOM     29  C   UNL A   1      36.677  34.015  30.896  1.00  0.00     0.119 C 
ATOM     30  C   UNL A   1      38.465  32.386  31.303  1.00  0.00     0.119 C 
ATOM     31  C   UNL A   1      37.117  34.204  29.450  1.00  0.00     0.022 C 
ATOM     32  C   UNL A   1      38.995  32.549  29.878  1.00  0.00     0.022 C 
ATOM     33  C   UNL A   1      38.608  33.904  29.281  1.00  0.00     0.004 C 
ENDBRANCH  25  26
ENDBRANCH  24  25
ENDBRANCH  23  24
ENDBRANCH  17  18
ENDBRANCH  11  17
ENDBRANCH   4   7
ENDBRANCH   2   3
ENDBRANCH   1   2
BRANCH   1  34
ATOM     34  C   UNL A   1      47.340  25.788  28.914  1.00  0.00     0.002 C 
BRANCH  34  35
ATOM     35  C   UNL A   1      48.638  25.203  28.326  1.00  0.00     0.002 C 
BRANCH  35  36
ATOM     36  C   UNL A   1      48.747  25.252  26.809  1.00  0.00     0.021 C 
BRANCH  36  37
ATOM     37  C   UNL A   1      47.402  25.338  26.107  1.00  0.00     0.116 C 
BRANCH  37  38
ATOM     38  N   UNL A   1      47.460  26.174  24.909  1.00  0.00    -0.352 N 
ATOM     39  C   UNL A   1      46.797  27.337  24.631  1.00  0.00     0.251 C 
ATOM     40  H   UNL A   1      48.063  25.853  24.201  1.00  0.00     0.163 HD
ATOM     41  O   UNL A   1      46.781  27.811  23.502  1.00  0.00    -0.269 OA
BRANCH  39  42
ATOM     42  C   UNL A   1      46.091  27.998  25.734  1.00  0.00     0.039 A 
ATOM     43  C   UNL A   1      44.723  27.785  25.896  1.00  0.00     0.014 A 
ATOM     44  C   UNL A   1      46.826  28.756  26.650  1.00  0.00     0.014 A 
ATOM     45  C   UNL A   1      44.095  28.300  27.024  1.00  0.00     0.010 A 
ATOM     46  C   UNL A   1      46.224  29.166  27.823  1.00  0.00     0.010 A 
ATOM     47  C   UNL A   1      44.849  28.966  28.006  1.00  0.00    -0.014 A 
BRANCH  47  48
ATOM     48  C   UNL A   1      44.208  29.512  29.218  1.00  0.00     0.031 A 
ATOM     49  C   UNL A   1      43.800  30.957  29.241  1.00  0.00     0.074 A 
ATOM     50  C   UNL A   1      44.053  28.724  30.296  1.00  0.00     0.049 A 
ATOM     51  N   UNL A   1      43.244  31.639  30.207  1.00  0.00    -0.248 NA
ATOM     52  C   UNL A   1      44.090  31.753  28.034  1.00  0.00     0.031 C 
ATOM     53  C   UNL A   1      44.482  27.326  30.399  1.00  0.00     0.029 A 
ATOM     54  N   UNL A   1      43.484  28.986  31.514  1.00  0.00    -0.354 N 
ATOM     55  C   UNL A   1      43.145  32.941  29.732  1.00  0.00     0.074 A 
ATOM     56  C   UNL A   1      43.757  32.971  28.425  1.00  0.00     0.031 C 
ATOM     57  C   UNL A   1      44.117  26.841  31.596  1.00  0.00     0.029 A 
ATOM     58  C   UNL A   1      43.458  27.900  32.353  1.00  0.00     0.049 A 
ATOM     59  H   UNL A   1      43.129  29.870  31.764  1.00  0.00     0.167 HD
ATOM     60  C   UNL A   1      42.562  34.010  30.321  1.00  0.00     0.031 A 
ATOM     61  C   UNL A   1      42.942  27.775  33.589  1.00  0.00     0.031 A 
ATOM     62  C   UNL A   1      41.925  33.956  31.605  1.00  0.00     0.049 A 
ATOM     63  C   UNL A   1      42.261  28.965  34.204  1.00  0.00     0.074 A 
ATOM     64  C   UNL A   1      41.238  34.953  32.273  1.00  0.00     0.029 A 
ATOM     65  N   UNL A   1      41.891  32.830  32.414  1.00  0.00    -0.354 N 
ATOM     66  N   UNL A   1      42.100  30.170  33.711  1.00  0.00    -0.248 NA
ATOM     67  C   UNL A   1      41.675  28.772  35.536  1.00  0.00     0.031 C 
ATOM     68  C   UNL A   1      40.822  34.438  33.506  1.00  0.00     0.029 A 
ATOM     69  C   UNL A   1      41.209  33.110  33.584  1.00  0.00     0.049 A 
ATOM     70  H   UNL A   1      42.293  31.959  32.188  1.00  0.00     0.167 HD
ATOM     71  C   UNL A   1      41.378  30.875  34.663  1.00  0.00     0.074 A 
ATOM     72  C   UNL A   1      41.114  29.954  35.752  1.00  0.00     0.031 C 
ATOM     73  C   UNL A   1      40.970  32.168  34.647  1.00  0.00     0.031 A 
BRANCH  60  74
ATOM     74  C   UNL A   1      42.591  35.311  29.569  1.00  0.00    -0.014 A 
ATOM     75  C   UNL A   1      41.646  35.595  28.569  1.00  0.00     0.009 A 
ATOM     76  C   UNL A   1      43.576  36.266  29.862  1.00  0.00     0.009 A 
ATOM     77  C   UNL A   1      41.714  36.789  27.848  1.00  0.00     0.001 A 
ATOM     78  C   UNL A   1      43.623  37.473  29.161  1.00  0.00     0.001 A 
ATOM     79  C   UNL A   1      42.699  37.729  28.148  1.00  0.00     0.000 A 
ENDBRANCH  60  74
BRANCH  61  80
ATOM     80  C   UNL A   1      43.008  26.472  34.297  1.00  0.00    -0.014 A 
ATOM     81  C   UNL A   1      41.835  25.862  34.770  1.00  0.00     0.009 A 
ATOM     82  C   UNL A   1      44.236  25.823  34.493  1.00  0.00     0.009 A 
ATOM     83  C   UNL A   1      41.896  24.643  35.449  1.00  0.00     0.001 A 
ATOM     84  C   UNL A   1      44.291  24.591  35.149  1.00  0.00     0.001 A 
ATOM     85  C   UNL A   1      43.121  24.006  35.634  1.00  0.00     0.000 A 
ENDBRANCH  61  80
BRANCH  73  86
ATOM     86  C   UNL A   1      40.185  32.646  35.831  1.00  0.00    -0.014 A 
ATOM     87  C   UNL A   1      38.783  32.591  35.839  1.00  0.00     0.009 A 
ATOM     88  C   UNL A   1      40.859  33.119  36.967  1.00  0.00     0.009 A 
ATOM     89  C   UNL A   1      38.069  33.035  36.952  1.00  0.00     0.001 A 
ATOM     90  C   UNL A   1      40.143  33.535  38.090  1.00  0.00     0.001 A 
ATOM     91  C   UNL A   1      38.750  33.502  38.077  1.00  0.00     0.000 A 
ENDBRANCH  73  86
ENDBRANCH  47  48
ENDBRANCH  39  42
ENDBRANCH  37  38
ENDBRANCH  36  37
ENDBRANCH  35  36
ENDBRANCH  34  35
ENDBRANCH   1  34
TORSDOF 19
ENDMDL
MODEL 3
REMARK VINA RESULT:     -12.0      3.991      6.134
REMARK SMILES [NH3+][C@@]1(C(=O)NCCCCCCNC(=O)c2ccc(-c3c4nc(c(-c5ccccc5)c5ccc([nH]5)c(-c5ccccc5)c5nc(c(-c6ccccc6)c6ccc3[nH]6)C=C5)C=C4)cc2)CC[N@H+](Cc2ccc(OCC(=O)N3CCCCC3)cc2)C1
REMARK SMILES IDX 7 1 6 2 5 3 3 4 4 5 2 7 63 8 83 9 64 10 65 11 1 13 66 17
REMARK SMILES IDX 67 18 68 19 82 20 69 21 81 22 70 23 71 24 72 25 73 26 74 27
REMARK SMILES IDX 75 28 76 29 80 30 77 31 79 32 78 33 8 34 9 35 10 36 11 37
REMARK SMILES IDX 12 38 13 39 14 41 15 42 16 43 62 44 17 45 61 46 18 47 19 48
REMARK SMILES IDX 20 49 55 50 21 51 60 52 54 53 56 54 22 55 59 56 53 57 52 58
REMARK SMILES IDX 23 60 45 61 30 62 44 63 31 64 34 65 43 66 57 67 32 68 33 69
REMARK SMILES IDX 42 71 58 72 35 73 24 74 25 75 29 76 26 77 28 78 27 79 46 80
REMARK SMILES IDX 47 81 51 82 48 83 50 84 49 85 36 86 37 87 41 88 38 89 40 90
REMARK SMILES IDX 39 91
REMARK H PARENT 5 6 65 12 1 14 1 15 1 16 12 40 56 59 34 70
REMARK Flexibility Score: inf
ROOT
ATOM      1  C   UNL A   1      38.267  28.781  29.678  1.00  0.00     0.021 C 
ENDROOT
BRANCH   1   2
ATOM      2  C   UNL A   1      36.350  29.743  30.106  1.00  0.00     0.116 C 
BRANCH   2   3
ATOM      3  N   UNL A   1      35.774  30.940  30.821  1.00  0.00    -0.350 N 
ATOM      4  C   UNL A   1      35.243  32.008  30.124  1.00  0.00     0.287 C 
ATOM      5  O   UNL A   1      34.717  32.906  30.801  1.00  0.00    -0.268 OA
ATOM      6  H   UNL A   1      35.778  30.961  31.805  1.00  0.00     0.163 HD
BRANCH   4   7
ATOM      7  C   UNL A   1      35.199  32.117  28.493  1.00  0.00     0.228 C 
ATOM      8  C   UNL A   1      33.777  32.394  27.982  1.00  0.00     0.146 C 
ATOM      9  C   UNL A   1      35.665  30.959  27.557  1.00  0.00     0.342 C 
ATOM     10  C   UNL A   1      33.320  31.154  27.204  1.00  0.00     0.270 C 
ATOM     11  N   UNL A   1      34.472  30.286  27.014  1.00  0.00    -0.325 N 
ATOM     12  H   UNL A   1      34.683  30.172  26.022  1.00  0.00     0.348 HD
BRANCH   7  13
ATOM     13  N   UNL A   1      36.039  33.329  28.204  1.00  0.00    -0.340 N 
ATOM     14  H   UNL A   1      35.857  33.649  27.253  1.00  0.00     0.345 HD
ATOM     15  H   UNL A   1      37.026  33.089  28.299  1.00  0.00     0.345 HD
ATOM     16  H   UNL A   1      35.805  34.071  28.864  1.00  0.00     0.345 HD
ENDBRANCH   7  13
BRANCH  11  17
ATOM     17  C   UNL A   1      34.267  28.832  27.122  1.00  0.00     0.299 C 
BRANCH  17  18
ATOM     18  C   UNL A   1      33.322  28.224  26.075  1.00  0.00     0.006 A 
ATOM     19  C   UNL A   1      33.883  28.405  24.366  1.00  0.00     0.013 A 
ATOM     20  C   UNL A   1      32.288  26.804  26.558  1.00  0.00     0.013 A 
ATOM     21  C   UNL A   1      33.597  27.071  23.190  1.00  0.00     0.047 A 
ATOM     22  C   UNL A   1      32.025  25.462  25.364  1.00  0.00     0.047 A 
ATOM     23  C   UNL A   1      32.640  25.631  23.670  1.00  0.00     0.120 A 
BRANCH  23  24
ATOM     24  O   UNL A   1      32.415  24.764  22.649  1.00  0.00    -0.484 OA
BRANCH  24  25
ATOM     25  C   UNL A   1      33.367  23.741  22.441  1.00  0.00     0.329 C 
BRANCH  25  26
ATOM     26  C   UNL A   1      33.089  22.469  23.228  1.00  0.00     0.260 C 
ATOM     27  O   UNL A   1      32.131  21.761  22.901  1.00  0.00    -0.271 OA
ATOM     28  N   UNL A   1      33.959  22.125  24.253  1.00  0.00    -0.340 N 
ATOM     29  C   UNL A   1      33.754  20.867  24.956  1.00  0.00     0.119 C 
ATOM     30  C   UNL A   1      35.062  22.934  24.786  1.00  0.00     0.119 C 
ATOM     31  C   UNL A   1      33.446  21.130  26.424  1.00  0.00     0.022 C 
ATOM     32  C   UNL A   1      34.834  23.251  26.264  1.00  0.00     0.022 C 
ATOM     33  C   UNL A   1      34.535  21.987  27.073  1.00  0.00     0.004 C 
ENDBRANCH  25  26
ENDBRANCH  24  25
ENDBRANCH  23  24
ENDBRANCH  17  18
ENDBRANCH  11  17
ENDBRANCH   4   7
ENDBRANCH   2   3
ENDBRANCH   1   2
BRANCH   1  34
ATOM     34  C   UNL A   1      38.908  27.848  28.372  1.00  0.00     0.002 C 
BRANCH  34  35
ATOM     35  C   UNL A   1      40.059  26.849  28.596  1.00  0.00     0.002 C 
BRANCH  35  36
ATOM     36  C   UNL A   1      39.716  25.389  28.337  1.00  0.00     0.021 C 
BRANCH  36  37
ATOM     37  C   UNL A   1      39.950  24.958  26.899  1.00  0.00     0.116 C 
BRANCH  37  38
ATOM     38  N   UNL A   1      40.753  23.739  26.815  1.00  0.00    -0.352 N 
ATOM     39  C   UNL A   1      42.091  23.598  26.569  1.00  0.00     0.251 C 
ATOM     40  H   UNL A   1      40.260  22.899  26.955  1.00  0.00     0.163 HD
ATOM     41  O   UNL A   1      42.584  22.506  26.314  1.00  0.00    -0.269 OA
BRANCH  39  42
ATOM     42  C   UNL A   1      42.921  24.807  26.608  1.00  0.00     0.039 A 
ATOM     43  C   UNL A   1      43.479  25.214  27.818  1.00  0.00     0.014 A 
ATOM     44  C   UNL A   1      43.206  25.472  25.412  1.00  0.00     0.014 A 
ATOM     45  C   UNL A   1      44.378  26.275  27.817  1.00  0.00     0.010 A 
ATOM     46  C   UNL A   1      44.183  26.447  25.398  1.00  0.00     0.010 A 
ATOM     47  C   UNL A   1      44.755  26.875  26.603  1.00  0.00    -0.014 A 
BRANCH  47  48
ATOM     48  C   UNL A   1      45.715  27.996  26.574  1.00  0.00     0.031 A 
ATOM     49  C   UNL A   1      47.181  27.700  26.441  1.00  0.00     0.074 A 
ATOM     50  C   UNL A   1      45.267  29.255  26.723  1.00  0.00     0.049 A 
ATOM     51  N   UNL A   1      48.190  28.531  26.417  1.00  0.00    -0.248 NA
ATOM     52  C   UNL A   1      47.572  26.280  26.367  1.00  0.00     0.031 C 
ATOM     53  C   UNL A   1      43.868  29.642  26.930  1.00  0.00     0.029 A 
ATOM     54  N   UNL A   1      45.943  30.445  26.717  1.00  0.00    -0.354 N 
ATOM     55  C   UNL A   1      49.325  27.734  26.351  1.00  0.00     0.074 A 
ATOM     56  C   UNL A   1      48.891  26.358  26.409  1.00  0.00     0.031 C 
ATOM     57  C   UNL A   1      43.786  30.981  26.983  1.00  0.00     0.029 A 
ATOM     58  C   UNL A   1      45.125  31.541  26.843  1.00  0.00     0.049 A 
ATOM     59  H   UNL A   1      46.922  30.509  26.631  1.00  0.00     0.167 HD
ATOM     60  C   UNL A   1      50.616  28.116  26.219  1.00  0.00     0.031 A 
ATOM     61  C   UNL A   1      45.430  32.851  26.831  1.00  0.00     0.031 A 
ATOM     62  C   UNL A   1      51.029  29.487  26.126  1.00  0.00     0.049 A 
ATOM     63  C   UNL A   1      46.865  33.252  26.638  1.00  0.00     0.074 A 
ATOM     64  C   UNL A   1      52.297  29.996  25.917  1.00  0.00     0.029 A 
ATOM     65  N   UNL A   1      50.169  30.571  26.227  1.00  0.00    -0.354 N 
ATOM     66  N   UNL A   1      47.922  32.489  26.494  1.00  0.00    -0.248 NA
ATOM     67  C   UNL A   1      47.146  34.692  26.589  1.00  0.00     0.031 C 
ATOM     68  C   UNL A   1      52.209  31.393  25.933  1.00  0.00     0.029 A 
ATOM     69  C   UNL A   1      50.881  31.750  26.103  1.00  0.00     0.049 A 
ATOM     70  H   UNL A   1      49.196  30.510  26.367  1.00  0.00     0.167 HD
ATOM     71  C   UNL A   1      48.992  33.355  26.317  1.00  0.00     0.074 A 
ATOM     72  C   UNL A   1      48.450  34.699  26.350  1.00  0.00     0.031 C 
ATOM     73  C   UNL A   1      50.307  33.070  26.146  1.00  0.00     0.031 A 
BRANCH  60  74
ATOM     74  C   UNL A   1      51.653  27.031  26.163  1.00  0.00    -0.014 A 
ATOM     75  C   UNL A   1      51.852  26.273  24.996  1.00  0.00     0.009 A 
ATOM     76  C   UNL A   1      52.443  26.758  27.289  1.00  0.00     0.009 A 
ATOM     77  C   UNL A   1      52.788  25.238  24.974  1.00  0.00     0.001 A 
ATOM     78  C   UNL A   1      53.400  25.743  27.255  1.00  0.00     0.001 A 
ATOM     79  C   UNL A   1      53.565  24.977  26.101  1.00  0.00     0.000 A 
ENDBRANCH  60  74
BRANCH  61  80
ATOM     80  C   UNL A   1      44.354  33.868  26.956  1.00  0.00    -0.014 A 
ATOM     81  C   UNL A   1      43.914  34.282  28.223  1.00  0.00     0.009 A 
ATOM     82  C   UNL A   1      43.771  34.439  25.816  1.00  0.00     0.009 A 
ATOM     83  C   UNL A   1      42.893  35.228  28.344  1.00  0.00     0.001 A 
ATOM     84  C   UNL A   1      42.768  35.404  25.939  1.00  0.00     0.001 A 
ATOM     85  C   UNL A   1      42.324  35.791  27.203  1.00  0.00     0.000 A 
ENDBRANCH  61  80
BRANCH  73  86
ATOM     86  C   UNL A   1      51.234  34.234  25.965  1.00  0.00    -0.014 A 
ATOM     87  C   UNL A   1      51.884  34.819  27.062  1.00  0.00     0.009 A 
ATOM     88  C   UNL A   1      51.490  34.724  24.676  1.00  0.00     0.009 A 
ATOM     89  C   UNL A   1      52.748  35.897  26.874  1.00  0.00     0.001 A 
ATOM     90  C   UNL A   1      52.377  35.785  24.488  1.00  0.00     0.001 A 
ATOM     91  C   UNL A   1      52.996  36.376  25.587  1.00  0.00     0.000 A 
ENDBRANCH  73  86
ENDBRANCH  47  48
ENDBRANCH  39  42
ENDBRANCH  37  38
ENDBRANCH  36  37
ENDBRANCH  35  36
ENDBRANCH  34  35
ENDBRANCH   1  34
TORSDOF 19
ENDMDL
