MODEL 1
REMARK VINA RESULT:     -10.9      0.000      0.000
REMARK SMILES C[C@H](C(=O)NCCCCCCNC(=O)c1ccc(-c2c3nc(c(-c4ccccc4)c4ccc([nH]4)c(-c4ccccc4)c4nc(c(-c5ccccc5)c5ccc2[nH]5)C=C4)C=C3)cc1)c1ccc2c(c1)OCCO2
REMARK SMILES IDX 9 1 8 2 7 3 6 4 5 5 3 6 4 7 2 9 1 10 63 11 64 12 68 13 65 14
REMARK SMILES IDX 67 15 66 16 69 17 72 18 70 19 71 20 10 21 11 22 12 23 13 24
REMARK SMILES IDX 14 26 15 27 16 28 62 29 17 30 61 31 18 32 19 33 20 34 55 35
REMARK SMILES IDX 21 36 60 37 54 38 56 39 22 40 59 41 53 42 52 43 23 45 45 46
REMARK SMILES IDX 30 47 44 48 31 49 34 50 43 51 57 52 32 53 33 54 42 56 58 57
REMARK SMILES IDX 35 58 24 59 25 60 29 61 26 62 28 63 27 64 46 65 47 66 51 67
REMARK SMILES IDX 48 68 50 69 49 70 36 71 37 72 41 73 38 74 40 75 39 76
REMARK H PARENT 5 8 12 25 56 44 34 55
REMARK Flexibility Score: inf
ROOT
ATOM      1  C   UNL A   1      37.131  21.170  24.641  1.00  0.00     0.002 C 
ENDROOT
BRANCH   1   2
ATOM      2  C   UNL A   1      37.372  22.380  25.551  1.00  0.00     0.002 C 
BRANCH   2   3
ATOM      3  C   UNL A   1      36.663  23.668  25.122  1.00  0.00     0.021 C 
BRANCH   3   4
ATOM      4  C   UNL A   1      35.586  23.457  24.070  1.00  0.00     0.116 C 
BRANCH   4   5
ATOM      5  N   UNL A   1      34.289  23.882  24.550  1.00  0.00    -0.356 N 
ATOM      6  C   UNL A   1      33.435  23.248  25.398  1.00  0.00     0.227 C 
ATOM      7  O   UNL A   1      32.414  23.849  25.742  1.00  0.00    -0.274 OA
ATOM      8  H   UNL A   1      33.979  24.755  24.215  1.00  0.00     0.163 HD
BRANCH   6   9
ATOM      9  C   UNL A   1      33.727  21.839  25.891  1.00  0.00     0.105 C 
ATOM     10  C   UNL A   1      33.605  21.753  27.415  1.00  0.00     0.023 C 
BRANCH   9  11
ATOM     11  C   UNL A   1      33.064  20.705  25.112  1.00  0.00    -0.032 A 
ATOM     12  C   UNL A   1      32.696  20.821  23.752  1.00  0.00     0.008 A 
ATOM     13  C   UNL A   1      33.012  19.439  25.713  1.00  0.00     0.055 A 
ATOM     14  C   UNL A   1      32.387  19.697  22.987  1.00  0.00     0.051 A 
ATOM     15  C   UNL A   1      32.827  18.317  24.925  1.00  0.00     0.161 A 
ATOM     16  C   UNL A   1      32.557  18.449  23.562  1.00  0.00     0.161 A 
ATOM     17  O   UNL A   1      33.105  17.110  25.505  1.00  0.00    -0.486 OA
ATOM     18  O   UNL A   1      32.697  17.368  22.726  1.00  0.00    -0.486 OA
ATOM     19  C   UNL A   1      33.709  16.186  24.586  1.00  0.00     0.271 C 
ATOM     20  C   UNL A   1      33.905  16.729  23.170  1.00  0.00     0.271 C 
ENDBRANCH   9  11
ENDBRANCH   6   9
ENDBRANCH   4   5
ENDBRANCH   3   4
ENDBRANCH   2   3
ENDBRANCH   1   2
BRANCH   1  21
ATOM     21  C   UNL A   1      38.043  19.971  24.903  1.00  0.00     0.021 C 
BRANCH  21  22
ATOM     22  C   UNL A   1      39.077  20.187  25.999  1.00  0.00     0.116 C 
BRANCH  22  23
ATOM     23  N   UNL A   1      40.227  19.310  25.853  1.00  0.00    -0.352 N 
ATOM     24  C   UNL A   1      41.558  19.600  25.998  1.00  0.00     0.251 C 
ATOM     25  H   UNL A   1      40.020  18.378  25.615  1.00  0.00     0.163 HD
ATOM     26  O   UNL A   1      42.411  18.780  25.667  1.00  0.00    -0.269 OA
BRANCH  24  27
ATOM     27  C   UNL A   1      41.967  20.914  26.534  1.00  0.00     0.039 A 
ATOM     28  C   UNL A   1      42.339  21.918  25.639  1.00  0.00     0.014 A 
ATOM     29  C   UNL A   1      41.972  21.157  27.910  1.00  0.00     0.014 A 
ATOM     30  C   UNL A   1      42.664  23.187  26.122  1.00  0.00     0.010 A 
ATOM     31  C   UNL A   1      42.218  22.442  28.385  1.00  0.00     0.010 A 
ATOM     32  C   UNL A   1      42.572  23.468  27.496  1.00  0.00    -0.014 A 
BRANCH  32  33
ATOM     33  C   UNL A   1      42.840  24.831  28.018  1.00  0.00     0.031 A 
ATOM     34  C   UNL A   1      44.236  25.229  28.415  1.00  0.00     0.074 A 
ATOM     35  C   UNL A   1      41.819  25.693  28.185  1.00  0.00     0.049 A 
ATOM     36  N   UNL A   1      44.656  26.357  28.929  1.00  0.00    -0.248 NA
ATOM     37  C   UNL A   1      45.292  24.222  28.229  1.00  0.00     0.031 C 
ATOM     38  C   UNL A   1      40.415  25.418  27.870  1.00  0.00     0.029 A 
ATOM     39  N   UNL A   1      41.804  26.980  28.664  1.00  0.00    -0.354 N 
ATOM     40  C   UNL A   1      46.019  26.190  29.140  1.00  0.00     0.074 A 
ATOM     41  C   UNL A   1      46.344  24.836  28.749  1.00  0.00     0.031 C 
ATOM     42  C   UNL A   1      39.683  26.513  28.131  1.00  0.00     0.029 A 
ATOM     43  C   UNL A   1      40.554  27.549  28.676  1.00  0.00     0.049 A 
ATOM     44  H   UNL A   1      42.613  27.449  28.971  1.00  0.00     0.167 HD
ATOM     45  C   UNL A   1      46.924  27.089  29.596  1.00  0.00     0.031 A 
ATOM     46  C   UNL A   1      40.151  28.766  29.086  1.00  0.00     0.031 A 
ATOM     47  C   UNL A   1      46.599  28.436  29.984  1.00  0.00     0.049 A 
ATOM     48  C   UNL A   1      41.170  29.732  29.625  1.00  0.00     0.074 A 
ATOM     49  C   UNL A   1      47.453  29.436  30.415  1.00  0.00     0.029 A 
ATOM     50  N   UNL A   1      45.320  28.969  29.992  1.00  0.00    -0.354 N 
ATOM     51  N   UNL A   1      42.466  29.581  29.755  1.00  0.00    -0.248 NA
ATOM     52  C   UNL A   1      40.669  31.042  30.063  1.00  0.00     0.031 C 
ATOM     53  C   UNL A   1      46.681  30.556  30.743  1.00  0.00     0.029 A 
ATOM     54  C   UNL A   1      45.356  30.276  30.450  1.00  0.00     0.049 A 
ATOM     55  H   UNL A   1      44.505  28.490  29.714  1.00  0.00     0.167 HD
ATOM     56  C   UNL A   1      42.939  30.786  30.259  1.00  0.00     0.074 A 
ATOM     57  C   UNL A   1      41.794  31.662  30.394  1.00  0.00     0.031 C 
ATOM     58  C   UNL A   1      44.209  31.136  30.579  1.00  0.00     0.031 A 
BRANCH  45  59
ATOM     59  C   UNL A   1      48.354  26.637  29.710  1.00  0.00    -0.014 A 
ATOM     60  C   UNL A   1      48.814  25.951  30.846  1.00  0.00     0.009 A 
ATOM     61  C   UNL A   1      49.247  26.866  28.650  1.00  0.00     0.009 A 
ATOM     62  C   UNL A   1      50.146  25.539  30.935  1.00  0.00     0.001 A 
ATOM     63  C   UNL A   1      50.568  26.424  28.728  1.00  0.00     0.001 A 
ATOM     64  C   UNL A   1      51.019  25.770  29.874  1.00  0.00     0.000 A 
ENDBRANCH  45  59
BRANCH  46  65
ATOM     65  C   UNL A   1      38.718  29.150  28.995  1.00  0.00    -0.014 A 
ATOM     66  C   UNL A   1      38.197  29.678  27.803  1.00  0.00     0.009 A 
ATOM     67  C   UNL A   1      37.865  29.004  30.100  1.00  0.00     0.009 A 
ATOM     68  C   UNL A   1      36.861  30.081  27.731  1.00  0.00     0.001 A 
ATOM     69  C   UNL A   1      36.522  29.378  30.015  1.00  0.00     0.001 A 
ATOM     70  C   UNL A   1      36.024  29.927  28.834  1.00  0.00     0.000 A 
ENDBRANCH  46  65
BRANCH  58  71
ATOM     71  C   UNL A   1      44.434  32.541  31.067  1.00  0.00    -0.014 A 
ATOM     72  C   UNL A   1      44.409  32.856  32.435  1.00  0.00     0.009 A 
ATOM     73  C   UNL A   1      44.717  33.558  30.142  1.00  0.00     0.009 A 
ATOM     74  C   UNL A   1      44.625  34.167  32.861  1.00  0.00     0.001 A 
ATOM     75  C   UNL A   1      44.966  34.861  30.573  1.00  0.00     0.001 A 
ATOM     76  C   UNL A   1      44.910  35.167  31.931  1.00  0.00     0.000 A 
ENDBRANCH  58  71
ENDBRANCH  32  33
ENDBRANCH  24  27
ENDBRANCH  22  23
ENDBRANCH  21  22
ENDBRANCH   1  21
TORSDOF 14
ENDMDL
MODEL 2
REMARK VINA RESULT:     -10.9      3.790      8.640
REMARK SMILES C[C@H](C(=O)NCCCCCCNC(=O)c1ccc(-c2c3nc(c(-c4ccccc4)c4ccc([nH]4)c(-c4ccccc4)c4nc(c(-c5ccccc5)c5ccc2[nH]5)C=C4)C=C3)cc1)c1ccc2c(c1)OCCO2
REMARK SMILES IDX 9 1 8 2 7 3 6 4 5 5 3 6 4 7 2 9 1 10 63 11 64 12 68 13 65 14
REMARK SMILES IDX 67 15 66 16 69 17 72 18 70 19 71 20 10 21 11 22 12 23 13 24
REMARK SMILES IDX 14 26 15 27 16 28 62 29 17 30 61 31 18 32 19 33 20 34 55 35
REMARK SMILES IDX 21 36 60 37 54 38 56 39 22 40 59 41 53 42 52 43 23 45 45 46
REMARK SMILES IDX 30 47 44 48 31 49 34 50 43 51 57 52 32 53 33 54 42 56 58 57
REMARK SMILES IDX 35 58 24 59 25 60 29 61 26 62 28 63 27 64 46 65 47 66 51 67
REMARK SMILES IDX 48 68 50 69 49 70 36 71 37 72 41 73 38 74 40 75 39 76
REMARK H PARENT 5 8 12 25 56 44 34 55
REMARK Flexibility Score: inf
ROOT
ATOM      1  C   UNL A   1      31.981  26.568  26.473  1.00  0.00     0.002 C 
ENDROOT
BRANCH   1   2
ATOM      2  C   UNL A   1      33.332  25.872  26.280  1.00  0.00     0.002 C 
BRANCH   2   3
ATOM      3  C   UNL A   1      33.362  24.800  25.186  1.00  0.00     0.021 C 
BRANCH   3   4
ATOM      4  C   UNL A   1      32.237  24.925  24.171  1.00  0.00     0.116 C 
BRANCH   4   5
ATOM      5  N   UNL A   1      32.738  25.340  22.878  1.00  0.00    -0.356 N 
ATOM      6  C   UNL A   1      32.830  26.592  22.353  1.00  0.00     0.227 C 
ATOM      7  O   UNL A   1      33.380  26.716  21.256  1.00  0.00    -0.274 OA
ATOM      8  H   UNL A   1      33.056  24.614  22.295  1.00  0.00     0.163 HD
BRANCH   6   9
ATOM      9  C   UNL A   1      32.258  27.793  23.091  1.00  0.00     0.105 C 
ATOM     10  C   UNL A   1      33.254  28.956  23.103  1.00  0.00     0.023 C 
BRANCH   9  11
ATOM     11  C   UNL A   1      30.816  28.164  22.752  1.00  0.00    -0.032 A 
ATOM     12  C   UNL A   1      29.703  27.441  23.239  1.00  0.00     0.008 A 
ATOM     13  C   UNL A   1      30.588  29.389  22.109  1.00  0.00     0.055 A 
ATOM     14  C   UNL A   1      28.414  27.969  23.179  1.00  0.00     0.051 A 
ATOM     15  C   UNL A   1      29.330  29.964  22.162  1.00  0.00     0.161 A 
ATOM     16  C   UNL A   1      28.262  29.270  22.732  1.00  0.00     0.161 A 
ATOM     17  O   UNL A   1      29.245  31.282  21.807  1.00  0.00    -0.486 OA
ATOM     18  O   UNL A   1      27.116  29.943  23.082  1.00  0.00    -0.486 OA
ATOM     19  C   UNL A   1      28.299  32.005  22.609  1.00  0.00     0.271 C 
ATOM     20  C   UNL A   1      27.586  31.166  23.670  1.00  0.00     0.271 C 
ENDBRANCH   9  11
ENDBRANCH   6   9
ENDBRANCH   4   5
ENDBRANCH   3   4
ENDBRANCH   2   3
ENDBRANCH   1   2
BRANCH   1  21
ATOM     21  C   UNL A   1      32.058  28.076  26.721  1.00  0.00     0.021 C 
BRANCH  21  22
ATOM     22  C   UNL A   1      33.403  28.566  27.239  1.00  0.00     0.116 C 
BRANCH  22  23
ATOM     23  N   UNL A   1      33.411  29.998  27.484  1.00  0.00    -0.352 N 
ATOM     24  C   UNL A   1      34.391  30.773  28.044  1.00  0.00     0.251 C 
ATOM     25  H   UNL A   1      32.597  30.478  27.208  1.00  0.00     0.163 HD
ATOM     26  O   UNL A   1      34.164  31.944  28.337  1.00  0.00    -0.269 OA
BRANCH  24  27
ATOM     27  C   UNL A   1      35.719  30.188  28.319  1.00  0.00     0.039 A 
ATOM     28  C   UNL A   1      36.689  30.220  27.317  1.00  0.00     0.014 A 
ATOM     29  C   UNL A   1      36.008  29.620  29.563  1.00  0.00     0.014 A 
ATOM     30  C   UNL A   1      37.970  29.734  27.580  1.00  0.00     0.010 A 
ATOM     31  C   UNL A   1      37.306  29.209  29.851  1.00  0.00     0.010 A 
ATOM     32  C   UNL A   1      38.299  29.256  28.861  1.00  0.00    -0.014 A 
BRANCH  32  33
ATOM     33  C   UNL A   1      39.676  28.806  29.180  1.00  0.00     0.031 A 
ATOM     34  C   UNL A   1      40.621  29.719  29.912  1.00  0.00     0.074 A 
ATOM     35  C   UNL A   1      40.093  27.594  28.767  1.00  0.00     0.049 A 
ATOM     36  N   UNL A   1      41.873  29.519  30.240  1.00  0.00    -0.248 NA
ATOM     37  C   UNL A   1      40.100  31.039  30.305  1.00  0.00     0.031 C 
ATOM     38  C   UNL A   1      39.285  26.627  28.021  1.00  0.00     0.029 A 
ATOM     39  N   UNL A   1      41.306  26.967  28.913  1.00  0.00    -0.354 N 
ATOM     40  C   UNL A   1      42.290  30.687  30.866  1.00  0.00     0.074 A 
ATOM     41  C   UNL A   1      41.177  31.610  30.822  1.00  0.00     0.031 C 
ATOM     42  C   UNL A   1      40.012  25.518  27.806  1.00  0.00     0.029 A 
ATOM     43  C   UNL A   1      41.349  25.713  28.356  1.00  0.00     0.049 A 
ATOM     44  H   UNL A   1      42.072  27.379  29.375  1.00  0.00     0.167 HD
ATOM     45  C   UNL A   1      43.483  30.960  31.445  1.00  0.00     0.031 A 
ATOM     46  C   UNL A   1      42.355  24.821  28.286  1.00  0.00     0.031 A 
ATOM     47  C   UNL A   1      44.589  30.041  31.489  1.00  0.00     0.049 A 
ATOM     48  C   UNL A   1      43.682  25.164  28.904  1.00  0.00     0.074 A 
ATOM     49  C   UNL A   1      45.823  30.207  32.092  1.00  0.00     0.029 A 
ATOM     50  N   UNL A   1      44.596  28.785  30.902  1.00  0.00    -0.354 N 
ATOM     51  N   UNL A   1      44.039  26.248  29.550  1.00  0.00    -0.248 NA
ATOM     52  C   UNL A   1      44.743  24.153  28.790  1.00  0.00     0.031 C 
ATOM     53  C   UNL A   1      46.599  29.076  31.817  1.00  0.00     0.029 A 
ATOM     54  C   UNL A   1      45.824  28.177  31.103  1.00  0.00     0.049 A 
ATOM     55  H   UNL A   1      43.840  28.384  30.413  1.00  0.00     0.167 HD
ATOM     56  C   UNL A   1      45.353  26.036  29.947  1.00  0.00     0.074 A 
ATOM     57  C   UNL A   1      45.723  24.714  29.485  1.00  0.00     0.031 C 
ATOM     58  C   UNL A   1      46.179  26.861  30.637  1.00  0.00     0.031 A 
BRANCH  45  59
ATOM     59  C   UNL A   1      43.656  32.317  32.070  1.00  0.00    -0.014 A 
ATOM     60  C   UNL A   1      43.355  32.541  33.423  1.00  0.00     0.009 A 
ATOM     61  C   UNL A   1      44.165  33.379  31.305  1.00  0.00     0.009 A 
ATOM     62  C   UNL A   1      43.522  33.809  33.987  1.00  0.00     0.001 A 
ATOM     63  C   UNL A   1      44.362  34.636  31.879  1.00  0.00     0.001 A 
ATOM     64  C   UNL A   1      44.031  34.853  33.216  1.00  0.00     0.000 A 
ENDBRANCH  45  59
BRANCH  46  65
ATOM     65  C   UNL A   1      42.147  23.509  27.617  1.00  0.00    -0.014 A 
ATOM     66  C   UNL A   1      41.641  22.415  28.337  1.00  0.00     0.009 A 
ATOM     67  C   UNL A   1      42.465  23.339  26.261  1.00  0.00     0.009 A 
ATOM     68  C   UNL A   1      41.488  21.171  27.720  1.00  0.00     0.001 A 
ATOM     69  C   UNL A   1      42.281  22.102  25.639  1.00  0.00     0.001 A 
ATOM     70  C   UNL A   1      41.804  21.016  26.372  1.00  0.00     0.000 A 
ENDBRANCH  46  65
BRANCH  58  71
ATOM     71  C   UNL A   1      47.551  26.343  30.969  1.00  0.00    -0.014 A 
ATOM     72  C   UNL A   1      47.825  25.730  32.203  1.00  0.00     0.009 A 
ATOM     73  C   UNL A   1      48.575  26.436  30.015  1.00  0.00     0.009 A 
ATOM     74  C   UNL A   1      49.108  25.256  32.485  1.00  0.00     0.001 A 
ATOM     75  C   UNL A   1      49.847  25.930  30.286  1.00  0.00     0.001 A 
ATOM     76  C   UNL A   1      50.115  25.350  31.524  1.00  0.00     0.000 A 
ENDBRANCH  58  71
ENDBRANCH  32  33
ENDBRANCH  24  27
ENDBRANCH  22  23
ENDBRANCH  21  22
ENDBRANCH   1  21
TORSDOF 14
ENDMDL
MODEL 3
REMARK VINA RESULT:     -10.8      1.094      6.126
REMARK SMILES C[C@H](C(=O)NCCCCCCNC(=O)c1ccc(-c2c3nc(c(-c4ccccc4)c4ccc([nH]4)c(-c4ccccc4)c4nc(c(-c5ccccc5)c5ccc2[nH]5)C=C4)C=C3)cc1)c1ccc2c(c1)OCCO2
REMARK SMILES IDX 9 1 8 2 7 3 6 4 5 5 3 6 4 7 2 9 1 10 63 11 64 12 68 13 65 14
REMARK SMILES IDX 67 15 66 16 69 17 72 18 70 19 71 20 10 21 11 22 12 23 13 24
REMARK SMILES IDX 14 26 15 27 16 28 62 29 17 30 61 31 18 32 19 33 20 34 55 35
REMARK SMILES IDX 21 36 60 37 54 38 56 39 22 40 59 41 53 42 52 43 23 45 45 46
REMARK SMILES IDX 30 47 44 48 31 49 34 50 43 51 57 52 32 53 33 54 42 56 58 57
REMARK SMILES IDX 35 58 24 59 25 60 29 61 26 62 28 63 27 64 46 65 47 66 51 67
REMARK SMILES IDX 48 68 50 69 49 70 36 71 37 72 41 73 38 74 40 75 39 76
REMARK H PARENT 5 8 12 25 56 44 34 55
REMARK Flexibility Score: inf
ROOT
ATOM      1  C   UNL A   1      36.907  20.960  24.715  1.00  0.00     0.002 C 
ENDROOT
BRANCH   1   2
ATOM      2  C   UNL A   1      37.248  22.316  25.343  1.00  0.00     0.002 C 
BRANCH   2   3
ATOM      3  C   UNL A   1      36.636  23.531  24.640  1.00  0.00     0.021 C 
BRANCH   3   4
ATOM      4  C   UNL A   1      35.488  23.187  23.703  1.00  0.00     0.116 C 
BRANCH   4   5
ATOM      5  N   UNL A   1      34.243  23.763  24.163  1.00  0.00    -0.356 N 
ATOM      6  C   UNL A   1      33.368  23.293  25.092  1.00  0.00     0.227 C 
ATOM      7  O   UNL A   1      32.407  24.006  25.390  1.00  0.00    -0.274 OA
ATOM      8  H   UNL A   1      33.992  24.618  23.743  1.00  0.00     0.163 HD
BRANCH   6   9
ATOM      9  C   UNL A   1      33.565  21.924  25.727  1.00  0.00     0.105 C 
ATOM     10  C   UNL A   1      33.280  21.970  27.231  1.00  0.00     0.023 C 
BRANCH   9  11
ATOM     11  C   UNL A   1      32.953  20.742  24.977  1.00  0.00    -0.032 A 
ATOM     12  C   UNL A   1      32.557  20.816  23.622  1.00  0.00     0.008 A 
ATOM     13  C   UNL A   1      32.984  19.485  25.597  1.00  0.00     0.055 A 
ATOM     14  C   UNL A   1      32.299  19.665  22.879  1.00  0.00     0.051 A 
ATOM     15  C   UNL A   1      32.850  18.342  24.828  1.00  0.00     0.161 A 
ATOM     16  C   UNL A   1      32.549  18.438  23.469  1.00  0.00     0.161 A 
ATOM     17  O   UNL A   1      33.205  17.162  25.421  1.00  0.00    -0.486 OA
ATOM     18  O   UNL A   1      32.736  17.353  22.647  1.00  0.00    -0.486 OA
ATOM     19  C   UNL A   1      33.845  16.260  24.505  1.00  0.00     0.271 C 
ATOM     20  C   UNL A   1      33.986  16.791  23.078  1.00  0.00     0.271 C 
ENDBRANCH   9  11
ENDBRANCH   6   9
ENDBRANCH   4   5
ENDBRANCH   3   4
ENDBRANCH   2   3
ENDBRANCH   1   2
BRANCH   1  21
ATOM     21  C   UNL A   1      37.914  19.843  24.997  1.00  0.00     0.021 C 
BRANCH  21  22
ATOM     22  C   UNL A   1      39.144  20.281  25.778  1.00  0.00     0.116 C 
BRANCH  22  23
ATOM     23  N   UNL A   1      40.151  19.235  25.852  1.00  0.00    -0.352 N 
ATOM     24  C   UNL A   1      41.496  19.347  26.084  1.00  0.00     0.251 C 
ATOM     25  H   UNL A   1      39.819  18.319  25.716  1.00  0.00     0.163 HD
ATOM     26  O   UNL A   1      42.233  18.374  25.940  1.00  0.00    -0.269 OA
BRANCH  24  27
ATOM     27  C   UNL A   1      42.065  20.650  26.484  1.00  0.00     0.039 A 
ATOM     28  C   UNL A   1      42.539  21.510  25.493  1.00  0.00     0.014 A 
ATOM     29  C   UNL A   1      42.122  21.024  27.830  1.00  0.00     0.014 A 
ATOM     30  C   UNL A   1      43.017  22.772  25.846  1.00  0.00     0.010 A 
ATOM     31  C   UNL A   1      42.524  22.311  28.174  1.00  0.00     0.010 A 
ATOM     32  C   UNL A   1      42.981  23.196  27.186  1.00  0.00    -0.014 A 
BRANCH  32  33
ATOM     33  C   UNL A   1      43.415  24.562  27.569  1.00  0.00     0.031 A 
ATOM     34  C   UNL A   1      42.395  25.615  27.905  1.00  0.00     0.074 A 
ATOM     35  C   UNL A   1      44.726  24.870  27.565  1.00  0.00     0.049 A 
ATOM     36  N   UNL A   1      42.581  26.872  28.219  1.00  0.00    -0.248 NA
ATOM     37  C   UNL A   1      40.981  25.209  27.860  1.00  0.00     0.031 C 
ATOM     38  C   UNL A   1      45.814  23.949  27.226  1.00  0.00     0.029 A 
ATOM     39  N   UNL A   1      45.369  26.048  27.852  1.00  0.00    -0.354 N 
ATOM     40  C   UNL A   1      41.311  27.408  28.397  1.00  0.00     0.074 A 
ATOM     41  C   UNL A   1      40.363  26.356  28.102  1.00  0.00     0.031 C 
ATOM     42  C   UNL A   1      46.988  24.586  27.360  1.00  0.00     0.029 A 
ATOM     43  C   UNL A   1      46.737  25.971  27.745  1.00  0.00     0.049 A 
ATOM     44  H   UNL A   1      44.895  26.871  28.111  1.00  0.00     0.167 HD
ATOM     45  C   UNL A   1      40.964  28.656  28.792  1.00  0.00     0.031 A 
ATOM     46  C   UNL A   1      47.683  26.911  27.929  1.00  0.00     0.031 A 
ATOM     47  C   UNL A   1      41.907  29.702  29.086  1.00  0.00     0.049 A 
ATOM     48  C   UNL A   1      47.268  28.299  28.329  1.00  0.00     0.074 A 
ATOM     49  C   UNL A   1      41.655  30.985  29.537  1.00  0.00     0.029 A 
ATOM     50  N   UNL A   1      43.282  29.586  28.953  1.00  0.00    -0.354 N 
ATOM     51  N   UNL A   1      46.066  28.771  28.557  1.00  0.00    -0.248 NA
ATOM     52  C   UNL A   1      48.345  29.283  28.509  1.00  0.00     0.031 C 
ATOM     53  C   UNL A   1      42.875  31.666  29.618  1.00  0.00     0.029 A 
ATOM     54  C   UNL A   1      43.891  30.785  29.285  1.00  0.00     0.049 A 
ATOM     55  H   UNL A   1      43.756  28.772  28.665  1.00  0.00     0.167 HD
ATOM     56  C   UNL A   1      46.245  30.095  28.937  1.00  0.00     0.074 A 
ATOM     57  C   UNL A   1      47.672  30.345  28.926  1.00  0.00     0.031 C 
ATOM     58  C   UNL A   1      45.312  31.020  29.269  1.00  0.00     0.031 A 
BRANCH  45  59
ATOM     59  C   UNL A   1      39.496  28.961  28.917  1.00  0.00    -0.014 A 
ATOM     60  C   UNL A   1      38.756  29.448  27.828  1.00  0.00     0.009 A 
ATOM     61  C   UNL A   1      38.834  28.722  30.133  1.00  0.00     0.009 A 
ATOM     62  C   UNL A   1      37.394  29.726  27.963  1.00  0.00     0.001 A 
ATOM     63  C   UNL A   1      37.466  28.969  30.255  1.00  0.00     0.001 A 
ATOM     64  C   UNL A   1      36.749  29.480  29.174  1.00  0.00     0.000 A 
ENDBRANCH  45  59
BRANCH  46  65
ATOM     65  C   UNL A   1      49.119  26.571  27.748  1.00  0.00    -0.014 A 
ATOM     66  C   UNL A   1      49.690  26.548  26.466  1.00  0.00     0.009 A 
ATOM     67  C   UNL A   1      49.924  26.253  28.853  1.00  0.00     0.009 A 
ATOM     68  C   UNL A   1      51.027  26.184  26.292  1.00  0.00     0.001 A 
ATOM     69  C   UNL A   1      51.270  25.921  28.679  1.00  0.00     0.001 A 
ATOM     70  C   UNL A   1      51.817  25.876  27.398  1.00  0.00     0.000 A 
ENDBRANCH  46  65
BRANCH  58  71
ATOM     71  C   UNL A   1      45.804  32.378  29.688  1.00  0.00    -0.014 A 
ATOM     72  C   UNL A   1      45.847  33.454  28.786  1.00  0.00     0.009 A 
ATOM     73  C   UNL A   1      46.194  32.592  31.019  1.00  0.00     0.009 A 
ATOM     74  C   UNL A   1      46.306  34.705  29.202  1.00  0.00     0.001 A 
ATOM     75  C   UNL A   1      46.619  33.852  31.440  1.00  0.00     0.001 A 
ATOM     76  C   UNL A   1      46.685  34.905  30.530  1.00  0.00     0.000 A 
ENDBRANCH  58  71
ENDBRANCH  32  33
ENDBRANCH  24  27
ENDBRANCH  22  23
ENDBRANCH  21  22
ENDBRANCH   1  21
TORSDOF 14
ENDMDL
