MODEL 1
REMARK VINA RESULT:     -11.5      0.000      0.000
REMARK SMILES CC1=C(C)C[C@@H](C(=O)NCC(=O)c2ccccc2)[C@H](C(=O)NCCCCCCNC(=O)c2ccc(-c3c4nc(c(-c5ccccc5)c5ccc([nH]5)c(-c5ccccc5)c5nc(c(-c6ccccc6)c6ccc3[nH]6)C=C5)C=C4)cc2)C1
REMARK SMILES IDX 24 1 23 2 22 3 20 4 21 5 19 7 1 8 2 9 3 10 80 11 4 12 5 13
REMARK SMILES IDX 6 14 7 15 8 16 9 17 10 19 11 20 12 21 13 22 14 23 18 24
REMARK SMILES IDX 15 25 17 26 16 27 25 28 26 29 27 30 28 31 29 32 30 33 31 35
REMARK SMILES IDX 32 36 33 37 79 38 34 39 78 40 35 41 36 42 37 43 72 44 38 45
REMARK SMILES IDX 77 46 71 47 73 48 39 49 76 50 70 51 69 52 40 54 62 55 47 56
REMARK SMILES IDX 61 57 48 58 51 59 60 60 74 61 49 62 50 63 59 65 75 66 52 67
REMARK SMILES IDX 41 68 42 69 46 70 43 71 45 72 44 73 63 74 64 75 68 76 65 77
REMARK SMILES IDX 67 78 66 79 53 80 54 81 58 82 55 83 57 84 56 85
REMARK H PARENT 22 6 9 18 29 34 73 53 51 64
REMARK Flexibility Score: inf
ROOT
ATOM      1  C   UNL A   1      36.217  22.218  24.238  1.00  0.00     0.021 C 
ENDROOT
BRANCH   1   2
ATOM      2  C   UNL A   1      36.140  23.648  24.750  1.00  0.00     0.116 C 
BRANCH   2   3
ATOM      3  N   UNL A   1      35.141  23.806  25.780  1.00  0.00    -0.356 N 
ATOM      4  C   UNL A   1      33.890  24.328  25.705  1.00  0.00     0.224 C 
ATOM      5  O   UNL A   1      33.210  24.318  26.735  1.00  0.00    -0.275 OA
ATOM      6  H   UNL A   1      35.409  23.488  26.672  1.00  0.00     0.163 HD
BRANCH   4   7
ATOM      7  C   UNL A   1      33.324  24.917  24.409  1.00  0.00     0.095 C 
ATOM      8  C   UNL A   1      31.415  28.347  24.513  1.00  0.00     0.039 C 
ATOM      9  C   UNL A   1      31.572  26.858  24.312  1.00  0.00    -0.074 C 
ATOM     10  C   UNL A   1      30.580  26.007  23.973  1.00  0.00    -0.074 C 
ATOM     11  C   UNL A   1      32.997  26.405  24.546  1.00  0.00     0.045 C 
ATOM     12  C   UNL A   1      29.127  26.381  23.813  1.00  0.00     0.039 C 
ATOM     13  C   UNL A   1      30.818  24.531  23.734  1.00  0.00     0.045 C 
ATOM     14  C   UNL A   1      32.257  24.012  23.786  1.00  0.00     0.095 C 
BRANCH  14  15
ATOM     15  C   UNL A   1      32.701  23.448  22.437  1.00  0.00     0.224 C 
ATOM     16  O   UNL A   1      33.310  24.170  21.641  1.00  0.00    -0.275 OA
ATOM     17  N   UNL A   1      32.476  22.175  22.032  1.00  0.00    -0.348 N 
ATOM     18  H   UNL A   1      32.802  21.993  21.120  1.00  0.00     0.163 HD
BRANCH  17  19
ATOM     19  C   UNL A   1      31.857  21.024  22.661  1.00  0.00     0.197 C 
BRANCH  19  20
ATOM     20  C   UNL A   1      32.388  20.441  23.978  1.00  0.00     0.181 C 
ATOM     21  O   UNL A   1      32.320  21.117  25.009  1.00  0.00    -0.292 OA
BRANCH  20  22
ATOM     22  C   UNL A   1      32.819  19.020  24.113  1.00  0.00     0.019 A 
ATOM     23  C   UNL A   1      32.776  18.459  25.400  1.00  0.00     0.012 A 
ATOM     24  C   UNL A   1      33.221  18.224  23.038  1.00  0.00     0.012 A 
ATOM     25  C   UNL A   1      33.060  17.107  25.597  1.00  0.00     0.001 A 
ATOM     26  C   UNL A   1      33.488  16.866  23.236  1.00  0.00     0.001 A 
ATOM     27  C   UNL A   1      33.399  16.307  24.510  1.00  0.00     0.000 A 
ENDBRANCH  20  22
ENDBRANCH  19  20
ENDBRANCH  17  19
ENDBRANCH  14  15
ENDBRANCH   4   7
ENDBRANCH   2   3
ENDBRANCH   1   2
BRANCH   1  28
ATOM     28  C   UNL A   1      35.902  21.165  25.301  1.00  0.00     0.002 C 
BRANCH  28  29
ATOM     29  C   UNL A   1      36.338  19.738  24.949  1.00  0.00     0.002 C 
BRANCH  29  30
ATOM     30  C   UNL A   1      37.825  19.564  24.628  1.00  0.00     0.021 C 
BRANCH  30  31
ATOM     31  C   UNL A   1      38.775  20.021  25.730  1.00  0.00     0.116 C 
BRANCH  31  32
ATOM     32  N   UNL A   1      39.966  19.192  25.799  1.00  0.00    -0.352 N 
ATOM     33  C   UNL A   1      41.259  19.544  26.074  1.00  0.00     0.251 C 
ATOM     34  H   UNL A   1      39.822  18.234  25.622  1.00  0.00     0.163 HD
ATOM     35  O   UNL A   1      42.170  18.737  25.884  1.00  0.00    -0.269 OA
BRANCH  33  36
ATOM     36  C   UNL A   1      41.570  20.891  26.590  1.00  0.00     0.039 A 
ATOM     37  C   UNL A   1      41.455  21.128  27.962  1.00  0.00     0.014 A 
ATOM     38  C   UNL A   1      41.934  21.926  25.723  1.00  0.00     0.014 A 
ATOM     39  C   UNL A   1      41.740  22.396  28.470  1.00  0.00     0.010 A 
ATOM     40  C   UNL A   1      42.284  23.171  26.239  1.00  0.00     0.010 A 
ATOM     41  C   UNL A   1      42.175  23.422  27.615  1.00  0.00    -0.014 A 
BRANCH  41  42
ATOM     42  C   UNL A   1      42.495  24.768  28.148  1.00  0.00     0.031 A 
ATOM     43  C   UNL A   1      43.908  25.118  28.521  1.00  0.00     0.074 A 
ATOM     44  C   UNL A   1      41.506  25.663  28.328  1.00  0.00     0.049 A 
ATOM     45  N   UNL A   1      44.380  26.240  29.002  1.00  0.00    -0.248 NA
ATOM     46  C   UNL A   1      44.919  24.062  28.354  1.00  0.00     0.031 C 
ATOM     47  C   UNL A   1      40.088  25.430  28.042  1.00  0.00     0.029 A 
ATOM     48  N   UNL A   1      41.545  26.952  28.793  1.00  0.00    -0.354 N 
ATOM     49  C   UNL A   1      45.737  26.021  29.207  1.00  0.00     0.074 A 
ATOM     50  C   UNL A   1      46.001  24.645  28.849  1.00  0.00     0.031 C 
ATOM     51  C   UNL A   1      39.399  26.553  28.303  1.00  0.00     0.029 A 
ATOM     52  C   UNL A   1      40.318  27.570  28.803  1.00  0.00     0.049 A 
ATOM     53  H   UNL A   1      42.373  27.394  29.091  1.00  0.00     0.167 HD
ATOM     54  C   UNL A   1      46.683  26.891  29.634  1.00  0.00     0.031 A 
ATOM     55  C   UNL A   1      39.973  28.819  29.168  1.00  0.00     0.031 A 
ATOM     56  C   UNL A   1      46.421  28.262  29.981  1.00  0.00     0.049 A 
ATOM     57  C   UNL A   1      41.040  29.766  29.641  1.00  0.00     0.074 A 
ATOM     58  C   UNL A   1      47.319  29.240  30.376  1.00  0.00     0.029 A 
ATOM     59  N   UNL A   1      45.166  28.849  29.979  1.00  0.00    -0.354 N 
ATOM     60  N   UNL A   1      42.329  29.563  29.765  1.00  0.00    -0.248 NA
ATOM     61  C   UNL A   1      40.603  31.119  30.005  1.00  0.00     0.031 C 
ATOM     62  C   UNL A   1      46.598  30.407  30.654  1.00  0.00     0.029 A 
ATOM     63  C   UNL A   1      45.261  30.170  30.383  1.00  0.00     0.049 A 
ATOM     64  H   UNL A   1      44.330  28.394  29.726  1.00  0.00     0.167 HD
ATOM     65  C   UNL A   1      42.861  30.770  30.198  1.00  0.00     0.074 A 
ATOM     66  C   UNL A   1      41.756  31.703  30.297  1.00  0.00     0.031 C 
ATOM     67  C   UNL A   1      44.149  31.081  30.485  1.00  0.00     0.031 A 
BRANCH  54  68
ATOM     68  C   UNL A   1      48.089  26.373  29.753  1.00  0.00    -0.014 A 
ATOM     69  C   UNL A   1      48.990  26.456  28.678  1.00  0.00     0.009 A 
ATOM     70  C   UNL A   1      48.525  25.801  30.959  1.00  0.00     0.009 A 
ATOM     71  C   UNL A   1      50.282  25.941  28.794  1.00  0.00     0.001 A 
ATOM     72  C   UNL A   1      49.828  25.314  31.082  1.00  0.00     0.001 A 
ATOM     73  C   UNL A   1      50.701  25.373  29.996  1.00  0.00     0.000 A 
ENDBRANCH  54  68
BRANCH  55  74
ATOM     74  C   UNL A   1      38.559  29.256  29.065  1.00  0.00    -0.014 A 
ATOM     75  C   UNL A   1      38.047  29.716  27.842  1.00  0.00     0.009 A 
ATOM     76  C   UNL A   1      37.712  29.213  30.183  1.00  0.00     0.009 A 
ATOM     77  C   UNL A   1      36.721  30.144  27.746  1.00  0.00     0.001 A 
ATOM     78  C   UNL A   1      36.380  29.617  30.078  1.00  0.00     0.001 A 
ATOM     79  C   UNL A   1      35.888  30.090  28.862  1.00  0.00     0.000 A 
ENDBRANCH  55  74
BRANCH  67  80
ATOM     80  C   UNL A   1      44.433  32.495  30.904  1.00  0.00    -0.014 A 
ATOM     81  C   UNL A   1      44.436  32.869  32.257  1.00  0.00     0.009 A 
ATOM     82  C   UNL A   1      44.726  33.463  29.929  1.00  0.00     0.009 A 
ATOM     83  C   UNL A   1      44.689  34.193  32.622  1.00  0.00     0.001 A 
ATOM     84  C   UNL A   1      45.007  34.778  30.300  1.00  0.00     0.001 A 
ATOM     85  C   UNL A   1      44.978  35.144  31.645  1.00  0.00     0.000 A 
ENDBRANCH  67  80
ENDBRANCH  41  42
ENDBRANCH  33  36
ENDBRANCH  31  32
ENDBRANCH  30  31
ENDBRANCH  29  30
ENDBRANCH  28  29
ENDBRANCH   1  28
TORSDOF 17
ENDMDL
MODEL 2
REMARK VINA RESULT:     -11.5      0.754      5.844
REMARK SMILES CC1=C(C)C[C@@H](C(=O)NCC(=O)c2ccccc2)[C@H](C(=O)NCCCCCCNC(=O)c2ccc(-c3c4nc(c(-c5ccccc5)c5ccc([nH]5)c(-c5ccccc5)c5nc(c(-c6ccccc6)c6ccc3[nH]6)C=C5)C=C4)cc2)C1
REMARK SMILES IDX 24 1 23 2 22 3 20 4 21 5 19 7 1 8 2 9 3 10 80 11 4 12 5 13
REMARK SMILES IDX 6 14 7 15 8 16 9 17 10 19 11 20 12 21 13 22 14 23 18 24
REMARK SMILES IDX 15 25 17 26 16 27 25 28 26 29 27 30 28 31 29 32 30 33 31 35
REMARK SMILES IDX 32 36 33 37 79 38 34 39 78 40 35 41 36 42 37 43 72 44 38 45
REMARK SMILES IDX 77 46 71 47 73 48 39 49 76 50 70 51 69 52 40 54 62 55 47 56
REMARK SMILES IDX 61 57 48 58 51 59 60 60 74 61 49 62 50 63 59 65 75 66 52 67
REMARK SMILES IDX 41 68 42 69 46 70 43 71 45 72 44 73 63 74 64 75 68 76 65 77
REMARK SMILES IDX 67 78 66 79 53 80 54 81 58 82 55 83 57 84 56 85
REMARK H PARENT 22 6 9 18 29 34 73 53 51 64
REMARK Flexibility Score: inf
ROOT
ATOM      1  C   UNL A   1      35.208  21.434  26.076  1.00  0.00     0.021 C 
ENDROOT
BRANCH   1   2
ATOM      2  C   UNL A   1      34.971  22.794  26.717  1.00  0.00     0.116 C 
BRANCH   2   3
ATOM      3  N   UNL A   1      33.629  22.929  27.227  1.00  0.00    -0.356 N 
ATOM      4  C   UNL A   1      32.581  23.644  26.740  1.00  0.00     0.224 C 
ATOM      5  O   UNL A   1      31.511  23.568  27.351  1.00  0.00    -0.275 OA
ATOM      6  H   UNL A   1      33.444  22.429  28.054  1.00  0.00     0.163 HD
BRANCH   4   7
ATOM      7  C   UNL A   1      32.699  24.523  25.490  1.00  0.00     0.095 C 
ATOM      8  C   UNL A   1      31.418  28.233  25.604  1.00  0.00     0.039 C 
ATOM      9  C   UNL A   1      31.437  26.790  25.157  1.00  0.00    -0.074 C 
ATOM     10  C   UNL A   1      30.571  26.232  24.284  1.00  0.00    -0.074 C 
ATOM     11  C   UNL A   1      32.554  26.010  25.815  1.00  0.00     0.045 C 
ATOM     12  C   UNL A   1      29.386  26.931  23.663  1.00  0.00     0.039 C 
ATOM     13  C   UNL A   1      30.680  24.790  23.836  1.00  0.00     0.045 C 
ATOM     14  C   UNL A   1      31.878  23.970  24.323  1.00  0.00     0.095 C 
BRANCH  14  15
ATOM     15  C   UNL A   1      32.764  23.524  23.160  1.00  0.00     0.224 C 
ATOM     16  O   UNL A   1      33.564  24.320  22.659  1.00  0.00    -0.275 OA
ATOM     17  N   UNL A   1      32.743  22.282  22.619  1.00  0.00    -0.348 N 
ATOM     18  H   UNL A   1      33.357  22.179  21.855  1.00  0.00     0.163 HD
BRANCH  17  19
ATOM     19  C   UNL A   1      32.007  21.071  22.930  1.00  0.00     0.197 C 
BRANCH  19  20
ATOM     20  C   UNL A   1      32.237  20.301  24.238  1.00  0.00     0.181 C 
ATOM     21  O   UNL A   1      31.835  20.782  25.302  1.00  0.00    -0.292 OA
BRANCH  20  22
ATOM     22  C   UNL A   1      32.763  18.906  24.268  1.00  0.00     0.019 A 
ATOM     23  C   UNL A   1      32.755  18.247  25.509  1.00  0.00     0.012 A 
ATOM     24  C   UNL A   1      33.222  18.223  23.139  1.00  0.00     0.012 A 
ATOM     25  C   UNL A   1      33.130  16.907  25.605  1.00  0.00     0.001 A 
ATOM     26  C   UNL A   1      33.581  16.876  23.235  1.00  0.00     0.001 A 
ATOM     27  C   UNL A   1      33.526  16.217  24.462  1.00  0.00     0.000 A 
ENDBRANCH  20  22
ENDBRANCH  19  20
ENDBRANCH  17  19
ENDBRANCH  14  15
ENDBRANCH   4   7
ENDBRANCH   2   3
ENDBRANCH   1   2
BRANCH   1  28
ATOM     28  C   UNL A   1      35.630  21.509  24.608  1.00  0.00     0.002 C 
BRANCH  28  29
ATOM     29  C   UNL A   1      37.143  21.487  24.366  1.00  0.00     0.002 C 
BRANCH  29  30
ATOM     30  C   UNL A   1      37.856  20.194  24.773  1.00  0.00     0.021 C 
BRANCH  30  31
ATOM     31  C   UNL A   1      38.767  20.321  25.990  1.00  0.00     0.116 C 
BRANCH  31  32
ATOM     32  N   UNL A   1      39.929  19.454  25.891  1.00  0.00    -0.352 N 
ATOM     33  C   UNL A   1      41.254  19.751  26.051  1.00  0.00     0.251 C 
ATOM     34  H   UNL A   1      39.733  18.513  25.679  1.00  0.00     0.163 HD
ATOM     35  O   UNL A   1      42.112  18.929  25.725  1.00  0.00    -0.269 OA
BRANCH  33  36
ATOM     36  C   UNL A   1      41.664  21.056  26.604  1.00  0.00     0.039 A 
ATOM     37  C   UNL A   1      42.021  22.077  25.720  1.00  0.00     0.014 A 
ATOM     38  C   UNL A   1      41.736  21.262  27.985  1.00  0.00     0.014 A 
ATOM     39  C   UNL A   1      42.417  23.318  26.221  1.00  0.00     0.010 A 
ATOM     40  C   UNL A   1      42.064  22.520  28.482  1.00  0.00     0.010 A 
ATOM     41  C   UNL A   1      42.423  23.555  27.605  1.00  0.00    -0.014 A 
BRANCH  41  42
ATOM     42  C   UNL A   1      42.827  24.874  28.147  1.00  0.00     0.031 A 
ATOM     43  C   UNL A   1      41.793  25.935  28.408  1.00  0.00     0.074 A 
ATOM     44  C   UNL A   1      44.130  25.130  28.370  1.00  0.00     0.049 A 
ATOM     45  N   UNL A   1      41.954  27.145  28.877  1.00  0.00    -0.248 NA
ATOM     46  C   UNL A   1      40.400  25.597  28.076  1.00  0.00     0.031 C 
ATOM     47  C   UNL A   1      45.232  24.199  28.119  1.00  0.00     0.029 A 
ATOM     48  N   UNL A   1      44.746  26.251  28.863  1.00  0.00    -0.354 N 
ATOM     49  C   UNL A   1      40.689  27.718  28.885  1.00  0.00     0.074 A 
ATOM     50  C   UNL A   1      39.780  26.742  28.324  1.00  0.00     0.031 C 
ATOM     51  C   UNL A   1      46.386  24.775  28.495  1.00  0.00     0.029 A 
ATOM     52  C   UNL A   1      46.108  26.122  28.981  1.00  0.00     0.049 A 
ATOM     53  H   UNL A   1      44.258  27.071  29.110  1.00  0.00     0.167 HD
ATOM     54  C   UNL A   1      40.311  28.937  29.337  1.00  0.00     0.031 A 
ATOM     55  C   UNL A   1      47.030  26.991  29.437  1.00  0.00     0.031 A 
ATOM     56  C   UNL A   1      41.213  29.904  29.902  1.00  0.00     0.049 A 
ATOM     57  C   UNL A   1      46.587  28.339  29.932  1.00  0.00     0.074 A 
ATOM     58  C   UNL A   1      40.921  31.148  30.437  1.00  0.00     0.029 A 
ATOM     59  N   UNL A   1      42.585  29.736  30.004  1.00  0.00    -0.354 N 
ATOM     60  N   UNL A   1      45.377  28.839  29.995  1.00  0.00    -0.248 NA
ATOM     61  C   UNL A   1      47.638  29.232  30.435  1.00  0.00     0.031 C 
ATOM     62  C   UNL A   1      42.125  31.750  30.821  1.00  0.00     0.029 A 
ATOM     63  C   UNL A   1      43.158  30.860  30.574  1.00  0.00     0.049 A 
ATOM     64  H   UNL A   1      43.078  28.935  29.715  1.00  0.00     0.167 HD
ATOM     65  C   UNL A   1      45.518  30.096  30.567  1.00  0.00     0.074 A 
ATOM     66  C   UNL A   1      46.928  30.272  30.848  1.00  0.00     0.031 C 
ATOM     67  C   UNL A   1      44.565  31.022  30.839  1.00  0.00     0.031 A 
BRANCH  54  68
ATOM     68  C   UNL A   1      38.853  29.289  29.227  1.00  0.00    -0.014 A 
ATOM     69  C   UNL A   1      37.958  29.024  30.277  1.00  0.00     0.009 A 
ATOM     70  C   UNL A   1      38.366  29.903  28.062  1.00  0.00     0.009 A 
ATOM     71  C   UNL A   1      36.602  29.327  30.146  1.00  0.00     0.001 A 
ATOM     72  C   UNL A   1      37.014  30.232  27.946  1.00  0.00     0.001 A 
ATOM     73  C   UNL A   1      36.132  29.933  28.982  1.00  0.00     0.000 A 
ENDBRANCH  54  68
BRANCH  55  74
ATOM     74  C   UNL A   1      48.460  26.596  29.482  1.00  0.00    -0.014 A 
ATOM     75  C   UNL A   1      49.002  26.025  30.644  1.00  0.00     0.009 A 
ATOM     76  C   UNL A   1      49.289  26.782  28.366  1.00  0.00     0.009 A 
ATOM     77  C   UNL A   1      50.351  25.668  30.695  1.00  0.00     0.001 A 
ATOM     78  C   UNL A   1      50.632  26.400  28.411  1.00  0.00     0.001 A 
ATOM     79  C   UNL A   1      51.163  25.852  29.577  1.00  0.00     0.000 A 
ENDBRANCH  55  74
BRANCH  67  80
ATOM     80  C   UNL A   1      45.017  32.293  31.499  1.00  0.00    -0.014 A 
ATOM     81  C   UNL A   1      45.375  33.420  30.745  1.00  0.00     0.009 A 
ATOM     82  C   UNL A   1      45.060  32.369  32.901  1.00  0.00     0.009 A 
ATOM     83  C   UNL A   1      45.805  34.587  31.380  1.00  0.00     0.001 A 
ATOM     84  C   UNL A   1      45.463  33.546  33.533  1.00  0.00     0.001 A 
ATOM     85  C   UNL A   1      45.844  34.650  32.772  1.00  0.00     0.000 A 
ENDBRANCH  67  80
ENDBRANCH  41  42
ENDBRANCH  33  36
ENDBRANCH  31  32
ENDBRANCH  30  31
ENDBRANCH  29  30
ENDBRANCH  28  29
ENDBRANCH   1  28
TORSDOF 17
ENDMDL
MODEL 3
REMARK VINA RESULT:     -11.2      1.731      3.570
REMARK SMILES CC1=C(C)C[C@@H](C(=O)NCC(=O)c2ccccc2)[C@H](C(=O)NCCCCCCNC(=O)c2ccc(-c3c4nc(c(-c5ccccc5)c5ccc([nH]5)c(-c5ccccc5)c5nc(c(-c6ccccc6)c6ccc3[nH]6)C=C5)C=C4)cc2)C1
REMARK SMILES IDX 24 1 23 2 22 3 20 4 21 5 19 7 1 8 2 9 3 10 80 11 4 12 5 13
REMARK SMILES IDX 6 14 7 15 8 16 9 17 10 19 11 20 12 21 13 22 14 23 18 24
REMARK SMILES IDX 15 25 17 26 16 27 25 28 26 29 27 30 28 31 29 32 30 33 31 35
REMARK SMILES IDX 32 36 33 37 79 38 34 39 78 40 35 41 36 42 37 43 72 44 38 45
REMARK SMILES IDX 77 46 71 47 73 48 39 49 76 50 70 51 69 52 40 54 62 55 47 56
REMARK SMILES IDX 61 57 48 58 51 59 60 60 74 61 49 62 50 63 59 65 75 66 52 67
REMARK SMILES IDX 41 68 42 69 46 70 43 71 45 72 44 73 63 74 64 75 68 76 65 77
REMARK SMILES IDX 67 78 66 79 53 80 54 81 58 82 55 83 57 84 56 85
REMARK H PARENT 22 6 9 18 29 34 73 53 51 64
REMARK Flexibility Score: inf
ROOT
ATOM      1  C   UNL A   1      36.443  22.455  23.806  1.00  0.00     0.021 C 
ENDROOT
BRANCH   1   2
ATOM      2  C   UNL A   1      34.981  22.188  24.133  1.00  0.00     0.116 C 
BRANCH   2   3
ATOM      3  N   UNL A   1      34.702  22.339  25.541  1.00  0.00    -0.356 N 
ATOM      4  C   UNL A   1      33.921  23.248  26.180  1.00  0.00     0.224 C 
ATOM      5  O   UNL A   1      33.817  23.143  27.405  1.00  0.00    -0.275 OA
ATOM      6  H   UNL A   1      35.147  21.685  26.127  1.00  0.00     0.163 HD
BRANCH   4   7
ATOM      7  C   UNL A   1      33.192  24.371  25.434  1.00  0.00     0.095 C 
ATOM      8  C   UNL A   1      34.166  28.110  26.134  1.00  0.00     0.039 C 
ATOM      9  C   UNL A   1      33.271  26.893  26.124  1.00  0.00    -0.074 C 
ATOM     10  C   UNL A   1      32.012  26.846  26.612  1.00  0.00    -0.074 C 
ATOM     11  C   UNL A   1      33.953  25.696  25.500  1.00  0.00     0.045 C 
ATOM     12  C   UNL A   1      31.310  27.977  27.324  1.00  0.00     0.039 C 
ATOM     13  C   UNL A   1      31.148  25.606  26.521  1.00  0.00     0.045 C 
ATOM     14  C   UNL A   1      31.696  24.397  25.758  1.00  0.00     0.095 C 
BRANCH  14  15
ATOM     15  C   UNL A   1      30.839  24.067  24.536  1.00  0.00     0.224 C 
ATOM     16  O   UNL A   1      30.928  22.954  24.009  1.00  0.00    -0.275 OA
ATOM     17  N   UNL A   1      29.958  24.926  23.969  1.00  0.00    -0.348 N 
ATOM     18  H   UNL A   1      29.516  24.558  23.169  1.00  0.00     0.163 HD
BRANCH  17  19
ATOM     19  C   UNL A   1      29.529  26.273  24.294  1.00  0.00     0.197 C 
BRANCH  19  20
ATOM     20  C   UNL A   1      29.958  27.482  23.451  1.00  0.00     0.181 C 
ATOM     21  O   UNL A   1      29.162  28.409  23.273  1.00  0.00    -0.292 OA
BRANCH  20  22
ATOM     22  C   UNL A   1      31.360  27.679  22.982  1.00  0.00     0.019 A 
ATOM     23  C   UNL A   1      31.961  28.916  23.268  1.00  0.00     0.012 A 
ATOM     24  C   UNL A   1      32.103  26.701  22.317  1.00  0.00     0.012 A 
ATOM     25  C   UNL A   1      33.303  29.143  22.961  1.00  0.00     0.001 A 
ATOM     26  C   UNL A   1      33.451  26.925  22.024  1.00  0.00     0.001 A 
ATOM     27  C   UNL A   1      34.052  28.139  22.354  1.00  0.00     0.000 A 
ENDBRANCH  20  22
ENDBRANCH  19  20
ENDBRANCH  17  19
ENDBRANCH  14  15
ENDBRANCH   4   7
ENDBRANCH   2   3
ENDBRANCH   1   2
BRANCH   1  28
ATOM     28  C   UNL A   1      37.423  21.636  24.647  1.00  0.00     0.002 C 
BRANCH  28  29
ATOM     29  C   UNL A   1      37.133  20.132  24.699  1.00  0.00     0.002 C 
BRANCH  29  30
ATOM     30  C   UNL A   1      38.333  19.242  25.035  1.00  0.00     0.021 C 
BRANCH  30  31
ATOM     31  C   UNL A   1      39.368  19.883  25.953  1.00  0.00     0.116 C 
BRANCH  31  32
ATOM     32  N   UNL A   1      40.604  19.120  25.995  1.00  0.00    -0.352 N 
ATOM     33  C   UNL A   1      41.884  19.546  26.221  1.00  0.00     0.251 C 
ATOM     34  H   UNL A   1      40.506  18.154  25.839  1.00  0.00     0.163 HD
ATOM     35  O   UNL A   1      42.831  18.786  26.013  1.00  0.00    -0.269 OA
BRANCH  33  36
ATOM     36  C   UNL A   1      42.139  20.917  26.704  1.00  0.00     0.039 A 
ATOM     37  C   UNL A   1      42.034  21.178  28.072  1.00  0.00     0.014 A 
ATOM     38  C   UNL A   1      42.439  21.950  25.810  1.00  0.00     0.014 A 
ATOM     39  C   UNL A   1      42.266  22.468  28.549  1.00  0.00     0.010 A 
ATOM     40  C   UNL A   1      42.737  23.221  26.294  1.00  0.00     0.010 A 
ATOM     41  C   UNL A   1      42.637  23.495  27.667  1.00  0.00    -0.014 A 
BRANCH  41  42
ATOM     42  C   UNL A   1      42.901  24.866  28.166  1.00  0.00     0.031 A 
ATOM     43  C   UNL A   1      44.302  25.292  28.508  1.00  0.00     0.074 A 
ATOM     44  C   UNL A   1      41.873  25.717  28.346  1.00  0.00     0.049 A 
ATOM     45  N   UNL A   1      44.727  26.444  28.958  1.00  0.00    -0.248 NA
ATOM     46  C   UNL A   1      45.360  24.281  28.345  1.00  0.00     0.031 C 
ATOM     47  C   UNL A   1      40.464  25.410  28.090  1.00  0.00     0.029 A 
ATOM     48  N   UNL A   1      41.857  27.016  28.784  1.00  0.00    -0.354 N 
ATOM     49  C   UNL A   1      46.096  26.295  29.144  1.00  0.00     0.074 A 
ATOM     50  C   UNL A   1      46.420  24.926  28.809  1.00  0.00     0.031 C 
ATOM     51  C   UNL A   1      39.725  26.503  28.340  1.00  0.00     0.029 A 
ATOM     52  C   UNL A   1      40.603  27.574  28.803  1.00  0.00     0.049 A 
ATOM     53  H   UNL A   1      42.668  27.502  29.058  1.00  0.00     0.167 HD
ATOM     54  C   UNL A   1      47.005  27.218  29.536  1.00  0.00     0.031 A 
ATOM     55  C   UNL A   1      40.204  28.812  29.149  1.00  0.00     0.031 A 
ATOM     56  C   UNL A   1      46.684  28.582  29.860  1.00  0.00     0.049 A 
ATOM     57  C   UNL A   1      41.232  29.819  29.584  1.00  0.00     0.074 A 
ATOM     58  C   UNL A   1      47.540  29.609  30.219  1.00  0.00     0.029 A 
ATOM     59  N   UNL A   1      45.402  29.108  29.868  1.00  0.00    -0.354 N 
ATOM     60  N   UNL A   1      42.531  29.681  29.689  1.00  0.00    -0.248 NA
ATOM     61  C   UNL A   1      40.735  31.157  29.929  1.00  0.00     0.031 C 
ATOM     62  C   UNL A   1      46.768  30.746  30.487  1.00  0.00     0.029 A 
ATOM     63  C   UNL A   1      45.439  30.440  30.244  1.00  0.00     0.049 A 
ATOM     64  H   UNL A   1      44.585  28.608  29.639  1.00  0.00     0.167 HD
ATOM     65  C   UNL A   1      43.011  30.921  30.089  1.00  0.00     0.074 A 
ATOM     66  C   UNL A   1      41.864  31.801  30.188  1.00  0.00     0.031 C 
ATOM     67  C   UNL A   1      44.287  31.299  30.347  1.00  0.00     0.031 A 
BRANCH  54  68
ATOM     68  C   UNL A   1      48.437  26.770  29.641  1.00  0.00    -0.014 A 
ATOM     69  C   UNL A   1      48.964  26.292  30.852  1.00  0.00     0.009 A 
ATOM     70  C   UNL A   1      49.270  26.818  28.512  1.00  0.00     0.009 A 
ATOM     71  C   UNL A   1      50.304  25.911  30.941  1.00  0.00     0.001 A 
ATOM     72  C   UNL A   1      50.602  26.407  28.596  1.00  0.00     0.001 A 
ATOM     73  C   UNL A   1      51.121  25.966  29.813  1.00  0.00     0.000 A 
ENDBRANCH  54  68
BRANCH  55  74
ATOM     74  C   UNL A   1      38.769  29.179  29.062  1.00  0.00    -0.014 A 
ATOM     75  C   UNL A   1      37.953  29.128  30.202  1.00  0.00     0.009 A 
ATOM     76  C   UNL A   1      38.207  29.586  27.842  1.00  0.00     0.009 A 
ATOM     77  C   UNL A   1      36.598  29.457  30.119  1.00  0.00     0.001 A 
ATOM     78  C   UNL A   1      36.858  29.938  27.767  1.00  0.00     0.001 A 
ATOM     79  C   UNL A   1      36.053  29.865  28.903  1.00  0.00     0.000 A 
ENDBRANCH  55  74
BRANCH  67  80
ATOM     80  C   UNL A   1      44.509  32.734  30.732  1.00  0.00    -0.014 A 
ATOM     81  C   UNL A   1      44.756  33.719  29.764  1.00  0.00     0.009 A 
ATOM     82  C   UNL A   1      44.446  33.107  32.084  1.00  0.00     0.009 A 
ATOM     83  C   UNL A   1      44.972  35.045  30.147  1.00  0.00     0.001 A 
ATOM     84  C   UNL A   1      44.634  34.437  32.461  1.00  0.00     0.001 A 
ATOM     85  C   UNL A   1      44.908  35.403  31.492  1.00  0.00     0.000 A 
ENDBRANCH  67  80
ENDBRANCH  41  42
ENDBRANCH  33  36
ENDBRANCH  31  32
ENDBRANCH  30  31
ENDBRANCH  29  30
ENDBRANCH  28  29
ENDBRANCH   1  28
TORSDOF 17
ENDMDL
