MODEL 1
REMARK VINA RESULT:      -8.8      0.000      0.000
REMARK SMILES Cc1cc2c(c(C)c1Cl)C=C(C(=O)NCCCCCCNC(=O)c1ccc(-c3c4nc(c(-c5ccccc5)c5ccc([nH]5)c(-c5ccccc5)c5nc(c(-c6ccccc6)c6ccc3[nH]6)C=C5)C=C4)cc1)[C@@H](C(F)(F)F)O2
REMARK SMILES IDX 18 1 17 2 16 3 15 4 14 5 12 6 13 7 11 9 1 10 2 11 3 12 8 13
REMARK SMILES IDX 4 14 6 15 9 16 5 17 77 18 7 19 10 20 72 21 73 22 74 23 75 24
REMARK SMILES IDX 76 25 19 26 20 27 21 28 22 29 23 31 24 32 25 33 71 34 26 35
REMARK SMILES IDX 70 36 27 37 28 38 29 39 64 40 30 41 69 42 63 43 65 44 31 45
REMARK SMILES IDX 68 46 62 47 61 48 32 50 54 51 39 52 53 53 40 54 43 55 52 56
REMARK SMILES IDX 66 57 41 58 42 59 51 61 67 62 44 63 33 64 34 65 38 66 35 67
REMARK SMILES IDX 37 68 36 69 55 70 56 71 60 72 57 73 59 74 58 75 45 76 46 77
REMARK SMILES IDX 50 78 47 79 49 80 48 81
REMARK H PARENT 14 8 21 30 65 49 43 60
REMARK Flexibility Score: inf
ROOT
ATOM      1  C   UNL A   1      45.663  19.834  24.338  1.00  0.00     0.002 C 
ENDROOT
BRANCH   1   2
ATOM      2  C   UNL A   1      45.301  21.318  24.500  1.00  0.00     0.002 C 
BRANCH   2   3
ATOM      3  C   UNL A   1      45.932  22.006  25.713  1.00  0.00     0.021 C 
BRANCH   3   4
ATOM      4  C   UNL A   1      46.233  23.482  25.481  1.00  0.00     0.116 C 
BRANCH   4   5
ATOM      5  N   UNL A   1      45.049  24.216  25.076  1.00  0.00    -0.352 N 
ATOM      6  C   UNL A   1      44.604  25.492  25.138  1.00  0.00     0.251 C 
ATOM      7  O   UNL A   1      43.497  25.688  24.626  1.00  0.00    -0.270 OA
ATOM      8  H   UNL A   1      44.393  23.626  24.639  1.00  0.00     0.163 HD
BRANCH   6   9
ATOM      9  C   UNL A   1      45.342  26.630  25.765  1.00  0.00     0.067 C 
ATOM     10  C   UNL A   1      47.385  31.999  28.812  1.00  0.00     0.046 C 
ATOM     11  C   UNL A   1      46.571  30.924  28.146  1.00  0.00    -0.028 A 
ATOM     12  C   UNL A   1      47.248  29.762  27.768  1.00  0.00     0.052 A 
ATOM     13  C   UNL A   1      45.202  31.042  27.833  1.00  0.00     0.047 A 
ATOM     14  C   UNL A   1      46.580  28.730  27.120  1.00  0.00     0.128 A 
ATOM     15  C   UNL A   1      44.503  29.987  27.190  1.00  0.00    -0.021 A 
ATOM     16  Cl  UNL A   1      44.378  32.514  28.247  1.00  0.00    -0.084 Cl
ATOM     17  C   UNL A   1      45.214  28.812  26.840  1.00  0.00     0.022 A 
ATOM     18  O   UNL A   1      47.353  27.648  26.832  1.00  0.00    -0.475 OA
ATOM     19  C   UNL A   1      43.029  30.081  26.871  1.00  0.00     0.047 C 
ATOM     20  C   UNL A   1      44.582  27.643  26.221  1.00  0.00     0.026 C 
ATOM     21  C   UNL A   1      46.834  26.699  25.872  1.00  0.00     0.314 C 
BRANCH  21  22
ATOM     22  C   UNL A   1      47.524  26.926  24.515  1.00  0.00     0.429 C 
ATOM     23  F   UNL A   1      48.721  27.542  24.691  1.00  0.00    -0.167 F 
ATOM     24  F   UNL A   1      47.787  25.772  23.860  1.00  0.00    -0.167 F 
ATOM     25  F   UNL A   1      46.790  27.695  23.681  1.00  0.00    -0.167 F 
ENDBRANCH  21  22
ENDBRANCH   6   9
ENDBRANCH   4   5
ENDBRANCH   3   4
ENDBRANCH   2   3
ENDBRANCH   1   2
BRANCH   1  26
ATOM     26  C   UNL A   1      44.484  18.863  24.442  1.00  0.00     0.021 C 
BRANCH  26  27
ATOM     27  C   UNL A   1      43.689  18.983  25.736  1.00  0.00     0.116 C 
BRANCH  27  28
ATOM     28  N   UNL A   1      42.256  18.967  25.489  1.00  0.00    -0.352 N 
ATOM     29  C   UNL A   1      41.292  19.828  25.941  1.00  0.00     0.251 C 
ATOM     30  H   UNL A   1      41.935  18.234  24.916  1.00  0.00     0.163 HD
ATOM     31  O   UNL A   1      40.102  19.543  25.832  1.00  0.00    -0.269 OA
BRANCH  29  32
ATOM     32  C   UNL A   1      41.693  21.099  26.572  1.00  0.00     0.039 A 
ATOM     33  C   UNL A   1      41.899  22.220  25.766  1.00  0.00     0.014 A 
ATOM     34  C   UNL A   1      41.870  21.178  27.957  1.00  0.00     0.014 A 
ATOM     35  C   UNL A   1      42.239  23.437  26.357  1.00  0.00     0.010 A 
ATOM     36  C   UNL A   1      42.134  22.407  28.551  1.00  0.00     0.010 A 
ATOM     37  C   UNL A   1      42.335  23.544  27.754  1.00  0.00    -0.014 A 
BRANCH  37  38
ATOM     38  C   UNL A   1      42.674  24.836  28.397  1.00  0.00     0.031 A 
ATOM     39  C   UNL A   1      41.621  25.899  28.539  1.00  0.00     0.074 A 
ATOM     40  C   UNL A   1      43.931  25.059  28.826  1.00  0.00     0.049 A 
ATOM     41  N   UNL A   1      41.727  27.098  29.054  1.00  0.00    -0.248 NA
ATOM     42  C   UNL A   1      40.278  25.584  28.024  1.00  0.00     0.031 C 
ATOM     43  C   UNL A   1      45.042  24.111  28.723  1.00  0.00     0.029 A 
ATOM     44  N   UNL A   1      44.483  26.154  29.441  1.00  0.00    -0.354 N 
ATOM     45  C   UNL A   1      40.472  27.676  28.923  1.00  0.00     0.074 A 
ATOM     46  C   UNL A   1      39.635  26.724  28.227  1.00  0.00     0.031 C 
ATOM     47  C   UNL A   1      46.131  24.648  29.295  1.00  0.00     0.029 A 
ATOM     48  C   UNL A   1      45.809  25.992  29.763  1.00  0.00     0.049 A 
ATOM     49  H   UNL A   1      43.978  26.976  29.633  1.00  0.00     0.167 HD
ATOM     50  C   UNL A   1      40.045  28.880  29.367  1.00  0.00     0.031 A 
ATOM     51  C   UNL A   1      46.669  26.834  30.369  1.00  0.00     0.031 A 
ATOM     52  C   UNL A   1      40.876  29.822  30.066  1.00  0.00     0.049 A 
ATOM     53  C   UNL A   1      46.181  28.187  30.808  1.00  0.00     0.074 A 
ATOM     54  C   UNL A   1      40.527  31.054  30.587  1.00  0.00     0.029 A 
ATOM     55  N   UNL A   1      42.221  29.633  30.343  1.00  0.00    -0.354 N 
ATOM     56  N   UNL A   1      44.976  28.698  30.721  1.00  0.00    -0.248 NA
ATOM     57  C   UNL A   1      47.169  29.077  31.433  1.00  0.00     0.031 C 
ATOM     58  C   UNL A   1      41.674  31.639  31.128  1.00  0.00     0.029 A 
ATOM     59  C   UNL A   1      42.723  30.742  31.002  1.00  0.00     0.049 A 
ATOM     60  H   UNL A   1      42.741  28.832  30.106  1.00  0.00     0.167 HD
ATOM     61  C   UNL A   1      45.057  29.958  31.302  1.00  0.00     0.074 A 
ATOM     62  C   UNL A   1      46.422  30.125  31.754  1.00  0.00     0.031 C 
ATOM     63  C   UNL A   1      44.085  30.892  31.445  1.00  0.00     0.031 A 
BRANCH  50  64
ATOM     64  C   UNL A   1      38.608  29.247  29.123  1.00  0.00    -0.014 A 
ATOM     65  C   UNL A   1      38.174  29.663  27.853  1.00  0.00     0.009 A 
ATOM     66  C   UNL A   1      37.663  29.109  30.151  1.00  0.00     0.009 A 
ATOM     67  C   UNL A   1      36.828  29.954  27.626  1.00  0.00     0.001 A 
ATOM     68  C   UNL A   1      36.313  29.371  29.913  1.00  0.00     0.001 A 
ATOM     69  C   UNL A   1      35.898  29.798  28.653  1.00  0.00     0.000 A 
ENDBRANCH  50  64
BRANCH  51  70
ATOM     70  C   UNL A   1      48.072  26.412  30.618  1.00  0.00    -0.014 A 
ATOM     71  C   UNL A   1      48.419  25.763  31.813  1.00  0.00     0.009 A 
ATOM     72  C   UNL A   1      49.073  26.647  29.661  1.00  0.00     0.009 A 
ATOM     73  C   UNL A   1      49.739  25.379  32.053  1.00  0.00     0.001 A 
ATOM     74  C   UNL A   1      50.386  26.233  29.891  1.00  0.00     0.001 A 
ATOM     75  C   UNL A   1      50.721  25.608  31.091  1.00  0.00     0.000 A 
ENDBRANCH  51  70
BRANCH  63  76
ATOM     76  C   UNL A   1      44.452  32.177  32.132  1.00  0.00    -0.014 A 
ATOM     77  C   UNL A   1      44.335  32.315  33.524  1.00  0.00     0.009 A 
ATOM     78  C   UNL A   1      44.999  33.234  31.386  1.00  0.00     0.009 A 
ATOM     79  C   UNL A   1      44.741  33.494  34.151  1.00  0.00     0.001 A 
ATOM     80  C   UNL A   1      45.432  34.399  32.021  1.00  0.00     0.001 A 
ATOM     81  C   UNL A   1      45.297  34.530  33.401  1.00  0.00     0.000 A 
ENDBRANCH  63  76
ENDBRANCH  37  38
ENDBRANCH  29  32
ENDBRANCH  27  28
ENDBRANCH  26  27
ENDBRANCH   1  26
TORSDOF 14
ENDMDL
MODEL 2
REMARK VINA RESULT:      -8.8      0.736      5.940
REMARK SMILES Cc1cc2c(c(C)c1Cl)C=C(C(=O)NCCCCCCNC(=O)c1ccc(-c3c4nc(c(-c5ccccc5)c5ccc([nH]5)c(-c5ccccc5)c5nc(c(-c6ccccc6)c6ccc3[nH]6)C=C5)C=C4)cc1)[C@@H](C(F)(F)F)O2
REMARK SMILES IDX 18 1 17 2 16 3 15 4 14 5 12 6 13 7 11 9 1 10 2 11 3 12 8 13
REMARK SMILES IDX 4 14 6 15 9 16 5 17 77 18 7 19 10 20 72 21 73 22 74 23 75 24
REMARK SMILES IDX 76 25 19 26 20 27 21 28 22 29 23 31 24 32 25 33 71 34 26 35
REMARK SMILES IDX 70 36 27 37 28 38 29 39 64 40 30 41 69 42 63 43 65 44 31 45
REMARK SMILES IDX 68 46 62 47 61 48 32 50 54 51 39 52 53 53 40 54 43 55 52 56
REMARK SMILES IDX 66 57 41 58 42 59 51 61 67 62 44 63 33 64 34 65 38 66 35 67
REMARK SMILES IDX 37 68 36 69 55 70 56 71 60 72 57 73 59 74 58 75 45 76 46 77
REMARK SMILES IDX 50 78 47 79 49 80 48 81
REMARK H PARENT 14 8 21 30 65 49 43 60
REMARK Flexibility Score: inf
ROOT
ATOM      1  C   UNL A   1      46.061  19.869  24.767  1.00  0.00     0.002 C 
ENDROOT
BRANCH   1   2
ATOM      2  C   UNL A   1      45.565  21.303  24.528  1.00  0.00     0.002 C 
BRANCH   2   3
ATOM      3  C   UNL A   1      45.805  22.269  25.690  1.00  0.00     0.021 C 
BRANCH   3   4
ATOM      4  C   UNL A   1      46.336  23.627  25.247  1.00  0.00     0.116 C 
BRANCH   4   5
ATOM      5  N   UNL A   1      45.271  24.604  25.114  1.00  0.00    -0.352 N 
ATOM      6  C   UNL A   1      45.121  25.937  25.290  1.00  0.00     0.251 C 
ATOM      7  O   UNL A   1      43.998  26.379  25.028  1.00  0.00    -0.270 OA
ATOM      8  H   UNL A   1      44.433  24.183  24.816  1.00  0.00     0.163 HD
BRANCH   6   9
ATOM      9  C   UNL A   1      46.190  26.867  25.765  1.00  0.00     0.067 C 
ATOM     10  C   UNL A   1      49.877  31.525  28.411  1.00  0.00     0.046 C 
ATOM     11  C   UNL A   1      48.740  30.673  27.916  1.00  0.00    -0.028 A 
ATOM     12  C   UNL A   1      49.071  29.431  27.370  1.00  0.00     0.052 A 
ATOM     13  C   UNL A   1      47.388  31.073  27.918  1.00  0.00     0.047 A 
ATOM     14  C   UNL A   1      48.086  28.594  26.862  1.00  0.00     0.128 A 
ATOM     15  C   UNL A   1      46.370  30.218  27.421  1.00  0.00    -0.021 A 
ATOM     16  Cl  UNL A   1      46.987  32.645  28.539  1.00  0.00    -0.084 Cl
ATOM     17  C   UNL A   1      46.738  28.955  26.893  1.00  0.00     0.022 A 
ATOM     18  O   UNL A   1      48.545  27.405  26.383  1.00  0.00    -0.475 OA
ATOM     19  C   UNL A   1      44.912  30.615  27.439  1.00  0.00     0.047 C 
ATOM     20  C   UNL A   1      45.765  27.974  26.403  1.00  0.00     0.026 C 
ATOM     21  C   UNL A   1      47.653  26.641  25.540  1.00  0.00     0.314 C 
BRANCH  21  22
ATOM     22  C   UNL A   1      48.070  26.823  24.069  1.00  0.00     0.429 C 
ATOM     23  F   UNL A   1      49.308  27.377  23.995  1.00  0.00    -0.167 F 
ATOM     24  F   UNL A   1      48.141  25.652  23.395  1.00  0.00    -0.167 F 
ATOM     25  F   UNL A   1      47.225  27.623  23.384  1.00  0.00    -0.167 F 
ENDBRANCH  21  22
ENDBRANCH   6   9
ENDBRANCH   4   5
ENDBRANCH   3   4
ENDBRANCH   2   3
ENDBRANCH   1   2
BRANCH   1  26
ATOM     26  C   UNL A   1      44.962  18.806  24.844  1.00  0.00     0.021 C 
BRANCH  26  27
ATOM     27  C   UNL A   1      44.010  18.976  26.021  1.00  0.00     0.116 C 
BRANCH  27  28
ATOM     28  N   UNL A   1      42.623  18.810  25.619  1.00  0.00    -0.352 N 
ATOM     29  C   UNL A   1      41.539  19.592  25.916  1.00  0.00     0.251 C 
ATOM     30  H   UNL A   1      42.438  18.026  25.056  1.00  0.00     0.163 HD
ATOM     31  O   UNL A   1      40.400  19.189  25.692  1.00  0.00    -0.269 OA
BRANCH  29  32
ATOM     32  C   UNL A   1      41.747  20.923  26.517  1.00  0.00     0.039 A 
ATOM     33  C   UNL A   1      41.733  21.047  27.907  1.00  0.00     0.014 A 
ATOM     34  C   UNL A   1      41.949  22.043  25.705  1.00  0.00     0.014 A 
ATOM     35  C   UNL A   1      41.968  22.294  28.487  1.00  0.00     0.010 A 
ATOM     36  C   UNL A   1      42.259  23.268  26.285  1.00  0.00     0.010 A 
ATOM     37  C   UNL A   1      42.257  23.407  27.681  1.00  0.00    -0.014 A 
BRANCH  37  38
ATOM     38  C   UNL A   1      42.531  24.733  28.284  1.00  0.00     0.031 A 
ATOM     39  C   UNL A   1      43.911  25.056  28.784  1.00  0.00     0.074 A 
ATOM     40  C   UNL A   1      41.535  25.631  28.404  1.00  0.00     0.049 A 
ATOM     41  N   UNL A   1      44.343  26.150  29.359  1.00  0.00    -0.248 NA
ATOM     42  C   UNL A   1      44.938  24.011  28.636  1.00  0.00     0.031 C 
ATOM     43  C   UNL A   1      40.151  25.424  27.973  1.00  0.00     0.029 A 
ATOM     44  N   UNL A   1      41.536  26.903  28.918  1.00  0.00    -0.354 N 
ATOM     45  C   UNL A   1      45.684  25.923  29.640  1.00  0.00     0.074 A 
ATOM     46  C   UNL A   1      45.982  24.570  29.230  1.00  0.00     0.031 C 
ATOM     47  C   UNL A   1      39.448  26.544  28.202  1.00  0.00     0.029 A 
ATOM     48  C   UNL A   1      40.317  27.531  28.835  1.00  0.00     0.049 A 
ATOM     49  H   UNL A   1      42.334  27.325  29.309  1.00  0.00     0.167 HD
ATOM     50  C   UNL A   1      46.592  26.776  30.164  1.00  0.00     0.031 A 
ATOM     51  C   UNL A   1      39.942  28.765  29.225  1.00  0.00     0.031 A 
ATOM     52  C   UNL A   1      46.297  28.125  30.563  1.00  0.00     0.049 A 
ATOM     53  C   UNL A   1      40.962  29.675  29.853  1.00  0.00     0.074 A 
ATOM     54  C   UNL A   1      47.158  29.078  31.074  1.00  0.00     0.029 A 
ATOM     55  N   UNL A   1      45.042  28.711  30.493  1.00  0.00    -0.354 N 
ATOM     56  N   UNL A   1      42.238  29.462  30.064  1.00  0.00    -0.248 NA
ATOM     57  C   UNL A   1      40.491  30.996  30.289  1.00  0.00     0.031 C 
ATOM     58  C   UNL A   1      46.414  30.224  31.369  1.00  0.00     0.029 A 
ATOM     59  C   UNL A   1      45.102  30.005  30.979  1.00  0.00     0.049 A 
ATOM     60  H   UNL A   1      44.231  28.272  30.149  1.00  0.00     0.167 HD
ATOM     61  C   UNL A   1      42.727  30.630  30.636  1.00  0.00     0.074 A 
ATOM     62  C   UNL A   1      41.615  31.553  30.720  1.00  0.00     0.031 C 
ATOM     63  C   UNL A   1      43.985  30.911  31.056  1.00  0.00     0.031 A 
BRANCH  50  64
ATOM     64  C   UNL A   1      48.003  26.282  30.329  1.00  0.00    -0.014 A 
ATOM     65  C   UNL A   1      48.465  25.818  31.571  1.00  0.00     0.009 A 
ATOM     66  C   UNL A   1      48.856  26.211  29.217  1.00  0.00     0.009 A 
ATOM     67  C   UNL A   1      49.762  25.315  31.701  1.00  0.00     0.001 A 
ATOM     68  C   UNL A   1      50.141  25.680  29.343  1.00  0.00     0.001 A 
ATOM     69  C   UNL A   1      50.593  25.238  30.585  1.00  0.00     0.000 A 
ENDBRANCH  50  64
BRANCH  51  70
ATOM     70  C   UNL A   1      38.543  29.219  29.011  1.00  0.00    -0.014 A 
ATOM     71  C   UNL A   1      38.142  29.722  27.764  1.00  0.00     0.009 A 
ATOM     72  C   UNL A   1      37.598  29.147  30.048  1.00  0.00     0.009 A 
ATOM     73  C   UNL A   1      36.832  30.162  27.566  1.00  0.00     0.001 A 
ATOM     74  C   UNL A   1      36.281  29.559  29.836  1.00  0.00     0.001 A 
ATOM     75  C   UNL A   1      35.900  30.075  28.599  1.00  0.00     0.000 A 
ENDBRANCH  51  70
BRANCH  63  76
ATOM     76  C   UNL A   1      44.239  32.276  31.630  1.00  0.00    -0.014 A 
ATOM     77  C   UNL A   1      44.244  32.490  33.017  1.00  0.00     0.009 A 
ATOM     78  C   UNL A   1      44.559  33.342  30.775  1.00  0.00     0.009 A 
ATOM     79  C   UNL A   1      44.546  33.751  33.534  1.00  0.00     0.001 A 
ATOM     80  C   UNL A   1      44.890  34.594  31.296  1.00  0.00     0.001 A 
ATOM     81  C   UNL A   1      44.877  34.798  32.674  1.00  0.00     0.000 A 
ENDBRANCH  63  76
ENDBRANCH  37  38
ENDBRANCH  29  32
ENDBRANCH  27  28
ENDBRANCH  26  27
ENDBRANCH   1  26
TORSDOF 14
ENDMDL
MODEL 3
REMARK VINA RESULT:      -8.6      6.040     11.548
REMARK SMILES Cc1cc2c(c(C)c1Cl)C=C(C(=O)NCCCCCCNC(=O)c1ccc(-c3c4nc(c(-c5ccccc5)c5ccc([nH]5)c(-c5ccccc5)c5nc(c(-c6ccccc6)c6ccc3[nH]6)C=C5)C=C4)cc1)[C@@H](C(F)(F)F)O2
REMARK SMILES IDX 18 1 17 2 16 3 15 4 14 5 12 6 13 7 11 9 1 10 2 11 3 12 8 13
REMARK SMILES IDX 4 14 6 15 9 16 5 17 77 18 7 19 10 20 72 21 73 22 74 23 75 24
REMARK SMILES IDX 76 25 19 26 20 27 21 28 22 29 23 31 24 32 25 33 71 34 26 35
REMARK SMILES IDX 70 36 27 37 28 38 29 39 64 40 30 41 69 42 63 43 65 44 31 45
REMARK SMILES IDX 68 46 62 47 61 48 32 50 54 51 39 52 53 53 40 54 43 55 52 56
REMARK SMILES IDX 66 57 41 58 42 59 51 61 67 62 44 63 33 64 34 65 38 66 35 67
REMARK SMILES IDX 37 68 36 69 55 70 56 71 60 72 57 73 59 74 58 75 45 76 46 77
REMARK SMILES IDX 50 78 47 79 49 80 48 81
REMARK H PARENT 14 8 21 30 65 49 43 60
REMARK Flexibility Score: inf
ROOT
ATOM      1  C   UNL A   1      32.351  30.549  26.973  1.00  0.00     0.002 C 
ENDROOT
BRANCH   1   2
ATOM      2  C   UNL A   1      33.856  30.454  27.259  1.00  0.00     0.002 C 
BRANCH   2   3
ATOM      3  C   UNL A   1      34.426  29.034  27.247  1.00  0.00     0.021 C 
BRANCH   3   4
ATOM      4  C   UNL A   1      33.496  28.015  26.600  1.00  0.00     0.116 C 
BRANCH   4   5
ATOM      5  N   UNL A   1      33.673  27.964  25.160  1.00  0.00    -0.352 N 
ATOM      6  C   UNL A   1      33.583  27.033  24.183  1.00  0.00     0.251 C 
ATOM      7  O   UNL A   1      33.804  27.447  23.040  1.00  0.00    -0.270 OA
ATOM      8  H   UNL A   1      33.926  28.844  24.798  1.00  0.00     0.163 HD
BRANCH   6   9
ATOM      9  C   UNL A   1      33.248  25.593  24.396  1.00  0.00     0.067 C 
ATOM     10  C   UNL A   1      33.052  19.186  25.495  1.00  0.00     0.046 C 
ATOM     11  C   UNL A   1      33.473  20.605  25.225  1.00  0.00    -0.028 A 
ATOM     12  C   UNL A   1      32.471  21.577  25.246  1.00  0.00     0.052 A 
ATOM     13  C   UNL A   1      34.788  20.995  24.901  1.00  0.00     0.047 A 
ATOM     14  C   UNL A   1      32.766  22.907  24.977  1.00  0.00     0.128 A 
ATOM     15  C   UNL A   1      35.107  22.355  24.645  1.00  0.00    -0.021 A 
ATOM     16  Cl  UNL A   1      36.021  19.775  24.814  1.00  0.00    -0.084 Cl
ATOM     17  C   UNL A   1      34.070  23.319  24.695  1.00  0.00     0.022 A 
ATOM     18  O   UNL A   1      31.701  23.751  25.054  1.00  0.00    -0.475 OA
ATOM     19  C   UNL A   1      36.515  22.799  24.323  1.00  0.00     0.047 C 
ATOM     20  C   UNL A   1      34.296  24.755  24.499  1.00  0.00     0.026 C 
ATOM     21  C   UNL A   1      31.849  25.063  24.463  1.00  0.00     0.314 C 
BRANCH  21  22
ATOM     22  C   UNL A   1      31.131  25.086  23.102  1.00  0.00     0.429 C 
ATOM     23  F   UNL A   1      32.006  24.805  22.102  1.00  0.00    -0.167 F 
ATOM     24  F   UNL A   1      30.147  24.163  23.011  1.00  0.00    -0.167 F 
ATOM     25  F   UNL A   1      30.574  26.286  22.828  1.00  0.00    -0.167 F 
ENDBRANCH  21  22
ENDBRANCH   6   9
ENDBRANCH   4   5
ENDBRANCH   3   4
ENDBRANCH   2   3
ENDBRANCH   1   2
BRANCH   1  26
ATOM     26  C   UNL A   1      31.737  31.936  27.179  1.00  0.00     0.021 C 
BRANCH  26  27
ATOM     27  C   UNL A   1      32.682  33.090  26.867  1.00  0.00     0.116 C 
BRANCH  27  28
ATOM     28  N   UNL A   1      32.470  34.215  27.763  1.00  0.00    -0.352 N 
ATOM     29  C   UNL A   1      33.148  34.549  28.905  1.00  0.00     0.251 C 
ATOM     30  H   UNL A   1      31.735  34.820  27.514  1.00  0.00     0.163 HD
ATOM     31  O   UNL A   1      32.698  35.398  29.670  1.00  0.00    -0.269 OA
BRANCH  29  32
ATOM     32  C   UNL A   1      34.422  33.875  29.215  1.00  0.00     0.039 A 
ATOM     33  C   UNL A   1      35.572  34.244  28.516  1.00  0.00     0.014 A 
ATOM     34  C   UNL A   1      34.475  32.876  30.193  1.00  0.00     0.014 A 
ATOM     35  C   UNL A   1      36.790  33.640  28.830  1.00  0.00     0.010 A 
ATOM     36  C   UNL A   1      35.701  32.331  30.557  1.00  0.00     0.010 A 
ATOM     37  C   UNL A   1      36.867  32.699  29.869  1.00  0.00    -0.014 A 
BRANCH  37  38
ATOM     38  C   UNL A   1      38.157  32.066  30.228  1.00  0.00     0.031 A 
ATOM     39  C   UNL A   1      39.082  32.750  31.197  1.00  0.00     0.074 A 
ATOM     40  C   UNL A   1      38.507  30.893  29.666  1.00  0.00     0.049 A 
ATOM     41  N   UNL A   1      40.259  32.367  31.620  1.00  0.00    -0.248 NA
ATOM     42  C   UNL A   1      38.635  34.039  31.750  1.00  0.00     0.031 C 
ATOM     43  C   UNL A   1      37.701  30.145  28.697  1.00  0.00     0.029 A 
ATOM     44  N   UNL A   1      39.629  30.121  29.832  1.00  0.00    -0.354 N 
ATOM     45  C   UNL A   1      40.691  33.364  32.484  1.00  0.00     0.074 A 
ATOM     46  C   UNL A   1      39.681  34.399  32.479  1.00  0.00     0.031 C 
ATOM     47  C   UNL A   1      38.336  29.003  28.389  1.00  0.00     0.029 A 
ATOM     48  C   UNL A   1      39.609  28.958  29.100  1.00  0.00     0.049 A 
ATOM     49  H   UNL A   1      40.376  30.377  30.419  1.00  0.00     0.167 HD
ATOM     50  C   UNL A   1      41.814  33.403  33.236  1.00  0.00     0.031 A 
ATOM     51  C   UNL A   1      40.517  27.967  29.013  1.00  0.00     0.031 A 
ATOM     52  C   UNL A   1      42.814  32.369  33.247  1.00  0.00     0.049 A 
ATOM     53  C   UNL A   1      41.781  28.060  29.823  1.00  0.00     0.074 A 
ATOM     54  C   UNL A   1      43.970  32.301  34.001  1.00  0.00     0.029 A 
ATOM     55  N   UNL A   1      42.772  31.224  32.467  1.00  0.00    -0.354 N 
ATOM     56  N   UNL A   1      42.150  28.986  30.673  1.00  0.00    -0.248 NA
ATOM     57  C   UNL A   1      42.751  26.967  29.664  1.00  0.00     0.031 C 
ATOM     58  C   UNL A   1      44.660  31.142  33.635  1.00  0.00     0.029 A 
ATOM     59  C   UNL A   1      43.899  30.457  32.701  1.00  0.00     0.049 A 
ATOM     60  H   UNL A   1      42.050  30.992  31.840  1.00  0.00     0.167 HD
ATOM     61  C   UNL A   1      43.382  28.577  31.169  1.00  0.00     0.074 A 
ATOM     62  C   UNL A   1      43.687  27.310  30.539  1.00  0.00     0.031 C 
ATOM     63  C   UNL A   1      44.188  29.197  32.065  1.00  0.00     0.031 A 
BRANCH  50  64
ATOM     64  C   UNL A   1      42.021  34.598  34.125  1.00  0.00    -0.014 A 
ATOM     65  C   UNL A   1      42.663  35.751  33.646  1.00  0.00     0.009 A 
ATOM     66  C   UNL A   1      41.507  34.599  35.430  1.00  0.00     0.009 A 
ATOM     67  C   UNL A   1      42.806  36.873  34.465  1.00  0.00     0.001 A 
ATOM     68  C   UNL A   1      41.624  35.732  36.237  1.00  0.00     0.001 A 
ATOM     69  C   UNL A   1      42.277  36.866  35.755  1.00  0.00     0.000 A 
ENDBRANCH  50  64
BRANCH  51  70
ATOM     70  C   UNL A   1      40.252  26.790  28.145  1.00  0.00    -0.014 A 
ATOM     71  C   UNL A   1      40.736  26.753  26.829  1.00  0.00     0.009 A 
ATOM     72  C   UNL A   1      39.519  25.692  28.628  1.00  0.00     0.009 A 
ATOM     73  C   UNL A   1      40.475  25.654  26.008  1.00  0.00     0.001 A 
ATOM     74  C   UNL A   1      39.287  24.582  27.814  1.00  0.00     0.001 A 
ATOM     75  C   UNL A   1      39.757  24.566  26.503  1.00  0.00     0.000 A 
ENDBRANCH  51  70
BRANCH  63  76
ATOM     76  C   UNL A   1      45.473  28.514  32.435  1.00  0.00    -0.014 A 
ATOM     77  C   UNL A   1      46.668  28.799  31.758  1.00  0.00     0.009 A 
ATOM     78  C   UNL A   1      45.504  27.635  33.530  1.00  0.00     0.009 A 
ATOM     79  C   UNL A   1      47.865  28.201  32.158  1.00  0.00     0.001 A 
ATOM     80  C   UNL A   1      46.707  27.064  33.948  1.00  0.00     0.001 A 
ATOM     81  C   UNL A   1      47.884  27.343  33.257  1.00  0.00     0.000 A 
ENDBRANCH  63  76
ENDBRANCH  37  38
ENDBRANCH  29  32
ENDBRANCH  27  28
ENDBRANCH  26  27
ENDBRANCH   1  26
TORSDOF 14
ENDMDL
