MODEL 1
REMARK VINA RESULT:     -11.2      0.000      0.000
REMARK SMILES Cc1cc2c(c(C)c1Br)C=C(C(=O)NCCCCCCNC(=O)c1ccc(-c3c4nc(c(-c5ccccc5)c5ccc([nH]5)c(-c5ccccc5)c5nc(c(-c6ccccc6)c6ccc3[nH]6)C=C5)C=C4)cc1)[C@@H](C(F)(F)F)O2
REMARK SMILES IDX 18 1 17 2 16 3 15 4 14 5 12 6 13 7 11 9 1 10 2 11 3 12 8 13
REMARK SMILES IDX 4 14 6 15 9 16 5 17 77 18 7 19 10 20 72 21 73 22 74 23 75 24
REMARK SMILES IDX 76 25 19 26 20 27 21 28 22 29 23 31 24 32 25 33 71 34 26 35
REMARK SMILES IDX 70 36 27 37 28 38 29 39 64 40 30 41 69 42 63 43 65 44 31 45
REMARK SMILES IDX 68 46 62 47 61 48 32 50 54 51 39 52 53 53 40 54 43 55 52 56
REMARK SMILES IDX 66 57 41 58 42 59 51 61 67 62 44 63 33 64 34 65 38 66 35 67
REMARK SMILES IDX 37 68 36 69 55 70 56 71 60 72 57 73 59 74 58 75 45 76 46 77
REMARK SMILES IDX 50 78 47 79 49 80 48 81
REMARK H PARENT 14 8 21 30 65 49 43 60
REMARK Flexibility Score: inf
ROOT
ATOM      1  C   UNL A   1      36.233  20.311  24.979  1.00  0.00     0.002 C 
ENDROOT
BRANCH   1   2
ATOM      2  C   UNL A   1      36.234  21.457  26.000  1.00  0.00     0.002 C 
BRANCH   2   3
ATOM      3  C   UNL A   1      34.874  21.759  26.631  1.00  0.00     0.021 C 
BRANCH   3   4
ATOM      4  C   UNL A   1      34.046  22.761  25.834  1.00  0.00     0.116 C 
BRANCH   4   5
ATOM      5  N   UNL A   1      34.611  23.001  24.519  1.00  0.00    -0.352 N 
ATOM      6  C   UNL A   1      34.408  23.861  23.495  1.00  0.00     0.251 C 
ATOM      7  O   UNL A   1      35.168  23.721  22.530  1.00  0.00    -0.270 OA
ATOM      8  H   UNL A   1      35.337  22.367  24.318  1.00  0.00     0.163 HD
BRANCH   6   9
ATOM      9  C   UNL A   1      33.360  24.926  23.462  1.00  0.00     0.067 C 
ATOM     10  C   UNL A   1      29.682  30.272  23.908  1.00  0.00     0.046 C 
ATOM     11  C   UNL A   1      30.750  29.222  24.060  1.00  0.00    -0.033 A 
ATOM     12  C   UNL A   1      30.653  28.098  23.238  1.00  0.00     0.051 A 
ATOM     13  C   UNL A   1      31.790  29.276  25.012  1.00  0.00     0.024 A 
ATOM     14  C   UNL A   1      31.579  27.068  23.329  1.00  0.00     0.128 A 
ATOM     15  C   UNL A   1      32.759  28.239  25.100  1.00  0.00    -0.026 A 
ATOM     16  Br  UNL A   1      31.861  30.779  26.196  1.00  0.00    -0.050 Br
ATOM     17  C   UNL A   1      32.644  27.126  24.230  1.00  0.00     0.021 A 
ATOM     18  O   UNL A   1      31.376  26.047  22.450  1.00  0.00    -0.475 OA
ATOM     19  C   UNL A   1      33.907  28.280  26.082  1.00  0.00     0.046 C 
ATOM     20  C   UNL A   1      33.617  26.027  24.192  1.00  0.00     0.026 C 
ATOM     21  C   UNL A   1      32.075  24.807  22.703  1.00  0.00     0.314 C 
BRANCH  21  22
ATOM     22  C   UNL A   1      31.100  23.795  23.328  1.00  0.00     0.429 C 
ATOM     23  F   UNL A   1      31.507  22.525  23.069  1.00  0.00    -0.167 F 
ATOM     24  F   UNL A   1      31.026  23.899  24.675  1.00  0.00    -0.167 F 
ATOM     25  F   UNL A   1      29.841  23.922  22.853  1.00  0.00    -0.167 F 
ENDBRANCH  21  22
ENDBRANCH   6   9
ENDBRANCH   4   5
ENDBRANCH   3   4
ENDBRANCH   2   3
ENDBRANCH   1   2
BRANCH   1  26
ATOM     26  C   UNL A   1      37.514  19.473  24.941  1.00  0.00     0.021 C 
BRANCH  26  27
ATOM     27  C   UNL A   1      38.736  20.173  25.522  1.00  0.00     0.116 C 
BRANCH  27  28
ATOM     28  N   UNL A   1      39.856  19.259  25.675  1.00  0.00    -0.352 N 
ATOM     29  C   UNL A   1      41.152  19.529  26.016  1.00  0.00     0.251 C 
ATOM     30  H   UNL A   1      39.650  18.310  25.510  1.00  0.00     0.163 HD
ATOM     31  O   UNL A   1      42.025  18.675  25.870  1.00  0.00    -0.269 OA
BRANCH  29  32
ATOM     32  C   UNL A   1      41.503  20.857  26.554  1.00  0.00     0.039 A 
ATOM     33  C   UNL A   1      42.003  21.828  25.686  1.00  0.00     0.014 A 
ATOM     34  C   UNL A   1      41.355  21.131  27.918  1.00  0.00     0.014 A 
ATOM     35  C   UNL A   1      42.317  23.095  26.180  1.00  0.00     0.010 A 
ATOM     36  C   UNL A   1      41.598  22.415  28.393  1.00  0.00     0.010 A 
ATOM     37  C   UNL A   1      42.096  23.403  27.532  1.00  0.00    -0.014 A 
BRANCH  37  38
ATOM     38  C   UNL A   1      42.415  24.745  28.071  1.00  0.00     0.031 A 
ATOM     39  C   UNL A   1      43.827  25.075  28.468  1.00  0.00     0.074 A 
ATOM     40  C   UNL A   1      41.432  25.652  28.231  1.00  0.00     0.049 A 
ATOM     41  N   UNL A   1      44.299  26.178  28.991  1.00  0.00    -0.248 NA
ATOM     42  C   UNL A   1      44.839  24.024  28.267  1.00  0.00     0.031 C 
ATOM     43  C   UNL A   1      40.022  25.442  27.896  1.00  0.00     0.029 A 
ATOM     44  N   UNL A   1      41.473  26.936  28.713  1.00  0.00    -0.354 N 
ATOM     45  C   UNL A   1      45.656  25.951  29.184  1.00  0.00     0.074 A 
ATOM     46  C   UNL A   1      45.922  24.590  28.778  1.00  0.00     0.031 C 
ATOM     47  C   UNL A   1      39.340  26.571  28.148  1.00  0.00     0.029 A 
ATOM     48  C   UNL A   1      40.253  27.566  28.702  1.00  0.00     0.049 A 
ATOM     49  H   UNL A   1      42.299  27.365  29.036  1.00  0.00     0.167 HD
ATOM     50  C   UNL A   1      46.600  26.809  29.633  1.00  0.00     0.031 A 
ATOM     51  C   UNL A   1      39.908  28.806  29.096  1.00  0.00     0.031 A 
ATOM     52  C   UNL A   1      46.333  28.166  30.029  1.00  0.00     0.049 A 
ATOM     53  C   UNL A   1      40.968  29.723  29.640  1.00  0.00     0.074 A 
ATOM     54  C   UNL A   1      47.229  29.125  30.467  1.00  0.00     0.029 A 
ATOM     55  N   UNL A   1      45.080  28.755  30.032  1.00  0.00    -0.354 N 
ATOM     56  N   UNL A   1      42.255  29.509  29.773  1.00  0.00    -0.248 NA
ATOM     57  C   UNL A   1      40.530  31.055  30.081  1.00  0.00     0.031 C 
ATOM     58  C   UNL A   1      46.509  30.277  30.791  1.00  0.00     0.029 A 
ATOM     59  C   UNL A   1      45.173  30.057  30.492  1.00  0.00     0.049 A 
ATOM     60  H   UNL A   1      44.245  28.313  29.749  1.00  0.00     0.167 HD
ATOM     61  C   UNL A   1      42.783  30.684  30.292  1.00  0.00     0.074 A 
ATOM     62  C   UNL A   1      41.681  31.615  30.428  1.00  0.00     0.031 C 
ATOM     63  C   UNL A   1      44.065  30.967  30.626  1.00  0.00     0.031 A 
BRANCH  50  64
ATOM     64  C   UNL A   1      48.016  26.311  29.716  1.00  0.00    -0.014 A 
ATOM     65  C   UNL A   1      48.896  26.451  28.631  1.00  0.00     0.009 A 
ATOM     66  C   UNL A   1      48.495  25.756  30.912  1.00  0.00     0.009 A 
ATOM     67  C   UNL A   1      50.221  26.024  28.736  1.00  0.00     0.001 A 
ATOM     68  C   UNL A   1      49.828  25.358  31.024  1.00  0.00     0.001 A 
ATOM     69  C   UNL A   1      50.689  25.487  29.935  1.00  0.00     0.000 A 
ENDBRANCH  50  64
BRANCH  51  70
ATOM     70  C   UNL A   1      38.497  29.260  28.971  1.00  0.00    -0.014 A 
ATOM     71  C   UNL A   1      37.622  29.172  30.064  1.00  0.00     0.009 A 
ATOM     72  C   UNL A   1      38.019  29.792  27.763  1.00  0.00     0.009 A 
ATOM     73  C   UNL A   1      36.293  29.587  29.945  1.00  0.00     0.001 A 
ATOM     74  C   UNL A   1      36.699  30.236  27.655  1.00  0.00     0.001 A 
ATOM     75  C   UNL A   1      35.835  30.125  28.744  1.00  0.00     0.000 A 
ENDBRANCH  51  70
BRANCH  63  76
ATOM     76  C   UNL A   1      44.357  32.343  31.158  1.00  0.00    -0.014 A 
ATOM     77  C   UNL A   1      44.664  33.405  30.295  1.00  0.00     0.009 A 
ATOM     78  C   UNL A   1      44.250  32.594  32.536  1.00  0.00     0.009 A 
ATOM     79  C   UNL A   1      44.882  34.686  30.803  1.00  0.00     0.001 A 
ATOM     80  C   UNL A   1      44.437  33.882  33.037  1.00  0.00     0.001 A 
ATOM     81  C   UNL A   1      44.759  34.926  32.171  1.00  0.00     0.000 A 
ENDBRANCH  63  76
ENDBRANCH  37  38
ENDBRANCH  29  32
ENDBRANCH  27  28
ENDBRANCH  26  27
ENDBRANCH   1  26
TORSDOF 14
ENDMDL
MODEL 2
REMARK VINA RESULT:     -11.2      0.482      5.868
REMARK SMILES Cc1cc2c(c(C)c1Br)C=C(C(=O)NCCCCCCNC(=O)c1ccc(-c3c4nc(c(-c5ccccc5)c5ccc([nH]5)c(-c5ccccc5)c5nc(c(-c6ccccc6)c6ccc3[nH]6)C=C5)C=C4)cc1)[C@@H](C(F)(F)F)O2
REMARK SMILES IDX 18 1 17 2 16 3 15 4 14 5 12 6 13 7 11 9 1 10 2 11 3 12 8 13
REMARK SMILES IDX 4 14 6 15 9 16 5 17 77 18 7 19 10 20 72 21 73 22 74 23 75 24
REMARK SMILES IDX 76 25 19 26 20 27 21 28 22 29 23 31 24 32 25 33 71 34 26 35
REMARK SMILES IDX 70 36 27 37 28 38 29 39 64 40 30 41 69 42 63 43 65 44 31 45
REMARK SMILES IDX 68 46 62 47 61 48 32 50 54 51 39 52 53 53 40 54 43 55 52 56
REMARK SMILES IDX 66 57 41 58 42 59 51 61 67 62 44 63 33 64 34 65 38 66 35 67
REMARK SMILES IDX 37 68 36 69 55 70 56 71 60 72 57 73 59 74 58 75 45 76 46 77
REMARK SMILES IDX 50 78 47 79 49 80 48 81
REMARK H PARENT 14 8 21 30 65 49 43 60
REMARK Flexibility Score: inf
ROOT
ATOM      1  C   UNL A   1      36.250  19.312  25.000  1.00  0.00     0.002 C 
ENDROOT
BRANCH   1   2
ATOM      2  C   UNL A   1      34.975  20.146  24.812  1.00  0.00     0.002 C 
BRANCH   2   3
ATOM      3  C   UNL A   1      34.518  20.913  26.054  1.00  0.00     0.021 C 
BRANCH   3   4
ATOM      4  C   UNL A   1      34.587  22.427  25.888  1.00  0.00     0.116 C 
BRANCH   4   5
ATOM      5  N   UNL A   1      35.264  22.805  24.662  1.00  0.00    -0.352 N 
ATOM      6  C   UNL A   1      35.080  23.697  23.662  1.00  0.00     0.251 C 
ATOM      7  O   UNL A   1      35.954  23.698  22.789  1.00  0.00    -0.270 OA
ATOM      8  H   UNL A   1      36.076  22.266  24.519  1.00  0.00     0.163 HD
BRANCH   6   9
ATOM      9  C   UNL A   1      33.927  24.642  23.555  1.00  0.00     0.067 C 
ATOM     10  C   UNL A   1      29.696  29.580  23.662  1.00  0.00     0.046 C 
ATOM     11  C   UNL A   1      30.864  28.658  23.889  1.00  0.00    -0.033 A 
ATOM     12  C   UNL A   1      30.908  27.494  23.119  1.00  0.00     0.051 A 
ATOM     13  C   UNL A   1      31.867  28.866  24.860  1.00  0.00     0.024 A 
ATOM     14  C   UNL A   1      31.935  26.573  23.280  1.00  0.00     0.128 A 
ATOM     15  C   UNL A   1      32.936  27.943  25.018  1.00  0.00    -0.026 A 
ATOM     16  Br  UNL A   1      31.747  30.420  25.971  1.00  0.00    -0.050 Br
ATOM     17  C   UNL A   1      32.963  26.785  24.200  1.00  0.00     0.021 A 
ATOM     18  O   UNL A   1      31.864  25.498  22.447  1.00  0.00    -0.475 OA
ATOM     19  C   UNL A   1      34.047  28.151  26.023  1.00  0.00     0.046 C 
ATOM     20  C   UNL A   1      34.047  25.796  24.236  1.00  0.00     0.026 C 
ATOM     21  C   UNL A   1      32.683  24.353  22.774  1.00  0.00     0.314 C 
BRANCH  21  22
ATOM     22  C   UNL A   1      31.804  23.271  23.426  1.00  0.00     0.429 C 
ATOM     23  F   UNL A   1      30.528  23.361  22.970  1.00  0.00    -0.167 F 
ATOM     24  F   UNL A   1      32.217  22.015  23.141  1.00  0.00    -0.167 F 
ATOM     25  F   UNL A   1      31.762  23.376  24.773  1.00  0.00    -0.167 F 
ENDBRANCH  21  22
ENDBRANCH   6   9
ENDBRANCH   4   5
ENDBRANCH   3   4
ENDBRANCH   2   3
ENDBRANCH   1   2
BRANCH   1  26
ATOM     26  C   UNL A   1      37.550  20.009  24.587  1.00  0.00     0.021 C 
BRANCH  26  27
ATOM     27  C   UNL A   1      38.498  20.299  25.744  1.00  0.00     0.116 C 
BRANCH  27  28
ATOM     28  N   UNL A   1      39.596  19.349  25.789  1.00  0.00    -0.352 N 
ATOM     29  C   UNL A   1      40.924  19.572  26.032  1.00  0.00     0.251 C 
ATOM     30  H   UNL A   1      39.349  18.411  25.620  1.00  0.00     0.163 HD
ATOM     31  O   UNL A   1      41.754  18.695  25.799  1.00  0.00    -0.269 OA
BRANCH  29  32
ATOM     32  C   UNL A   1      41.358  20.875  26.568  1.00  0.00     0.039 A 
ATOM     33  C   UNL A   1      41.939  21.803  25.703  1.00  0.00     0.014 A 
ATOM     34  C   UNL A   1      41.207  21.168  27.927  1.00  0.00     0.014 A 
ATOM     35  C   UNL A   1      42.333  23.048  26.194  1.00  0.00     0.010 A 
ATOM     36  C   UNL A   1      41.531  22.435  28.399  1.00  0.00     0.010 A 
ATOM     37  C   UNL A   1      42.112  23.380  27.541  1.00  0.00    -0.014 A 
BRANCH  37  38
ATOM     38  C   UNL A   1      42.515  24.701  28.078  1.00  0.00     0.031 A 
ATOM     39  C   UNL A   1      41.483  25.780  28.260  1.00  0.00     0.074 A 
ATOM     40  C   UNL A   1      43.807  24.937  28.370  1.00  0.00     0.049 A 
ATOM     41  N   UNL A   1      41.643  27.009  28.679  1.00  0.00    -0.248 NA
ATOM     42  C   UNL A   1      40.094  25.441  27.908  1.00  0.00     0.031 C 
ATOM     43  C   UNL A   1      44.900  23.974  28.221  1.00  0.00     0.029 A 
ATOM     44  N   UNL A   1      44.420  26.064  28.858  1.00  0.00    -0.354 N 
ATOM     45  C   UNL A   1      40.380  27.587  28.638  1.00  0.00     0.074 A 
ATOM     46  C   UNL A   1      39.476  26.596  28.099  1.00  0.00     0.031 C 
ATOM     47  C   UNL A   1      46.042  24.538  28.646  1.00  0.00     0.029 A 
ATOM     48  C   UNL A   1      45.771  25.913  29.053  1.00  0.00     0.049 A 
ATOM     49  H   UNL A   1      43.937  26.900  29.052  1.00  0.00     0.167 HD
ATOM     50  C   UNL A   1      40.003  28.822  29.039  1.00  0.00     0.031 A 
ATOM     51  C   UNL A   1      46.690  26.787  29.507  1.00  0.00     0.031 A 
ATOM     52  C   UNL A   1      40.904  29.802  29.582  1.00  0.00     0.049 A 
ATOM     53  C   UNL A   1      46.252  28.172  29.898  1.00  0.00     0.074 A 
ATOM     54  C   UNL A   1      40.612  31.072  30.049  1.00  0.00     0.029 A 
ATOM     55  N   UNL A   1      42.269  29.622  29.733  1.00  0.00    -0.354 N 
ATOM     56  N   UNL A   1      45.047  28.687  29.896  1.00  0.00    -0.248 NA
ATOM     57  C   UNL A   1      47.301  29.092  30.360  1.00  0.00     0.031 C 
ATOM     58  C   UNL A   1      41.810  31.682  30.428  1.00  0.00     0.029 A 
ATOM     59  C   UNL A   1      42.840  30.768  30.259  1.00  0.00     0.049 A 
ATOM     60  H   UNL A   1      42.761  28.801  29.501  1.00  0.00     0.167 HD
ATOM     61  C   UNL A   1      45.188  29.983  30.377  1.00  0.00     0.074 A 
ATOM     62  C   UNL A   1      46.593  30.166  30.680  1.00  0.00     0.031 C 
ATOM     63  C   UNL A   1      44.240  30.936  30.550  1.00  0.00     0.031 A 
BRANCH  50  64
ATOM     64  C   UNL A   1      38.550  29.186  28.913  1.00  0.00    -0.014 A 
ATOM     65  C   UNL A   1      37.676  29.058  30.005  1.00  0.00     0.009 A 
ATOM     66  C   UNL A   1      38.063  29.724  27.713  1.00  0.00     0.009 A 
ATOM     67  C   UNL A   1      36.338  29.440  29.888  1.00  0.00     0.001 A 
ATOM     68  C   UNL A   1      36.733  30.134  27.608  1.00  0.00     0.001 A 
ATOM     69  C   UNL A   1      35.870  29.987  28.693  1.00  0.00     0.000 A 
ENDBRANCH  50  64
BRANCH  51  70
ATOM     70  C   UNL A   1      48.111  26.371  29.636  1.00  0.00    -0.014 A 
ATOM     71  C   UNL A   1      48.571  25.769  30.817  1.00  0.00     0.009 A 
ATOM     72  C   UNL A   1      49.014  26.563  28.578  1.00  0.00     0.009 A 
ATOM     73  C   UNL A   1      49.909  25.388  30.944  1.00  0.00     0.001 A 
ATOM     74  C   UNL A   1      50.344  26.153  28.696  1.00  0.00     0.001 A 
ATOM     75  C   UNL A   1      50.792  25.572  29.882  1.00  0.00     0.000 A 
ENDBRANCH  51  70
BRANCH  63  76
ATOM     76  C   UNL A   1      44.680  32.261  31.108  1.00  0.00    -0.014 A 
ATOM     77  C   UNL A   1      45.034  33.322  30.262  1.00  0.00     0.009 A 
ATOM     78  C   UNL A   1      44.666  32.472  32.496  1.00  0.00     0.009 A 
ATOM     79  C   UNL A   1      45.392  34.561  30.796  1.00  0.00     0.001 A 
ATOM     80  C   UNL A   1      44.992  33.721  33.025  1.00  0.00     0.001 A 
ATOM     81  C   UNL A   1      45.361  34.762  32.176  1.00  0.00     0.000 A 
ENDBRANCH  63  76
ENDBRANCH  37  38
ENDBRANCH  29  32
ENDBRANCH  27  28
ENDBRANCH  26  27
ENDBRANCH   1  26
TORSDOF 14
ENDMDL
MODEL 3
REMARK VINA RESULT:     -11.0      3.711      8.968
REMARK SMILES Cc1cc2c(c(C)c1Br)C=C(C(=O)NCCCCCCNC(=O)c1ccc(-c3c4nc(c(-c5ccccc5)c5ccc([nH]5)c(-c5ccccc5)c5nc(c(-c6ccccc6)c6ccc3[nH]6)C=C5)C=C4)cc1)[C@@H](C(F)(F)F)O2
REMARK SMILES IDX 18 1 17 2 16 3 15 4 14 5 12 6 13 7 11 9 1 10 2 11 3 12 8 13
REMARK SMILES IDX 4 14 6 15 9 16 5 17 77 18 7 19 10 20 72 21 73 22 74 23 75 24
REMARK SMILES IDX 76 25 19 26 20 27 21 28 22 29 23 31 24 32 25 33 71 34 26 35
REMARK SMILES IDX 70 36 27 37 28 38 29 39 64 40 30 41 69 42 63 43 65 44 31 45
REMARK SMILES IDX 68 46 62 47 61 48 32 50 54 51 39 52 53 53 40 54 43 55 52 56
REMARK SMILES IDX 66 57 41 58 42 59 51 61 67 62 44 63 33 64 34 65 38 66 35 67
REMARK SMILES IDX 37 68 36 69 55 70 56 71 60 72 57 73 59 74 58 75 45 76 46 77
REMARK SMILES IDX 50 78 47 79 49 80 48 81
REMARK H PARENT 14 8 21 30 65 49 43 60
REMARK Flexibility Score: inf
ROOT
ATOM      1  C   UNL A   1      31.333  31.110  26.116  1.00  0.00     0.002 C 
ENDROOT
BRANCH   1   2
ATOM      2  C   UNL A   1      32.345  30.205  26.832  1.00  0.00     0.002 C 
BRANCH   2   3
ATOM      3  C   UNL A   1      31.792  28.853  27.287  1.00  0.00     0.021 C 
BRANCH   3   4
ATOM      4  C   UNL A   1      32.688  27.677  26.915  1.00  0.00     0.116 C 
BRANCH   4   5
ATOM      5  N   UNL A   1      33.274  27.842  25.598  1.00  0.00    -0.352 N 
ATOM      6  C   UNL A   1      33.622  27.046  24.561  1.00  0.00     0.251 C 
ATOM      7  O   UNL A   1      34.085  27.634  23.577  1.00  0.00    -0.270 OA
ATOM      8  H   UNL A   1      33.473  28.788  25.408  1.00  0.00     0.163 HD
BRANCH   6   9
ATOM      9  C   UNL A   1      33.486  25.558  24.536  1.00  0.00     0.067 C 
ATOM     10  C   UNL A   1      34.095  19.091  24.862  1.00  0.00     0.046 C 
ATOM     11  C   UNL A   1      34.336  20.576  24.824  1.00  0.00    -0.033 A 
ATOM     12  C   UNL A   1      33.209  21.398  24.773  1.00  0.00     0.051 A 
ATOM     13  C   UNL A   1      35.613  21.176  24.776  1.00  0.00     0.024 A 
ATOM     14  C   UNL A   1      33.337  22.779  24.709  1.00  0.00     0.128 A 
ATOM     15  C   UNL A   1      35.759  22.589  24.734  1.00  0.00    -0.026 A 
ATOM     16  Br  UNL A   1      37.151  20.036  24.755  1.00  0.00    -0.050 Br
ATOM     17  C   UNL A   1      34.591  23.393  24.710  1.00  0.00     0.021 A 
ATOM     18  O   UNL A   1      32.155  23.456  24.689  1.00  0.00    -0.475 OA
ATOM     19  C   UNL A   1      37.110  23.267  24.718  1.00  0.00     0.046 C 
ATOM     20  C   UNL A   1      34.621  24.861  24.726  1.00  0.00     0.026 C 
ATOM     21  C   UNL A   1      32.194  24.844  24.289  1.00  0.00     0.314 C 
BRANCH  21  22
ATOM     22  C   UNL A   1      31.711  24.965  22.833  1.00  0.00     0.429 C 
ATOM     23  F   UNL A   1      30.699  24.090  22.597  1.00  0.00    -0.167 F 
ATOM     24  F   UNL A   1      31.223  26.192  22.541  1.00  0.00    -0.167 F 
ATOM     25  F   UNL A   1      32.689  24.706  21.937  1.00  0.00    -0.167 F 
ENDBRANCH  21  22
ENDBRANCH   6   9
ENDBRANCH   4   5
ENDBRANCH   3   4
ENDBRANCH   2   3
ENDBRANCH   1   2
BRANCH   1  26
ATOM     26  C   UNL A   1      31.377  32.585  26.525  1.00  0.00     0.021 C 
BRANCH  26  27
ATOM     27  C   UNL A   1      32.635  32.986  27.285  1.00  0.00     0.116 C 
BRANCH  27  28
ATOM     28  N   UNL A   1      32.494  34.293  27.903  1.00  0.00    -0.352 N 
ATOM     29  C   UNL A   1      33.207  34.844  28.932  1.00  0.00     0.251 C 
ATOM     30  H   UNL A   1      31.784  34.863  27.527  1.00  0.00     0.163 HD
ATOM     31  O   UNL A   1      32.806  35.864  29.490  1.00  0.00    -0.269 OA
BRANCH  29  32
ATOM     32  C   UNL A   1      34.458  34.204  29.377  1.00  0.00     0.039 A 
ATOM     33  C   UNL A   1      34.430  33.363  30.490  1.00  0.00     0.014 A 
ATOM     34  C   UNL A   1      35.660  34.452  28.704  1.00  0.00     0.014 A 
ATOM     35  C   UNL A   1      35.604  32.734  30.907  1.00  0.00     0.010 A 
ATOM     36  C   UNL A   1      36.811  33.767  29.075  1.00  0.00     0.010 A 
ATOM     37  C   UNL A   1      36.798  32.915  30.188  1.00  0.00    -0.014 A 
BRANCH  37  38
ATOM     38  C   UNL A   1      38.050  32.247  30.611  1.00  0.00     0.031 A 
ATOM     39  C   UNL A   1      38.903  32.867  31.683  1.00  0.00     0.074 A 
ATOM     40  C   UNL A   1      38.434  31.105  30.011  1.00  0.00     0.049 A 
ATOM     41  N   UNL A   1      40.049  32.457  32.163  1.00  0.00    -0.248 NA
ATOM     42  C   UNL A   1      38.414  34.121  32.282  1.00  0.00     0.031 C 
ATOM     43  C   UNL A   1      37.698  30.417  28.948  1.00  0.00     0.029 A 
ATOM     44  N   UNL A   1      39.540  30.319  30.213  1.00  0.00    -0.354 N 
ATOM     45  C   UNL A   1      40.417  33.401  33.114  1.00  0.00     0.074 A 
ATOM     46  C   UNL A   1      39.405  34.434  33.102  1.00  0.00     0.031 C 
ATOM     47  C   UNL A   1      38.353  29.292  28.620  1.00  0.00     0.029 A 
ATOM     48  C   UNL A   1      39.574  29.202  29.414  1.00  0.00     0.049 A 
ATOM     49  H   UNL A   1      40.242  30.533  30.870  1.00  0.00     0.167 HD
ATOM     50  C   UNL A   1      41.487  33.394  33.941  1.00  0.00     0.031 A 
ATOM     51  C   UNL A   1      40.490  28.218  29.328  1.00  0.00     0.031 A 
ATOM     52  C   UNL A   1      42.487  32.361  33.956  1.00  0.00     0.049 A 
ATOM     53  C   UNL A   1      41.697  28.261  30.225  1.00  0.00     0.074 A 
ATOM     54  C   UNL A   1      43.592  32.247  34.781  1.00  0.00     0.029 A 
ATOM     55  N   UNL A   1      42.502  31.265  33.109  1.00  0.00    -0.354 N 
ATOM     56  N   UNL A   1      42.006  29.137  31.150  1.00  0.00    -0.248 NA
ATOM     57  C   UNL A   1      42.676  27.177  30.069  1.00  0.00     0.031 C 
ATOM     58  C   UNL A   1      44.308  31.112  34.394  1.00  0.00     0.029 A 
ATOM     59  C   UNL A   1      43.614  30.483  33.371  1.00  0.00     0.049 A 
ATOM     60  H   UNL A   1      41.823  31.070  32.422  1.00  0.00     0.167 HD
ATOM     61  C   UNL A   1      43.203  28.698  31.702  1.00  0.00     0.074 A 
ATOM     62  C   UNL A   1      43.551  27.467  31.022  1.00  0.00     0.031 C 
ATOM     63  C   UNL A   1      43.948  29.264  32.682  1.00  0.00     0.031 A 
BRANCH  50  64
ATOM     64  C   UNL A   1      41.631  34.537  34.908  1.00  0.00    -0.014 A 
ATOM     65  C   UNL A   1      41.076  34.467  36.197  1.00  0.00     0.009 A 
ATOM     66  C   UNL A   1      42.385  35.665  34.553  1.00  0.00     0.009 A 
ATOM     67  C   UNL A   1      41.255  35.516  37.100  1.00  0.00     0.001 A 
ATOM     68  C   UNL A   1      42.587  36.698  35.469  1.00  0.00     0.001 A 
ATOM     69  C   UNL A   1      42.018  36.626  36.740  1.00  0.00     0.000 A 
ENDBRANCH  50  64
BRANCH  51  70
ATOM     70  C   UNL A   1      40.289  27.097  28.372  1.00  0.00    -0.014 A 
ATOM     71  C   UNL A   1      39.567  25.956  28.756  1.00  0.00     0.009 A 
ATOM     72  C   UNL A   1      40.807  27.164  27.069  1.00  0.00     0.009 A 
ATOM     73  C   UNL A   1      39.387  24.897  27.863  1.00  0.00     0.001 A 
ATOM     74  C   UNL A   1      40.599  26.117  26.168  1.00  0.00     0.001 A 
ATOM     75  C   UNL A   1      39.895  24.981  26.568  1.00  0.00     0.000 A 
ENDBRANCH  51  70
BRANCH  63  76
ATOM     76  C   UNL A   1      45.207  28.555  33.096  1.00  0.00    -0.014 A 
ATOM     77  C   UNL A   1      45.188  27.561  34.086  1.00  0.00     0.009 A 
ATOM     78  C   UNL A   1      46.413  28.833  32.432  1.00  0.00     0.009 A 
ATOM     79  C   UNL A   1      46.358  26.878  34.421  1.00  0.00     0.001 A 
ATOM     80  C   UNL A   1      47.573  28.125  32.747  1.00  0.00     0.001 A 
ATOM     81  C   UNL A   1      47.546  27.153  33.746  1.00  0.00     0.000 A 
ENDBRANCH  63  76
ENDBRANCH  37  38
ENDBRANCH  29  32
ENDBRANCH  27  28
ENDBRANCH  26  27
ENDBRANCH   1  26
TORSDOF 14
ENDMDL
