MODEL 1
REMARK VINA RESULT:      -8.7      0.000      0.000
REMARK SMILES Cc1c(CC(=O)NCCCCCCNC(=O)c2ccc(-c3c4nc(c(-c5ccccc5)c5ccc([nH]5)c(-c5ccccc5)c5nc(c(-c6ccccc6)c6ccc3[nH]6)C=C5)C=C4)cc2)c(=O)oc2cc(OCc3c(F)cccc3Cl)ccc12
REMARK SMILES IDX 9 1 8 2 7 3 5 4 6 5 4 7 3 8 1 9 2 10 83 11 65 12 68 13 82 14
REMARK SMILES IDX 66 15 67 16 69 17 81 18 70 19 71 20 72 21 73 22 74 23 79 24
REMARK SMILES IDX 75 25 76 26 78 27 80 28 77 29 10 30 11 31 12 32 13 33 14 34
REMARK SMILES IDX 15 35 16 37 17 38 18 39 64 40 19 41 63 42 20 43 21 44 22 45
REMARK SMILES IDX 57 46 23 47 62 48 56 49 58 50 24 51 61 52 55 53 54 54 25 56
REMARK SMILES IDX 47 57 32 58 46 59 33 60 36 61 45 62 59 63 34 64 35 65 44 67
REMARK SMILES IDX 60 68 37 69 26 70 27 71 31 72 28 73 30 74 29 75 48 76 49 77
REMARK SMILES IDX 53 78 50 79 52 80 51 81 38 82 39 83 43 84 40 85 42 86 41 87
REMARK H PARENT 7 6 14 36 58 55 36 66
REMARK Flexibility Score: inf
ROOT
ATOM      1  C   UNL A   1      44.715  19.817  25.543  1.00  0.00     0.021 C 
ENDROOT
BRANCH   1   2
ATOM      2  C   UNL A   1      43.447  18.977  25.383  1.00  0.00     0.116 C 
BRANCH   2   3
ATOM      3  N   UNL A   1      42.587  19.111  26.541  1.00  0.00    -0.356 N 
ATOM      4  C   UNL A   1      41.790  20.146  26.918  1.00  0.00     0.224 C 
ATOM      5  O   UNL A   1      41.189  20.047  27.991  1.00  0.00    -0.275 OA
ATOM      6  H   UNL A   1      42.579  18.335  27.147  1.00  0.00     0.163 HD
BRANCH   4   7
ATOM      7  C   UNL A   1      41.603  21.365  26.018  1.00  0.00     0.143 C 
BRANCH   7   8
ATOM      8  C   UNL A   1      41.086  22.603  26.720  1.00  0.00     0.051 A 
ATOM      9  C   UNL A   1      43.302  23.237  27.745  1.00  0.00     0.046 C 
ATOM     10  C   UNL A   1      41.835  23.448  27.465  1.00  0.00    -0.029 A 
ATOM     11  C   UNL A   1      41.214  24.673  28.004  1.00  0.00     0.021 A 
ATOM     12  C   UNL A   1      39.621  22.824  26.550  1.00  0.00     0.340 A 
ATOM     13  C   UNL A   1      39.865  24.915  27.758  1.00  0.00     0.142 A 
ATOM     14  C   UNL A   1      41.920  25.658  28.702  1.00  0.00     0.016 A 
ATOM     15  O   UNL A   1      38.910  22.028  25.944  1.00  0.00    -0.246 OA
ATOM     16  O   UNL A   1      39.076  23.981  27.074  1.00  0.00    -0.422 OA
ATOM     17  C   UNL A   1      39.226  26.107  28.118  1.00  0.00     0.094 A 
ATOM     18  C   UNL A   1      41.303  26.862  29.056  1.00  0.00     0.047 A 
ATOM     19  C   UNL A   1      39.974  27.114  28.711  1.00  0.00     0.123 A 
BRANCH  19  20
ATOM     20  O   UNL A   1      39.590  28.412  28.893  1.00  0.00    -0.489 OA
BRANCH  20  21
ATOM     21  C   UNL A   1      40.343  29.261  29.760  1.00  0.00     0.270 C 
BRANCH  21  22
ATOM     22  C   UNL A   1      39.687  29.893  30.976  1.00  0.00     0.044 A 
ATOM     23  C   UNL A   1      39.680  29.095  32.134  1.00  0.00     0.131 A 
ATOM     24  C   UNL A   1      39.109  31.164  31.084  1.00  0.00     0.050 A 
ATOM     25  F   UNL A   1      40.305  27.908  32.120  1.00  0.00    -0.207 F 
ATOM     26  C   UNL A   1      39.049  29.485  33.313  1.00  0.00     0.040 A 
ATOM     27  C   UNL A   1      38.424  31.541  32.252  1.00  0.00     0.021 A 
ATOM     28  Cl  UNL A   1      39.228  32.391  29.875  1.00  0.00    -0.084 Cl
ATOM     29  C   UNL A   1      38.384  30.701  33.363  1.00  0.00     0.005 A 
ENDBRANCH  21  22
ENDBRANCH  20  21
ENDBRANCH  19  20
ENDBRANCH   7   8
ENDBRANCH   4   7
ENDBRANCH   2   3
ENDBRANCH   1   2
BRANCH   1  30
ATOM     30  C   UNL A   1      44.963  20.798  24.388  1.00  0.00     0.002 C 
BRANCH  30  31
ATOM     31  C   UNL A   1      46.029  21.866  24.658  1.00  0.00     0.002 C 
BRANCH  31  32
ATOM     32  C   UNL A   1      45.482  23.258  24.981  1.00  0.00     0.021 C 
BRANCH  32  33
ATOM     33  C   UNL A   1      46.494  24.200  25.621  1.00  0.00     0.116 C 
BRANCH  33  34
ATOM     34  N   UNL A   1      47.009  25.176  24.673  1.00  0.00    -0.352 N 
ATOM     35  C   UNL A   1      46.834  26.538  24.641  1.00  0.00     0.251 C 
ATOM     36  H   UNL A   1      47.562  24.806  23.947  1.00  0.00     0.163 HD
ATOM     37  O   UNL A   1      47.167  27.181  23.653  1.00  0.00    -0.269 OA
BRANCH  35  38
ATOM     38  C   UNL A   1      46.225  27.226  25.799  1.00  0.00     0.039 A 
ATOM     39  C   UNL A   1      44.833  27.257  25.910  1.00  0.00     0.014 A 
ATOM     40  C   UNL A   1      47.022  27.848  26.764  1.00  0.00     0.014 A 
ATOM     41  C   UNL A   1      44.243  27.859  27.021  1.00  0.00     0.010 A 
ATOM     42  C   UNL A   1      46.435  28.380  27.909  1.00  0.00     0.010 A 
ATOM     43  C   UNL A   1      45.039  28.396  28.047  1.00  0.00    -0.014 A 
BRANCH  43  44
ATOM     44  C   UNL A   1      44.426  28.972  29.271  1.00  0.00     0.031 A 
ATOM     45  C   UNL A   1      43.978  30.408  29.293  1.00  0.00     0.074 A 
ATOM     46  C   UNL A   1      44.318  28.215  30.380  1.00  0.00     0.049 A 
ATOM     47  N   UNL A   1      43.455  31.092  30.278  1.00  0.00    -0.248 NA
ATOM     48  C   UNL A   1      44.167  31.183  28.057  1.00  0.00     0.031 C 
ATOM     49  C   UNL A   1      44.751  26.821  30.502  1.00  0.00     0.029 A 
ATOM     50  N   UNL A   1      43.811  28.513  31.620  1.00  0.00    -0.354 N 
ATOM     51  C   UNL A   1      43.263  32.377  29.785  1.00  0.00     0.074 A 
ATOM     52  C   UNL A   1      43.780  32.392  28.433  1.00  0.00     0.031 C 
ATOM     53  C   UNL A   1      44.459  26.376  31.734  1.00  0.00     0.029 A 
ATOM     54  C   UNL A   1      43.861  27.461  32.503  1.00  0.00     0.049 A 
ATOM     55  H   UNL A   1      43.446  29.397  31.855  1.00  0.00     0.167 HD
ATOM     56  C   UNL A   1      42.689  33.443  30.392  1.00  0.00     0.031 A 
ATOM     57  C   UNL A   1      43.472  27.381  33.790  1.00  0.00     0.031 A 
ATOM     58  C   UNL A   1      42.167  33.425  31.733  1.00  0.00     0.049 A 
ATOM     59  C   UNL A   1      42.860  28.586  34.449  1.00  0.00     0.074 A 
ATOM     60  C   UNL A   1      41.518  34.437  32.418  1.00  0.00     0.029 A 
ATOM     61  N   UNL A   1      42.242  32.342  32.596  1.00  0.00    -0.354 N 
ATOM     62  N   UNL A   1      42.620  29.771  33.944  1.00  0.00    -0.248 NA
ATOM     63  C   UNL A   1      42.456  28.436  35.854  1.00  0.00     0.031 C 
ATOM     64  C   UNL A   1      41.253  33.988  33.715  1.00  0.00     0.029 A 
ATOM     65  C   UNL A   1      41.678  32.672  33.816  1.00  0.00     0.049 A 
ATOM     66  H   UNL A   1      42.637  31.468  32.372  1.00  0.00     0.167 HD
ATOM     67  C   UNL A   1      42.011  30.498  34.959  1.00  0.00     0.074 A 
ATOM     68  C   UNL A   1      41.902  29.614  36.100  1.00  0.00     0.031 C 
ATOM     69  C   UNL A   1      41.579  31.783  34.945  1.00  0.00     0.031 A 
BRANCH  56  70
ATOM     70  C   UNL A   1      42.603  34.724  29.608  1.00  0.00    -0.014 A 
ATOM     71  C   UNL A   1      43.613  35.696  29.685  1.00  0.00     0.009 A 
ATOM     72  C   UNL A   1      41.512  34.947  28.751  1.00  0.00     0.009 A 
ATOM     73  C   UNL A   1      43.514  36.881  28.952  1.00  0.00     0.001 A 
ATOM     74  C   UNL A   1      41.433  36.117  27.995  1.00  0.00     0.001 A 
ATOM     75  C   UNL A   1      42.427  37.087  28.104  1.00  0.00     0.000 A 
ENDBRANCH  56  70
BRANCH  57  76
ATOM     76  C   UNL A   1      43.638  26.108  34.540  1.00  0.00    -0.014 A 
ATOM     77  C   UNL A   1      42.636  25.126  34.510  1.00  0.00     0.009 A 
ATOM     78  C   UNL A   1      44.795  25.872  35.300  1.00  0.00     0.009 A 
ATOM     79  C   UNL A   1      42.775  23.949  35.249  1.00  0.00     0.001 A 
ATOM     80  C   UNL A   1      44.946  24.679  36.011  1.00  0.00     0.001 A 
ATOM     81  C   UNL A   1      43.932  23.724  35.994  1.00  0.00     0.000 A 
ENDBRANCH  57  76
BRANCH  69  82
ATOM     82  C   UNL A   1      40.918  32.301  36.193  1.00  0.00    -0.014 A 
ATOM     83  C   UNL A   1      41.660  32.919  37.211  1.00  0.00     0.009 A 
ATOM     84  C   UNL A   1      39.525  32.205  36.329  1.00  0.00     0.009 A 
ATOM     85  C   UNL A   1      41.021  33.398  38.357  1.00  0.00     0.001 A 
ATOM     86  C   UNL A   1      38.885  32.715  37.460  1.00  0.00     0.001 A 
ATOM     87  C   UNL A   1      39.636  33.302  38.478  1.00  0.00     0.000 A 
ENDBRANCH  69  82
ENDBRANCH  43  44
ENDBRANCH  35  38
ENDBRANCH  33  34
ENDBRANCH  32  33
ENDBRANCH  31  32
ENDBRANCH  30  31
ENDBRANCH   1  30
TORSDOF 17
ENDMDL
MODEL 2
REMARK VINA RESULT:      -8.6      5.543      8.211
REMARK SMILES Cc1c(CC(=O)NCCCCCCNC(=O)c2ccc(-c3c4nc(c(-c5ccccc5)c5ccc([nH]5)c(-c5ccccc5)c5nc(c(-c6ccccc6)c6ccc3[nH]6)C=C5)C=C4)cc2)c(=O)oc2cc(OCc3c(F)cccc3Cl)ccc12
REMARK SMILES IDX 9 1 8 2 7 3 5 4 6 5 4 7 3 8 1 9 2 10 83 11 65 12 68 13 82 14
REMARK SMILES IDX 66 15 67 16 69 17 81 18 70 19 71 20 72 21 73 22 74 23 79 24
REMARK SMILES IDX 75 25 76 26 78 27 80 28 77 29 10 30 11 31 12 32 13 33 14 34
REMARK SMILES IDX 15 35 16 37 17 38 18 39 64 40 19 41 63 42 20 43 21 44 22 45
REMARK SMILES IDX 57 46 23 47 62 48 56 49 58 50 24 51 61 52 55 53 54 54 25 56
REMARK SMILES IDX 47 57 32 58 46 59 33 60 36 61 45 62 59 63 34 64 35 65 44 67
REMARK SMILES IDX 60 68 37 69 26 70 27 71 31 72 28 73 30 74 29 75 48 76 49 77
REMARK SMILES IDX 53 78 50 79 52 80 51 81 38 82 39 83 43 84 40 85 42 86 41 87
REMARK H PARENT 7 6 14 36 58 55 36 66
REMARK Flexibility Score: inf
ROOT
ATOM      1  C   UNL A   1      37.377  20.804  24.707  1.00  0.00     0.021 C 
ENDROOT
BRANCH   1   2
ATOM      2  C   UNL A   1      36.101  20.880  25.547  1.00  0.00     0.116 C 
BRANCH   2   3
ATOM      3  N   UNL A   1      34.934  21.036  24.704  1.00  0.00    -0.356 N 
ATOM      4  C   UNL A   1      33.691  21.495  25.014  1.00  0.00     0.224 C 
ATOM      5  O   UNL A   1      32.835  21.478  24.125  1.00  0.00    -0.275 OA
ATOM      6  H   UNL A   1      35.058  20.769  23.765  1.00  0.00     0.163 HD
BRANCH   4   7
ATOM      7  C   UNL A   1      33.383  22.061  26.397  1.00  0.00     0.143 C 
BRANCH   7   8
ATOM      8  C   UNL A   1      33.035  23.535  26.420  1.00  0.00     0.051 A 
ATOM      9  C   UNL A   1      35.273  24.321  25.561  1.00  0.00     0.046 C 
ATOM     10  C   UNL A   1      33.856  24.537  26.030  1.00  0.00    -0.029 A 
ATOM     11  C   UNL A   1      33.343  25.920  26.012  1.00  0.00     0.021 A 
ATOM     12  C   UNL A   1      31.673  23.825  26.955  1.00  0.00     0.340 A 
ATOM     13  C   UNL A   1      32.036  26.164  26.424  1.00  0.00     0.142 A 
ATOM     14  C   UNL A   1      34.075  27.013  25.535  1.00  0.00     0.016 A 
ATOM     15  O   UNL A   1      30.943  22.937  27.387  1.00  0.00    -0.246 OA
ATOM     16  O   UNL A   1      31.230  25.133  26.925  1.00  0.00    -0.422 OA
ATOM     17  C   UNL A   1      31.425  27.420  26.318  1.00  0.00     0.094 A 
ATOM     18  C   UNL A   1      33.477  28.270  25.407  1.00  0.00     0.047 A 
ATOM     19  C   UNL A   1      32.134  28.462  25.740  1.00  0.00     0.123 A 
BRANCH  19  20
ATOM     20  O   UNL A   1      31.626  29.661  25.328  1.00  0.00    -0.489 OA
BRANCH  20  21
ATOM     21  C   UNL A   1      31.235  29.836  23.965  1.00  0.00     0.270 C 
BRANCH  21  22
ATOM     22  C   UNL A   1      29.768  29.782  23.575  1.00  0.00     0.044 A 
ATOM     23  C   UNL A   1      29.249  28.490  23.375  1.00  0.00     0.131 A 
ATOM     24  C   UNL A   1      28.877  30.851  23.407  1.00  0.00     0.050 A 
ATOM     25  F   UNL A   1      30.027  27.424  23.616  1.00  0.00    -0.207 F 
ATOM     26  C   UNL A   1      27.947  28.261  22.935  1.00  0.00     0.040 A 
ATOM     27  C   UNL A   1      27.580  30.629  22.911  1.00  0.00     0.021 A 
ATOM     28  Cl  UNL A   1      29.228  32.485  23.839  1.00  0.00    -0.084 Cl
ATOM     29  C   UNL A   1      27.117  29.339  22.665  1.00  0.00     0.005 A 
ENDBRANCH  21  22
ENDBRANCH  20  21
ENDBRANCH  19  20
ENDBRANCH   7   8
ENDBRANCH   4   7
ENDBRANCH   2   3
ENDBRANCH   1   2
BRANCH   1  30
ATOM     30  C   UNL A   1      38.149  19.486  24.866  1.00  0.00     0.002 C 
BRANCH  30  31
ATOM     31  C   UNL A   1      39.411  19.571  25.732  1.00  0.00     0.002 C 
BRANCH  31  32
ATOM     32  C   UNL A   1      39.851  20.991  26.094  1.00  0.00     0.021 C 
BRANCH  32  33
ATOM     33  C   UNL A   1      41.274  21.092  26.631  1.00  0.00     0.116 C 
BRANCH  33  34
ATOM     34  N   UNL A   1      42.213  21.533  25.611  1.00  0.00    -0.352 N 
ATOM     35  C   UNL A   1      42.747  22.780  25.398  1.00  0.00     0.251 C 
ATOM     36  H   UNL A   1      42.508  20.837  24.981  1.00  0.00     0.163 HD
ATOM     37  O   UNL A   1      43.362  23.021  24.366  1.00  0.00    -0.269 OA
BRANCH  35  38
ATOM     38  C   UNL A   1      42.562  23.840  26.412  1.00  0.00     0.039 A 
ATOM     39  C   UNL A   1      43.082  25.112  26.161  1.00  0.00     0.014 A 
ATOM     40  C   UNL A   1      41.891  23.578  27.609  1.00  0.00     0.014 A 
ATOM     41  C   UNL A   1      42.875  26.137  27.085  1.00  0.00     0.010 A 
ATOM     42  C   UNL A   1      41.618  24.619  28.493  1.00  0.00     0.010 A 
ATOM     43  C   UNL A   1      42.112  25.908  28.242  1.00  0.00    -0.014 A 
BRANCH  43  44
ATOM     44  C   UNL A   1      41.819  27.008  29.196  1.00  0.00     0.031 A 
ATOM     45  C   UNL A   1      42.732  27.263  30.365  1.00  0.00     0.074 A 
ATOM     46  C   UNL A   1      40.703  27.746  29.039  1.00  0.00     0.049 A 
ATOM     47  N   UNL A   1      42.620  28.153  31.318  1.00  0.00    -0.248 NA
ATOM     48  C   UNL A   1      43.908  26.390  30.494  1.00  0.00     0.031 C 
ATOM     49  C   UNL A   1      39.715  27.573  27.971  1.00  0.00     0.029 A 
ATOM     50  N   UNL A   1      40.210  28.790  29.779  1.00  0.00    -0.354 N 
ATOM     51  C   UNL A   1      43.702  27.939  32.163  1.00  0.00     0.074 A 
ATOM     52  C   UNL A   1      44.425  26.799  31.643  1.00  0.00     0.031 C 
ATOM     53  C   UNL A   1      38.755  28.501  28.106  1.00  0.00     0.029 A 
ATOM     54  C   UNL A   1      39.032  29.304  29.291  1.00  0.00     0.049 A 
ATOM     55  H   UNL A   1      40.657  29.137  30.586  1.00  0.00     0.167 HD
ATOM     56  C   UNL A   1      44.074  28.640  33.260  1.00  0.00     0.031 A 
ATOM     57  C   UNL A   1      38.260  30.308  29.749  1.00  0.00     0.031 A 
ATOM     58  C   UNL A   1      43.359  29.779  33.773  1.00  0.00     0.049 A 
ATOM     59  C   UNL A   1      38.682  31.055  30.984  1.00  0.00     0.074 A 
ATOM     60  C   UNL A   1      43.686  30.590  34.846  1.00  0.00     0.029 A 
ATOM     61  N   UNL A   1      42.169  30.265  33.252  1.00  0.00    -0.354 N 
ATOM     62  N   UNL A   1      39.747  30.885  31.729  1.00  0.00    -0.248 NA
ATOM     63  C   UNL A   1      37.798  32.139  31.434  1.00  0.00     0.031 C 
ATOM     64  C   UNL A   1      42.664  31.528  35.012  1.00  0.00     0.029 A 
ATOM     65  C   UNL A   1      41.733  31.345  34.001  1.00  0.00     0.049 A 
ATOM     66  H   UNL A   1      41.704  29.896  32.467  1.00  0.00     0.167 HD
ATOM     67  C   UNL A   1      39.677  31.858  32.716  1.00  0.00     0.074 A 
ATOM     68  C   UNL A   1      38.476  32.626  32.464  1.00  0.00     0.031 C 
ATOM     69  C   UNL A   1      40.533  32.097  33.740  1.00  0.00     0.031 A 
BRANCH  56  70
ATOM     70  C   UNL A   1      45.311  28.186  33.987  1.00  0.00    -0.014 A 
ATOM     71  C   UNL A   1      46.581  28.670  33.637  1.00  0.00     0.009 A 
ATOM     72  C   UNL A   1      45.199  27.290  35.063  1.00  0.00     0.009 A 
ATOM     73  C   UNL A   1      47.718  28.236  34.322  1.00  0.00     0.001 A 
ATOM     74  C   UNL A   1      46.334  26.883  35.766  1.00  0.00     0.001 A 
ATOM     75  C   UNL A   1      47.593  27.347  35.389  1.00  0.00     0.000 A 
ENDBRANCH  56  70
BRANCH  57  76
ATOM     76  C   UNL A   1      37.013  30.676  29.029  1.00  0.00    -0.014 A 
ATOM     77  C   UNL A   1      35.987  29.734  28.852  1.00  0.00     0.009 A 
ATOM     78  C   UNL A   1      36.845  31.966  28.504  1.00  0.00     0.009 A 
ATOM     79  C   UNL A   1      34.833  30.069  28.139  1.00  0.00     0.001 A 
ATOM     80  C   UNL A   1      35.675  32.309  27.820  1.00  0.00     0.001 A 
ATOM     81  C   UNL A   1      34.676  31.357  27.629  1.00  0.00     0.000 A 
ENDBRANCH  57  76
BRANCH  69  82
ATOM     82  C   UNL A   1      40.218  33.255  34.646  1.00  0.00    -0.014 A 
ATOM     83  C   UNL A   1      39.529  33.073  35.855  1.00  0.00     0.009 A 
ATOM     84  C   UNL A   1      40.656  34.543  34.301  1.00  0.00     0.009 A 
ATOM     85  C   UNL A   1      39.255  34.163  36.682  1.00  0.00     0.001 A 
ATOM     86  C   UNL A   1      40.410  35.627  35.146  1.00  0.00     0.001 A 
ATOM     87  C   UNL A   1      39.701  35.437  36.331  1.00  0.00     0.000 A 
ENDBRANCH  69  82
ENDBRANCH  43  44
ENDBRANCH  35  38
ENDBRANCH  33  34
ENDBRANCH  32  33
ENDBRANCH  31  32
ENDBRANCH  30  31
ENDBRANCH   1  30
TORSDOF 17
ENDMDL
MODEL 3
REMARK VINA RESULT:      -8.6      4.075     10.677
REMARK SMILES Cc1c(CC(=O)NCCCCCCNC(=O)c2ccc(-c3c4nc(c(-c5ccccc5)c5ccc([nH]5)c(-c5ccccc5)c5nc(c(-c6ccccc6)c6ccc3[nH]6)C=C5)C=C4)cc2)c(=O)oc2cc(OCc3c(F)cccc3Cl)ccc12
REMARK SMILES IDX 9 1 8 2 7 3 5 4 6 5 4 7 3 8 1 9 2 10 83 11 65 12 68 13 82 14
REMARK SMILES IDX 66 15 67 16 69 17 81 18 70 19 71 20 72 21 73 22 74 23 79 24
REMARK SMILES IDX 75 25 76 26 78 27 80 28 77 29 10 30 11 31 12 32 13 33 14 34
REMARK SMILES IDX 15 35 16 37 17 38 18 39 64 40 19 41 63 42 20 43 21 44 22 45
REMARK SMILES IDX 57 46 23 47 62 48 56 49 58 50 24 51 61 52 55 53 54 54 25 56
REMARK SMILES IDX 47 57 32 58 46 59 33 60 36 61 45 62 59 63 34 64 35 65 44 67
REMARK SMILES IDX 60 68 37 69 26 70 27 71 31 72 28 73 30 74 29 75 48 76 49 77
REMARK SMILES IDX 53 78 50 79 52 80 51 81 38 82 39 83 43 84 40 85 42 86 41 87
REMARK H PARENT 7 6 14 36 58 55 36 66
REMARK Flexibility Score: inf
ROOT
ATOM      1  C   UNL A   1      37.820  32.152  32.803  1.00  0.00     0.021 C 
ENDROOT
BRANCH   1   2
ATOM      2  C   UNL A   1      37.852  30.660  33.143  1.00  0.00     0.116 C 
BRANCH   2   3
ATOM      3  N   UNL A   1      37.850  30.456  34.577  1.00  0.00    -0.356 N 
ATOM      4  C   UNL A   1      38.891  30.414  35.452  1.00  0.00     0.224 C 
ATOM      5  O   UNL A   1      38.638  30.164  36.633  1.00  0.00    -0.275 OA
ATOM      6  H   UNL A   1      36.961  30.327  34.979  1.00  0.00     0.163 HD
BRANCH   4   7
ATOM      7  C   UNL A   1      40.315  30.720  34.996  1.00  0.00     0.143 C 
BRANCH   7   8
ATOM      8  C   UNL A   1      41.314  29.607  35.237  1.00  0.00     0.051 A 
ATOM      9  C   UNL A   1      40.608  28.220  33.252  1.00  0.00     0.046 C 
ATOM     10  C   UNL A   1      41.465  28.512  34.458  1.00  0.00    -0.029 A 
ATOM     11  C   UNL A   1      42.553  27.561  34.759  1.00  0.00     0.021 A 
ATOM     12  C   UNL A   1      42.140  29.794  36.465  1.00  0.00     0.340 A 
ATOM     13  C   UNL A   1      43.378  27.798  35.855  1.00  0.00     0.142 A 
ATOM     14  C   UNL A   1      42.857  26.452  33.962  1.00  0.00     0.016 A 
ATOM     15  O   UNL A   1      41.964  30.741  37.228  1.00  0.00    -0.246 OA
ATOM     16  O   UNL A   1      43.144  28.879  36.716  1.00  0.00    -0.422 OA
ATOM     17  C   UNL A   1      44.508  27.024  36.140  1.00  0.00     0.094 A 
ATOM     18  C   UNL A   1      43.991  25.677  34.222  1.00  0.00     0.047 A 
ATOM     19  C   UNL A   1      44.852  25.997  35.273  1.00  0.00     0.123 A 
BRANCH  19  20
ATOM     20  O   UNL A   1      46.036  25.317  35.248  1.00  0.00    -0.489 OA
BRANCH  20  21
ATOM     21  C   UNL A   1      46.258  24.245  36.166  1.00  0.00     0.270 C 
BRANCH  21  22
ATOM     22  C   UNL A   1      46.500  22.835  35.654  1.00  0.00     0.044 A 
ATOM     23  C   UNL A   1      45.339  22.094  35.370  1.00  0.00     0.131 A 
ATOM     24  C   UNL A   1      47.726  22.198  35.422  1.00  0.00     0.050 A 
ATOM     25  F   UNL A   1      44.139  22.683  35.480  1.00  0.00    -0.207 F 
ATOM     26  C   UNL A   1      45.376  20.760  34.971  1.00  0.00     0.040 A 
ATOM     27  C   UNL A   1      47.770  20.837  35.072  1.00  0.00     0.021 A 
ATOM     28  Cl  UNL A   1      49.258  22.994  35.463  1.00  0.00    -0.084 Cl
ATOM     29  C   UNL A   1      46.598  20.114  34.857  1.00  0.00     0.005 A 
ENDBRANCH  21  22
ENDBRANCH  20  21
ENDBRANCH  19  20
ENDBRANCH   7   8
ENDBRANCH   4   7
ENDBRANCH   2   3
ENDBRANCH   1   2
BRANCH   1  30
ATOM     30  C   UNL A   1      36.683  32.548  31.849  1.00  0.00     0.002 C 
BRANCH  30  31
ATOM     31  C   UNL A   1      37.134  33.017  30.460  1.00  0.00     0.002 C 
BRANCH  31  32
ATOM     32  C   UNL A   1      36.016  33.134  29.423  1.00  0.00     0.021 C 
BRANCH  32  33
ATOM     33  C   UNL A   1      34.699  32.489  29.841  1.00  0.00     0.116 C 
BRANCH  33  34
ATOM     34  N   UNL A   1      34.078  31.756  28.748  1.00  0.00    -0.352 N 
ATOM     35  C   UNL A   1      34.616  30.800  27.922  1.00  0.00     0.251 C 
ATOM     36  H   UNL A   1      33.135  31.979  28.574  1.00  0.00     0.163 HD
ATOM     37  O   UNL A   1      34.012  30.437  26.920  1.00  0.00    -0.269 OA
BRANCH  35  38
ATOM     38  C   UNL A   1      35.940  30.221  28.237  1.00  0.00     0.039 A 
ATOM     39  C   UNL A   1      36.971  30.348  27.303  1.00  0.00     0.014 A 
ATOM     40  C   UNL A   1      36.159  29.545  29.440  1.00  0.00     0.014 A 
ATOM     41  C   UNL A   1      38.239  29.850  27.605  1.00  0.00     0.010 A 
ATOM     42  C   UNL A   1      37.442  29.118  29.771  1.00  0.00     0.010 A 
ATOM     43  C   UNL A   1      38.494  29.261  28.854  1.00  0.00    -0.014 A 
BRANCH  43  44
ATOM     44  C   UNL A   1      39.857  28.796  29.217  1.00  0.00     0.031 A 
ATOM     45  C   UNL A   1      40.334  27.434  28.792  1.00  0.00     0.074 A 
ATOM     46  C   UNL A   1      40.648  29.581  29.975  1.00  0.00     0.049 A 
ATOM     47  N   UNL A   1      41.475  26.845  29.044  1.00  0.00    -0.248 NA
ATOM     48  C   UNL A   1      39.398  26.618  28.003  1.00  0.00     0.031 C 
ATOM     49  C   UNL A   1      40.290  30.905  30.487  1.00  0.00     0.029 A 
ATOM     50  N   UNL A   1      41.920  29.376  30.448  1.00  0.00    -0.354 N 
ATOM     51  C   UNL A   1      41.389  25.589  28.456  1.00  0.00     0.074 A 
ATOM     52  C   UNL A   1      40.064  25.479  27.885  1.00  0.00     0.031 C 
ATOM     53  C   UNL A   1      41.329  31.408  31.171  1.00  0.00     0.029 A 
ATOM     54  C   UNL A   1      42.408  30.427  31.187  1.00  0.00     0.049 A 
ATOM     55  H   UNL A   1      42.433  28.554  30.276  1.00  0.00     0.167 HD
ATOM     56  C   UNL A   1      42.334  24.622  28.377  1.00  0.00     0.031 A 
ATOM     57  C   UNL A   1      43.592  30.583  31.810  1.00  0.00     0.031 A 
ATOM     58  C   UNL A   1      43.655  24.734  28.938  1.00  0.00     0.049 A 
ATOM     59  C   UNL A   1      44.615  29.484  31.729  1.00  0.00     0.074 A 
ATOM     60  C   UNL A   1      44.701  23.831  28.864  1.00  0.00     0.029 A 
ATOM     61  N   UNL A   1      44.108  25.813  29.681  1.00  0.00    -0.354 N 
ATOM     62  N   UNL A   1      44.543  28.333  31.106  1.00  0.00    -0.248 NA
ATOM     63  C   UNL A   1      45.887  29.713  32.428  1.00  0.00     0.031 C 
ATOM     64  C   UNL A   1      45.768  24.337  29.613  1.00  0.00     0.029 A 
ATOM     65  C   UNL A   1      45.409  25.584  30.098  1.00  0.00     0.049 A 
ATOM     66  H   UNL A   1      43.583  26.621  29.882  1.00  0.00     0.167 HD
ATOM     67  C   UNL A   1      45.768  27.714  31.314  1.00  0.00     0.074 A 
ATOM     68  C   UNL A   1      46.570  28.625  32.104  1.00  0.00     0.031 C 
ATOM     69  C   UNL A   1      46.193  26.499  30.887  1.00  0.00     0.031 A 
BRANCH  56  70
ATOM     70  C   UNL A   1      41.967  23.349  27.663  1.00  0.00    -0.014 A 
ATOM     71  C   UNL A   1      42.335  23.131  26.326  1.00  0.00     0.009 A 
ATOM     72  C   UNL A   1      41.274  22.338  28.349  1.00  0.00     0.009 A 
ATOM     73  C   UNL A   1      41.983  21.944  25.678  1.00  0.00     0.001 A 
ATOM     74  C   UNL A   1      40.952  21.140  27.709  1.00  0.00     0.001 A 
ATOM     75  C   UNL A   1      41.297  20.948  26.372  1.00  0.00     0.000 A 
ENDBRANCH  56  70
BRANCH  57  76
ATOM     76  C   UNL A   1      43.882  31.836  32.557  1.00  0.00    -0.014 A 
ATOM     77  C   UNL A   1      43.597  31.930  33.927  1.00  0.00     0.009 A 
ATOM     78  C   UNL A   1      44.434  32.947  31.902  1.00  0.00     0.009 A 
ATOM     79  C   UNL A   1      43.830  33.122  34.620  1.00  0.00     0.001 A 
ATOM     80  C   UNL A   1      44.697  34.126  32.603  1.00  0.00     0.001 A 
ATOM     81  C   UNL A   1      44.385  34.216  33.958  1.00  0.00     0.000 A 
ENDBRANCH  57  76
BRANCH  69  82
ATOM     82  C   UNL A   1      47.599  26.098  31.238  1.00  0.00    -0.014 A 
ATOM     83  C   UNL A   1      47.910  25.534  32.484  1.00  0.00     0.009 A 
ATOM     84  C   UNL A   1      48.620  26.249  30.286  1.00  0.00     0.009 A 
ATOM     85  C   UNL A   1      49.223  25.163  32.783  1.00  0.00     0.001 A 
ATOM     86  C   UNL A   1      49.925  25.847  30.575  1.00  0.00     0.001 A 
ATOM     87  C   UNL A   1      50.227  25.314  31.827  1.00  0.00     0.000 A 
ENDBRANCH  69  82
ENDBRANCH  43  44
ENDBRANCH  35  38
ENDBRANCH  33  34
ENDBRANCH  32  33
ENDBRANCH  31  32
ENDBRANCH  30  31
ENDBRANCH   1  30
TORSDOF 17
ENDMDL
