MODEL 1
REMARK VINA RESULT:     -11.6      0.000      0.000
REMARK SMILES O=C(NCCCCCCNC(=O)c1ccc(NC(=O)N2CCOCC2)c([N+](=O)[O-])c1)c1ccc(-c2c3nc(c(-c4ccccc4)c4ccc([nH]4)c(-c4ccccc4)c4nc(c(-c5ccccc5)c5ccc2[nH]5)C=C4)C=C3)cc1
REMARK SMILES IDX 6 1 5 2 4 3 3 4 1 5 2 6 31 8 32 9 78 10 33 11 77 12 34 13
REMARK SMILES IDX 35 14 36 15 71 16 37 17 76 18 70 19 72 20 38 21 75 22 69 23
REMARK SMILES IDX 68 24 39 26 61 27 46 28 60 29 47 30 50 31 59 32 73 33 48 34
REMARK SMILES IDX 49 35 58 37 74 38 51 39 40 40 41 41 45 42 42 43 44 44 43 45
REMARK SMILES IDX 62 46 63 47 67 48 64 49 66 50 65 51 52 52 53 53 57 54 54 55
REMARK SMILES IDX 56 56 55 57 7 58 8 59 9 60 10 61 11 62 12 64 13 65 14 66
REMARK SMILES IDX 30 67 15 68 26 69 16 70 27 71 28 72 29 73 17 74 18 75 19 77
REMARK SMILES IDX 20 78 21 79 25 80 22 81 24 82 23 83
REMARK H PARENT 3 7 72 25 50 36 10 63 17 76
REMARK Flexibility Score: inf
ROOT
ATOM      1  C   UNL A   1      36.434  20.323  25.016  1.00  0.00     0.002 C 
ENDROOT
BRANCH   1   2
ATOM      2  C   UNL A   1      37.817  19.711  24.796  1.00  0.00     0.021 C 
BRANCH   2   3
ATOM      3  C   UNL A   1      38.896  20.175  25.768  1.00  0.00     0.116 C 
BRANCH   3   4
ATOM      4  N   UNL A   1      40.049  19.290  25.785  1.00  0.00    -0.352 N 
ATOM      5  O   UNL A   1      42.234  18.734  25.887  1.00  0.00    -0.269 OA
ATOM      6  C   UNL A   1      41.357  19.577  26.078  1.00  0.00     0.251 C 
ATOM      7  H   UNL A   1      39.865  18.352  25.552  1.00  0.00     0.163 HD
BRANCH   6   8
ATOM      8  C   UNL A   1      41.723  20.908  26.605  1.00  0.00     0.039 A 
ATOM      9  C   UNL A   1      41.666  21.178  27.975  1.00  0.00     0.014 A 
ATOM     10  C   UNL A   1      42.144  21.895  25.710  1.00  0.00     0.014 A 
ATOM     11  C   UNL A   1      41.912  22.467  28.438  1.00  0.00     0.010 A 
ATOM     12  C   UNL A   1      42.459  23.170  26.184  1.00  0.00     0.010 A 
ATOM     13  C   UNL A   1      42.320  23.473  27.548  1.00  0.00    -0.014 A 
BRANCH  13  14
ATOM     14  C   UNL A   1      42.649  24.827  28.056  1.00  0.00     0.031 A 
ATOM     15  C   UNL A   1      44.056  25.183  28.446  1.00  0.00     0.074 A 
ATOM     16  C   UNL A   1      41.664  25.735  28.178  1.00  0.00     0.049 A 
ATOM     17  N   UNL A   1      44.512  26.298  28.958  1.00  0.00    -0.248 NA
ATOM     18  C   UNL A   1      45.083  24.150  28.243  1.00  0.00     0.031 C 
ATOM     19  C   UNL A   1      40.260  25.510  27.828  1.00  0.00     0.029 A 
ATOM     20  N   UNL A   1      41.692  27.029  28.633  1.00  0.00    -0.354 N 
ATOM     21  C   UNL A   1      45.870  26.096  29.160  1.00  0.00     0.074 A 
ATOM     22  C   UNL A   1      46.162  24.743  28.736  1.00  0.00     0.031 C 
ATOM     23  C   UNL A   1      39.565  26.634  28.060  1.00  0.00     0.029 A 
ATOM     24  C   UNL A   1      40.461  27.635  28.630  1.00  0.00     0.049 A 
ATOM     25  H   UNL A   1      42.515  27.479  28.933  1.00  0.00     0.167 HD
ATOM     26  C   UNL A   1      46.791  26.959  29.656  1.00  0.00     0.031 A 
ATOM     27  C   UNL A   1      40.083  28.852  29.062  1.00  0.00     0.031 A 
ATOM     28  C   UNL A   1      46.495  28.301  30.084  1.00  0.00     0.049 A 
ATOM     29  C   UNL A   1      41.112  29.774  29.645  1.00  0.00     0.074 A 
ATOM     30  C   UNL A   1      47.364  29.263  30.570  1.00  0.00     0.029 A 
ATOM     31  N   UNL A   1      45.230  28.870  30.082  1.00  0.00    -0.354 N 
ATOM     32  N   UNL A   1      42.398  29.578  29.804  1.00  0.00    -0.248 NA
ATOM     33  C   UNL A   1      40.637  31.085  30.108  1.00  0.00     0.031 C 
ATOM     34  C   UNL A   1      46.617  30.395  30.912  1.00  0.00     0.029 A 
ATOM     35  C   UNL A   1      45.292  30.160  30.583  1.00  0.00     0.049 A 
ATOM     36  H   UNL A   1      44.410  28.424  29.770  1.00  0.00     0.167 HD
ATOM     37  C   UNL A   1      42.892  30.748  30.362  1.00  0.00     0.074 A 
ATOM     38  C   UNL A   1      41.769  31.652  30.504  1.00  0.00     0.031 C 
ATOM     39  C   UNL A   1      44.164  31.047  30.720  1.00  0.00     0.031 A 
BRANCH  26  40
ATOM     40  C   UNL A   1      48.201  26.458  29.796  1.00  0.00    -0.014 A 
ATOM     41  C   UNL A   1      48.636  25.807  30.962  1.00  0.00     0.009 A 
ATOM     42  C   UNL A   1      49.104  26.616  28.733  1.00  0.00     0.009 A 
ATOM     43  C   UNL A   1      49.955  25.361  31.075  1.00  0.00     0.001 A 
ATOM     44  C   UNL A   1      50.415  26.145  28.837  1.00  0.00     0.001 A 
ATOM     45  C   UNL A   1      50.842  25.528  30.011  1.00  0.00     0.000 A 
ENDBRANCH  26  40
BRANCH  27  46
ATOM     46  C   UNL A   1      38.657  29.252  28.962  1.00  0.00    -0.014 A 
ATOM     47  C   UNL A   1      38.133  29.732  27.753  1.00  0.00     0.009 A 
ATOM     48  C   UNL A   1      37.804  29.118  30.070  1.00  0.00     0.009 A 
ATOM     49  C   UNL A   1      36.784  30.083  27.660  1.00  0.00     0.001 A 
ATOM     50  C   UNL A   1      36.450  29.443  29.964  1.00  0.00     0.001 A 
ATOM     51  C   UNL A   1      35.943  29.931  28.762  1.00  0.00     0.000 A 
ENDBRANCH  27  46
BRANCH  39  52
ATOM     52  C   UNL A   1      44.417  32.424  31.264  1.00  0.00    -0.014 A 
ATOM     53  C   UNL A   1      44.363  32.687  32.642  1.00  0.00     0.009 A 
ATOM     54  C   UNL A   1      44.758  33.463  30.385  1.00  0.00     0.009 A 
ATOM     55  C   UNL A   1      44.616  33.973  33.124  1.00  0.00     0.001 A 
ATOM     56  C   UNL A   1      45.038  34.740  30.872  1.00  0.00     0.001 A 
ATOM     57  C   UNL A   1      44.959  34.996  32.240  1.00  0.00     0.000 A 
ENDBRANCH  39  52
ENDBRANCH  13  14
ENDBRANCH   6   8
ENDBRANCH   3   4
ENDBRANCH   2   3
ENDBRANCH   1   2
BRANCH   1  58
ATOM     58  C   UNL A   1      36.252  21.752  24.502  1.00  0.00     0.002 C 
BRANCH  58  59
ATOM     59  C   UNL A   1      35.627  22.743  25.487  1.00  0.00     0.021 C 
BRANCH  59  60
ATOM     60  C   UNL A   1      34.110  22.660  25.644  1.00  0.00     0.116 C 
BRANCH  60  61
ATOM     61  N   UNL A   1      33.502  21.633  24.814  1.00  0.00    -0.352 N 
ATOM     62  C   UNL A   1      32.597  21.735  23.791  1.00  0.00     0.251 C 
ATOM     63  H   UNL A   1      33.788  20.714  25.021  1.00  0.00     0.163 HD
ATOM     64  O   UNL A   1      32.141  20.717  23.273  1.00  0.00    -0.269 OA
BRANCH  62  65
ATOM     65  C   UNL A   1      32.109  23.057  23.338  1.00  0.00     0.046 A 
ATOM     66  C   UNL A   1      30.948  23.562  23.914  1.00  0.00     0.016 A 
ATOM     67  C   UNL A   1      32.750  23.792  22.343  1.00  0.00     0.101 A 
ATOM     68  C   UNL A   1      30.524  24.858  23.612  1.00  0.00     0.034 A 
ATOM     69  C   UNL A   1      32.353  25.118  22.085  1.00  0.00     0.293 A 
ATOM     70  C   UNL A   1      31.288  25.705  22.803  1.00  0.00     0.121 A 
BRANCH  69  71
ATOM     71  N   UNL A   1      33.103  25.856  21.055  1.00  0.00     0.065 N 
ATOM     72  O   UNL A   1      33.818  26.801  21.412  1.00  0.00    -0.258 OA
ATOM     73  O   UNL A   1      32.973  25.488  19.878  1.00  0.00    -0.258 OA
ENDBRANCH  69  71
BRANCH  70  74
ATOM     74  N   UNL A   1      30.989  27.084  22.705  1.00  0.00    -0.302 N 
ATOM     75  C   UNL A   1      31.073  28.126  23.575  1.00  0.00     0.322 C 
ATOM     76  H   UNL A   1      30.648  27.344  21.819  1.00  0.00     0.172 HD
ATOM     77  O   UNL A   1      30.371  29.114  23.351  1.00  0.00    -0.248 OA
ATOM     78  N   UNL A   1      31.894  28.067  24.668  1.00  0.00    -0.320 N 
ATOM     79  C   UNL A   1      33.313  27.688  24.625  1.00  0.00     0.150 C 
ATOM     80  C   UNL A   1      31.561  28.903  25.819  1.00  0.00     0.150 C 
ATOM     81  C   UNL A   1      33.773  27.100  25.971  1.00  0.00     0.181 C 
ATOM     82  C   UNL A   1      32.009  28.207  27.104  1.00  0.00     0.181 C 
ATOM     83  O   UNL A   1      33.423  27.952  27.074  1.00  0.00    -0.378 OA
ENDBRANCH  70  74
ENDBRANCH  62  65
ENDBRANCH  60  61
ENDBRANCH  59  60
ENDBRANCH  58  59
ENDBRANCH   1  58
TORSDOF 15
ENDMDL
MODEL 2
REMARK VINA RESULT:     -11.5      0.364      5.803
REMARK SMILES O=C(NCCCCCCNC(=O)c1ccc(NC(=O)N2CCOCC2)c([N+](=O)[O-])c1)c1ccc(-c2c3nc(c(-c4ccccc4)c4ccc([nH]4)c(-c4ccccc4)c4nc(c(-c5ccccc5)c5ccc2[nH]5)C=C4)C=C3)cc1
REMARK SMILES IDX 6 1 5 2 4 3 3 4 1 5 2 6 31 8 32 9 78 10 33 11 77 12 34 13
REMARK SMILES IDX 35 14 36 15 71 16 37 17 76 18 70 19 72 20 38 21 75 22 69 23
REMARK SMILES IDX 68 24 39 26 61 27 46 28 60 29 47 30 50 31 59 32 73 33 48 34
REMARK SMILES IDX 49 35 58 37 74 38 51 39 40 40 41 41 45 42 42 43 44 44 43 45
REMARK SMILES IDX 62 46 63 47 67 48 64 49 66 50 65 51 52 52 53 53 57 54 54 55
REMARK SMILES IDX 56 56 55 57 7 58 8 59 9 60 10 61 11 62 12 64 13 65 14 66
REMARK SMILES IDX 30 67 15 68 26 69 16 70 27 71 28 72 29 73 17 74 18 75 19 77
REMARK SMILES IDX 20 78 21 79 25 80 22 81 24 82 23 83
REMARK H PARENT 3 7 72 25 50 36 10 63 17 76
REMARK Flexibility Score: inf
ROOT
ATOM      1  C   UNL A   1      36.506  20.457  25.016  1.00  0.00     0.002 C 
ENDROOT
BRANCH   1   2
ATOM      2  C   UNL A   1      37.883  19.838  24.776  1.00  0.00     0.021 C 
BRANCH   2   3
ATOM      3  C   UNL A   1      38.971  20.275  25.750  1.00  0.00     0.116 C 
BRANCH   3   4
ATOM      4  N   UNL A   1      40.098  19.358  25.775  1.00  0.00    -0.352 N 
ATOM      5  O   UNL A   1      42.264  18.737  25.902  1.00  0.00    -0.269 OA
ATOM      6  C   UNL A   1      41.409  19.604  26.089  1.00  0.00     0.251 C 
ATOM      7  H   UNL A   1      39.890  18.426  25.533  1.00  0.00     0.163 HD
BRANCH   6   8
ATOM      8  C   UNL A   1      41.806  20.920  26.630  1.00  0.00     0.039 A 
ATOM      9  C   UNL A   1      41.856  21.142  28.010  1.00  0.00     0.014 A 
ATOM     10  C   UNL A   1      42.148  21.941  25.740  1.00  0.00     0.014 A 
ATOM     11  C   UNL A   1      42.130  22.416  28.496  1.00  0.00     0.010 A 
ATOM     12  C   UNL A   1      42.491  23.201  26.231  1.00  0.00     0.010 A 
ATOM     13  C   UNL A   1      42.459  23.456  27.612  1.00  0.00    -0.014 A 
BRANCH  13  14
ATOM     14  C   UNL A   1      42.817  24.795  28.139  1.00  0.00     0.031 A 
ATOM     15  C   UNL A   1      41.763  25.840  28.372  1.00  0.00     0.074 A 
ATOM     16  C   UNL A   1      44.109  25.072  28.392  1.00  0.00     0.049 A 
ATOM     17  N   UNL A   1      41.904  27.077  28.776  1.00  0.00    -0.248 NA
ATOM     18  C   UNL A   1      40.370  25.447  28.112  1.00  0.00     0.031 C 
ATOM     19  C   UNL A   1      45.224  24.140  28.210  1.00  0.00     0.029 A 
ATOM     20  N   UNL A   1      44.705  26.218  28.856  1.00  0.00    -0.354 N 
ATOM     21  C   UNL A   1      40.626  27.618  28.796  1.00  0.00     0.074 A 
ATOM     22  C   UNL A   1      39.723  26.581  28.343  1.00  0.00     0.031 C 
ATOM     23  C   UNL A   1      46.365  24.743  28.578  1.00  0.00     0.029 A 
ATOM     24  C   UNL A   1      46.069  26.118  28.963  1.00  0.00     0.049 A 
ATOM     25  H   UNL A   1      44.202  27.032  29.088  1.00  0.00     0.167 HD
ATOM     26  C   UNL A   1      40.240  28.866  29.157  1.00  0.00     0.031 A 
ATOM     27  C   UNL A   1      46.990  27.038  29.308  1.00  0.00     0.031 A 
ATOM     28  C   UNL A   1      41.142  29.897  29.600  1.00  0.00     0.049 A 
ATOM     29  C   UNL A   1      46.542  28.424  29.662  1.00  0.00     0.074 A 
ATOM     30  C   UNL A   1      40.844  31.183  30.018  1.00  0.00     0.029 A 
ATOM     31  N   UNL A   1      42.520  29.762  29.676  1.00  0.00    -0.354 N 
ATOM     32  N   UNL A   1      45.326  28.913  29.703  1.00  0.00    -0.248 NA
ATOM     33  C   UNL A   1      47.593  29.386  30.020  1.00  0.00     0.031 C 
ATOM     34  C   UNL A   1      42.046  31.842  30.297  1.00  0.00     0.029 A 
ATOM     35  C   UNL A   1      43.088  30.948  30.110  1.00  0.00     0.049 A 
ATOM     36  H   UNL A   1      43.020  28.943  29.456  1.00  0.00     0.167 HD
ATOM     37  C   UNL A   1      45.462  30.231  30.114  1.00  0.00     0.074 A 
ATOM     38  C   UNL A   1      46.878  30.462  30.320  1.00  0.00     0.031 C 
ATOM     39  C   UNL A   1      44.499  31.164  30.307  1.00  0.00     0.031 A 
BRANCH  26  40
ATOM     40  C   UNL A   1      38.776  29.195  29.050  1.00  0.00    -0.014 A 
ATOM     41  C   UNL A   1      37.910  29.051  30.146  1.00  0.00     0.009 A 
ATOM     42  C   UNL A   1      38.260  29.683  27.839  1.00  0.00     0.009 A 
ATOM     43  C   UNL A   1      36.552  29.351  30.019  1.00  0.00     0.001 A 
ATOM     44  C   UNL A   1      36.908  30.008  27.722  1.00  0.00     0.001 A 
ATOM     45  C   UNL A   1      36.053  29.831  28.809  1.00  0.00     0.000 A 
ENDBRANCH  26  40
BRANCH  27  46
ATOM     46  C   UNL A   1      48.426  26.664  29.317  1.00  0.00    -0.014 A 
ATOM     47  C   UNL A   1      49.217  26.840  28.173  1.00  0.00     0.009 A 
ATOM     48  C   UNL A   1      49.021  26.164  30.487  1.00  0.00     0.009 A 
ATOM     49  C   UNL A   1      50.574  26.509  28.196  1.00  0.00     0.001 A 
ATOM     50  C   UNL A   1      50.384  25.862  30.515  1.00  0.00     0.001 A 
ATOM     51  C   UNL A   1      51.157  26.028  29.367  1.00  0.00     0.000 A 
ENDBRANCH  27  46
BRANCH  39  52
ATOM     52  C   UNL A   1      44.940  32.511  30.804  1.00  0.00    -0.014 A 
ATOM     53  C   UNL A   1      45.244  33.554  29.915  1.00  0.00     0.009 A 
ATOM     54  C   UNL A   1      45.009  32.750  32.185  1.00  0.00     0.009 A 
ATOM     55  C   UNL A   1      45.638  34.802  30.403  1.00  0.00     0.001 A 
ATOM     56  C   UNL A   1      45.377  34.006  32.668  1.00  0.00     0.001 A 
ATOM     57  C   UNL A   1      45.698  35.028  31.778  1.00  0.00     0.000 A 
ENDBRANCH  39  52
ENDBRANCH  13  14
ENDBRANCH   6   8
ENDBRANCH   3   4
ENDBRANCH   2   3
ENDBRANCH   1   2
BRANCH   1  58
ATOM     58  C   UNL A   1      36.280  21.834  24.389  1.00  0.00     0.002 C 
BRANCH  58  59
ATOM     59  C   UNL A   1      35.646  22.888  25.301  1.00  0.00     0.021 C 
BRANCH  59  60
ATOM     60  C   UNL A   1      34.178  22.664  25.659  1.00  0.00     0.116 C 
BRANCH  60  61
ATOM     61  N   UNL A   1      33.545  21.626  24.862  1.00  0.00    -0.352 N 
ATOM     62  C   UNL A   1      32.615  21.716  23.860  1.00  0.00     0.251 C 
ATOM     63  H   UNL A   1      33.830  20.709  25.078  1.00  0.00     0.163 HD
ATOM     64  O   UNL A   1      32.141  20.691  23.371  1.00  0.00    -0.269 OA
BRANCH  62  65
ATOM     65  C   UNL A   1      32.123  23.032  23.396  1.00  0.00     0.046 A 
ATOM     66  C   UNL A   1      30.971  23.548  23.982  1.00  0.00     0.016 A 
ATOM     67  C   UNL A   1      32.751  23.752  22.382  1.00  0.00     0.101 A 
ATOM     68  C   UNL A   1      30.545  24.840  23.668  1.00  0.00     0.034 A 
ATOM     69  C   UNL A   1      32.353  25.076  22.112  1.00  0.00     0.293 A 
ATOM     70  C   UNL A   1      31.299  25.674  22.837  1.00  0.00     0.121 A 
BRANCH  69  71
ATOM     71  N   UNL A   1      33.089  25.798  21.062  1.00  0.00     0.065 N 
ATOM     72  O   UNL A   1      32.989  25.400  19.893  1.00  0.00    -0.258 OA
ATOM     73  O   UNL A   1      33.777  26.769  21.408  1.00  0.00    -0.258 OA
ENDBRANCH  69  71
BRANCH  70  74
ATOM     74  N   UNL A   1      31.002  27.052  22.725  1.00  0.00    -0.302 N 
ATOM     75  C   UNL A   1      31.086  28.104  23.583  1.00  0.00     0.322 C 
ATOM     76  H   UNL A   1      30.661  27.304  21.836  1.00  0.00     0.172 HD
ATOM     77  O   UNL A   1      30.385  29.090  23.349  1.00  0.00    -0.248 OA
ATOM     78  N   UNL A   1      31.905  28.055  24.678  1.00  0.00    -0.320 N 
ATOM     79  C   UNL A   1      33.324  27.675  24.641  1.00  0.00     0.150 C 
ATOM     80  C   UNL A   1      31.571  28.903  25.820  1.00  0.00     0.150 C 
ATOM     81  C   UNL A   1      33.782  27.100  25.993  1.00  0.00     0.181 C 
ATOM     82  C   UNL A   1      32.017  28.220  27.113  1.00  0.00     0.181 C 
ATOM     83  O   UNL A   1      33.431  27.963  27.088  1.00  0.00    -0.378 OA
ENDBRANCH  70  74
ENDBRANCH  62  65
ENDBRANCH  60  61
ENDBRANCH  59  60
ENDBRANCH  58  59
ENDBRANCH   1  58
TORSDOF 15
ENDMDL
MODEL 3
REMARK VINA RESULT:     -11.4      3.397      8.834
REMARK SMILES O=C(NCCCCCCNC(=O)c1ccc(NC(=O)N2CCOCC2)c([N+](=O)[O-])c1)c1ccc(-c2c3nc(c(-c4ccccc4)c4ccc([nH]4)c(-c4ccccc4)c4nc(c(-c5ccccc5)c5ccc2[nH]5)C=C4)C=C3)cc1
REMARK SMILES IDX 6 1 5 2 4 3 3 4 1 5 2 6 31 8 32 9 78 10 33 11 77 12 34 13
REMARK SMILES IDX 35 14 36 15 71 16 37 17 76 18 70 19 72 20 38 21 75 22 69 23
REMARK SMILES IDX 68 24 39 26 61 27 46 28 60 29 47 30 50 31 59 32 73 33 48 34
REMARK SMILES IDX 49 35 58 37 74 38 51 39 40 40 41 41 45 42 42 43 44 44 43 45
REMARK SMILES IDX 62 46 63 47 67 48 64 49 66 50 65 51 52 52 53 53 57 54 54 55
REMARK SMILES IDX 56 56 55 57 7 58 8 59 9 60 10 61 11 62 12 64 13 65 14 66
REMARK SMILES IDX 30 67 15 68 26 69 16 70 27 71 28 72 29 73 17 74 18 75 19 77
REMARK SMILES IDX 20 78 21 79 25 80 22 81 24 82 23 83
REMARK H PARENT 3 7 72 25 50 36 10 63 17 76
REMARK Flexibility Score: inf
ROOT
ATOM      1  C   UNL A   1      35.812  33.143  27.900  1.00  0.00     0.002 C 
ENDROOT
BRANCH   1   2
ATOM      2  C   UNL A   1      34.841  34.254  28.298  1.00  0.00     0.021 C 
BRANCH   2   3
ATOM      3  C   UNL A   1      33.662  33.810  29.157  1.00  0.00     0.116 C 
BRANCH   3   4
ATOM      4  N   UNL A   1      33.479  34.651  30.329  1.00  0.00    -0.352 N 
ATOM      5  O   UNL A   1      33.764  35.318  32.466  1.00  0.00    -0.269 OA
ATOM      6  C   UNL A   1      34.159  34.638  31.519  1.00  0.00     0.251 C 
ATOM      7  H   UNL A   1      32.765  35.325  30.258  1.00  0.00     0.163 HD
BRANCH   6   8
ATOM      8  C   UNL A   1      35.358  33.789  31.677  1.00  0.00     0.039 A 
ATOM      9  C   UNL A   1      35.256  32.493  32.192  1.00  0.00     0.014 A 
ATOM     10  C   UNL A   1      36.600  34.296  31.289  1.00  0.00     0.014 A 
ATOM     11  C   UNL A   1      36.408  31.751  32.431  1.00  0.00     0.010 A 
ATOM     12  C   UNL A   1      37.749  33.523  31.465  1.00  0.00     0.010 A 
ATOM     13  C   UNL A   1      37.665  32.255  32.062  1.00  0.00    -0.014 A 
BRANCH  13  14
ATOM     14  C   UNL A   1      38.883  31.431  32.255  1.00  0.00     0.031 A 
ATOM     15  C   UNL A   1      39.808  31.683  33.412  1.00  0.00     0.074 A 
ATOM     16  C   UNL A   1      39.161  30.460  31.366  1.00  0.00     0.049 A 
ATOM     17  N   UNL A   1      40.942  31.096  33.703  1.00  0.00    -0.248 NA
ATOM     18  C   UNL A   1      39.413  32.734  34.362  1.00  0.00     0.031 C 
ATOM     19  C   UNL A   1      38.339  30.117  30.204  1.00  0.00     0.029 A 
ATOM     20  N   UNL A   1      40.214  29.583  31.301  1.00  0.00    -0.354 N 
ATOM     21  C   UNL A   1      41.408  31.720  34.852  1.00  0.00     0.074 A 
ATOM     22  C   UNL A   1      40.445  32.745  35.195  1.00  0.00     0.031 C 
ATOM     23  C   UNL A   1      38.906  29.090  29.553  1.00  0.00     0.029 A 
ATOM     24  C   UNL A   1      40.158  28.744  30.216  1.00  0.00     0.049 A 
ATOM     25  H   UNL A   1      40.940  29.559  31.966  1.00  0.00     0.167 HD
ATOM     26  C   UNL A   1      42.537  31.462  35.557  1.00  0.00     0.031 A 
ATOM     27  C   UNL A   1      41.029  27.814  29.782  1.00  0.00     0.031 A 
ATOM     28  C   UNL A   1      43.496  30.447  35.209  1.00  0.00     0.049 A 
ATOM     29  C   UNL A   1      42.292  27.577  30.556  1.00  0.00     0.074 A 
ATOM     30  C   UNL A   1      44.654  30.089  35.877  1.00  0.00     0.029 A 
ATOM     31  N   UNL A   1      43.411  29.631  34.091  1.00  0.00    -0.354 N 
ATOM     32  N   UNL A   1      42.705  28.156  31.657  1.00  0.00    -0.248 NA
ATOM     33  C   UNL A   1      43.208  26.557  30.027  1.00  0.00     0.031 C 
ATOM     34  C   UNL A   1      45.297  29.092  35.135  1.00  0.00     0.029 A 
ATOM     35  C   UNL A   1      44.509  28.788  34.037  1.00  0.00     0.049 A 
ATOM     36  H   UNL A   1      42.679  29.648  33.433  1.00  0.00     0.167 HD
ATOM     37  C   UNL A   1      43.916  27.555  31.968  1.00  0.00     0.074 A 
ATOM     38  C   UNL A   1      44.165  26.559  30.945  1.00  0.00     0.031 C 
ATOM     39  C   UNL A   1      44.745  27.804  33.010  1.00  0.00     0.031 A 
BRANCH  26  40
ATOM     40  C   UNL A   1      42.812  32.324  36.758  1.00  0.00    -0.014 A 
ATOM     41  C   UNL A   1      42.360  31.964  38.038  1.00  0.00     0.009 A 
ATOM     42  C   UNL A   1      43.561  33.503  36.612  1.00  0.00     0.009 A 
ATOM     43  C   UNL A   1      42.618  32.786  39.137  1.00  0.00     0.001 A 
ATOM     44  C   UNL A   1      43.841  34.309  37.716  1.00  0.00     0.001 A 
ATOM     45  C   UNL A   1      43.360  33.956  38.976  1.00  0.00     0.000 A 
ENDBRANCH  26  40
BRANCH  27  46
ATOM     46  C   UNL A   1      40.729  27.054  28.544  1.00  0.00    -0.014 A 
ATOM     47  C   UNL A   1      41.263  27.457  27.311  1.00  0.00     0.009 A 
ATOM     48  C   UNL A   1      39.932  25.898  28.596  1.00  0.00     0.009 A 
ATOM     49  C   UNL A   1      40.996  26.722  26.153  1.00  0.00     0.001 A 
ATOM     50  C   UNL A   1      39.692  25.151  27.442  1.00  0.00     0.001 A 
ATOM     51  C   UNL A   1      40.218  25.567  26.221  1.00  0.00     0.000 A 
ENDBRANCH  27  46
BRANCH  39  52
ATOM     52  C   UNL A   1      45.981  26.958  33.121  1.00  0.00    -0.014 A 
ATOM     53  C   UNL A   1      47.196  27.362  32.548  1.00  0.00     0.009 A 
ATOM     54  C   UNL A   1      45.935  25.758  33.848  1.00  0.00     0.009 A 
ATOM     55  C   UNL A   1      48.335  26.564  32.676  1.00  0.00     0.001 A 
ATOM     56  C   UNL A   1      47.081  24.978  33.998  1.00  0.00     0.001 A 
ATOM     57  C   UNL A   1      48.278  25.377  33.406  1.00  0.00     0.000 A 
ENDBRANCH  39  52
ENDBRANCH  13  14
ENDBRANCH   6   8
ENDBRANCH   3   4
ENDBRANCH   2   3
ENDBRANCH   1   2
BRANCH   1  58
ATOM     58  C   UNL A   1      35.571  31.784  28.561  1.00  0.00     0.002 C 
BRANCH  58  59
ATOM     59  C   UNL A   1      35.139  30.652  27.625  1.00  0.00     0.021 C 
BRANCH  59  60
ATOM     60  C   UNL A   1      33.672  30.664  27.197  1.00  0.00     0.116 C 
BRANCH  60  61
ATOM     61  N   UNL A   1      32.885  29.611  27.816  1.00  0.00    -0.352 N 
ATOM     62  C   UNL A   1      32.230  28.545  27.258  1.00  0.00     0.251 C 
ATOM     63  H   UNL A   1      32.811  29.674  28.796  1.00  0.00     0.163 HD
ATOM     64  O   UNL A   1      31.540  27.812  27.966  1.00  0.00    -0.269 OA
BRANCH  62  65
ATOM     65  C   UNL A   1      32.288  28.295  25.801  1.00  0.00     0.046 A 
ATOM     66  C   UNL A   1      33.499  27.882  25.252  1.00  0.00     0.016 A 
ATOM     67  C   UNL A   1      31.191  28.486  24.963  1.00  0.00     0.101 A 
ATOM     68  C   UNL A   1      33.566  27.512  23.908  1.00  0.00     0.034 A 
ATOM     69  C   UNL A   1      31.249  28.056  23.623  1.00  0.00     0.293 A 
ATOM     70  C   UNL A   1      32.421  27.460  23.107  1.00  0.00     0.121 A 
BRANCH  69  71
ATOM     71  N   UNL A   1      30.040  28.243  22.805  1.00  0.00     0.065 N 
ATOM     72  O   UNL A   1      28.969  27.785  23.225  1.00  0.00    -0.258 OA
ATOM     73  O   UNL A   1      30.163  28.851  21.732  1.00  0.00    -0.258 OA
ENDBRANCH  69  71
BRANCH  70  74
ATOM     74  N   UNL A   1      32.450  26.849  21.832  1.00  0.00    -0.302 N 
ATOM     75  C   UNL A   1      32.658  25.574  21.407  1.00  0.00     0.322 C 
ATOM     76  H   UNL A   1      32.285  27.481  21.096  1.00  0.00     0.172 HD
ATOM     77  O   UNL A   1      33.028  25.413  20.243  1.00  0.00    -0.248 OA
ATOM     78  N   UNL A   1      32.482  24.512  22.252  1.00  0.00    -0.320 N 
ATOM     79  C   UNL A   1      31.282  24.289  23.071  1.00  0.00     0.150 C 
ATOM     80  C   UNL A   1      33.214  23.281  21.966  1.00  0.00     0.150 C 
ATOM     81  C   UNL A   1      31.610  23.458  24.324  1.00  0.00     0.181 C 
ATOM     82  C   UNL A   1      33.538  22.561  23.275  1.00  0.00     0.181 C 
ATOM     83  O   UNL A   1      32.332  22.259  23.997  1.00  0.00    -0.378 OA
ENDBRANCH  70  74
ENDBRANCH  62  65
ENDBRANCH  60  61
ENDBRANCH  59  60
ENDBRANCH  58  59
ENDBRANCH   1  58
TORSDOF 15
ENDMDL
