MODEL 1
REMARK VINA RESULT:     -11.6      0.000      0.000
REMARK SMILES O=C(NCCCCCCNC(=O)c1c(/C=C2/SC(=S)N=C2O)cnc2ccccc12)c1ccc(-c2c3nc(c(-c4ccccc4)c4ccc([nH]4)c(-c4ccccc4)c4nc(c(-c5ccccc5)c5ccc2[nH]5)C=C4)C=C3)cc1
REMARK SMILES IDX 6 1 5 2 4 3 3 4 1 5 2 6 31 8 32 9 78 10 33 11 77 12 34 13
REMARK SMILES IDX 35 14 36 15 71 16 37 17 76 18 70 19 72 20 38 21 75 22 69 23
REMARK SMILES IDX 68 24 39 26 61 27 46 28 60 29 47 30 50 31 59 32 73 33 48 34
REMARK SMILES IDX 49 35 58 37 74 38 51 39 40 40 41 41 45 42 42 43 44 44 43 45
REMARK SMILES IDX 62 46 63 47 67 48 64 49 66 50 65 51 52 52 53 53 57 54 54 55
REMARK SMILES IDX 56 56 55 57 7 58 8 59 9 60 10 61 11 62 12 64 13 65 14 66
REMARK SMILES IDX 30 67 23 68 25 69 29 70 24 71 26 72 28 73 27 74 15 75 16 76
REMARK SMILES IDX 17 77 21 78 18 79 20 80 19 81 22 82
REMARK H PARENT 3 7 72 25 50 36 10 63 22 83
REMARK Flexibility Score: inf
ROOT
ATOM      1  C   UNL A   1      31.407  30.680  25.862  1.00  0.00     0.002 C 
ENDROOT
BRANCH   1   2
ATOM      2  C   UNL A   1      31.278  32.044  26.537  1.00  0.00     0.021 C 
BRANCH   2   3
ATOM      3  C   UNL A   1      32.561  32.619  27.117  1.00  0.00     0.116 C 
BRANCH   3   4
ATOM      4  N   UNL A   1      32.373  33.915  27.744  1.00  0.00    -0.352 N 
ATOM      5  O   UNL A   1      32.776  35.603  29.184  1.00  0.00    -0.269 OA
ATOM      6  C   UNL A   1      33.159  34.557  28.668  1.00  0.00     0.251 C 
ATOM      7  H   UNL A   1      31.564  34.403  27.465  1.00  0.00     0.163 HD
BRANCH   6   8
ATOM      8  C   UNL A   1      34.460  33.976  29.072  1.00  0.00     0.039 A 
ATOM      9  C   UNL A   1      35.630  34.256  28.361  1.00  0.00     0.014 A 
ATOM     10  C   UNL A   1      34.509  33.148  30.198  1.00  0.00     0.014 A 
ATOM     11  C   UNL A   1      36.817  33.610  28.696  1.00  0.00     0.010 A 
ATOM     12  C   UNL A   1      35.717  32.559  30.580  1.00  0.00     0.010 A 
ATOM     13  C   UNL A   1      36.876  32.763  29.815  1.00  0.00    -0.014 A 
BRANCH  13  14
ATOM     14  C   UNL A   1      38.172  32.156  30.204  1.00  0.00     0.031 A 
ATOM     15  C   UNL A   1      39.073  32.815  31.209  1.00  0.00     0.074 A 
ATOM     16  C   UNL A   1      38.526  30.980  29.653  1.00  0.00     0.049 A 
ATOM     17  N   UNL A   1      40.221  32.396  31.684  1.00  0.00    -0.248 NA
ATOM     18  C   UNL A   1      38.637  34.110  31.752  1.00  0.00     0.031 C 
ATOM     19  C   UNL A   1      37.741  30.244  28.658  1.00  0.00     0.029 A 
ATOM     20  N   UNL A   1      39.624  30.186  29.862  1.00  0.00    -0.354 N 
ATOM     21  C   UNL A   1      40.653  33.382  32.561  1.00  0.00     0.074 A 
ATOM     22  C   UNL A   1      39.654  34.430  32.541  1.00  0.00     0.031 C 
ATOM     23  C   UNL A   1      38.356  29.086  28.382  1.00  0.00     0.029 A 
ATOM     24  C   UNL A   1      39.604  29.022  29.135  1.00  0.00     0.049 A 
ATOM     25  H   UNL A   1      40.357  30.428  30.475  1.00  0.00     0.167 HD
ATOM     26  C   UNL A   1      41.777  33.410  33.317  1.00  0.00     0.031 A 
ATOM     27  C   UNL A   1      40.492  28.014  29.072  1.00  0.00     0.031 A 
ATOM     28  C   UNL A   1      42.771  32.369  33.337  1.00  0.00     0.049 A 
ATOM     29  C   UNL A   1      41.741  28.083  29.898  1.00  0.00     0.074 A 
ATOM     30  C   UNL A   1      43.925  32.292  34.100  1.00  0.00     0.029 A 
ATOM     31  N   UNL A   1      42.736  31.227  32.553  1.00  0.00    -0.354 N 
ATOM     32  N   UNL A   1      42.115  29.006  30.751  1.00  0.00    -0.248 NA
ATOM     33  C   UNL A   1      42.691  26.974  29.749  1.00  0.00     0.031 C 
ATOM     34  C   UNL A   1      44.609  31.125  33.744  1.00  0.00     0.029 A 
ATOM     35  C   UNL A   1      43.859  30.453  32.793  1.00  0.00     0.049 A 
ATOM     36  H   UNL A   1      42.018  31.000  31.918  1.00  0.00     0.167 HD
ATOM     37  C   UNL A   1      43.339  28.585  31.248  1.00  0.00     0.074 A 
ATOM     38  C   UNL A   1      43.635  27.314  30.617  1.00  0.00     0.031 C 
ATOM     39  C   UNL A   1      44.146  29.198  32.147  1.00  0.00     0.031 A 
BRANCH  26  40
ATOM     40  C   UNL A   1      42.006  34.626  34.170  1.00  0.00    -0.014 A 
ATOM     41  C   UNL A   1      41.633  34.650  35.522  1.00  0.00     0.009 A 
ATOM     42  C   UNL A   1      42.637  35.753  33.620  1.00  0.00     0.009 A 
ATOM     43  C   UNL A   1      41.859  35.789  36.299  1.00  0.00     0.001 A 
ATOM     44  C   UNL A   1      42.883  36.882  34.404  1.00  0.00     0.001 A 
ATOM     45  C   UNL A   1      42.487  36.903  35.740  1.00  0.00     0.000 A 
ENDBRANCH  26  40
BRANCH  27  46
ATOM     46  C   UNL A   1      40.220  26.854  28.188  1.00  0.00    -0.014 A 
ATOM     47  C   UNL A   1      40.752  26.810  26.891  1.00  0.00     0.009 A 
ATOM     48  C   UNL A   1      39.455  25.771  28.649  1.00  0.00     0.009 A 
ATOM     49  C   UNL A   1      40.513  25.706  26.069  1.00  0.00     0.001 A 
ATOM     50  C   UNL A   1      39.241  24.659  27.835  1.00  0.00     0.001 A 
ATOM     51  C   UNL A   1      39.764  24.630  26.543  1.00  0.00     0.000 A 
ENDBRANCH  27  46
BRANCH  39  52
ATOM     52  C   UNL A   1      45.420  28.491  32.506  1.00  0.00    -0.014 A 
ATOM     53  C   UNL A   1      45.454  27.544  33.541  1.00  0.00     0.009 A 
ATOM     54  C   UNL A   1      46.595  28.763  31.789  1.00  0.00     0.009 A 
ATOM     55  C   UNL A   1      46.651  26.904  33.871  1.00  0.00     0.001 A 
ATOM     56  C   UNL A   1      47.784  28.104  32.105  1.00  0.00     0.001 A 
ATOM     57  C   UNL A   1      47.813  27.182  33.151  1.00  0.00     0.000 A 
ENDBRANCH  39  52
ENDBRANCH  13  14
ENDBRANCH   6   8
ENDBRANCH   3   4
ENDBRANCH   2   3
ENDBRANCH   1   2
BRANCH   1  58
ATOM     58  C   UNL A   1      32.090  29.576  26.673  1.00  0.00     0.002 C 
BRANCH  58  59
ATOM     59  C   UNL A   1      33.532  29.222  26.298  1.00  0.00     0.021 C 
BRANCH  59  60
ATOM     60  C   UNL A   1      33.837  27.746  26.072  1.00  0.00     0.116 C 
BRANCH  60  61
ATOM     61  N   UNL A   1      32.847  26.850  26.637  1.00  0.00    -0.352 N 
ATOM     62  C   UNL A   1      32.528  25.599  26.189  1.00  0.00     0.252 C 
ATOM     63  H   UNL A   1      32.355  27.176  27.425  1.00  0.00     0.163 HD
ATOM     64  O   UNL A   1      31.861  24.806  26.843  1.00  0.00    -0.269 OA
BRANCH  62  65
ATOM     65  C   UNL A   1      32.933  25.178  24.859  1.00  0.00     0.058 A 
ATOM     66  C   UNL A   1      32.152  25.542  23.759  1.00  0.00     0.007 A 
ATOM     67  C   UNL A   1      34.114  24.384  24.757  1.00  0.00     0.014 A 
ATOM     68  C   UNL A   1      32.640  25.040  22.551  1.00  0.00     0.120 A 
ATOM     69  C   UNL A   1      34.499  24.003  23.464  1.00  0.00     0.071 A 
ATOM     70  C   UNL A   1      34.927  23.985  25.852  1.00  0.00     0.011 A 
ATOM     71  N   UNL A   1      33.770  24.310  22.386  1.00  0.00    -0.256 NA
ATOM     72  C   UNL A   1      35.683  23.298  23.290  1.00  0.00     0.029 A 
ATOM     73  C   UNL A   1      36.110  23.275  25.657  1.00  0.00     0.001 A 
ATOM     74  C   UNL A   1      36.496  22.941  24.368  1.00  0.00     0.002 A 
BRANCH  66  75
ATOM     75  C   UNL A   1      31.031  26.517  23.647  1.00  0.00     0.031 C 
ATOM     76  C   UNL A   1      30.729  27.768  23.236  1.00  0.00     0.077 C 
ATOM     77  S   UNL A   1      28.993  28.147  23.159  1.00  0.00    -0.053 SA
ATOM     78  C   UNL A   1      31.351  28.998  22.687  1.00  0.00     0.227 C 
ATOM     79  C   UNL A   1      29.301  29.553  22.132  1.00  0.00     0.168 C 
ATOM     80  N   UNL A   1      30.626  29.894  22.097  1.00  0.00    -0.194 NA
ATOM     81  S   UNL A   1      28.068  30.332  21.317  1.00  0.00    -0.050 S 
BRANCH  78  82
ATOM     82  O   UNL A   1      32.634  29.286  22.859  1.00  0.00    -0.492 OA
ATOM     83  H   UNL A   1      33.274  28.602  22.840  1.00  0.00     0.295 HD
ENDBRANCH  78  82
ENDBRANCH  66  75
ENDBRANCH  62  65
ENDBRANCH  60  61
ENDBRANCH  59  60
ENDBRANCH  58  59
ENDBRANCH   1  58
TORSDOF 15
ENDMDL
MODEL 2
REMARK VINA RESULT:     -11.5      4.466      9.193
REMARK SMILES O=C(NCCCCCCNC(=O)c1c(/C=C2/SC(=S)N=C2O)cnc2ccccc12)c1ccc(-c2c3nc(c(-c4ccccc4)c4ccc([nH]4)c(-c4ccccc4)c4nc(c(-c5ccccc5)c5ccc2[nH]5)C=C4)C=C3)cc1
REMARK SMILES IDX 6 1 5 2 4 3 3 4 1 5 2 6 31 8 32 9 78 10 33 11 77 12 34 13
REMARK SMILES IDX 35 14 36 15 71 16 37 17 76 18 70 19 72 20 38 21 75 22 69 23
REMARK SMILES IDX 68 24 39 26 61 27 46 28 60 29 47 30 50 31 59 32 73 33 48 34
REMARK SMILES IDX 49 35 58 37 74 38 51 39 40 40 41 41 45 42 42 43 44 44 43 45
REMARK SMILES IDX 62 46 63 47 67 48 64 49 66 50 65 51 52 52 53 53 57 54 54 55
REMARK SMILES IDX 56 56 55 57 7 58 8 59 9 60 10 61 11 62 12 64 13 65 14 66
REMARK SMILES IDX 30 67 23 68 25 69 29 70 24 71 26 72 28 73 27 74 15 75 16 76
REMARK SMILES IDX 17 77 21 78 18 79 20 80 19 81 22 82
REMARK H PARENT 3 7 72 25 50 36 10 63 22 83
REMARK Flexibility Score: inf
ROOT
ATOM      1  C   UNL A   1      36.661  20.172  24.994  1.00  0.00     0.002 C 
ENDROOT
BRANCH   1   2
ATOM      2  C   UNL A   1      37.915  19.300  24.988  1.00  0.00     0.021 C 
BRANCH   2   3
ATOM      3  C   UNL A   1      39.106  19.848  25.761  1.00  0.00     0.116 C 
BRANCH   3   4
ATOM      4  N   UNL A   1      40.212  18.912  25.841  1.00  0.00    -0.352 N 
ATOM      5  O   UNL A   1      42.361  18.246  26.001  1.00  0.00    -0.269 OA
ATOM      6  C   UNL A   1      41.540  19.154  26.095  1.00  0.00     0.251 C 
ATOM      7  H   UNL A   1      39.976  17.968  25.692  1.00  0.00     0.163 HD
BRANCH   6   8
ATOM      8  C   UNL A   1      41.993  20.517  26.455  1.00  0.00     0.039 A 
ATOM      9  C   UNL A   1      42.091  20.919  27.789  1.00  0.00     0.014 A 
ATOM     10  C   UNL A   1      42.345  21.402  25.432  1.00  0.00     0.014 A 
ATOM     11  C   UNL A   1      42.413  22.239  28.094  1.00  0.00     0.010 A 
ATOM     12  C   UNL A   1      42.743  22.705  25.742  1.00  0.00     0.010 A 
ATOM     13  C   UNL A   1      42.754  23.143  27.075  1.00  0.00    -0.014 A 
BRANCH  13  14
ATOM     14  C   UNL A   1      43.180  24.518  27.431  1.00  0.00     0.031 A 
ATOM     15  C   UNL A   1      42.184  25.555  27.868  1.00  0.00     0.074 A 
ATOM     16  C   UNL A   1      44.490  24.824  27.376  1.00  0.00     0.049 A 
ATOM     17  N   UNL A   1      42.398  26.791  28.248  1.00  0.00    -0.248 NA
ATOM     18  C   UNL A   1      40.768  25.160  27.880  1.00  0.00     0.031 C 
ATOM     19  C   UNL A   1      45.553  23.906  26.959  1.00  0.00     0.029 A 
ATOM     20  N   UNL A   1      45.153  25.982  27.691  1.00  0.00    -0.354 N 
ATOM     21  C   UNL A   1      41.147  27.328  28.522  1.00  0.00     0.074 A 
ATOM     22  C   UNL A   1      40.176  26.289  28.248  1.00  0.00     0.031 C 
ATOM     23  C   UNL A   1      46.738  24.519  27.091  1.00  0.00     0.029 A 
ATOM     24  C   UNL A   1      46.515  25.887  27.547  1.00  0.00     0.049 A 
ATOM     25  H   UNL A   1      44.698  26.802  27.990  1.00  0.00     0.167 HD
ATOM     26  C   UNL A   1      40.836  28.569  28.965  1.00  0.00     0.031 A 
ATOM     27  C   UNL A   1      47.483  26.799  27.751  1.00  0.00     0.031 A 
ATOM     28  C   UNL A   1      41.800  29.603  29.236  1.00  0.00     0.049 A 
ATOM     29  C   UNL A   1      47.109  28.174  28.214  1.00  0.00     0.074 A 
ATOM     30  C   UNL A   1      41.583  30.881  29.724  1.00  0.00     0.029 A 
ATOM     31  N   UNL A   1      43.167  29.481  29.035  1.00  0.00    -0.354 N 
ATOM     32  N   UNL A   1      45.923  28.652  28.505  1.00  0.00    -0.248 NA
ATOM     33  C   UNL A   1      48.206  29.136  28.374  1.00  0.00     0.031 C 
ATOM     34  C   UNL A   1      42.812  31.546  29.776  1.00  0.00     0.029 A 
ATOM     35  C   UNL A   1      43.801  30.668  29.364  1.00  0.00     0.049 A 
ATOM     36  H   UNL A   1      43.619  28.670  28.707  1.00  0.00     0.167 HD
ATOM     37  C   UNL A   1      46.131  29.967  28.891  1.00  0.00     0.074 A 
ATOM     38  C   UNL A   1      47.559  30.206  28.818  1.00  0.00     0.031 C 
ATOM     39  C   UNL A   1      45.220  30.895  29.272  1.00  0.00     0.031 A 
BRANCH  26  40
ATOM     40  C   UNL A   1      39.380  28.889  29.158  1.00  0.00    -0.014 A 
ATOM     41  C   UNL A   1      38.742  28.670  30.388  1.00  0.00     0.009 A 
ATOM     42  C   UNL A   1      38.645  29.452  28.103  1.00  0.00     0.009 A 
ATOM     43  C   UNL A   1      37.389  28.980  30.549  1.00  0.00     0.001 A 
ATOM     44  C   UNL A   1      37.299  29.782  28.272  1.00  0.00     0.001 A 
ATOM     45  C   UNL A   1      36.670  29.538  29.491  1.00  0.00     0.000 A 
ENDBRANCH  26  40
BRANCH  27  46
ATOM     46  C   UNL A   1      48.900  26.428  27.514  1.00  0.00    -0.014 A 
ATOM     47  C   UNL A   1      49.702  25.977  28.573  1.00  0.00     0.009 A 
ATOM     48  C   UNL A   1      49.445  26.492  26.223  1.00  0.00     0.009 A 
ATOM     49  C   UNL A   1      51.028  25.606  28.342  1.00  0.00     0.001 A 
ATOM     50  C   UNL A   1      50.763  26.096  25.992  1.00  0.00     0.001 A 
ATOM     51  C   UNL A   1      51.556  25.659  27.052  1.00  0.00     0.000 A 
ENDBRANCH  27  46
BRANCH  39  52
ATOM     52  C   UNL A   1      45.747  32.248  29.648  1.00  0.00    -0.014 A 
ATOM     53  C   UNL A   1      46.238  32.500  30.938  1.00  0.00     0.009 A 
ATOM     54  C   UNL A   1      45.770  33.278  28.695  1.00  0.00     0.009 A 
ATOM     55  C   UNL A   1      46.714  33.769  31.276  1.00  0.00     0.001 A 
ATOM     56  C   UNL A   1      46.269  34.538  29.029  1.00  0.00     0.001 A 
ATOM     57  C   UNL A   1      46.732  34.784  30.320  1.00  0.00     0.000 A 
ENDBRANCH  39  52
ENDBRANCH  13  14
ENDBRANCH   6   8
ENDBRANCH   3   4
ENDBRANCH   2   3
ENDBRANCH   1   2
BRANCH   1  58
ATOM     58  C   UNL A   1      36.852  21.650  24.641  1.00  0.00     0.002 C 
BRANCH  58  59
ATOM     59  C   UNL A   1      36.926  22.643  25.803  1.00  0.00     0.021 C 
BRANCH  59  60
ATOM     60  C   UNL A   1      36.291  24.010  25.577  1.00  0.00     0.116 C 
BRANCH  60  61
ATOM     61  N   UNL A   1      35.064  24.216  26.322  1.00  0.00    -0.352 N 
ATOM     62  C   UNL A   1      33.789  24.099  25.844  1.00  0.00     0.252 C 
ATOM     63  H   UNL A   1      35.159  24.467  27.269  1.00  0.00     0.163 HD
ATOM     64  O   UNL A   1      32.805  24.054  26.573  1.00  0.00    -0.269 OA
BRANCH  62  65
ATOM     65  C   UNL A   1      33.548  24.081  24.412  1.00  0.00     0.058 A 
ATOM     66  C   UNL A   1      33.331  22.859  23.771  1.00  0.00     0.007 A 
ATOM     67  C   UNL A   1      33.570  25.334  23.730  1.00  0.00     0.014 A 
ATOM     68  C   UNL A   1      33.149  22.988  22.392  1.00  0.00     0.120 A 
ATOM     69  C   UNL A   1      33.317  25.297  22.351  1.00  0.00     0.071 A 
ATOM     70  C   UNL A   1      33.798  26.595  24.344  1.00  0.00     0.011 A 
ATOM     71  N   UNL A   1      33.127  24.149  21.694  1.00  0.00    -0.256 NA
ATOM     72  C   UNL A   1      33.245  26.491  21.644  1.00  0.00     0.029 A 
ATOM     73  C   UNL A   1      33.724  27.781  23.617  1.00  0.00     0.001 A 
ATOM     74  C   UNL A   1      33.434  27.729  22.262  1.00  0.00     0.002 A 
BRANCH  66  75
ATOM     75  C   UNL A   1      33.069  21.503  24.332  1.00  0.00     0.031 C 
ATOM     76  C   UNL A   1      32.728  20.243  23.987  1.00  0.00     0.077 C 
ATOM     77  S   UNL A   1      32.901  19.027  25.274  1.00  0.00    -0.053 SA
ATOM     78  C   UNL A   1      32.331  19.420  22.818  1.00  0.00     0.227 C 
ATOM     79  C   UNL A   1      32.842  17.709  24.096  1.00  0.00     0.168 C 
ATOM     80  N   UNL A   1      32.418  18.128  22.863  1.00  0.00    -0.194 NA
ATOM     81  S   UNL A   1      33.272  16.147  24.504  1.00  0.00    -0.050 S 
BRANCH  78  82
ATOM     82  O   UNL A   1      31.783  19.943  21.731  1.00  0.00    -0.492 OA
ATOM     83  H   UNL A   1      32.313  20.120  20.978  1.00  0.00     0.295 HD
ENDBRANCH  78  82
ENDBRANCH  66  75
ENDBRANCH  62  65
ENDBRANCH  60  61
ENDBRANCH  59  60
ENDBRANCH  58  59
ENDBRANCH   1  58
TORSDOF 15
ENDMDL
MODEL 3
REMARK VINA RESULT:     -11.5      0.231      5.836
REMARK SMILES O=C(NCCCCCCNC(=O)c1c(/C=C2/SC(=S)N=C2O)cnc2ccccc12)c1ccc(-c2c3nc(c(-c4ccccc4)c4ccc([nH]4)c(-c4ccccc4)c4nc(c(-c5ccccc5)c5ccc2[nH]5)C=C4)C=C3)cc1
REMARK SMILES IDX 6 1 5 2 4 3 3 4 1 5 2 6 31 8 32 9 78 10 33 11 77 12 34 13
REMARK SMILES IDX 35 14 36 15 71 16 37 17 76 18 70 19 72 20 38 21 75 22 69 23
REMARK SMILES IDX 68 24 39 26 61 27 46 28 60 29 47 30 50 31 59 32 73 33 48 34
REMARK SMILES IDX 49 35 58 37 74 38 51 39 40 40 41 41 45 42 42 43 44 44 43 45
REMARK SMILES IDX 62 46 63 47 67 48 64 49 66 50 65 51 52 52 53 53 57 54 54 55
REMARK SMILES IDX 56 56 55 57 7 58 8 59 9 60 10 61 11 62 12 64 13 65 14 66
REMARK SMILES IDX 30 67 23 68 25 69 29 70 24 71 26 72 28 73 27 74 15 75 16 76
REMARK SMILES IDX 17 77 21 78 18 79 20 80 19 81 22 82
REMARK H PARENT 3 7 72 25 50 36 10 63 22 83
REMARK Flexibility Score: inf
ROOT
ATOM      1  C   UNL A   1      31.344  30.740  25.777  1.00  0.00     0.002 C 
ENDROOT
BRANCH   1   2
ATOM      2  C   UNL A   1      31.250  32.073  26.518  1.00  0.00     0.021 C 
BRANCH   2   3
ATOM      3  C   UNL A   1      32.564  32.630  27.045  1.00  0.00     0.116 C 
BRANCH   3   4
ATOM      4  N   UNL A   1      32.416  33.921  27.692  1.00  0.00    -0.352 N 
ATOM      5  O   UNL A   1      32.855  35.561  29.176  1.00  0.00    -0.269 OA
ATOM      6  C   UNL A   1      33.206  34.509  28.650  1.00  0.00     0.251 C 
ATOM      7  H   UNL A   1      31.638  34.450  27.403  1.00  0.00     0.163 HD
BRANCH   6   8
ATOM      8  C   UNL A   1      34.468  33.863  29.075  1.00  0.00     0.039 A 
ATOM      9  C   UNL A   1      34.495  32.953  30.135  1.00  0.00     0.014 A 
ATOM     10  C   UNL A   1      35.646  34.163  28.384  1.00  0.00     0.014 A 
ATOM     11  C   UNL A   1      35.711  32.446  30.584  1.00  0.00     0.010 A 
ATOM     12  C   UNL A   1      36.857  33.594  28.787  1.00  0.00     0.010 A 
ATOM     13  C   UNL A   1      36.904  32.752  29.908  1.00  0.00    -0.014 A 
BRANCH  13  14
ATOM     14  C   UNL A   1      38.175  32.130  30.352  1.00  0.00     0.031 A 
ATOM     15  C   UNL A   1      38.652  30.829  29.771  1.00  0.00     0.074 A 
ATOM     16  C   UNL A   1      38.916  32.764  31.279  1.00  0.00     0.049 A 
ATOM     17  N   UNL A   1      39.757  30.172  30.024  1.00  0.00    -0.248 NA
ATOM     18  C   UNL A   1      37.780  30.178  28.782  1.00  0.00     0.031 C 
ATOM     19  C   UNL A   1      38.557  34.030  31.925  1.00  0.00     0.029 A 
ATOM     20  N   UNL A   1      40.133  32.446  31.825  1.00  0.00    -0.354 N 
ATOM     21  C   UNL A   1      39.704  29.023  29.246  1.00  0.00     0.074 A 
ATOM     22  C   UNL A   1      38.450  29.062  28.523  1.00  0.00     0.031 C 
ATOM     23  C   UNL A   1      39.553  34.404  32.740  1.00  0.00     0.029 A 
ATOM     24  C   UNL A   1      40.593  33.382  32.718  1.00  0.00     0.049 A 
ATOM     25  H   UNL A   1      40.629  31.626  31.599  1.00  0.00     0.167 HD
ATOM     26  C   UNL A   1      40.619  28.029  29.138  1.00  0.00     0.031 A 
ATOM     27  C   UNL A   1      41.723  33.415  33.447  1.00  0.00     0.031 A 
ATOM     28  C   UNL A   1      41.866  27.989  29.856  1.00  0.00     0.049 A 
ATOM     29  C   UNL A   1      42.704  32.288  33.331  1.00  0.00     0.074 A 
ATOM     30  C   UNL A   1      42.873  27.041  29.784  1.00  0.00     0.029 A 
ATOM     31  N   UNL A   1      42.274  28.933  30.785  1.00  0.00    -0.354 N 
ATOM     32  N   UNL A   1      42.655  31.228  32.561  1.00  0.00    -0.248 NA
ATOM     33  C   UNL A   1      43.895  32.361  34.187  1.00  0.00     0.031 C 
ATOM     34  C   UNL A   1      43.870  27.389  30.702  1.00  0.00     0.029 A 
ATOM     35  C   UNL A   1      43.504  28.578  31.313  1.00  0.00     0.049 A 
ATOM     36  H   UNL A   1      41.763  29.738  31.033  1.00  0.00     0.167 HD
ATOM     37  C   UNL A   1      43.811  30.512  32.832  1.00  0.00     0.074 A 
ATOM     38  C   UNL A   1      44.552  31.268  33.822  1.00  0.00     0.031 C 
ATOM     39  C   UNL A   1      44.222  29.332  32.307  1.00  0.00     0.031 A 
BRANCH  26  40
ATOM     40  C   UNL A   1      40.288  26.882  28.226  1.00  0.00    -0.014 A 
ATOM     41  C   UNL A   1      40.808  26.811  26.924  1.00  0.00     0.009 A 
ATOM     42  C   UNL A   1      39.473  25.837  28.688  1.00  0.00     0.009 A 
ATOM     43  C   UNL A   1      40.493  25.733  26.094  1.00  0.00     0.001 A 
ATOM     44  C   UNL A   1      39.177  24.749  27.864  1.00  0.00     0.001 A 
ATOM     45  C   UNL A   1      39.680  24.702  26.566  1.00  0.00     0.000 A 
ENDBRANCH  26  40
BRANCH  27  46
ATOM     46  C   UNL A   1      41.976  34.563  34.352  1.00  0.00    -0.014 A 
ATOM     47  C   UNL A   1      41.585  34.506  35.698  1.00  0.00     0.009 A 
ATOM     48  C   UNL A   1      42.639  35.707  33.881  1.00  0.00     0.009 A 
ATOM     49  C   UNL A   1      41.846  35.580  36.552  1.00  0.00     0.001 A 
ATOM     50  C   UNL A   1      42.921  36.767  34.744  1.00  0.00     0.001 A 
ATOM     51  C   UNL A   1      42.518  36.705  36.077  1.00  0.00     0.000 A 
ENDBRANCH  27  46
BRANCH  39  52
ATOM     52  C   UNL A   1      45.538  28.798  32.789  1.00  0.00    -0.014 A 
ATOM     53  C   UNL A   1      45.615  27.987  33.931  1.00  0.00     0.009 A 
ATOM     54  C   UNL A   1      46.713  29.096  32.081  1.00  0.00     0.009 A 
ATOM     55  C   UNL A   1      46.851  27.507  34.374  1.00  0.00     0.001 A 
ATOM     56  C   UNL A   1      47.943  28.596  32.512  1.00  0.00     0.001 A 
ATOM     57  C   UNL A   1      48.011  27.810  33.662  1.00  0.00     0.000 A 
ENDBRANCH  39  52
ENDBRANCH  13  14
ENDBRANCH   6   8
ENDBRANCH   3   4
ENDBRANCH   2   3
ENDBRANCH   1   2
BRANCH   1  58
ATOM     58  C   UNL A   1      32.014  29.585  26.525  1.00  0.00     0.002 C 
BRANCH  58  59
ATOM     59  C   UNL A   1      33.465  29.263  26.159  1.00  0.00     0.021 C 
BRANCH  59  60
ATOM     60  C   UNL A   1      33.841  27.788  26.087  1.00  0.00     0.116 C 
BRANCH  60  61
ATOM     61  N   UNL A   1      32.837  26.900  26.642  1.00  0.00    -0.352 N 
ATOM     62  C   UNL A   1      32.504  25.656  26.184  1.00  0.00     0.252 C 
ATOM     63  H   UNL A   1      32.346  27.227  27.430  1.00  0.00     0.163 HD
ATOM     64  O   UNL A   1      31.824  24.868  26.831  1.00  0.00    -0.269 OA
BRANCH  62  65
ATOM     65  C   UNL A   1      32.909  25.239  24.854  1.00  0.00     0.058 A 
ATOM     66  C   UNL A   1      32.132  25.612  23.754  1.00  0.00     0.007 A 
ATOM     67  C   UNL A   1      34.086  24.440  24.750  1.00  0.00     0.014 A 
ATOM     68  C   UNL A   1      32.619  25.112  22.544  1.00  0.00     0.120 A 
ATOM     69  C   UNL A   1      34.471  24.063  23.456  1.00  0.00     0.071 A 
ATOM     70  C   UNL A   1      34.896  24.033  25.844  1.00  0.00     0.011 A 
ATOM     71  N   UNL A   1      33.745  24.377  22.378  1.00  0.00    -0.256 NA
ATOM     72  C   UNL A   1      35.652  23.353  23.281  1.00  0.00     0.029 A 
ATOM     73  C   UNL A   1      36.076  23.318  25.648  1.00  0.00     0.001 A 
ATOM     74  C   UNL A   1      36.462  22.987  24.359  1.00  0.00     0.002 A 
BRANCH  66  75
ATOM     75  C   UNL A   1      31.015  26.593  23.644  1.00  0.00     0.031 C 
ATOM     76  C   UNL A   1      30.715  27.838  23.218  1.00  0.00     0.077 C 
ATOM     77  S   UNL A   1      28.981  28.228  23.163  1.00  0.00    -0.053 SA
ATOM     78  C   UNL A   1      31.337  29.055  22.640  1.00  0.00     0.227 C 
ATOM     79  C   UNL A   1      29.281  29.615  22.109  1.00  0.00     0.168 C 
ATOM     80  N   UNL A   1      30.608  29.947  22.047  1.00  0.00    -0.194 NA
ATOM     81  S   UNL A   1      28.041  30.390  21.301  1.00  0.00    -0.050 S 
BRANCH  78  82
ATOM     82  O   UNL A   1      32.623  29.337  22.786  1.00  0.00    -0.492 OA
ATOM     83  H   UNL A   1      33.116  28.932  23.473  1.00  0.00     0.295 HD
ENDBRANCH  78  82
ENDBRANCH  66  75
ENDBRANCH  62  65
ENDBRANCH  60  61
ENDBRANCH  59  60
ENDBRANCH  58  59
ENDBRANCH   1  58
TORSDOF 15
ENDMDL
