MODEL 1
REMARK VINA RESULT:     -11.2      0.000      0.000
REMARK SMILES O=C(NCCCCCCNC(=O)c1ccc(-c2c3nc(c(-c4ccccc4)c4ccc([nH]4)c(-c4ccccc4)c4nc(c(-c5ccccc5)c5ccc2[nH]5)C=C4)C=C3)cc1)C1=Cc2cc(Cl)ccc2O[C@@H]1C(F)(F)F
REMARK SMILES IDX 7 1 6 2 5 3 4 4 3 5 1 6 2 7 61 9 62 10 71 11 63 12 70 13
REMARK SMILES IDX 64 14 69 15 65 16 68 17 66 18 67 19 72 20 73 21 74 22 75 23
REMARK SMILES IDX 8 24 9 25 10 26 11 27 12 29 13 30 14 31 60 32 15 33 59 34
REMARK SMILES IDX 16 35 17 36 18 37 53 38 19 39 58 40 52 41 54 42 20 43 57 44
REMARK SMILES IDX 51 45 50 46 21 48 43 49 28 50 42 51 29 52 32 53 41 54 55 55
REMARK SMILES IDX 30 56 31 57 40 59 56 60 33 61 22 62 23 63 27 64 24 65 26 66
REMARK SMILES IDX 25 67 44 68 45 69 49 70 46 71 48 72 47 73 34 74 35 75 39 76
REMARK SMILES IDX 36 77 38 78 37 79
REMARK H PARENT 3 8 10 28 54 47 32 58
REMARK Flexibility Score: inf
ROOT
ATOM      1  C   UNL A   1      38.213  22.176  25.689  1.00  0.00     0.002 C 
ENDROOT
BRANCH   1   2
ATOM      2  C   UNL A   1      37.235  23.074  24.921  1.00  0.00     0.002 C 
BRANCH   2   3
ATOM      3  C   UNL A   1      36.566  24.195  25.713  1.00  0.00     0.021 C 
BRANCH   3   4
ATOM      4  C   UNL A   1      35.047  24.130  25.819  1.00  0.00     0.116 C 
BRANCH   4   5
ATOM      5  N   UNL A   1      34.521  23.155  26.755  1.00  0.00    -0.352 N 
ATOM      6  O   UNL A   1      33.799  21.158  27.480  1.00  0.00    -0.270 OA
ATOM      7  C   UNL A   1      34.053  21.890  26.525  1.00  0.00     0.251 C 
ATOM      8  H   UNL A   1      34.498  23.446  27.696  1.00  0.00     0.163 HD
BRANCH   7   9
ATOM      9  C   UNL A   1      33.918  21.319  25.150  1.00  0.00     0.067 C 
ATOM     10  C   UNL A   1      34.799  20.439  24.639  1.00  0.00     0.025 C 
ATOM     11  C   UNL A   1      32.481  21.266  24.677  1.00  0.00     0.314 C 
ATOM     12  C   UNL A   1      34.208  19.073  24.596  1.00  0.00     0.019 A 
ATOM     13  O   UNL A   1      31.929  19.929  24.835  1.00  0.00    -0.475 OA
ATOM     14  C   UNL A   1      35.076  17.974  24.648  1.00  0.00     0.032 A 
ATOM     15  C   UNL A   1      32.830  18.894  24.804  1.00  0.00     0.128 A 
ATOM     16  C   UNL A   1      34.574  16.728  25.015  1.00  0.00     0.041 A 
ATOM     17  C   UNL A   1      32.334  17.633  25.130  1.00  0.00     0.048 A 
ATOM     18  Cl  UNL A   1      35.662  15.423  25.289  1.00  0.00    -0.084 Cl
ATOM     19  C   UNL A   1      33.211  16.555  25.266  1.00  0.00     0.024 A 
BRANCH  11  20
ATOM     20  C   UNL A   1      32.308  21.774  23.236  1.00  0.00     0.429 C 
ATOM     21  F   UNL A   1      31.251  22.613  23.135  1.00  0.00    -0.167 F 
ATOM     22  F   UNL A   1      33.398  22.459  22.812  1.00  0.00    -0.167 F 
ATOM     23  F   UNL A   1      32.106  20.766  22.354  1.00  0.00    -0.167 F 
ENDBRANCH  11  20
ENDBRANCH   7   9
ENDBRANCH   4   5
ENDBRANCH   3   4
ENDBRANCH   2   3
ENDBRANCH   1   2
BRANCH   1  24
ATOM     24  C   UNL A   1      38.547  20.819  25.065  1.00  0.00     0.021 C 
BRANCH  24  25
ATOM     25  C   UNL A   1      38.784  19.667  26.037  1.00  0.00     0.116 C 
BRANCH  25  26
ATOM     26  N   UNL A   1      40.065  19.012  25.838  1.00  0.00    -0.352 N 
ATOM     27  C   UNL A   1      41.345  19.499  25.952  1.00  0.00     0.251 C 
ATOM     28  H   UNL A   1      40.007  18.065  25.579  1.00  0.00     0.163 HD
ATOM     29  O   UNL A   1      42.290  18.804  25.593  1.00  0.00    -0.269 OA
BRANCH  27  30
ATOM     30  C   UNL A   1      41.600  20.860  26.479  1.00  0.00     0.039 A 
ATOM     31  C   UNL A   1      41.372  21.101  27.838  1.00  0.00     0.014 A 
ATOM     32  C   UNL A   1      42.015  21.905  25.651  1.00  0.00     0.014 A 
ATOM     33  C   UNL A   1      41.614  22.370  28.374  1.00  0.00     0.010 A 
ATOM     34  C   UNL A   1      42.331  23.148  26.199  1.00  0.00     0.010 A 
ATOM     35  C   UNL A   1      42.127  23.397  27.565  1.00  0.00    -0.014 A 
BRANCH  35  36
ATOM     36  C   UNL A   1      42.442  24.734  28.133  1.00  0.00     0.031 A 
ATOM     37  C   UNL A   1      43.831  25.046  28.624  1.00  0.00     0.074 A 
ATOM     38  C   UNL A   1      41.467  25.657  28.248  1.00  0.00     0.049 A 
ATOM     39  N   UNL A   1      44.280  26.139  29.190  1.00  0.00    -0.248 NA
ATOM     40  C   UNL A   1      44.840  23.986  28.479  1.00  0.00     0.031 C 
ATOM     41  C   UNL A   1      40.071  25.472  27.845  1.00  0.00     0.029 A 
ATOM     42  N   UNL A   1      41.500  26.938  28.745  1.00  0.00    -0.354 N 
ATOM     43  C   UNL A   1      45.618  25.894  29.475  1.00  0.00     0.074 A 
ATOM     44  C   UNL A   1      45.892  24.531  29.073  1.00  0.00     0.031 C 
ATOM     45  C   UNL A   1      39.389  26.602  28.088  1.00  0.00     0.029 A 
ATOM     46  C   UNL A   1      40.284  27.578  28.702  1.00  0.00     0.049 A 
ATOM     47  H   UNL A   1      42.317  27.357  29.099  1.00  0.00     0.167 HD
ATOM     48  C   UNL A   1      46.543  26.732  30.001  1.00  0.00     0.031 A 
ATOM     49  C   UNL A   1      39.926  28.806  29.121  1.00  0.00     0.031 A 
ATOM     50  C   UNL A   1      46.274  28.087  30.401  1.00  0.00     0.049 A 
ATOM     51  C   UNL A   1      40.965  29.707  29.729  1.00  0.00     0.074 A 
ATOM     52  C   UNL A   1      47.153  29.026  30.911  1.00  0.00     0.029 A 
ATOM     53  N   UNL A   1      45.030  28.696  30.339  1.00  0.00    -0.354 N 
ATOM     54  N   UNL A   1      42.239  29.479  29.935  1.00  0.00    -0.248 NA
ATOM     55  C   UNL A   1      40.517  31.044  30.150  1.00  0.00     0.031 C 
ATOM     56  C   UNL A   1      46.431  30.186  31.207  1.00  0.00     0.029 A 
ATOM     57  C   UNL A   1      45.115  29.992  30.820  1.00  0.00     0.049 A 
ATOM     58  H   UNL A   1      44.209  28.272  30.001  1.00  0.00     0.167 HD
ATOM     59  C   UNL A   1      42.750  30.649  30.483  1.00  0.00     0.074 A 
ATOM     60  C   UNL A   1      41.653  31.592  30.556  1.00  0.00     0.031 C 
ATOM     61  C   UNL A   1      44.016  30.919  30.888  1.00  0.00     0.031 A 
BRANCH  48  62
ATOM     62  C   UNL A   1      47.941  26.202  30.173  1.00  0.00    -0.014 A 
ATOM     63  C   UNL A   1      48.837  26.151  29.092  1.00  0.00     0.009 A 
ATOM     64  C   UNL A   1      48.384  25.786  31.438  1.00  0.00     0.009 A 
ATOM     65  C   UNL A   1      50.132  25.661  29.267  1.00  0.00     0.001 A 
ATOM     66  C   UNL A   1      49.689  25.326  31.618  1.00  0.00     0.001 A 
ATOM     67  C   UNL A   1      50.560  25.255  30.531  1.00  0.00     0.000 A 
ENDBRANCH  48  62
BRANCH  49  68
ATOM     68  C   UNL A   1      38.516  29.260  28.984  1.00  0.00    -0.014 A 
ATOM     69  C   UNL A   1      37.626  29.174  30.064  1.00  0.00     0.009 A 
ATOM     70  C   UNL A   1      38.049  29.769  27.761  1.00  0.00     0.009 A 
ATOM     71  C   UNL A   1      36.289  29.554  29.913  1.00  0.00     0.001 A 
ATOM     72  C   UNL A   1      36.721  30.180  27.623  1.00  0.00     0.001 A 
ATOM     73  C   UNL A   1      35.840  30.060  28.695  1.00  0.00     0.000 A 
ENDBRANCH  49  68
BRANCH  61  74
ATOM     74  C   UNL A   1      44.291  32.301  31.412  1.00  0.00    -0.014 A 
ATOM     75  C   UNL A   1      44.664  33.348  30.555  1.00  0.00     0.009 A 
ATOM     76  C   UNL A   1      44.136  32.567  32.782  1.00  0.00     0.009 A 
ATOM     77  C   UNL A   1      44.910  34.625  31.066  1.00  0.00     0.001 A 
ATOM     78  C   UNL A   1      44.349  33.851  33.285  1.00  0.00     0.001 A 
ATOM     79  C   UNL A   1      44.748  34.875  32.428  1.00  0.00     0.000 A 
ENDBRANCH  61  74
ENDBRANCH  35  36
ENDBRANCH  27  30
ENDBRANCH  25  26
ENDBRANCH  24  25
ENDBRANCH   1  24
TORSDOF 14
ENDMDL
MODEL 2
REMARK VINA RESULT:     -10.9      2.814      7.493
REMARK SMILES O=C(NCCCCCCNC(=O)c1ccc(-c2c3nc(c(-c4ccccc4)c4ccc([nH]4)c(-c4ccccc4)c4nc(c(-c5ccccc5)c5ccc2[nH]5)C=C4)C=C3)cc1)C1=Cc2cc(Cl)ccc2O[C@@H]1C(F)(F)F
REMARK SMILES IDX 7 1 6 2 5 3 4 4 3 5 1 6 2 7 61 9 62 10 71 11 63 12 70 13
REMARK SMILES IDX 64 14 69 15 65 16 68 17 66 18 67 19 72 20 73 21 74 22 75 23
REMARK SMILES IDX 8 24 9 25 10 26 11 27 12 29 13 30 14 31 60 32 15 33 59 34
REMARK SMILES IDX 16 35 17 36 18 37 53 38 19 39 58 40 52 41 54 42 20 43 57 44
REMARK SMILES IDX 51 45 50 46 21 48 43 49 28 50 42 51 29 52 32 53 41 54 55 55
REMARK SMILES IDX 30 56 31 57 40 59 56 60 33 61 22 62 23 63 27 64 24 65 26 66
REMARK SMILES IDX 25 67 44 68 45 69 49 70 46 71 48 72 47 73 34 74 35 75 39 76
REMARK SMILES IDX 36 77 38 78 37 79
REMARK H PARENT 3 8 10 28 54 47 32 58
REMARK Flexibility Score: inf
ROOT
ATOM      1  C   UNL A   1      31.383  27.985  26.104  1.00  0.00     0.002 C 
ENDROOT
BRANCH   1   2
ATOM      2  C   UNL A   1      30.610  27.719  24.807  1.00  0.00     0.002 C 
BRANCH   2   3
ATOM      3  C   UNL A   1      29.980  26.337  24.655  1.00  0.00     0.021 C 
BRANCH   3   4
ATOM      4  C   UNL A   1      30.141  25.389  25.838  1.00  0.00     0.116 C 
BRANCH   4   5
ATOM      5  N   UNL A   1      30.558  24.038  25.510  1.00  0.00    -0.352 N 
ATOM      6  O   UNL A   1      31.938  22.400  24.843  1.00  0.00    -0.270 OA
ATOM      7  C   UNL A   1      31.694  23.605  24.883  1.00  0.00     0.251 C 
ATOM      8  H   UNL A   1      29.930  23.328  25.779  1.00  0.00     0.163 HD
BRANCH   7   9
ATOM      9  C   UNL A   1      32.709  24.543  24.316  1.00  0.00     0.067 C 
ATOM     10  C   UNL A   1      33.773  24.975  25.018  1.00  0.00     0.025 C 
ATOM     11  C   UNL A   1      32.828  24.437  22.810  1.00  0.00     0.314 C 
ATOM     12  C   UNL A   1      35.019  24.316  24.538  1.00  0.00     0.019 A 
ATOM     13  O   UNL A   1      33.977  23.627  22.434  1.00  0.00    -0.475 OA
ATOM     14  C   UNL A   1      36.083  24.177  25.438  1.00  0.00     0.032 A 
ATOM     15  C   UNL A   1      35.015  23.594  23.332  1.00  0.00     0.128 A 
ATOM     16  C   UNL A   1      37.077  23.236  25.176  1.00  0.00     0.041 A 
ATOM     17  C   UNL A   1      36.037  22.686  23.062  1.00  0.00     0.048 A 
ATOM     18  Cl  UNL A   1      38.269  22.907  26.372  1.00  0.00    -0.084 Cl
ATOM     19  C   UNL A   1      37.053  22.485  23.999  1.00  0.00     0.024 A 
BRANCH  11  20
ATOM     20  C   UNL A   1      32.859  25.807  22.115  1.00  0.00     0.429 C 
ATOM     21  F   UNL A   1      33.292  25.701  20.837  1.00  0.00    -0.167 F 
ATOM     22  F   UNL A   1      31.630  26.374  22.069  1.00  0.00    -0.167 F 
ATOM     23  F   UNL A   1      33.677  26.686  22.743  1.00  0.00    -0.167 F 
ENDBRANCH  11  20
ENDBRANCH   7   9
ENDBRANCH   4   5
ENDBRANCH   3   4
ENDBRANCH   2   3
ENDBRANCH   1   2
BRANCH   1  24
ATOM     24  C   UNL A   1      32.852  28.394  25.966  1.00  0.00     0.021 C 
BRANCH  24  25
ATOM     25  C   UNL A   1      33.615  28.624  27.268  1.00  0.00     0.116 C 
BRANCH  25  26
ATOM     26  N   UNL A   1      33.602  30.013  27.694  1.00  0.00    -0.352 N 
ATOM     27  C   UNL A   1      34.563  30.761  28.330  1.00  0.00     0.251 C 
ATOM     28  H   UNL A   1      32.769  30.497  27.495  1.00  0.00     0.163 HD
ATOM     29  O   UNL A   1      34.285  31.887  28.730  1.00  0.00    -0.269 OA
BRANCH  27  30
ATOM     30  C   UNL A   1      35.923  30.220  28.562  1.00  0.00     0.039 A 
ATOM     31  C   UNL A   1      36.838  30.243  27.504  1.00  0.00     0.014 A 
ATOM     32  C   UNL A   1      36.292  29.654  29.784  1.00  0.00     0.014 A 
ATOM     33  C   UNL A   1      38.134  29.754  27.690  1.00  0.00     0.010 A 
ATOM     34  C   UNL A   1      37.607  29.238  29.993  1.00  0.00     0.010 A 
ATOM     35  C   UNL A   1      38.540  29.276  28.946  1.00  0.00    -0.014 A 
BRANCH  35  36
ATOM     36  C   UNL A   1      39.932  28.804  29.172  1.00  0.00     0.031 A 
ATOM     37  C   UNL A   1      40.956  29.718  29.789  1.00  0.00     0.074 A 
ATOM     38  C   UNL A   1      40.289  27.564  28.782  1.00  0.00     0.049 A 
ATOM     39  N   UNL A   1      42.227  29.498  30.022  1.00  0.00    -0.248 NA
ATOM     40  C   UNL A   1      40.499  31.062  30.178  1.00  0.00     0.031 C 
ATOM     41  C   UNL A   1      39.404  26.590  28.139  1.00  0.00     0.029 A 
ATOM     42  N   UNL A   1      41.495  26.911  28.865  1.00  0.00    -0.354 N 
ATOM     43  C   UNL A   1      42.719  30.675  30.573  1.00  0.00     0.074 A 
ATOM     44  C   UNL A   1      41.627  31.624  30.588  1.00  0.00     0.031 C 
ATOM     45  C   UNL A   1      40.089  25.458  27.908  1.00  0.00     0.029 A 
ATOM     46  C   UNL A   1      41.470  25.639  28.346  1.00  0.00     0.049 A 
ATOM     47  H   UNL A   1      42.301  27.317  29.259  1.00  0.00     0.167 HD
ATOM     48  C   UNL A   1      43.961  30.937  31.048  1.00  0.00     0.031 A 
ATOM     49  C   UNL A   1      42.450  24.724  28.224  1.00  0.00     0.031 A 
ATOM     50  C   UNL A   1      45.048  29.996  31.036  1.00  0.00     0.049 A 
ATOM     51  C   UNL A   1      43.828  25.050  28.731  1.00  0.00     0.074 A 
ATOM     52  C   UNL A   1      46.333  30.156  31.526  1.00  0.00     0.029 A 
ATOM     53  N   UNL A   1      44.980  28.718  30.503  1.00  0.00    -0.354 N 
ATOM     54  N   UNL A   1      44.259  26.147  29.305  1.00  0.00    -0.248 NA
ATOM     55  C   UNL A   1      44.851  24.003  28.587  1.00  0.00     0.031 C 
ATOM     56  C   UNL A   1      47.057  28.994  31.242  1.00  0.00     0.029 A 
ATOM     57  C   UNL A   1      46.205  28.086  30.634  1.00  0.00     0.049 A 
ATOM     58  H   UNL A   1      44.179  28.318  30.094  1.00  0.00     0.167 HD
ATOM     59  C   UNL A   1      45.593  25.913  29.614  1.00  0.00     0.074 A 
ATOM     60  C   UNL A   1      45.893  24.563  29.184  1.00  0.00     0.031 C 
ATOM     61  C   UNL A   1      46.490  26.743  30.202  1.00  0.00     0.031 A 
BRANCH  48  62
ATOM     62  C   UNL A   1      44.208  32.305  31.625  1.00  0.00    -0.014 A 
ATOM     63  C   UNL A   1      44.578  33.383  30.803  1.00  0.00     0.009 A 
ATOM     64  C   UNL A   1      44.028  32.532  32.998  1.00  0.00     0.009 A 
ATOM     65  C   UNL A   1      44.799  34.648  31.350  1.00  0.00     0.001 A 
ATOM     66  C   UNL A   1      44.219  33.805  33.538  1.00  0.00     0.001 A 
ATOM     67  C   UNL A   1      44.614  34.860  32.717  1.00  0.00     0.000 A 
ENDBRANCH  48  62
BRANCH  49  68
ATOM     68  C   UNL A   1      42.168  23.408  27.590  1.00  0.00    -0.014 A 
ATOM     69  C   UNL A   1      42.461  23.186  26.236  1.00  0.00     0.009 A 
ATOM     70  C   UNL A   1      41.588  22.369  28.336  1.00  0.00     0.009 A 
ATOM     71  C   UNL A   1      42.146  21.964  25.634  1.00  0.00     0.001 A 
ATOM     72  C   UNL A   1      41.305  21.138  27.740  1.00  0.00     0.001 A 
ATOM     73  C   UNL A   1      41.573  20.941  26.388  1.00  0.00     0.000 A 
ENDBRANCH  49  68
BRANCH  61  74
ATOM     74  C   UNL A   1      47.870  26.201  30.449  1.00  0.00    -0.014 A 
ATOM     75  C   UNL A   1      48.841  26.176  29.436  1.00  0.00     0.009 A 
ATOM     76  C   UNL A   1      48.216  25.743  31.731  1.00  0.00     0.009 A 
ATOM     77  C   UNL A   1      50.118  25.672  29.693  1.00  0.00     0.001 A 
ATOM     78  C   UNL A   1      49.502  25.271  31.993  1.00  0.00     0.001 A 
ATOM     79  C   UNL A   1      50.448  25.225  30.971  1.00  0.00     0.000 A 
ENDBRANCH  61  74
ENDBRANCH  35  36
ENDBRANCH  27  30
ENDBRANCH  25  26
ENDBRANCH  24  25
ENDBRANCH   1  24
TORSDOF 14
ENDMDL
MODEL 3
REMARK VINA RESULT:     -10.8      5.231      9.747
REMARK SMILES O=C(NCCCCCCNC(=O)c1ccc(-c2c3nc(c(-c4ccccc4)c4ccc([nH]4)c(-c4ccccc4)c4nc(c(-c5ccccc5)c5ccc2[nH]5)C=C4)C=C3)cc1)C1=Cc2cc(Cl)ccc2O[C@@H]1C(F)(F)F
REMARK SMILES IDX 7 1 6 2 5 3 4 4 3 5 1 6 2 7 61 9 62 10 71 11 63 12 70 13
REMARK SMILES IDX 64 14 69 15 65 16 68 17 66 18 67 19 72 20 73 21 74 22 75 23
REMARK SMILES IDX 8 24 9 25 10 26 11 27 12 29 13 30 14 31 60 32 15 33 59 34
REMARK SMILES IDX 16 35 17 36 18 37 53 38 19 39 58 40 52 41 54 42 20 43 57 44
REMARK SMILES IDX 51 45 50 46 21 48 43 49 28 50 42 51 29 52 32 53 41 54 55 55
REMARK SMILES IDX 30 56 31 57 40 59 56 60 33 61 22 62 23 63 27 64 24 65 26 66
REMARK SMILES IDX 25 67 44 68 45 69 49 70 46 71 48 72 47 73 34 74 35 75 39 76
REMARK SMILES IDX 36 77 38 78 37 79
REMARK H PARENT 3 8 10 28 54 47 32 58
REMARK Flexibility Score: inf
ROOT
ATOM      1  C   UNL A   1      33.701  30.323  27.353  1.00  0.00     0.002 C 
ENDROOT
BRANCH   1   2
ATOM      2  C   UNL A   1      33.318  28.846  27.204  1.00  0.00     0.002 C 
BRANCH   2   3
ATOM      3  C   UNL A   1      34.332  27.941  26.510  1.00  0.00     0.021 C 
BRANCH   3   4
ATOM      4  C   UNL A   1      33.811  27.120  25.336  1.00  0.00     0.116 C 
BRANCH   4   5
ATOM      5  N   UNL A   1      33.795  27.796  24.052  1.00  0.00    -0.352 N 
ATOM      6  O   UNL A   1      32.982  29.054  22.382  1.00  0.00    -0.270 OA
ATOM      7  C   UNL A   1      32.755  28.390  23.392  1.00  0.00     0.251 C 
ATOM      8  H   UNL A   1      34.663  27.833  23.587  1.00  0.00     0.163 HD
BRANCH   7   9
ATOM      9  C   UNL A   1      31.349  28.343  23.897  1.00  0.00     0.067 C 
ATOM     10  C   UNL A   1      30.781  29.366  24.563  1.00  0.00     0.025 C 
ATOM     11  C   UNL A   1      30.463  27.430  23.077  1.00  0.00     0.314 C 
ATOM     12  C   UNL A   1      29.794  30.069  23.699  1.00  0.00     0.019 A 
ATOM     13  O   UNL A   1      29.658  28.192  22.135  1.00  0.00    -0.475 OA
ATOM     14  C   UNL A   1      29.531  31.420  23.959  1.00  0.00     0.032 A 
ATOM     15  C   UNL A   1      29.377  29.489  22.488  1.00  0.00     0.128 A 
ATOM     16  C   UNL A   1      28.951  32.204  22.964  1.00  0.00     0.041 A 
ATOM     17  C   UNL A   1      28.761  30.275  21.517  1.00  0.00     0.048 A 
ATOM     18  Cl  UNL A   1      28.819  33.904  23.193  1.00  0.00    -0.084 Cl
ATOM     19  C   UNL A   1      28.575  31.640  21.743  1.00  0.00     0.024 A 
BRANCH  11  20
ATOM     20  C   UNL A   1      29.587  26.512  23.945  1.00  0.00     0.429 C 
ATOM     21  F   UNL A   1      28.290  26.901  23.919  1.00  0.00    -0.167 F 
ATOM     22  F   UNL A   1      29.623  25.229  23.513  1.00  0.00    -0.167 F 
ATOM     23  F   UNL A   1      29.975  26.503  25.243  1.00  0.00    -0.167 F 
ENDBRANCH  11  20
ENDBRANCH   7   9
ENDBRANCH   4   5
ENDBRANCH   3   4
ENDBRANCH   2   3
ENDBRANCH   1   2
BRANCH   1  24
ATOM     24  C   UNL A   1      32.566  31.311  27.633  1.00  0.00     0.021 C 
BRANCH  24  25
ATOM     25  C   UNL A   1      32.449  32.496  26.679  1.00  0.00     0.116 C 
BRANCH  25  26
ATOM     26  N   UNL A   1      32.258  33.761  27.367  1.00  0.00    -0.352 N 
ATOM     27  C   UNL A   1      33.008  34.368  28.345  1.00  0.00     0.251 C 
ATOM     28  H   UNL A   1      31.462  34.266  27.087  1.00  0.00     0.163 HD
ATOM     29  O   UNL A   1      32.581  35.378  28.895  1.00  0.00    -0.269 OA
BRANCH  27  30
ATOM     30  C   UNL A   1      34.315  33.807  28.765  1.00  0.00     0.039 A 
ATOM     31  C   UNL A   1      34.408  33.207  30.025  1.00  0.00     0.014 A 
ATOM     32  C   UNL A   1      35.450  33.904  27.958  1.00  0.00     0.014 A 
ATOM     33  C   UNL A   1      35.621  32.656  30.449  1.00  0.00     0.010 A 
ATOM     34  C   UNL A   1      36.639  33.286  28.347  1.00  0.00     0.010 A 
ATOM     35  C   UNL A   1      36.740  32.662  29.600  1.00  0.00    -0.014 A 
BRANCH  35  36
ATOM     36  C   UNL A   1      38.020  32.031  30.016  1.00  0.00     0.031 A 
ATOM     37  C   UNL A   1      38.960  32.753  30.945  1.00  0.00     0.074 A 
ATOM     38  C   UNL A   1      38.361  30.824  29.523  1.00  0.00     0.049 A 
ATOM     39  N   UNL A   1      40.138  32.382  31.381  1.00  0.00    -0.248 NA
ATOM     40  C   UNL A   1      38.528  34.072  31.433  1.00  0.00     0.031 C 
ATOM     41  C   UNL A   1      37.559  30.033  28.587  1.00  0.00     0.029 A 
ATOM     42  N   UNL A   1      39.476  30.052  29.737  1.00  0.00    -0.354 N 
ATOM     43  C   UNL A   1      40.590  33.422  32.183  1.00  0.00     0.074 A 
ATOM     44  C   UNL A   1      39.586  34.463  32.128  1.00  0.00     0.031 C 
ATOM     45  C   UNL A   1      38.196  28.880  28.327  1.00  0.00     0.029 A 
ATOM     46  C   UNL A   1      39.469  28.866  29.041  1.00  0.00     0.049 A 
ATOM     47  H   UNL A   1      40.212  30.321  30.334  1.00  0.00     0.167 HD
ATOM     48  C   UNL A   1      41.724  33.498  32.919  1.00  0.00     0.031 A 
ATOM     49  C   UNL A   1      40.387  27.884  28.975  1.00  0.00     0.031 A 
ATOM     50  C   UNL A   1      42.724  32.465  32.976  1.00  0.00     0.049 A 
ATOM     51  C   UNL A   1      41.652  28.005  29.779  1.00  0.00     0.074 A 
ATOM     52  C   UNL A   1      43.890  32.433  33.720  1.00  0.00     0.029 A 
ATOM     53  N   UNL A   1      42.675  31.280  32.258  1.00  0.00    -0.354 N 
ATOM     54  N   UNL A   1      42.035  28.970  30.579  1.00  0.00    -0.248 NA
ATOM     55  C   UNL A   1      42.608  26.891  29.679  1.00  0.00     0.031 C 
ATOM     56  C   UNL A   1      44.574  31.253  33.412  1.00  0.00     0.029 A 
ATOM     57  C   UNL A   1      43.801  30.520  32.525  1.00  0.00     0.049 A 
ATOM     58  H   UNL A   1      41.948  31.017  31.649  1.00  0.00     0.167 HD
ATOM     59  C   UNL A   1      43.259  28.569  31.099  1.00  0.00     0.074 A 
ATOM     60  C   UNL A   1      43.544  27.264  30.540  1.00  0.00     0.031 C 
ATOM     61  C   UNL A   1      44.073  29.224  31.962  1.00  0.00     0.031 A 
BRANCH  48  62
ATOM     62  C   UNL A   1      41.944  34.748  33.727  1.00  0.00    -0.014 A 
ATOM     63  C   UNL A   1      42.668  35.833  33.203  1.00  0.00     0.009 A 
ATOM     64  C   UNL A   1      41.389  34.862  35.010  1.00  0.00     0.009 A 
ATOM     65  C   UNL A   1      42.860  36.990  33.962  1.00  0.00     0.001 A 
ATOM     66  C   UNL A   1      41.555  36.031  35.755  1.00  0.00     0.001 A 
ATOM     67  C   UNL A   1      42.299  37.090  35.235  1.00  0.00     0.000 A 
ENDBRANCH  48  62
BRANCH  49  68
ATOM     68  C   UNL A   1      40.148  26.695  28.113  1.00  0.00    -0.014 A 
ATOM     69  C   UNL A   1      40.675  26.633  26.814  1.00  0.00     0.009 A 
ATOM     70  C   UNL A   1      39.374  25.621  28.581  1.00  0.00     0.009 A 
ATOM     71  C   UNL A   1      40.403  25.537  25.991  1.00  0.00     0.001 A 
ATOM     72  C   UNL A   1      39.133  24.512  27.768  1.00  0.00     0.001 A 
ATOM     73  C   UNL A   1      39.637  24.476  26.470  1.00  0.00     0.000 A 
ENDBRANCH  49  68
BRANCH  61  74
ATOM     74  C   UNL A   1      45.334  28.522  32.386  1.00  0.00    -0.014 A 
ATOM     75  C   UNL A   1      45.353  27.653  33.488  1.00  0.00     0.009 A 
ATOM     76  C   UNL A   1      46.512  28.704  31.645  1.00  0.00     0.009 A 
ATOM     77  C   UNL A   1      46.536  27.009  33.859  1.00  0.00     0.001 A 
ATOM     78  C   UNL A   1      47.684  28.034  31.998  1.00  0.00     0.001 A 
ATOM     79  C   UNL A   1      47.698  27.196  33.111  1.00  0.00     0.000 A 
ENDBRANCH  61  74
ENDBRANCH  35  36
ENDBRANCH  27  30
ENDBRANCH  25  26
ENDBRANCH  24  25
ENDBRANCH   1  24
TORSDOF 14
ENDMDL
