MODEL 1
REMARK VINA RESULT:      -9.3      0.000      0.000
REMARK SMILES O=C(NCCCCCCNC(=O)c1cc(Br)cc2c1OCC2)c1ccc(-c2c3nc(c(-c4ccccc4)c4ccc([nH]4)c(-c4ccccc4)c4nc(c(-c5ccccc5)c5ccc2[nH]5)C=C4)C=C3)cc1
REMARK SMILES IDX 5 1 4 2 3 3 1 4 2 5 23 7 24 8 70 9 25 10 69 11 26 12 27 13
REMARK SMILES IDX 28 14 63 15 29 16 68 17 62 18 64 19 30 20 67 21 61 22 60 23
REMARK SMILES IDX 31 25 53 26 38 27 52 28 39 29 42 30 51 31 65 32 40 33 41 34
REMARK SMILES IDX 50 36 66 37 43 38 32 39 33 40 37 41 34 42 36 43 35 44 54 45
REMARK SMILES IDX 55 46 59 47 56 48 58 49 57 50 44 51 45 52 49 53 46 54 48 55
REMARK SMILES IDX 47 56 6 57 7 58 8 59 9 60 10 61 11 62 12 64 13 65 14 66
REMARK SMILES IDX 19 67 15 68 18 69 20 70 16 71 17 72 22 73 21 74
REMARK H PARENT 3 6 64 24 42 35 10 63
REMARK Flexibility Score: inf
ROOT
ATOM      1  C   UNL A   1      44.449  18.963  24.818  1.00  0.00     0.021 C 
ENDROOT
BRANCH   1   2
ATOM      2  C   UNL A   1      43.619  18.681  26.063  1.00  0.00     0.116 C 
BRANCH   2   3
ATOM      3  N   UNL A   1      42.196  18.600  25.783  1.00  0.00    -0.352 N 
ATOM      4  O   UNL A   1      40.023  19.203  25.904  1.00  0.00    -0.269 OA
ATOM      5  C   UNL A   1      41.201  19.501  26.075  1.00  0.00     0.251 C 
ATOM      6  H   UNL A   1      41.903  17.783  25.316  1.00  0.00     0.163 HD
BRANCH   5   7
ATOM      7  C   UNL A   1      41.553  20.830  26.620  1.00  0.00     0.039 A 
ATOM      8  C   UNL A   1      41.557  21.058  27.998  1.00  0.00     0.014 A 
ATOM      9  C   UNL A   1      41.897  21.858  25.737  1.00  0.00     0.014 A 
ATOM     10  C   UNL A   1      41.775  22.341  28.485  1.00  0.00     0.010 A 
ATOM     11  C   UNL A   1      42.200  23.128  26.235  1.00  0.00     0.010 A 
ATOM     12  C   UNL A   1      42.118  23.386  27.612  1.00  0.00    -0.014 A 
BRANCH  12  13
ATOM     13  C   UNL A   1      42.467  24.716  28.170  1.00  0.00     0.031 A 
ATOM     14  C   UNL A   1      43.879  25.058  28.554  1.00  0.00     0.074 A 
ATOM     15  C   UNL A   1      41.489  25.631  28.309  1.00  0.00     0.049 A 
ATOM     16  N   UNL A   1      44.348  26.179  29.041  1.00  0.00    -0.248 NA
ATOM     17  C   UNL A   1      44.895  24.009  28.374  1.00  0.00     0.031 C 
ATOM     18  C   UNL A   1      40.079  25.415  27.970  1.00  0.00     0.029 A 
ATOM     19  N   UNL A   1      41.528  26.927  28.753  1.00  0.00    -0.354 N 
ATOM     20  C   UNL A   1      45.707  25.969  29.239  1.00  0.00     0.074 A 
ATOM     21  C   UNL A   1      45.983  24.604  28.844  1.00  0.00     0.031 C 
ATOM     22  C   UNL A   1      39.399  26.553  28.169  1.00  0.00     0.029 A 
ATOM     23  C   UNL A   1      40.307  27.554  28.715  1.00  0.00     0.049 A 
ATOM     24  H   UNL A   1      42.351  27.365  29.067  1.00  0.00     0.167 HD
ATOM     25  C   UNL A   1      46.639  26.837  29.704  1.00  0.00     0.031 A 
ATOM     26  C   UNL A   1      39.949  28.794  29.095  1.00  0.00     0.031 A 
ATOM     27  C   UNL A   1      46.358  28.192  30.107  1.00  0.00     0.049 A 
ATOM     28  C   UNL A   1      40.991  29.714  29.657  1.00  0.00     0.074 A 
ATOM     29  C   UNL A   1      47.239  29.154  30.570  1.00  0.00     0.029 A 
ATOM     30  N   UNL A   1      45.099  28.773  30.101  1.00  0.00    -0.354 N 
ATOM     31  N   UNL A   1      42.276  29.508  29.809  1.00  0.00    -0.248 NA
ATOM     32  C   UNL A   1      40.531  31.036  30.100  1.00  0.00     0.031 C 
ATOM     33  C   UNL A   1      46.504  30.299  30.896  1.00  0.00     0.029 A 
ATOM     34  C   UNL A   1      45.176  30.072  30.579  1.00  0.00     0.049 A 
ATOM     35  H   UNL A   1      44.272  28.329  29.802  1.00  0.00     0.167 HD
ATOM     36  C   UNL A   1      42.784  30.682  30.349  1.00  0.00     0.074 A 
ATOM     37  C   UNL A   1      41.670  31.601  30.477  1.00  0.00     0.031 C 
ATOM     38  C   UNL A   1      44.058  30.971  30.707  1.00  0.00     0.031 A 
BRANCH  25  39
ATOM     39  C   UNL A   1      48.053  26.340  29.830  1.00  0.00    -0.014 A 
ATOM     40  C   UNL A   1      48.959  26.436  28.762  1.00  0.00     0.009 A 
ATOM     41  C   UNL A   1      48.500  25.813  31.052  1.00  0.00     0.009 A 
ATOM     42  C   UNL A   1      50.275  25.987  28.907  1.00  0.00     0.001 A 
ATOM     43  C   UNL A   1      49.822  25.389  31.202  1.00  0.00     0.001 A 
ATOM     44  C   UNL A   1      50.705  25.469  30.127  1.00  0.00     0.000 A 
ENDBRANCH  25  39
BRANCH  26  45
ATOM     45  C   UNL A   1      38.532  29.224  28.969  1.00  0.00    -0.014 A 
ATOM     46  C   UNL A   1      38.038  29.703  27.747  1.00  0.00     0.009 A 
ATOM     47  C   UNL A   1      37.663  29.142  30.069  1.00  0.00     0.009 A 
ATOM     48  C   UNL A   1      36.707  30.110  27.635  1.00  0.00     0.001 A 
ATOM     49  C   UNL A   1      36.325  29.520  29.945  1.00  0.00     0.001 A 
ATOM     50  C   UNL A   1      35.850  30.012  28.732  1.00  0.00     0.000 A 
ENDBRANCH  26  45
BRANCH  38  51
ATOM     51  C   UNL A   1      44.318  32.350  31.244  1.00  0.00    -0.014 A 
ATOM     52  C   UNL A   1      44.244  32.624  32.619  1.00  0.00     0.009 A 
ATOM     53  C   UNL A   1      44.665  33.385  30.361  1.00  0.00     0.009 A 
ATOM     54  C   UNL A   1      44.480  33.914  33.095  1.00  0.00     0.001 A 
ATOM     55  C   UNL A   1      44.929  34.667  30.843  1.00  0.00     0.001 A 
ATOM     56  C   UNL A   1      44.826  34.934  32.208  1.00  0.00     0.000 A 
ENDBRANCH  38  51
ENDBRANCH  12  13
ENDBRANCH   5   7
ENDBRANCH   2   3
ENDBRANCH   1   2
BRANCH   1  57
ATOM     57  C   UNL A   1      45.814  19.598  25.080  1.00  0.00     0.002 C 
BRANCH  57  58
ATOM     58  C   UNL A   1      46.006  21.008  24.512  1.00  0.00     0.002 C 
BRANCH  58  59
ATOM     59  C   UNL A   1      45.876  22.157  25.517  1.00  0.00     0.021 C 
BRANCH  59  60
ATOM     60  C   UNL A   1      46.076  23.555  24.938  1.00  0.00     0.116 C 
BRANCH  60  61
ATOM     61  N   UNL A   1      44.828  24.289  24.823  1.00  0.00    -0.352 N 
ATOM     62  C   UNL A   1      44.574  25.619  25.048  1.00  0.00     0.255 C 
ATOM     63  H   UNL A   1      44.051  23.754  24.541  1.00  0.00     0.163 HD
ATOM     64  O   UNL A   1      43.429  26.050  24.958  1.00  0.00    -0.269 OA
BRANCH  62  65
ATOM     65  C   UNL A   1      45.692  26.529  25.350  1.00  0.00     0.083 A 
ATOM     66  C   UNL A   1      47.008  26.158  25.039  1.00  0.00     0.033 A 
ATOM     67  C   UNL A   1      45.470  27.773  25.919  1.00  0.00     0.135 A 
ATOM     68  C   UNL A   1      48.069  27.020  25.349  1.00  0.00     0.019 A 
ATOM     69  C   UNL A   1      46.526  28.628  26.203  1.00  0.00    -0.001 A 
ATOM     70  O   UNL A   1      44.249  28.295  26.256  1.00  0.00    -0.492 OA
ATOM     71  Br  UNL A   1      49.841  26.477  24.975  1.00  0.00    -0.051 Br
ATOM     72  C   UNL A   1      47.837  28.267  25.932  1.00  0.00     0.023 A 
ATOM     73  C   UNL A   1      46.003  29.908  26.730  1.00  0.00     0.081 C 
ATOM     74  C   UNL A   1      44.553  29.501  26.992  1.00  0.00     0.234 C 
ENDBRANCH  62  65
ENDBRANCH  60  61
ENDBRANCH  59  60
ENDBRANCH  58  59
ENDBRANCH  57  58
ENDBRANCH   1  57
TORSDOF 13
ENDMDL
MODEL 2
REMARK VINA RESULT:      -9.1      4.085      8.955
REMARK SMILES O=C(NCCCCCCNC(=O)c1cc(Br)cc2c1OCC2)c1ccc(-c2c3nc(c(-c4ccccc4)c4ccc([nH]4)c(-c4ccccc4)c4nc(c(-c5ccccc5)c5ccc2[nH]5)C=C4)C=C3)cc1
REMARK SMILES IDX 5 1 4 2 3 3 1 4 2 5 23 7 24 8 70 9 25 10 69 11 26 12 27 13
REMARK SMILES IDX 28 14 63 15 29 16 68 17 62 18 64 19 30 20 67 21 61 22 60 23
REMARK SMILES IDX 31 25 53 26 38 27 52 28 39 29 42 30 51 31 65 32 40 33 41 34
REMARK SMILES IDX 50 36 66 37 43 38 32 39 33 40 37 41 34 42 36 43 35 44 54 45
REMARK SMILES IDX 55 46 59 47 56 48 58 49 57 50 44 51 45 52 49 53 46 54 48 55
REMARK SMILES IDX 47 56 6 57 7 58 8 59 9 60 10 61 11 62 12 64 13 65 14 66
REMARK SMILES IDX 19 67 15 68 18 69 20 70 16 71 17 72 22 73 21 74
REMARK H PARENT 3 6 64 24 42 35 10 63
REMARK Flexibility Score: inf
ROOT
ATOM      1  C   UNL A   1      37.243  19.558  24.975  1.00  0.00     0.021 C 
ENDROOT
BRANCH   1   2
ATOM      2  C   UNL A   1      38.493  20.216  25.543  1.00  0.00     0.116 C 
BRANCH   2   3
ATOM      3  N   UNL A   1      39.613  19.297  25.650  1.00  0.00    -0.352 N 
ATOM      4  O   UNL A   1      41.770  18.682  25.912  1.00  0.00    -0.269 OA
ATOM      5  C   UNL A   1      40.909  19.549  26.027  1.00  0.00     0.251 C 
ATOM      6  H   UNL A   1      39.414  18.360  25.420  1.00  0.00     0.163 HD
BRANCH   5   7
ATOM      7  C   UNL A   1      41.273  20.882  26.553  1.00  0.00     0.039 A 
ATOM      8  C   UNL A   1      41.732  21.886  25.697  1.00  0.00     0.014 A 
ATOM      9  C   UNL A   1      41.140  21.134  27.921  1.00  0.00     0.014 A 
ATOM     10  C   UNL A   1      42.180  23.092  26.224  1.00  0.00     0.010 A 
ATOM     11  C   UNL A   1      41.511  22.377  28.439  1.00  0.00     0.010 A 
ATOM     12  C   UNL A   1      42.056  23.359  27.597  1.00  0.00    -0.014 A 
BRANCH  12  13
ATOM     13  C   UNL A   1      42.426  24.700  28.115  1.00  0.00     0.031 A 
ATOM     14  C   UNL A   1      41.396  25.777  28.307  1.00  0.00     0.074 A 
ATOM     15  C   UNL A   1      43.714  24.932  28.432  1.00  0.00     0.049 A 
ATOM     16  N   UNL A   1      41.557  26.993  28.762  1.00  0.00    -0.248 NA
ATOM     17  C   UNL A   1      40.010  25.451  27.939  1.00  0.00     0.031 C 
ATOM     18  C   UNL A   1      44.806  23.964  28.289  1.00  0.00     0.029 A 
ATOM     19  N   UNL A   1      44.324  26.042  28.956  1.00  0.00    -0.354 N 
ATOM     20  C   UNL A   1      40.300  27.584  28.723  1.00  0.00     0.074 A 
ATOM     21  C   UNL A   1      39.391  26.600  28.175  1.00  0.00     0.031 C 
ATOM     22  C   UNL A   1      45.938  24.504  28.761  1.00  0.00     0.029 A 
ATOM     23  C   UNL A   1      45.670  25.876  29.173  1.00  0.00     0.049 A 
ATOM     24  H   UNL A   1      43.844  26.877  29.157  1.00  0.00     0.167 HD
ATOM     25  C   UNL A   1      39.938  28.831  29.113  1.00  0.00     0.031 A 
ATOM     26  C   UNL A   1      46.594  26.736  29.636  1.00  0.00     0.031 A 
ATOM     27  C   UNL A   1      40.849  29.812  29.647  1.00  0.00     0.049 A 
ATOM     28  C   UNL A   1      46.174  28.127  30.007  1.00  0.00     0.074 A 
ATOM     29  C   UNL A   1      40.572  31.093  30.091  1.00  0.00     0.029 A 
ATOM     30  N   UNL A   1      42.214  29.621  29.804  1.00  0.00    -0.354 N 
ATOM     31  N   UNL A   1      44.976  28.658  29.992  1.00  0.00    -0.248 NA
ATOM     32  C   UNL A   1      47.235  29.036  30.459  1.00  0.00     0.031 C 
ATOM     33  C   UNL A   1      41.778  31.697  30.464  1.00  0.00     0.029 A 
ATOM     34  C   UNL A   1      42.797  30.771  30.311  1.00  0.00     0.049 A 
ATOM     35  H   UNL A   1      42.697  28.791  29.587  1.00  0.00     0.167 HD
ATOM     36  C   UNL A   1      45.134  29.959  30.449  1.00  0.00     0.074 A 
ATOM     37  C   UNL A   1      46.542  30.127  30.753  1.00  0.00     0.031 C 
ATOM     38  C   UNL A   1      44.198  30.926  30.602  1.00  0.00     0.031 A 
BRANCH  25  39
ATOM     39  C   UNL A   1      38.494  29.220  28.949  1.00  0.00    -0.014 A 
ATOM     40  C   UNL A   1      37.585  29.115  30.014  1.00  0.00     0.009 A 
ATOM     41  C   UNL A   1      38.049  29.748  27.727  1.00  0.00     0.009 A 
ATOM     42  C   UNL A   1      36.252  29.502  29.848  1.00  0.00     0.001 A 
ATOM     43  C   UNL A   1      36.723  30.158  27.571  1.00  0.00     0.001 A 
ATOM     44  C   UNL A   1      35.824  30.026  28.629  1.00  0.00     0.000 A 
ENDBRANCH  25  39
BRANCH  26  45
ATOM     45  C   UNL A   1      48.011  26.305  29.755  1.00  0.00    -0.014 A 
ATOM     46  C   UNL A   1      48.488  25.747  30.949  1.00  0.00     0.009 A 
ATOM     47  C   UNL A   1      48.888  26.435  28.666  1.00  0.00     0.009 A 
ATOM     48  C   UNL A   1      49.822  25.346  31.057  1.00  0.00     0.001 A 
ATOM     49  C   UNL A   1      50.212  26.005  28.767  1.00  0.00     0.001 A 
ATOM     50  C   UNL A   1      50.680  25.469  29.964  1.00  0.00     0.000 A 
ENDBRANCH  26  45
BRANCH  38  51
ATOM     51  C   UNL A   1      44.666  32.245  31.150  1.00  0.00    -0.014 A 
ATOM     52  C   UNL A   1      44.726  32.479  32.533  1.00  0.00     0.009 A 
ATOM     53  C   UNL A   1      45.074  33.258  30.269  1.00  0.00     0.009 A 
ATOM     54  C   UNL A   1      45.154  33.715  33.020  1.00  0.00     0.001 A 
ATOM     55  C   UNL A   1      45.530  34.481  30.760  1.00  0.00     0.001 A 
ATOM     56  C   UNL A   1      45.560  34.713  32.135  1.00  0.00     0.000 A 
ENDBRANCH  38  51
ENDBRANCH  12  13
ENDBRANCH   5   7
ENDBRANCH   2   3
ENDBRANCH   1   2
BRANCH   1  57
ATOM     57  C   UNL A   1      35.982  20.420  25.014  1.00  0.00     0.002 C 
BRANCH  57  58
ATOM     58  C   UNL A   1      34.677  19.698  24.668  1.00  0.00     0.002 C 
BRANCH  58  59
ATOM     59  C   UNL A   1      33.518  19.906  25.649  1.00  0.00     0.021 C 
BRANCH  59  60
ATOM     60  C   UNL A   1      32.359  20.746  25.120  1.00  0.00     0.116 C 
BRANCH  60  61
ATOM     61  N   UNL A   1      31.710  21.514  26.167  1.00  0.00    -0.352 N 
ATOM     62  C   UNL A   1      32.001  22.773  26.633  1.00  0.00     0.255 C 
ATOM     63  H   UNL A   1      30.951  21.068  26.607  1.00  0.00     0.163 HD
ATOM     64  O   UNL A   1      31.374  23.238  27.579  1.00  0.00    -0.269 OA
BRANCH  62  65
ATOM     65  C   UNL A   1      33.037  23.574  25.958  1.00  0.00     0.083 A 
ATOM     66  C   UNL A   1      34.393  23.349  26.233  1.00  0.00     0.033 A 
ATOM     67  C   UNL A   1      32.700  24.541  25.024  1.00  0.00     0.135 A 
ATOM     68  C   UNL A   1      35.372  24.129  25.602  1.00  0.00     0.019 A 
ATOM     69  C   UNL A   1      33.678  25.294  24.390  1.00  0.00    -0.001 A 
ATOM     70  O   UNL A   1      31.429  24.862  24.624  1.00  0.00    -0.492 OA
ATOM     71  Br  UNL A   1      37.193  23.850  26.028  1.00  0.00    -0.051 Br
ATOM     72  C   UNL A   1      35.024  25.109  24.671  1.00  0.00     0.023 A 
ATOM     73  C   UNL A   1      33.049  26.190  23.395  1.00  0.00     0.081 C 
ATOM     74  C   UNL A   1      31.586  26.047  23.812  1.00  0.00     0.234 C 
ENDBRANCH  62  65
ENDBRANCH  60  61
ENDBRANCH  59  60
ENDBRANCH  58  59
ENDBRANCH  57  58
ENDBRANCH   1  57
TORSDOF 13
ENDMDL
MODEL 3
REMARK VINA RESULT:      -9.1      4.714      9.731
REMARK SMILES O=C(NCCCCCCNC(=O)c1cc(Br)cc2c1OCC2)c1ccc(-c2c3nc(c(-c4ccccc4)c4ccc([nH]4)c(-c4ccccc4)c4nc(c(-c5ccccc5)c5ccc2[nH]5)C=C4)C=C3)cc1
REMARK SMILES IDX 5 1 4 2 3 3 1 4 2 5 23 7 24 8 70 9 25 10 69 11 26 12 27 13
REMARK SMILES IDX 28 14 63 15 29 16 68 17 62 18 64 19 30 20 67 21 61 22 60 23
REMARK SMILES IDX 31 25 53 26 38 27 52 28 39 29 42 30 51 31 65 32 40 33 41 34
REMARK SMILES IDX 50 36 66 37 43 38 32 39 33 40 37 41 34 42 36 43 35 44 54 45
REMARK SMILES IDX 55 46 59 47 56 48 58 49 57 50 44 51 45 52 49 53 46 54 48 55
REMARK SMILES IDX 47 56 6 57 7 58 8 59 9 60 10 61 11 62 12 64 13 65 14 66
REMARK SMILES IDX 19 67 15 68 18 69 20 70 16 71 17 72 22 73 21 74
REMARK H PARENT 3 6 64 24 42 35 10 63
REMARK Flexibility Score: inf
ROOT
ATOM      1  C   UNL A   1      35.755  24.022  25.674  1.00  0.00     0.021 C 
ENDROOT
BRANCH   1   2
ATOM      2  C   UNL A   1      36.957  23.705  24.795  1.00  0.00     0.116 C 
BRANCH   2   3
ATOM      3  N   UNL A   1      37.777  22.633  25.332  1.00  0.00    -0.352 N 
ATOM      4  O   UNL A   1      39.555  21.707  26.371  1.00  0.00    -0.269 OA
ATOM      5  C   UNL A   1      38.888  22.709  26.136  1.00  0.00     0.251 C 
ATOM      6  H   UNL A   1      37.497  21.721  25.083  1.00  0.00     0.163 HD
BRANCH   5   7
ATOM      7  C   UNL A   1      39.293  24.013  26.704  1.00  0.00     0.039 A 
ATOM      8  C   UNL A   1      40.040  24.919  25.949  1.00  0.00     0.014 A 
ATOM      9  C   UNL A   1      38.906  24.337  28.008  1.00  0.00     0.014 A 
ATOM     10  C   UNL A   1      40.511  26.087  26.537  1.00  0.00     0.010 A 
ATOM     11  C   UNL A   1      39.309  25.551  28.570  1.00  0.00     0.010 A 
ATOM     12  C   UNL A   1      40.134  26.426  27.847  1.00  0.00    -0.014 A 
BRANCH  12  13
ATOM     13  C   UNL A   1      40.548  27.736  28.407  1.00  0.00     0.031 A 
ATOM     14  C   UNL A   1      39.555  28.843  28.626  1.00  0.00     0.074 A 
ATOM     15  C   UNL A   1      41.841  27.913  28.739  1.00  0.00     0.049 A 
ATOM     16  N   UNL A   1      39.756  30.039  29.120  1.00  0.00    -0.248 NA
ATOM     17  C   UNL A   1      38.161  28.578  28.240  1.00  0.00     0.031 C 
ATOM     18  C   UNL A   1      42.899  26.911  28.574  1.00  0.00     0.029 A 
ATOM     19  N   UNL A   1      42.486  28.984  29.301  1.00  0.00    -0.354 N 
ATOM     20  C   UNL A   1      38.521  30.674  29.091  1.00  0.00     0.074 A 
ATOM     21  C   UNL A   1      37.581  29.741  28.507  1.00  0.00     0.031 C 
ATOM     22  C   UNL A   1      44.046  27.396  29.068  1.00  0.00     0.029 A 
ATOM     23  C   UNL A   1      43.823  28.764  29.521  1.00  0.00     0.049 A 
ATOM     24  H   UNL A   1      42.034  29.830  29.525  1.00  0.00     0.167 HD
ATOM     25  C   UNL A   1      38.200  31.921  29.516  1.00  0.00     0.031 A 
ATOM     26  C   UNL A   1      44.774  29.576  30.015  1.00  0.00     0.031 A 
ATOM     27  C   UNL A   1      39.141  32.852  30.086  1.00  0.00     0.049 A 
ATOM     28  C   UNL A   1      44.400  30.969  30.426  1.00  0.00     0.074 A 
ATOM     29  C   UNL A   1      38.907  34.129  30.567  1.00  0.00     0.029 A 
ATOM     30  N   UNL A   1      40.497  32.608  30.245  1.00  0.00    -0.354 N 
ATOM     31  N   UNL A   1      43.222  31.543  30.420  1.00  0.00    -0.248 NA
ATOM     32  C   UNL A   1      45.490  31.826  30.912  1.00  0.00     0.031 C 
ATOM     33  C   UNL A   1      40.131  34.678  30.966  1.00  0.00     0.029 A 
ATOM     34  C   UNL A   1      41.117  33.721  30.791  1.00  0.00     0.049 A 
ATOM     35  H   UNL A   1      40.952  31.768  30.006  1.00  0.00     0.167 HD
ATOM     36  C   UNL A   1      43.423  32.823  30.918  1.00  0.00     0.074 A 
ATOM     37  C   UNL A   1      44.834  32.932  31.235  1.00  0.00     0.031 C 
ATOM     38  C   UNL A   1      42.521  33.818  31.094  1.00  0.00     0.031 A 
BRANCH  25  39
ATOM     39  C   UNL A   1      36.772  32.367  29.356  1.00  0.00    -0.014 A 
ATOM     40  C   UNL A   1      36.300  32.880  28.137  1.00  0.00     0.009 A 
ATOM     41  C   UNL A   1      35.873  32.223  30.424  1.00  0.00     0.009 A 
ATOM     42  C   UNL A   1      34.965  33.269  28.002  1.00  0.00     0.001 A 
ATOM     43  C   UNL A   1      34.533  32.589  30.279  1.00  0.00     0.001 A 
ATOM     44  C   UNL A   1      34.082  33.119  29.071  1.00  0.00     0.000 A 
ENDBRANCH  25  39
BRANCH  26  45
ATOM     45  C   UNL A   1      46.173  29.091  30.130  1.00  0.00    -0.014 A 
ATOM     46  C   UNL A   1      47.069  29.237  29.061  1.00  0.00     0.009 A 
ATOM     47  C   UNL A   1      46.624  28.495  31.318  1.00  0.00     0.009 A 
ATOM     48  C   UNL A   1      48.383  28.776  29.172  1.00  0.00     0.001 A 
ATOM     49  C   UNL A   1      47.946  28.063  31.438  1.00  0.00     0.001 A 
ATOM     50  C   UNL A   1      48.822  28.196  30.363  1.00  0.00     0.000 A 
ENDBRANCH  26  45
BRANCH  38  51
ATOM     51  C   UNL A   1      43.031  35.101  31.686  1.00  0.00    -0.014 A 
ATOM     52  C   UNL A   1      42.962  35.346  33.067  1.00  0.00     0.009 A 
ATOM     53  C   UNL A   1      43.610  36.069  30.850  1.00  0.00     0.009 A 
ATOM     54  C   UNL A   1      43.433  36.550  33.593  1.00  0.00     0.001 A 
ATOM     55  C   UNL A   1      44.107  37.258  31.384  1.00  0.00     0.001 A 
ATOM     56  C   UNL A   1      44.009  37.503  32.753  1.00  0.00     0.000 A 
ENDBRANCH  38  51
ENDBRANCH  12  13
ENDBRANCH   5   7
ENDBRANCH   2   3
ENDBRANCH   1   2
BRANCH   1  57
ATOM     57  C   UNL A   1      35.092  22.808  26.325  1.00  0.00     0.002 C 
BRANCH  57  58
ATOM     58  C   UNL A   1      34.092  22.051  25.446  1.00  0.00     0.002 C 
BRANCH  58  59
ATOM     59  C   UNL A   1      32.634  22.079  25.917  1.00  0.00     0.021 C 
BRANCH  59  60
ATOM     60  C   UNL A   1      32.334  23.052  27.055  1.00  0.00     0.116 C 
BRANCH  60  61
ATOM     61  N   UNL A   1      31.050  23.709  26.896  1.00  0.00    -0.352 N 
ATOM     62  C   UNL A   1      30.762  24.947  26.375  1.00  0.00     0.255 C 
ATOM     63  H   UNL A   1      30.272  23.192  27.205  1.00  0.00     0.163 HD
ATOM     64  O   UNL A   1      29.608  25.363  26.381  1.00  0.00    -0.269 OA
BRANCH  62  65
ATOM     65  C   UNL A   1      31.840  25.747  25.771  1.00  0.00     0.083 A 
ATOM     66  C   UNL A   1      32.459  26.768  26.507  1.00  0.00     0.033 A 
ATOM     67  C   UNL A   1      32.284  25.496  24.482  1.00  0.00     0.135 A 
ATOM     68  C   UNL A   1      33.470  27.539  25.918  1.00  0.00     0.019 A 
ATOM     69  C   UNL A   1      33.301  26.252  23.915  1.00  0.00    -0.001 A 
ATOM     70  O   UNL A   1      31.806  24.522  23.645  1.00  0.00    -0.492 OA
ATOM     71  Br  UNL A   1      34.253  28.948  26.906  1.00  0.00    -0.051 Br
ATOM     72  C   UNL A   1      33.904  27.286  24.615  1.00  0.00     0.023 A 
ATOM     73  C   UNL A   1      33.624  25.723  22.572  1.00  0.00     0.081 C 
ATOM     74  C   UNL A   1      32.429  24.793  22.369  1.00  0.00     0.234 C 
ENDBRANCH  62  65
ENDBRANCH  60  61
ENDBRANCH  59  60
ENDBRANCH  58  59
ENDBRANCH  57  58
ENDBRANCH   1  57
TORSDOF 13
ENDMDL
