MODEL 1
REMARK VINA RESULT:     -10.4      0.000      0.000
REMARK SMILES O=C(COc1ccc2c(c1)CCC2)N[C@@H](CO)C(=O)NCCCCCCNC(=O)c1ccc(-c2c3nc(c(-c4ccccc4)c4ccc([nH]4)c(-c4ccccc4)c4nc(c(-c5ccccc5)c5ccc2[nH]5)C=C4)C=C3)cc1
REMARK SMILES IDX 22 1 21 2 20 3 18 4 19 5 15 7 14 8 1 9 2 10 3 12 4 13 5 14
REMARK SMILES IDX 6 15 10 16 7 17 9 18 8 19 11 20 13 21 12 22 16 23 17 24
REMARK SMILES IDX 23 26 24 27 25 28 26 29 27 30 28 31 29 33 30 34 31 35 77 36
REMARK SMILES IDX 32 37 76 38 33 39 34 40 35 41 70 42 36 43 75 44 69 45 71 46
REMARK SMILES IDX 37 47 74 48 68 49 67 50 38 52 60 53 45 54 59 55 46 56 49 57
REMARK SMILES IDX 58 58 72 59 47 60 48 61 57 63 73 64 50 65 39 66 40 67 44 68
REMARK SMILES IDX 41 69 43 70 42 71 61 72 62 73 66 74 63 75 65 76 64 77 51 78
REMARK SMILES IDX 52 79 56 80 53 81 55 82 54 83
REMARK H PARENT 20 6 14 11 17 25 27 32 71 51 49 62
REMARK Flexibility Score: inf
ROOT
ATOM      1  C   UNL A   1      31.819  28.337  26.967  1.00  0.00     0.021 C 
ENDROOT
BRANCH   1   2
ATOM      2  C   UNL A   1      32.326  26.994  26.450  1.00  0.00     0.116 C 
BRANCH   2   3
ATOM      3  N   UNL A   1      31.417  25.916  26.791  1.00  0.00    -0.354 N 
ATOM      4  C   UNL A   1      31.512  24.573  26.589  1.00  0.00     0.244 C 
ATOM      5  O   UNL A   1      30.685  23.856  27.161  1.00  0.00    -0.273 OA
ATOM      6  H   UNL A   1      30.593  26.205  27.246  1.00  0.00     0.163 HD
BRANCH   4   7
ATOM      7  C   UNL A   1      32.632  23.950  25.739  1.00  0.00     0.197 C 
BRANCH   7   8
ATOM      8  N   UNL A   1      32.817  24.688  24.488  1.00  0.00    -0.339 N 
ATOM      9  O   UNL A   1      31.510  23.318  23.197  1.00  0.00    -0.271 OA
ATOM     10  C   UNL A   1      32.106  24.380  23.350  1.00  0.00     0.258 C 
ATOM     11  H   UNL A   1      33.468  25.425  24.461  1.00  0.00     0.164 HD
BRANCH  10  12
ATOM     12  C   UNL A   1      32.141  25.481  22.283  1.00  0.00     0.329 C 
BRANCH  12  13
ATOM     13  O   UNL A   1      32.199  26.810  22.813  1.00  0.00    -0.484 OA
BRANCH  13  14
ATOM     14  C   UNL A   1      30.967  27.413  22.863  1.00  0.00     0.120 A 
ATOM     15  C   UNL A   1      29.868  26.786  23.475  1.00  0.00     0.047 A 
ATOM     16  C   UNL A   1      30.858  28.718  22.373  1.00  0.00     0.050 A 
ATOM     17  C   UNL A   1      28.637  27.438  23.572  1.00  0.00     0.008 A 
ATOM     18  C   UNL A   1      29.634  29.362  22.486  1.00  0.00    -0.041 A 
ATOM     19  C   UNL A   1      28.536  28.725  23.078  1.00  0.00    -0.045 A 
ATOM     20  C   UNL A   1      29.251  30.728  22.006  1.00  0.00     0.036 C 
ATOM     21  C   UNL A   1      27.324  29.602  23.050  1.00  0.00     0.036 C 
ATOM     22  C   UNL A   1      27.961  30.976  22.805  1.00  0.00     0.010 C 
ENDBRANCH  13  14
ENDBRANCH  12  13
ENDBRANCH  10  12
ENDBRANCH   7   8
BRANCH   7  23
ATOM     23  C   UNL A   1      33.908  23.705  26.556  1.00  0.00     0.191 C 
BRANCH  23  24
ATOM     24  O   UNL A   1      34.078  22.348  26.966  1.00  0.00    -0.394 OA
ATOM     25  H   UNL A   1      33.589  21.765  26.366  1.00  0.00     0.210 HD
ENDBRANCH  23  24
ENDBRANCH   7  23
ENDBRANCH   4   7
ENDBRANCH   2   3
ENDBRANCH   1   2
BRANCH   1  26
ATOM     26  C   UNL A   1      32.365  29.551  26.210  1.00  0.00     0.002 C 
BRANCH  26  27
ATOM     27  C   UNL A   1      31.300  30.500  25.650  1.00  0.00     0.002 C 
BRANCH  27  28
ATOM     28  C   UNL A   1      31.176  31.841  26.378  1.00  0.00     0.021 C 
BRANCH  28  29
ATOM     29  C   UNL A   1      32.463  32.333  27.026  1.00  0.00     0.116 C 
BRANCH  29  30
ATOM     30  N   UNL A   1      32.335  33.683  27.551  1.00  0.00    -0.352 N 
ATOM     31  C   UNL A   1      33.131  34.335  28.458  1.00  0.00     0.251 C 
ATOM     32  H   UNL A   1      31.573  34.201  27.205  1.00  0.00     0.163 HD
ATOM     33  O   UNL A   1      32.781  35.412  28.932  1.00  0.00    -0.269 OA
BRANCH  31  34
ATOM     34  C   UNL A   1      34.407  33.723  28.879  1.00  0.00     0.039 A 
ATOM     35  C   UNL A   1      35.594  34.146  28.277  1.00  0.00     0.014 A 
ATOM     36  C   UNL A   1      34.429  32.739  29.871  1.00  0.00     0.014 A 
ATOM     37  C   UNL A   1      36.812  33.620  28.710  1.00  0.00     0.010 A 
ATOM     38  C   UNL A   1      35.647  32.276  30.356  1.00  0.00     0.010 A 
ATOM     39  C   UNL A   1      36.851  32.703  29.773  1.00  0.00    -0.014 A 
BRANCH  39  40
ATOM     40  C   UNL A   1      38.134  32.157  30.281  1.00  0.00     0.031 A 
ATOM     41  C   UNL A   1      38.668  30.864  29.729  1.00  0.00     0.074 A 
ATOM     42  C   UNL A   1      38.781  32.783  31.284  1.00  0.00     0.049 A 
ATOM     43  N   UNL A   1      39.718  30.177  30.101  1.00  0.00    -0.248 NA
ATOM     44  C   UNL A   1      37.906  30.249  28.630  1.00  0.00     0.031 C 
ATOM     45  C   UNL A   1      38.353  34.027  31.925  1.00  0.00     0.029 A 
ATOM     46  N   UNL A   1      39.934  32.447  31.947  1.00  0.00    -0.354 N 
ATOM     47  C   UNL A   1      39.728  29.042  29.299  1.00  0.00     0.074 A 
ATOM     48  C   UNL A   1      38.553  29.106  28.459  1.00  0.00     0.031 C 
ATOM     49  C   UNL A   1      39.245  34.363  32.872  1.00  0.00     0.029 A 
ATOM     50  C   UNL A   1      40.279  33.335  32.937  1.00  0.00     0.049 A 
ATOM     51  H   UNL A   1      40.465  31.645  31.733  1.00  0.00     0.167 HD
ATOM     52  C   UNL A   1      40.643  28.046  29.252  1.00  0.00     0.031 A 
ATOM     53  C   UNL A   1      41.306  33.315  33.809  1.00  0.00     0.031 A 
ATOM     54  C   UNL A   1      41.817  27.987  30.083  1.00  0.00     0.049 A 
ATOM     55  C   UNL A   1      42.292  32.182  33.757  1.00  0.00     0.074 A 
ATOM     56  C   UNL A   1      42.830  27.046  30.077  1.00  0.00     0.029 A 
ATOM     57  N   UNL A   1      42.130  28.909  31.070  1.00  0.00    -0.354 N 
ATOM     58  N   UNL A   1      42.321  31.146  32.954  1.00  0.00    -0.248 NA
ATOM     59  C   UNL A   1      43.396  32.221  34.727  1.00  0.00     0.031 C 
ATOM     60  C   UNL A   1      43.727  27.365  31.101  1.00  0.00     0.029 A 
ATOM     61  C   UNL A   1      43.309  28.543  31.698  1.00  0.00     0.049 A 
ATOM     62  H   UNL A   1      41.595  29.705  31.292  1.00  0.00     0.167 HD
ATOM     63  C   UNL A   1      43.463  30.432  33.296  1.00  0.00     0.074 A 
ATOM     64  C   UNL A   1      44.104  31.158  34.372  1.00  0.00     0.031 C 
ATOM     65  C   UNL A   1      43.938  29.279  32.764  1.00  0.00     0.031 A 
BRANCH  52  66
ATOM     66  C   UNL A   1      40.400  26.927  28.275  1.00  0.00    -0.014 A 
ATOM     67  C   UNL A   1      40.956  26.950  26.984  1.00  0.00     0.009 A 
ATOM     68  C   UNL A   1      39.629  25.820  28.660  1.00  0.00     0.009 A 
ATOM     69  C   UNL A   1      40.707  25.910  26.088  1.00  0.00     0.001 A 
ATOM     70  C   UNL A   1      39.410  24.765  27.773  1.00  0.00     0.001 A 
ATOM     71  C   UNL A   1      39.939  24.816  26.484  1.00  0.00     0.000 A 
ENDBRANCH  52  66
BRANCH  53  72
ATOM     72  C   UNL A   1      41.461  34.412  34.803  1.00  0.00    -0.014 A 
ATOM     73  C   UNL A   1      42.199  35.562  34.484  1.00  0.00     0.009 A 
ATOM     74  C   UNL A   1      40.882  34.310  36.077  1.00  0.00     0.009 A 
ATOM     75  C   UNL A   1      42.379  36.573  35.431  1.00  0.00     0.001 A 
ATOM     76  C   UNL A   1      41.037  35.336  37.011  1.00  0.00     0.001 A 
ATOM     77  C   UNL A   1      41.795  36.461  36.691  1.00  0.00     0.000 A 
ENDBRANCH  53  72
BRANCH  65  78
ATOM     78  C   UNL A   1      45.243  28.757  33.299  1.00  0.00    -0.014 A 
ATOM     79  C   UNL A   1      46.474  29.162  32.759  1.00  0.00     0.009 A 
ATOM     80  C   UNL A   1      45.238  27.882  34.397  1.00  0.00     0.009 A 
ATOM     81  C   UNL A   1      47.671  28.675  33.288  1.00  0.00     0.001 A 
ATOM     82  C   UNL A   1      46.436  27.423  34.945  1.00  0.00     0.001 A 
ATOM     83  C   UNL A   1      47.651  27.813  34.384  1.00  0.00     0.000 A 
ENDBRANCH  65  78
ENDBRANCH  39  40
ENDBRANCH  31  34
ENDBRANCH  29  30
ENDBRANCH  28  29
ENDBRANCH  27  28
ENDBRANCH  26  27
ENDBRANCH   1  26
TORSDOF 19
ENDMDL
MODEL 2
REMARK VINA RESULT:     -10.4      2.963      7.922
REMARK SMILES O=C(COc1ccc2c(c1)CCC2)N[C@@H](CO)C(=O)NCCCCCCNC(=O)c1ccc(-c2c3nc(c(-c4ccccc4)c4ccc([nH]4)c(-c4ccccc4)c4nc(c(-c5ccccc5)c5ccc2[nH]5)C=C4)C=C3)cc1
REMARK SMILES IDX 22 1 21 2 20 3 18 4 19 5 15 7 14 8 1 9 2 10 3 12 4 13 5 14
REMARK SMILES IDX 6 15 10 16 7 17 9 18 8 19 11 20 13 21 12 22 16 23 17 24
REMARK SMILES IDX 23 26 24 27 25 28 26 29 27 30 28 31 29 33 30 34 31 35 77 36
REMARK SMILES IDX 32 37 76 38 33 39 34 40 35 41 70 42 36 43 75 44 69 45 71 46
REMARK SMILES IDX 37 47 74 48 68 49 67 50 38 52 60 53 45 54 59 55 46 56 49 57
REMARK SMILES IDX 58 58 72 59 47 60 48 61 57 63 73 64 50 65 39 66 40 67 44 68
REMARK SMILES IDX 41 69 43 70 42 71 61 72 62 73 66 74 63 75 65 76 64 77 51 78
REMARK SMILES IDX 52 79 56 80 53 81 55 82 54 83
REMARK H PARENT 20 6 14 11 17 25 27 32 71 51 49 62
REMARK Flexibility Score: inf
ROOT
ATOM      1  C   UNL A   1      30.456  27.409  24.708  1.00  0.00     0.021 C 
ENDROOT
BRANCH   1   2
ATOM      2  C   UNL A   1      30.855  27.276  23.242  1.00  0.00     0.116 C 
BRANCH   2   3
ATOM      3  N   UNL A   1      32.135  27.906  22.980  1.00  0.00    -0.354 N 
ATOM      4  C   UNL A   1      33.268  27.414  22.406  1.00  0.00     0.244 C 
ATOM      5  O   UNL A   1      34.153  28.226  22.119  1.00  0.00    -0.273 OA
ATOM      6  H   UNL A   1      32.194  28.846  23.265  1.00  0.00     0.163 HD
BRANCH   4   7
ATOM      7  C   UNL A   1      33.434  25.925  22.063  1.00  0.00     0.197 C 
BRANCH   7   8
ATOM      8  N   UNL A   1      33.340  25.094  23.265  1.00  0.00    -0.339 N 
ATOM      9  O   UNL A   1      35.319  23.981  22.952  1.00  0.00    -0.271 OA
ATOM     10  C   UNL A   1      34.381  24.294  23.679  1.00  0.00     0.258 C 
ATOM     11  H   UNL A   1      32.509  25.108  23.792  1.00  0.00     0.164 HD
BRANCH  10  12
ATOM     12  C   UNL A   1      34.253  23.816  25.131  1.00  0.00     0.329 C 
BRANCH  12  13
ATOM     13  O   UNL A   1      35.009  22.637  25.429  1.00  0.00    -0.484 OA
BRANCH  13  14
ATOM     14  C   UNL A   1      34.307  21.482  25.185  1.00  0.00     0.120 A 
ATOM     15  C   UNL A   1      32.905  21.480  25.109  1.00  0.00     0.047 A 
ATOM     16  C   UNL A   1      35.035  20.320  24.916  1.00  0.00     0.050 A 
ATOM     17  C   UNL A   1      32.209  20.309  24.800  1.00  0.00     0.008 A 
ATOM     18  C   UNL A   1      34.334  19.165  24.598  1.00  0.00    -0.041 A 
ATOM     19  C   UNL A   1      32.935  19.162  24.543  1.00  0.00    -0.045 A 
ATOM     20  C   UNL A   1      34.872  17.796  24.314  1.00  0.00     0.036 C 
ATOM     21  C   UNL A   1      32.411  17.799  24.218  1.00  0.00     0.036 C 
ATOM     22  C   UNL A   1      33.663  17.134  23.634  1.00  0.00     0.010 C 
ENDBRANCH  13  14
ENDBRANCH  12  13
ENDBRANCH  10  12
ENDBRANCH   7   8
BRANCH   7  23
ATOM     23  C   UNL A   1      32.535  25.498  20.894  1.00  0.00     0.191 C 
BRANCH  23  24
ATOM     24  O   UNL A   1      33.041  25.871  19.612  1.00  0.00    -0.394 OA
ATOM     25  H   UNL A   1      33.427  25.095  19.178  1.00  0.00     0.210 HD
ENDBRANCH  23  24
ENDBRANCH   7  23
ENDBRANCH   4   7
ENDBRANCH   2   3
ENDBRANCH   1   2
BRANCH   1  26
ATOM     26  C   UNL A   1      30.904  26.242  25.593  1.00  0.00     0.002 C 
BRANCH  26  27
ATOM     27  C   UNL A   1      32.106  26.534  26.497  1.00  0.00     0.002 C 
BRANCH  27  28
ATOM     28  C   UNL A   1      32.148  27.946  27.087  1.00  0.00     0.021 C 
BRANCH  28  29
ATOM     29  C   UNL A   1      33.541  28.553  27.182  1.00  0.00     0.116 C 
BRANCH  29  30
ATOM     30  N   UNL A   1      33.503  29.977  27.474  1.00  0.00    -0.352 N 
ATOM     31  C   UNL A   1      34.447  30.756  28.093  1.00  0.00     0.251 C 
ATOM     32  H   UNL A   1      32.687  30.447  27.186  1.00  0.00     0.163 HD
ATOM     33  O   UNL A   1      34.184  31.909  28.424  1.00  0.00    -0.269 OA
BRANCH  31  34
ATOM     34  C   UNL A   1      35.783  30.193  28.378  1.00  0.00     0.039 A 
ATOM     35  C   UNL A   1      36.768  30.250  27.389  1.00  0.00     0.014 A 
ATOM     36  C   UNL A   1      36.060  29.619  29.621  1.00  0.00     0.014 A 
ATOM     37  C   UNL A   1      38.052  29.777  27.668  1.00  0.00     0.010 A 
ATOM     38  C   UNL A   1      37.359  29.223  29.923  1.00  0.00     0.010 A 
ATOM     39  C   UNL A   1      38.365  29.288  28.946  1.00  0.00    -0.014 A 
BRANCH  39  40
ATOM     40  C   UNL A   1      39.731  28.816  29.283  1.00  0.00     0.031 A 
ATOM     41  C   UNL A   1      40.674  29.722  30.027  1.00  0.00     0.074 A 
ATOM     42  C   UNL A   1      40.147  27.605  28.862  1.00  0.00     0.049 A 
ATOM     43  N   UNL A   1      41.932  29.532  30.334  1.00  0.00    -0.248 NA
ATOM     44  C   UNL A   1      40.139  31.024  30.458  1.00  0.00     0.031 C 
ATOM     45  C   UNL A   1      39.340  26.644  28.110  1.00  0.00     0.029 A 
ATOM     46  N   UNL A   1      41.362  26.983  29.001  1.00  0.00    -0.354 N 
ATOM     47  C   UNL A   1      42.342  30.697  30.973  1.00  0.00     0.074 A 
ATOM     48  C   UNL A   1      41.217  31.605  30.961  1.00  0.00     0.031 C 
ATOM     49  C   UNL A   1      40.073  25.543  27.875  1.00  0.00     0.029 A 
ATOM     50  C   UNL A   1      41.414  25.740  28.416  1.00  0.00     0.049 A 
ATOM     51  H   UNL A   1      42.124  27.387  29.475  1.00  0.00     0.167 HD
ATOM     52  C   UNL A   1      43.540  30.978  31.536  1.00  0.00     0.031 A 
ATOM     53  C   UNL A   1      42.432  24.864  28.316  1.00  0.00     0.031 A 
ATOM     54  C   UNL A   1      44.657  30.070  31.555  1.00  0.00     0.049 A 
ATOM     55  C   UNL A   1      43.763  25.212  28.923  1.00  0.00     0.074 A 
ATOM     56  C   UNL A   1      45.896  30.241  32.142  1.00  0.00     0.029 A 
ATOM     57  N   UNL A   1      44.666  28.820  30.954  1.00  0.00    -0.354 N 
ATOM     58  N   UNL A   1      44.118  26.293  29.574  1.00  0.00    -0.248 NA
ATOM     59  C   UNL A   1      44.832  24.212  28.789  1.00  0.00     0.031 C 
ATOM     60  C   UNL A   1      46.678  29.120  31.848  1.00  0.00     0.029 A 
ATOM     61  C   UNL A   1      45.901  28.220  31.135  1.00  0.00     0.049 A 
ATOM     62  H   UNL A   1      43.908  28.419  30.470  1.00  0.00     0.167 HD
ATOM     63  C   UNL A   1      45.437  26.087  29.960  1.00  0.00     0.074 A 
ATOM     64  C   UNL A   1      45.814  24.776  29.478  1.00  0.00     0.031 C 
ATOM     65  C   UNL A   1      46.260  26.911  30.654  1.00  0.00     0.031 A 
BRANCH  52  66
ATOM     66  C   UNL A   1      43.709  32.333  32.167  1.00  0.00    -0.014 A 
ATOM     67  C   UNL A   1      44.170  33.434  31.424  1.00  0.00     0.009 A 
ATOM     68  C   UNL A   1      43.375  32.521  33.517  1.00  0.00     0.009 A 
ATOM     69  C   UNL A   1      44.333  34.680  32.031  1.00  0.00     0.001 A 
ATOM     70  C   UNL A   1      43.507  33.776  34.112  1.00  0.00     0.001 A 
ATOM     71  C   UNL A   1      43.997  34.852  33.373  1.00  0.00     0.000 A 
ENDBRANCH  52  66
BRANCH  53  72
ATOM     72  C   UNL A   1      42.232  23.565  27.619  1.00  0.00    -0.014 A 
ATOM     73  C   UNL A   1      41.759  22.446  28.322  1.00  0.00     0.009 A 
ATOM     74  C   UNL A   1      42.522  23.433  26.252  1.00  0.00     0.009 A 
ATOM     75  C   UNL A   1      41.610  21.216  27.677  1.00  0.00     0.001 A 
ATOM     76  C   UNL A   1      42.343  22.210  25.603  1.00  0.00     0.001 A 
ATOM     77  C   UNL A   1      41.898  21.100  26.319  1.00  0.00     0.000 A 
ENDBRANCH  53  72
BRANCH  65  78
ATOM     78  C   UNL A   1      47.636  26.399  30.983  1.00  0.00    -0.014 A 
ATOM     79  C   UNL A   1      47.901  25.727  32.186  1.00  0.00     0.009 A 
ATOM     80  C   UNL A   1      48.670  26.549  30.046  1.00  0.00     0.009 A 
ATOM     81  C   UNL A   1      49.184  25.246  32.457  1.00  0.00     0.001 A 
ATOM     82  C   UNL A   1      49.942  26.038  30.303  1.00  0.00     0.001 A 
ATOM     83  C   UNL A   1      50.200  25.394  31.513  1.00  0.00     0.000 A 
ENDBRANCH  65  78
ENDBRANCH  39  40
ENDBRANCH  31  34
ENDBRANCH  29  30
ENDBRANCH  28  29
ENDBRANCH  27  28
ENDBRANCH  26  27
ENDBRANCH   1  26
TORSDOF 19
ENDMDL
MODEL 3
REMARK VINA RESULT:     -10.4      3.285      7.318
REMARK SMILES O=C(COc1ccc2c(c1)CCC2)N[C@@H](CO)C(=O)NCCCCCCNC(=O)c1ccc(-c2c3nc(c(-c4ccccc4)c4ccc([nH]4)c(-c4ccccc4)c4nc(c(-c5ccccc5)c5ccc2[nH]5)C=C4)C=C3)cc1
REMARK SMILES IDX 22 1 21 2 20 3 18 4 19 5 15 7 14 8 1 9 2 10 3 12 4 13 5 14
REMARK SMILES IDX 6 15 10 16 7 17 9 18 8 19 11 20 13 21 12 22 16 23 17 24
REMARK SMILES IDX 23 26 24 27 25 28 26 29 27 30 28 31 29 33 30 34 31 35 77 36
REMARK SMILES IDX 32 37 76 38 33 39 34 40 35 41 70 42 36 43 75 44 69 45 71 46
REMARK SMILES IDX 37 47 74 48 68 49 67 50 38 52 60 53 45 54 59 55 46 56 49 57
REMARK SMILES IDX 58 58 72 59 47 60 48 61 57 63 73 64 50 65 39 66 40 67 44 68
REMARK SMILES IDX 41 69 43 70 42 71 61 72 62 73 66 74 63 75 65 76 64 77 51 78
REMARK SMILES IDX 52 79 56 80 53 81 55 82 54 83
REMARK H PARENT 20 6 14 11 17 25 27 32 71 51 49 62
REMARK Flexibility Score: inf
ROOT
ATOM      1  C   UNL A   1      33.675  21.603  27.386  1.00  0.00     0.021 C 
ENDROOT
BRANCH   1   2
ATOM      2  C   UNL A   1      33.793  20.727  26.143  1.00  0.00     0.116 C 
BRANCH   2   3
ATOM      3  N   UNL A   1      33.050  19.490  26.293  1.00  0.00    -0.354 N 
ATOM      4  C   UNL A   1      32.562  18.626  25.359  1.00  0.00     0.244 C 
ATOM      5  O   UNL A   1      32.140  17.538  25.764  1.00  0.00    -0.273 OA
ATOM      6  H   UNL A   1      32.869  19.232  27.225  1.00  0.00     0.163 HD
BRANCH   4   7
ATOM      7  C   UNL A   1      32.584  18.946  23.856  1.00  0.00     0.197 C 
BRANCH   7   8
ATOM      8  N   UNL A   1      33.030  20.319  23.616  1.00  0.00    -0.339 N 
ATOM      9  O   UNL A   1      31.585  20.752  21.891  1.00  0.00    -0.271 OA
ATOM     10  C   UNL A   1      32.375  21.154  22.739  1.00  0.00     0.258 C 
ATOM     11  H   UNL A   1      33.822  20.655  24.095  1.00  0.00     0.164 HD
BRANCH  10  12
ATOM     12  C   UNL A   1      32.736  22.635  22.910  1.00  0.00     0.329 C 
BRANCH  12  13
ATOM     13  O   UNL A   1      31.606  23.499  23.076  1.00  0.00    -0.484 OA
BRANCH  13  14
ATOM     14  C   UNL A   1      31.805  24.452  24.044  1.00  0.00     0.120 A 
ATOM     15  C   UNL A   1      31.241  24.325  25.324  1.00  0.00     0.047 A 
ATOM     16  C   UNL A   1      32.671  25.509  23.751  1.00  0.00     0.050 A 
ATOM     17  C   UNL A   1      31.504  25.272  26.317  1.00  0.00     0.008 A 
ATOM     18  C   UNL A   1      32.935  26.437  24.748  1.00  0.00    -0.041 A 
ATOM     19  C   UNL A   1      32.354  26.319  26.016  1.00  0.00    -0.045 A 
ATOM     20  C   UNL A   1      33.784  27.670  24.674  1.00  0.00     0.036 C 
ATOM     21  C   UNL A   1      32.759  27.454  26.903  1.00  0.00     0.036 C 
ATOM     22  C   UNL A   1      33.997  27.978  26.165  1.00  0.00     0.010 C 
ENDBRANCH  13  14
ENDBRANCH  12  13
ENDBRANCH  10  12
ENDBRANCH   7   8
BRANCH   7  23
ATOM     23  C   UNL A   1      33.312  17.864  23.046  1.00  0.00     0.191 C 
BRANCH  23  24
ATOM     24  O   UNL A   1      32.815  16.545  23.269  1.00  0.00    -0.394 OA
ATOM     25  H   UNL A   1      32.308  16.254  22.496  1.00  0.00     0.210 HD
ENDBRANCH  23  24
ENDBRANCH   7  23
ENDBRANCH   4   7
ENDBRANCH   2   3
ENDBRANCH   1   2
BRANCH   1  26
ATOM     26  C   UNL A   1      34.399  22.948  27.282  1.00  0.00     0.002 C 
BRANCH  26  27
ATOM     27  C   UNL A   1      34.858  23.333  25.871  1.00  0.00     0.002 C 
BRANCH  27  28
ATOM     28  C   UNL A   1      36.168  24.121  25.805  1.00  0.00     0.021 C 
BRANCH  28  29
ATOM     29  C   UNL A   1      37.191  23.571  24.820  1.00  0.00     0.116 C 
BRANCH  29  30
ATOM     30  N   UNL A   1      38.046  22.560  25.421  1.00  0.00    -0.352 N 
ATOM     31  C   UNL A   1      39.128  22.726  26.247  1.00  0.00     0.251 C 
ATOM     32  H   UNL A   1      37.815  21.628  25.205  1.00  0.00     0.163 HD
ATOM     33  O   UNL A   1      39.853  21.774  26.523  1.00  0.00    -0.269 OA
BRANCH  31  34
ATOM     34  C   UNL A   1      39.430  24.066  26.791  1.00  0.00     0.039 A 
ATOM     35  C   UNL A   1      39.034  24.374  28.095  1.00  0.00     0.014 A 
ATOM     36  C   UNL A   1      40.109  25.009  26.017  1.00  0.00     0.014 A 
ATOM     37  C   UNL A   1      39.367  25.614  28.642  1.00  0.00     0.010 A 
ATOM     38  C   UNL A   1      40.510  26.211  26.590  1.00  0.00     0.010 A 
ATOM     39  C   UNL A   1      40.134  26.531  27.905  1.00  0.00    -0.014 A 
BRANCH  39  40
ATOM     40  C   UNL A   1      40.538  27.840  28.474  1.00  0.00     0.031 A 
ATOM     41  C   UNL A   1      41.951  28.047  28.946  1.00  0.00     0.074 A 
ATOM     42  C   UNL A   1      39.622  28.816  28.632  1.00  0.00     0.049 A 
ATOM     43  N   UNL A   1      42.477  29.081  29.554  1.00  0.00    -0.248 NA
ATOM     44  C   UNL A   1      42.891  26.936  28.730  1.00  0.00     0.031 C 
ATOM     45  C   UNL A   1      38.214  28.731  28.241  1.00  0.00     0.029 A 
ATOM     46  N   UNL A   1      39.741  30.070  29.175  1.00  0.00    -0.354 N 
ATOM     47  C   UNL A   1      43.797  28.734  29.811  1.00  0.00     0.074 A 
ATOM     48  C   UNL A   1      43.978  27.378  29.342  1.00  0.00     0.031 C 
ATOM     49  C   UNL A   1      37.606  29.892  28.535  1.00  0.00     0.029 A 
ATOM     50  C   UNL A   1      38.567  30.784  29.177  1.00  0.00     0.049 A 
ATOM     51  H   UNL A   1      40.588  30.426  29.530  1.00  0.00     0.167 HD
ATOM     52  C   UNL A   1      44.777  29.483  30.368  1.00  0.00     0.031 A 
ATOM     53  C   UNL A   1      38.292  32.013  29.655  1.00  0.00     0.031 A 
ATOM     54  C   UNL A   1      44.599  30.835  30.826  1.00  0.00     0.049 A 
ATOM     55  C   UNL A   1      39.390  32.813  30.297  1.00  0.00     0.074 A 
ATOM     56  C   UNL A   1      45.540  31.696  31.360  1.00  0.00     0.029 A 
ATOM     57  N   UNL A   1      43.393  31.522  30.806  1.00  0.00    -0.354 N 
ATOM     58  N   UNL A   1      40.648  32.494  30.480  1.00  0.00    -0.248 NA
ATOM     59  C   UNL A   1      39.031  34.151  30.791  1.00  0.00     0.031 C 
ATOM     60  C   UNL A   1      44.894  32.883  31.718  1.00  0.00     0.029 A 
ATOM     61  C   UNL A   1      43.563  32.786  31.344  1.00  0.00     0.049 A 
ATOM     62  H   UNL A   1      42.544  31.163  30.462  1.00  0.00     0.167 HD
ATOM     63  C   UNL A   1      41.238  33.603  31.075  1.00  0.00     0.074 A 
ATOM     64  C   UNL A   1      40.203  34.605  31.211  1.00  0.00     0.031 C 
ATOM     65  C   UNL A   1      42.524  33.775  31.468  1.00  0.00     0.031 A 
BRANCH  52  66
ATOM     66  C   UNL A   1      46.131  28.846  30.527  1.00  0.00    -0.014 A 
ATOM     67  C   UNL A   1      46.472  28.132  31.688  1.00  0.00     0.009 A 
ATOM     68  C   UNL A   1      47.071  28.936  29.488  1.00  0.00     0.009 A 
ATOM     69  C   UNL A   1      47.739  27.561  31.822  1.00  0.00     0.001 A 
ATOM     70  C   UNL A   1      48.324  28.335  29.611  1.00  0.00     0.001 A 
ATOM     71  C   UNL A   1      48.662  27.658  30.782  1.00  0.00     0.000 A 
ENDBRANCH  52  66
BRANCH  53  72
ATOM     72  C   UNL A   1      36.917  32.568  29.535  1.00  0.00    -0.014 A 
ATOM     73  C   UNL A   1      35.986  32.391  30.571  1.00  0.00     0.009 A 
ATOM     74  C   UNL A   1      36.524  33.268  28.384  1.00  0.00     0.009 A 
ATOM     75  C   UNL A   1      34.682  32.876  30.441  1.00  0.00     0.001 A 
ATOM     76  C   UNL A   1      35.230  33.779  28.271  1.00  0.00     0.001 A 
ATOM     77  C   UNL A   1      34.307  33.573  29.294  1.00  0.00     0.000 A 
ENDBRANCH  53  72
BRANCH  65  78
ATOM     78  C   UNL A   1      42.900  35.116  32.037  1.00  0.00    -0.014 A 
ATOM     79  C   UNL A   1      42.696  35.424  33.391  1.00  0.00     0.009 A 
ATOM     80  C   UNL A   1      43.516  36.068  31.209  1.00  0.00     0.009 A 
ATOM     81  C   UNL A   1      43.073  36.671  33.895  1.00  0.00     0.001 A 
ATOM     82  C   UNL A   1      43.922  37.299  31.722  1.00  0.00     0.001 A 
ATOM     83  C   UNL A   1      43.691  37.603  33.063  1.00  0.00     0.000 A 
ENDBRANCH  65  78
ENDBRANCH  39  40
ENDBRANCH  31  34
ENDBRANCH  29  30
ENDBRANCH  28  29
ENDBRANCH  27  28
ENDBRANCH  26  27
ENDBRANCH   1  26
TORSDOF 19
ENDMDL
