MODEL 1
REMARK VINA RESULT:     -11.3      0.000      0.000
REMARK SMILES O=C(NCCCCCCNC(=O)c1ccc2c(c1)=N[C@H](C(F)(F)F)N=2)c1ccc(-c2c3nc(c(-c4ccccc4)c4ccc([nH]4)c(-c4ccccc4)c4nc(c(-c5ccccc5)c5ccc2[nH]5)C=C4)C=C3)cc1
REMARK SMILES IDX 6 1 5 2 4 3 3 4 1 5 2 6 26 8 27 9 73 10 28 11 72 12 29 13
REMARK SMILES IDX 30 14 31 15 66 16 32 17 71 18 65 19 67 20 33 21 70 22 64 23
REMARK SMILES IDX 63 24 34 26 56 27 41 28 55 29 42 30 45 31 54 32 68 33 43 34
REMARK SMILES IDX 44 35 53 37 69 38 46 39 35 40 36 41 40 42 37 43 39 44 38 45
REMARK SMILES IDX 57 46 58 47 62 48 59 49 61 50 60 51 47 52 48 53 52 54 49 55
REMARK SMILES IDX 51 56 50 57 7 58 8 59 9 60 10 61 11 62 12 64 13 65 14 66
REMARK SMILES IDX 18 67 15 68 17 69 16 70 19 71 25 72 20 73 21 74 22 75 23 76
REMARK SMILES IDX 24 77
REMARK H PARENT 3 7 67 25 45 36 10 63
REMARK Flexibility Score: inf
ROOT
ATOM      1  C   UNL A   1      36.361  20.331  24.957  1.00  0.00     0.002 C 
ENDROOT
BRANCH   1   2
ATOM      2  C   UNL A   1      37.679  19.554  24.901  1.00  0.00     0.021 C 
BRANCH   2   3
ATOM      3  C   UNL A   1      38.829  20.147  25.708  1.00  0.00     0.116 C 
BRANCH   3   4
ATOM      4  N   UNL A   1      40.003  19.292  25.720  1.00  0.00    -0.352 N 
ATOM      5  O   UNL A   1      42.183  18.750  25.818  1.00  0.00    -0.269 OA
ATOM      6  C   UNL A   1      41.305  19.595  26.014  1.00  0.00     0.251 C 
ATOM      7  H   UNL A   1      39.836  18.352  25.481  1.00  0.00     0.163 HD
BRANCH   6   8
ATOM      8  C   UNL A   1      41.684  20.921  26.549  1.00  0.00     0.039 A 
ATOM      9  C   UNL A   1      41.558  21.143  27.924  1.00  0.00     0.014 A 
ATOM     10  C   UNL A   1      42.097  21.964  25.713  1.00  0.00     0.014 A 
ATOM     11  C   UNL A   1      41.868  22.395  28.462  1.00  0.00     0.010 A 
ATOM     12  C   UNL A   1      42.469  23.192  26.259  1.00  0.00     0.010 A 
ATOM     13  C   UNL A   1      42.337  23.427  27.635  1.00  0.00    -0.014 A 
BRANCH  13  14
ATOM     14  C   UNL A   1      42.642  24.767  28.198  1.00  0.00     0.031 A 
ATOM     15  C   UNL A   1      44.057  25.134  28.554  1.00  0.00     0.074 A 
ATOM     16  C   UNL A   1      41.649  25.653  28.395  1.00  0.00     0.049 A 
ATOM     17  N   UNL A   1      44.518  26.260  29.038  1.00  0.00    -0.248 NA
ATOM     18  C   UNL A   1      45.085  24.100  28.358  1.00  0.00     0.031 C 
ATOM     19  C   UNL A   1      40.234  25.414  28.111  1.00  0.00     0.029 A 
ATOM     20  N   UNL A   1      41.681  26.942  28.868  1.00  0.00    -0.354 N 
ATOM     21  C   UNL A   1      45.883  26.066  29.207  1.00  0.00     0.074 A 
ATOM     22  C   UNL A   1      46.168  24.700  28.829  1.00  0.00     0.031 C 
ATOM     23  C   UNL A   1      39.539  26.532  28.374  1.00  0.00     0.029 A 
ATOM     24  C   UNL A   1      40.452  27.555  28.876  1.00  0.00     0.049 A 
ATOM     25  H   UNL A   1      42.506  27.383  29.174  1.00  0.00     0.167 HD
ATOM     26  C   UNL A   1      46.821  26.953  29.616  1.00  0.00     0.031 A 
ATOM     27  C   UNL A   1      40.098  28.805  29.234  1.00  0.00     0.031 A 
ATOM     28  C   UNL A   1      46.543  28.316  29.977  1.00  0.00     0.049 A 
ATOM     29  C   UNL A   1      41.152  29.767  29.706  1.00  0.00     0.074 A 
ATOM     30  C   UNL A   1      47.437  29.303  30.355  1.00  0.00     0.029 A 
ATOM     31  N   UNL A   1      45.280  28.886  30.003  1.00  0.00    -0.354 N 
ATOM     32  N   UNL A   1      42.445  29.581  29.816  1.00  0.00    -0.248 NA
ATOM     33  C   UNL A   1      40.701  31.110  30.095  1.00  0.00     0.031 C 
ATOM     34  C   UNL A   1      46.709  30.455  30.663  1.00  0.00     0.029 A 
ATOM     35  C   UNL A   1      45.368  30.204  30.419  1.00  0.00     0.049 A 
ATOM     36  H   UNL A   1      44.446  28.423  29.763  1.00  0.00     0.167 HD
ATOM     37  C   UNL A   1      42.963  30.785  30.274  1.00  0.00     0.074 A 
ATOM     38  C   UNL A   1      41.848  31.701  30.405  1.00  0.00     0.031 C 
ATOM     39  C   UNL A   1      44.249  31.101  30.561  1.00  0.00     0.031 A 
BRANCH  26  40
ATOM     40  C   UNL A   1      48.246  26.477  29.687  1.00  0.00    -0.014 A 
ATOM     41  C   UNL A   1      48.733  25.898  30.869  1.00  0.00     0.009 A 
ATOM     42  C   UNL A   1      49.124  26.659  28.607  1.00  0.00     0.009 A 
ATOM     43  C   UNL A   1      50.070  25.510  30.968  1.00  0.00     0.001 A 
ATOM     44  C   UNL A   1      50.454  26.245  28.699  1.00  0.00     0.001 A 
ATOM     45  C   UNL A   1      50.928  25.678  29.882  1.00  0.00     0.000 A 
ENDBRANCH  26  40
BRANCH  27  46
ATOM     46  C   UNL A   1      38.676  29.220  29.113  1.00  0.00    -0.014 A 
ATOM     47  C   UNL A   1      38.188  29.764  27.915  1.00  0.00     0.009 A 
ATOM     48  C   UNL A   1      37.817  29.125  30.218  1.00  0.00     0.009 A 
ATOM     49  C   UNL A   1      36.873  30.227  27.833  1.00  0.00     0.001 A 
ATOM     50  C   UNL A   1      36.495  29.568  30.124  1.00  0.00     0.001 A 
ATOM     51  C   UNL A   1      36.027  30.127  28.936  1.00  0.00     0.000 A 
ENDBRANCH  27  46
BRANCH  39  52
ATOM     52  C   UNL A   1      44.539  32.491  31.051  1.00  0.00    -0.014 A 
ATOM     53  C   UNL A   1      44.471  32.777  32.424  1.00  0.00     0.009 A 
ATOM     54  C   UNL A   1      44.777  33.538  30.148  1.00  0.00     0.009 A 
ATOM     55  C   UNL A   1      44.622  34.087  32.882  1.00  0.00     0.001 A 
ATOM     56  C   UNL A   1      44.955  34.843  30.611  1.00  0.00     0.001 A 
ATOM     57  C   UNL A   1      44.866  35.117  31.976  1.00  0.00     0.000 A 
ENDBRANCH  39  52
ENDBRANCH  13  14
ENDBRANCH   6   8
ENDBRANCH   3   4
ENDBRANCH   2   3
ENDBRANCH   1   2
BRANCH   1  58
ATOM     58  C   UNL A   1      36.444  21.811  24.571  1.00  0.00     0.002 C 
BRANCH  58  59
ATOM     59  C   UNL A   1      36.095  22.810  25.678  1.00  0.00     0.021 C 
BRANCH  59  60
ATOM     60  C   UNL A   1      35.262  24.013  25.238  1.00  0.00     0.116 C 
BRANCH  60  61
ATOM     61  N   UNL A   1      34.109  24.227  26.094  1.00  0.00    -0.352 N 
ATOM     62  C   UNL A   1      32.919  23.566  26.130  1.00  0.00     0.251 C 
ATOM     63  H   UNL A   1      34.199  24.961  26.745  1.00  0.00     0.163 HD
ATOM     64  O   UNL A   1      32.014  23.954  26.868  1.00  0.00    -0.269 OA
BRANCH  62  65
ATOM     65  C   UNL A   1      32.735  22.377  25.256  1.00  0.00     0.042 A 
ATOM     66  C   UNL A   1      32.535  22.532  23.821  1.00  0.00     0.016 A 
ATOM     67  C   UNL A   1      32.815  21.182  25.864  1.00  0.00     0.044 A 
ATOM     68  C   UNL A   1      32.353  21.496  22.992  1.00  0.00     0.031 A 
ATOM     69  C   UNL A   1      32.638  19.993  25.026  1.00  0.00     0.087 A 
ATOM     70  C   UNL A   1      32.401  20.154  23.576  1.00  0.00     0.086 A 
ATOM     71  N   UNL A   1      32.628  18.755  25.384  1.00  0.00    -0.247 NA
ATOM     72  N   UNL A   1      32.245  19.030  22.975  1.00  0.00    -0.247 NA
ATOM     73  C   UNL A   1      32.442  18.024  24.077  1.00  0.00     0.326 C 
BRANCH  73  74
ATOM     74  C   UNL A   1      33.617  17.042  23.772  1.00  0.00     0.431 C 
ATOM     75  F   UNL A   1      33.906  16.987  22.449  1.00  0.00    -0.167 F 
ATOM     76  F   UNL A   1      34.746  17.416  24.422  1.00  0.00    -0.167 F 
ATOM     77  F   UNL A   1      33.336  15.777  24.167  1.00  0.00    -0.167 F 
ENDBRANCH  73  74
ENDBRANCH  62  65
ENDBRANCH  60  61
ENDBRANCH  59  60
ENDBRANCH  58  59
ENDBRANCH   1  58
TORSDOF 14
ENDMDL
MODEL 2
REMARK VINA RESULT:     -11.3      0.270      5.970
REMARK SMILES O=C(NCCCCCCNC(=O)c1ccc2c(c1)=N[C@H](C(F)(F)F)N=2)c1ccc(-c2c3nc(c(-c4ccccc4)c4ccc([nH]4)c(-c4ccccc4)c4nc(c(-c5ccccc5)c5ccc2[nH]5)C=C4)C=C3)cc1
REMARK SMILES IDX 6 1 5 2 4 3 3 4 1 5 2 6 26 8 27 9 73 10 28 11 72 12 29 13
REMARK SMILES IDX 30 14 31 15 66 16 32 17 71 18 65 19 67 20 33 21 70 22 64 23
REMARK SMILES IDX 63 24 34 26 56 27 41 28 55 29 42 30 45 31 54 32 68 33 43 34
REMARK SMILES IDX 44 35 53 37 69 38 46 39 35 40 36 41 40 42 37 43 39 44 38 45
REMARK SMILES IDX 57 46 58 47 62 48 59 49 61 50 60 51 47 52 48 53 52 54 49 55
REMARK SMILES IDX 51 56 50 57 7 58 8 59 9 60 10 61 11 62 12 64 13 65 14 66
REMARK SMILES IDX 18 67 15 68 17 69 16 70 19 71 25 72 20 73 21 74 22 75 23 76
REMARK SMILES IDX 24 77
REMARK H PARENT 3 7 67 25 45 36 10 63
REMARK Flexibility Score: inf
ROOT
ATOM      1  C   UNL A   1      36.266  20.602  24.995  1.00  0.00     0.002 C 
ENDROOT
BRANCH   1   2
ATOM      2  C   UNL A   1      37.599  19.864  24.845  1.00  0.00     0.021 C 
BRANCH   2   3
ATOM      3  C   UNL A   1      38.741  20.384  25.711  1.00  0.00     0.116 C 
BRANCH   3   4
ATOM      4  N   UNL A   1      39.857  19.458  25.781  1.00  0.00    -0.352 N 
ATOM      5  O   UNL A   1      41.996  18.782  25.944  1.00  0.00    -0.269 OA
ATOM      6  C   UNL A   1      41.171  19.689  26.087  1.00  0.00     0.251 C 
ATOM      7  H   UNL A   1      39.635  18.520  25.577  1.00  0.00     0.163 HD
BRANCH   6   8
ATOM      8  C   UNL A   1      41.626  21.010  26.575  1.00  0.00     0.039 A 
ATOM      9  C   UNL A   1      41.511  21.289  27.941  1.00  0.00     0.014 A 
ATOM     10  C   UNL A   1      42.100  21.996  25.704  1.00  0.00     0.014 A 
ATOM     11  C   UNL A   1      41.892  22.539  28.434  1.00  0.00     0.010 A 
ATOM     12  C   UNL A   1      42.542  23.219  26.205  1.00  0.00     0.010 A 
ATOM     13  C   UNL A   1      42.422  23.511  27.572  1.00  0.00    -0.014 A 
BRANCH  13  14
ATOM     14  C   UNL A   1      42.804  24.850  28.086  1.00  0.00     0.031 A 
ATOM     15  C   UNL A   1      41.756  25.912  28.287  1.00  0.00     0.074 A 
ATOM     16  C   UNL A   1      44.092  25.118  28.370  1.00  0.00     0.049 A 
ATOM     17  N   UNL A   1      41.896  27.130  28.745  1.00  0.00    -0.248 NA
ATOM     18  C   UNL A   1      40.376  25.567  27.912  1.00  0.00     0.031 C 
ATOM     19  C   UNL A   1      45.206  24.184  28.200  1.00  0.00     0.029 A 
ATOM     20  N   UNL A   1      44.680  26.251  28.875  1.00  0.00    -0.354 N 
ATOM     21  C   UNL A   1      40.627  27.695  28.705  1.00  0.00     0.074 A 
ATOM     22  C   UNL A   1      39.741  26.709  28.129  1.00  0.00     0.031 C 
ATOM     23  C   UNL A   1      46.336  24.767  28.634  1.00  0.00     0.029 A 
ATOM     24  C   UNL A   1      46.032  26.124  29.081  1.00  0.00     0.049 A 
ATOM     25  H   UNL A   1      44.181  27.077  29.069  1.00  0.00     0.167 HD
ATOM     26  C   UNL A   1      40.229  28.916  29.135  1.00  0.00     0.031 A 
ATOM     27  C   UNL A   1      46.929  26.995  29.584  1.00  0.00     0.031 A 
ATOM     28  C   UNL A   1      41.105  29.892  29.723  1.00  0.00     0.049 A 
ATOM     29  C   UNL A   1      46.469  28.353  30.035  1.00  0.00     0.074 A 
ATOM     30  C   UNL A   1      40.782  31.137  30.234  1.00  0.00     0.029 A 
ATOM     31  N   UNL A   1      42.472  29.735  29.881  1.00  0.00    -0.354 N 
ATOM     32  N   UNL A   1      45.257  28.853  30.033  1.00  0.00    -0.248 NA
ATOM     33  C   UNL A   1      47.496  29.261  30.563  1.00  0.00     0.031 C 
ATOM     34  C   UNL A   1      41.963  31.756  30.653  1.00  0.00     0.029 A 
ATOM     35  C   UNL A   1      43.013  30.872  30.456  1.00  0.00     0.049 A 
ATOM     36  H   UNL A   1      42.983  28.934  29.624  1.00  0.00     0.167 HD
ATOM     37  C   UNL A   1      45.374  30.129  30.571  1.00  0.00     0.074 A 
ATOM     38  C   UNL A   1      46.771  30.320  30.903  1.00  0.00     0.031 C 
ATOM     39  C   UNL A   1      44.407  31.057  30.768  1.00  0.00     0.031 A 
BRANCH  26  40
ATOM     40  C   UNL A   1      38.773  29.264  28.992  1.00  0.00    -0.014 A 
ATOM     41  C   UNL A   1      37.902  29.090  30.079  1.00  0.00     0.009 A 
ATOM     42  C   UNL A   1      38.252  29.704  27.766  1.00  0.00     0.009 A 
ATOM     43  C   UNL A   1      36.538  29.350  29.940  1.00  0.00     0.001 A 
ATOM     44  C   UNL A   1      36.890  29.990  27.638  1.00  0.00     0.001 A 
ATOM     45  C   UNL A   1      36.034  29.805  28.723  1.00  0.00     0.000 A 
ENDBRANCH  26  40
BRANCH  27  46
ATOM     46  C   UNL A   1      48.347  26.577  29.725  1.00  0.00    -0.014 A 
ATOM     47  C   UNL A   1      49.282  26.861  28.717  1.00  0.00     0.009 A 
ATOM     48  C   UNL A   1      48.758  25.839  30.845  1.00  0.00     0.009 A 
ATOM     49  C   UNL A   1      50.594  26.394  28.817  1.00  0.00     0.001 A 
ATOM     50  C   UNL A   1      50.079  25.395  30.953  1.00  0.00     0.001 A 
ATOM     51  C   UNL A   1      50.992  25.664  29.935  1.00  0.00     0.000 A 
ENDBRANCH  27  46
BRANCH  39  52
ATOM     52  C   UNL A   1      44.811  32.375  31.368  1.00  0.00    -0.014 A 
ATOM     53  C   UNL A   1      44.775  32.550  32.760  1.00  0.00     0.009 A 
ATOM     54  C   UNL A   1      45.127  33.471  30.551  1.00  0.00     0.009 A 
ATOM     55  C   UNL A   1      45.034  33.800  33.323  1.00  0.00     0.001 A 
ATOM     56  C   UNL A   1      45.411  34.714  31.118  1.00  0.00     0.001 A 
ATOM     57  C   UNL A   1      45.354  34.880  32.502  1.00  0.00     0.000 A 
ENDBRANCH  39  52
ENDBRANCH  13  14
ENDBRANCH   6   8
ENDBRANCH   3   4
ENDBRANCH   2   3
ENDBRANCH   1   2
BRANCH   1  58
ATOM     58  C   UNL A   1      36.268  22.074  24.574  1.00  0.00     0.002 C 
BRANCH  58  59
ATOM     59  C   UNL A   1      35.942  23.084  25.678  1.00  0.00     0.021 C 
BRANCH  59  60
ATOM     60  C   UNL A   1      35.022  24.232  25.265  1.00  0.00     0.116 C 
BRANCH  60  61
ATOM     61  N   UNL A   1      33.865  24.351  26.136  1.00  0.00    -0.352 N 
ATOM     62  C   UNL A   1      32.720  23.616  26.164  1.00  0.00     0.251 C 
ATOM     63  H   UNL A   1      33.916  25.071  26.806  1.00  0.00     0.163 HD
ATOM     64  O   UNL A   1      31.799  23.927  26.919  1.00  0.00    -0.269 OA
BRANCH  62  65
ATOM     65  C   UNL A   1      32.601  22.442  25.258  1.00  0.00     0.042 A 
ATOM     66  C   UNL A   1      32.436  22.623  23.822  1.00  0.00     0.016 A 
ATOM     67  C   UNL A   1      32.704  21.237  25.842  1.00  0.00     0.044 A 
ATOM     68  C   UNL A   1      32.313  21.600  22.966  1.00  0.00     0.031 A 
ATOM     69  C   UNL A   1      32.591  20.062  24.974  1.00  0.00     0.087 A 
ATOM     70  C   UNL A   1      32.390  20.248  23.522  1.00  0.00     0.086 A 
ATOM     71  N   UNL A   1      32.614  18.816  25.304  1.00  0.00    -0.247 NA
ATOM     72  N   UNL A   1      32.289  19.133  22.892  1.00  0.00    -0.247 NA
ATOM     73  C   UNL A   1      32.490  18.110  23.977  1.00  0.00     0.326 C 
BRANCH  73  74
ATOM     74  C   UNL A   1      33.706  17.175  23.685  1.00  0.00     0.431 C 
ATOM     75  F   UNL A   1      34.839  17.608  24.289  1.00  0.00    -0.167 F 
ATOM     76  F   UNL A   1      33.466  15.914  24.118  1.00  0.00    -0.167 F 
ATOM     77  F   UNL A   1      33.974  17.092  22.359  1.00  0.00    -0.167 F 
ENDBRANCH  73  74
ENDBRANCH  62  65
ENDBRANCH  60  61
ENDBRANCH  59  60
ENDBRANCH  58  59
ENDBRANCH   1  58
TORSDOF 14
ENDMDL
MODEL 3
REMARK VINA RESULT:     -11.1      5.281      9.520
REMARK SMILES O=C(NCCCCCCNC(=O)c1ccc2c(c1)=N[C@H](C(F)(F)F)N=2)c1ccc(-c2c3nc(c(-c4ccccc4)c4ccc([nH]4)c(-c4ccccc4)c4nc(c(-c5ccccc5)c5ccc2[nH]5)C=C4)C=C3)cc1
REMARK SMILES IDX 6 1 5 2 4 3 3 4 1 5 2 6 26 8 27 9 73 10 28 11 72 12 29 13
REMARK SMILES IDX 30 14 31 15 66 16 32 17 71 18 65 19 67 20 33 21 70 22 64 23
REMARK SMILES IDX 63 24 34 26 56 27 41 28 55 29 42 30 45 31 54 32 68 33 43 34
REMARK SMILES IDX 44 35 53 37 69 38 46 39 35 40 36 41 40 42 37 43 39 44 38 45
REMARK SMILES IDX 57 46 58 47 62 48 59 49 61 50 60 51 47 52 48 53 52 54 49 55
REMARK SMILES IDX 51 56 50 57 7 58 8 59 9 60 10 61 11 62 12 64 13 65 14 66
REMARK SMILES IDX 18 67 15 68 17 69 16 70 19 71 25 72 20 73 21 74 22 75 23 76
REMARK SMILES IDX 24 77
REMARK H PARENT 3 7 67 25 45 36 10 63
REMARK Flexibility Score: inf
ROOT
ATOM      1  C   UNL A   1      31.608  29.921  25.389  1.00  0.00     0.002 C 
ENDROOT
BRANCH   1   2
ATOM      2  C   UNL A   1      31.314  31.232  26.124  1.00  0.00     0.021 C 
BRANCH   2   3
ATOM      3  C   UNL A   1      32.413  31.723  27.061  1.00  0.00     0.116 C 
BRANCH   3   4
ATOM      4  N   UNL A   1      32.265  33.124  27.409  1.00  0.00    -0.352 N 
ATOM      5  O   UNL A   1      32.666  35.055  28.490  1.00  0.00    -0.269 OA
ATOM      6  C   UNL A   1      33.052  33.919  28.199  1.00  0.00     0.251 C 
ATOM      7  H   UNL A   1      31.480  33.571  27.017  1.00  0.00     0.163 HD
BRANCH   6   8
ATOM      8  C   UNL A   1      34.350  33.439  28.722  1.00  0.00     0.039 A 
ATOM      9  C   UNL A   1      35.497  33.654  27.951  1.00  0.00     0.014 A 
ATOM     10  C   UNL A   1      34.444  32.727  29.922  1.00  0.00     0.014 A 
ATOM     11  C   UNL A   1      36.735  33.180  28.392  1.00  0.00     0.010 A 
ATOM     12  C   UNL A   1      35.689  32.312  30.393  1.00  0.00     0.010 A 
ATOM     13  C   UNL A   1      36.844  32.515  29.623  1.00  0.00    -0.014 A 
BRANCH  13  14
ATOM     14  C   UNL A   1      38.152  31.987  30.083  1.00  0.00     0.031 A 
ATOM     15  C   UNL A   1      38.666  30.674  29.559  1.00  0.00     0.074 A 
ATOM     16  C   UNL A   1      38.880  32.683  30.977  1.00  0.00     0.049 A 
ATOM     17  N   UNL A   1      39.792  30.062  29.829  1.00  0.00    -0.248 NA
ATOM     18  C   UNL A   1      37.797  29.943  28.622  1.00  0.00     0.031 C 
ATOM     19  C   UNL A   1      38.486  33.957  31.578  1.00  0.00     0.029 A 
ATOM     20  N   UNL A   1      40.111  32.421  31.525  1.00  0.00    -0.354 N 
ATOM     21  C   UNL A   1      39.762  28.879  29.102  1.00  0.00     0.074 A 
ATOM     22  C   UNL A   1      38.486  28.829  28.424  1.00  0.00     0.031 C 
ATOM     23  C   UNL A   1      39.475  34.388  32.378  1.00  0.00     0.029 A 
ATOM     24  C   UNL A   1      40.557  33.407  32.371  1.00  0.00     0.049 A 
ATOM     25  H   UNL A   1      40.626  31.605  31.330  1.00  0.00     0.167 HD
ATOM     26  C   UNL A   1      40.721  27.930  28.988  1.00  0.00     0.031 A 
ATOM     27  C   UNL A   1      41.710  33.518  33.059  1.00  0.00     0.031 A 
ATOM     28  C   UNL A   1      41.996  27.984  29.648  1.00  0.00     0.049 A 
ATOM     29  C   UNL A   1      42.752  32.442  32.935  1.00  0.00     0.074 A 
ATOM     30  C   UNL A   1      43.051  27.094  29.552  1.00  0.00     0.029 A 
ATOM     31  N   UNL A   1      42.392  28.983  30.523  1.00  0.00    -0.354 N 
ATOM     32  N   UNL A   1      42.726  31.352  32.207  1.00  0.00    -0.248 NA
ATOM     33  C   UNL A   1      43.983  32.615  33.719  1.00  0.00     0.031 C 
ATOM     34  C   UNL A   1      44.065  27.525  30.411  1.00  0.00     0.029 A 
ATOM     35  C   UNL A   1      43.665  28.715  30.997  1.00  0.00     0.049 A 
ATOM     36  H   UNL A   1      41.849  29.766  30.771  1.00  0.00     0.167 HD
ATOM     37  C   UNL A   1      43.940  30.716  32.434  1.00  0.00     0.074 A 
ATOM     38  C   UNL A   1      44.686  31.549  33.354  1.00  0.00     0.031 C 
ATOM     39  C   UNL A   1      44.392  29.544  31.925  1.00  0.00     0.031 A 
BRANCH  26  40
ATOM     40  C   UNL A   1      40.430  26.748  28.104  1.00  0.00    -0.014 A 
ATOM     41  C   UNL A   1      39.708  25.657  28.610  1.00  0.00     0.009 A 
ATOM     42  C   UNL A   1      40.924  26.687  26.793  1.00  0.00     0.009 A 
ATOM     43  C   UNL A   1      39.485  24.528  27.821  1.00  0.00     0.001 A 
ATOM     44  C   UNL A   1      40.676  25.568  25.994  1.00  0.00     0.001 A 
ATOM     45  C   UNL A   1      39.964  24.486  26.512  1.00  0.00     0.000 A 
ENDBRANCH  26  40
BRANCH  27  46
ATOM     46  C   UNL A   1      41.946  34.725  33.891  1.00  0.00    -0.014 A 
ATOM     47  C   UNL A   1      42.568  35.860  33.349  1.00  0.00     0.009 A 
ATOM     48  C   UNL A   1      41.601  34.724  35.251  1.00  0.00     0.009 A 
ATOM     49  C   UNL A   1      42.861  36.961  34.156  1.00  0.00     0.001 A 
ATOM     50  C   UNL A   1      41.873  35.837  36.051  1.00  0.00     0.001 A 
ATOM     51  C   UNL A   1      42.511  36.950  35.505  1.00  0.00     0.000 A 
ENDBRANCH  27  46
BRANCH  39  52
ATOM     52  C   UNL A   1      45.756  29.075  32.346  1.00  0.00    -0.014 A 
ATOM     53  C   UNL A   1      45.901  28.293  33.502  1.00  0.00     0.009 A 
ATOM     54  C   UNL A   1      46.904  29.492  31.657  1.00  0.00     0.009 A 
ATOM     55  C   UNL A   1      47.170  27.949  33.970  1.00  0.00     0.001 A 
ATOM     56  C   UNL A   1      48.172  29.124  32.112  1.00  0.00     0.001 A 
ATOM     57  C   UNL A   1      48.304  28.362  33.273  1.00  0.00     0.000 A 
ENDBRANCH  39  52
ENDBRANCH  13  14
ENDBRANCH   6   8
ENDBRANCH   3   4
ENDBRANCH   2   3
ENDBRANCH   1   2
BRANCH   1  58
ATOM     58  C   UNL A   1      31.784  28.685  26.276  1.00  0.00     0.002 C 
BRANCH  58  59
ATOM     59  C   UNL A   1      32.887  27.710  25.851  1.00  0.00     0.021 C 
BRANCH  59  60
ATOM     60  C   UNL A   1      32.459  26.248  25.731  1.00  0.00     0.116 C 
BRANCH  60  61
ATOM     61  N   UNL A   1      32.780  25.685  24.431  1.00  0.00    -0.352 N 
ATOM     62  C   UNL A   1      32.079  25.738  23.265  1.00  0.00     0.251 C 
ATOM     63  H   UNL A   1      33.630  25.191  24.386  1.00  0.00     0.163 HD
ATOM     64  O   UNL A   1      32.467  25.114  22.278  1.00  0.00    -0.269 OA
BRANCH  62  65
ATOM     65  C   UNL A   1      30.835  26.551  23.214  1.00  0.00     0.042 A 
ATOM     66  C   UNL A   1      29.624  26.103  23.889  1.00  0.00     0.016 A 
ATOM     67  C   UNL A   1      30.924  27.720  22.559  1.00  0.00     0.044 A 
ATOM     68  C   UNL A   1      28.476  26.793  23.864  1.00  0.00     0.031 A 
ATOM     69  C   UNL A   1      29.714  28.543  22.493  1.00  0.00     0.087 A 
ATOM     70  C   UNL A   1      28.477  28.071  23.150  1.00  0.00     0.086 A 
ATOM     71  N   UNL A   1      29.543  29.670  21.891  1.00  0.00    -0.247 NA
ATOM     72  N   UNL A   1      27.495  28.884  22.992  1.00  0.00    -0.247 NA
ATOM     73  C   UNL A   1      28.112  30.019  22.221  1.00  0.00     0.326 C 
BRANCH  73  74
ATOM     74  C   UNL A   1      27.992  31.378  22.980  1.00  0.00     0.431 C 
ATOM     75  F   UNL A   1      27.661  32.398  22.151  1.00  0.00    -0.167 F 
ATOM     76  F   UNL A   1      27.046  31.313  23.949  1.00  0.00    -0.167 F 
ATOM     77  F   UNL A   1      29.154  31.725  23.586  1.00  0.00    -0.167 F 
ENDBRANCH  73  74
ENDBRANCH  62  65
ENDBRANCH  60  61
ENDBRANCH  59  60
ENDBRANCH  58  59
ENDBRANCH   1  58
TORSDOF 14
ENDMDL
