MODEL 1
REMARK VINA RESULT:     -10.7      0.000      0.000
REMARK SMILES CC(C)[C@H](NC(=O)Cn1ccc2c(Br)cccc21)C(=O)NCCCCCCNC(=O)c1ccc(-c2c3nc(c(-c4ccccc4)c4ccc([nH]4)c(-c4ccccc4)c4nc(c(-c5ccccc5)c5ccc2[nH]5)C=C4)C=C3)cc1
REMARK SMILES IDX 24 1 23 2 22 3 21 4 19 5 20 6 4 8 2 9 1 10 3 11 5 12 6 13
REMARK SMILES IDX 7 15 8 16 9 17 10 18 18 19 11 20 12 21 17 22 13 23 16 24
REMARK SMILES IDX 14 25 15 26 25 27 26 28 27 29 28 30 29 31 30 33 31 34 32 35
REMARK SMILES IDX 78 36 33 37 77 38 34 39 35 40 36 41 71 42 37 43 76 44 70 45
REMARK SMILES IDX 72 46 38 47 75 48 69 49 68 50 39 52 61 53 46 54 60 55 47 56
REMARK SMILES IDX 50 57 59 58 73 59 48 60 49 61 58 63 74 64 51 65 40 66 41 67
REMARK SMILES IDX 45 68 42 69 44 70 43 71 62 72 63 73 67 74 64 75 66 76 65 77
REMARK SMILES IDX 52 78 53 79 57 80 54 81 56 82 55 83
REMARK H PARENT 21 7 5 14 28 32 72 51 50 62
REMARK Flexibility Score: inf
ROOT
ATOM      1  C   UNL A   1      47.216  25.642  27.189  1.00  0.00     0.002 C 
ENDROOT
BRANCH   1   2
ATOM      2  C   UNL A   1      47.144  24.444  26.237  1.00  0.00     0.021 C 
BRANCH   2   3
ATOM      3  C   UNL A   1      45.807  23.715  26.255  1.00  0.00     0.116 C 
BRANCH   3   4
ATOM      4  N   UNL A   1      45.351  23.360  24.920  1.00  0.00    -0.354 N 
ATOM      5  C   UNL A   1      44.647  22.270  24.483  1.00  0.00     0.242 C 
ATOM      6  O   UNL A   1      44.189  22.306  23.338  1.00  0.00    -0.273 OA
ATOM      7  H   UNL A   1      45.589  24.007  24.217  1.00  0.00     0.163 HD
BRANCH   5   8
ATOM      8  C   UNL A   1      44.315  21.091  25.434  1.00  0.00     0.173 C 
BRANCH   8   9
ATOM      9  C   UNL A   1      45.082  19.799  25.060  1.00  0.00     0.015 C 
ATOM     10  C   UNL A   1      44.473  18.888  23.989  1.00  0.00     0.010 C 
ATOM     11  C   UNL A   1      46.528  20.118  24.664  1.00  0.00     0.010 C 
ENDBRANCH   8   9
BRANCH   8  12
ATOM     12  N   UNL A   1      42.836  21.021  25.551  1.00  0.00    -0.343 N 
ATOM     13  C   UNL A   1      41.837  21.721  26.146  1.00  0.00     0.240 C 
ATOM     14  H   UNL A   1      42.479  20.247  25.059  1.00  0.00     0.164 HD
ATOM     15  O   UNL A   1      40.688  21.309  25.945  1.00  0.00    -0.273 OA
BRANCH  13  16
ATOM     16  C   UNL A   1      42.062  22.924  27.032  1.00  0.00     0.222 C 
BRANCH  16  17
ATOM     17  N   UNL A   1      41.190  24.068  26.762  1.00  0.00    -0.338 N 
ATOM     18  C   UNL A   1      39.932  24.276  27.272  1.00  0.00     0.087 A 
ATOM     19  C   UNL A   1      41.639  25.232  26.156  1.00  0.00     0.050 A 
ATOM     20  C   UNL A   1      39.700  25.634  27.257  1.00  0.00     0.029 A 
ATOM     21  C   UNL A   1      40.774  26.256  26.559  1.00  0.00     0.014 A 
ATOM     22  C   UNL A   1      42.768  25.477  25.358  1.00  0.00     0.027 A 
ATOM     23  C   UNL A   1      41.113  27.585  26.229  1.00  0.00     0.027 A 
ATOM     24  C   UNL A   1      43.038  26.797  24.988  1.00  0.00     0.003 A 
ATOM     25  Br  UNL A   1      40.078  29.038  26.867  1.00  0.00    -0.050 Br
ATOM     26  C   UNL A   1      42.237  27.844  25.437  1.00  0.00     0.016 A 
ENDBRANCH  16  17
ENDBRANCH  13  16
ENDBRANCH   8  12
ENDBRANCH   5   8
ENDBRANCH   3   4
ENDBRANCH   2   3
ENDBRANCH   1   2
BRANCH   1  27
ATOM     27  C   UNL A   1      47.060  25.321  28.683  1.00  0.00     0.002 C 
BRANCH  27  28
ATOM     28  C   UNL A   1      47.780  26.258  29.665  1.00  0.00     0.021 C 
BRANCH  28  29
ATOM     29  C   UNL A   1      46.965  26.605  30.903  1.00  0.00     0.116 C 
BRANCH  29  30
ATOM     30  N   UNL A   1      46.181  25.476  31.381  1.00  0.00    -0.352 N 
ATOM     31  C   UNL A   1      44.890  25.448  31.858  1.00  0.00     0.251 C 
ATOM     32  H   UNL A   1      46.640  24.605  31.359  1.00  0.00     0.163 HD
ATOM     33  O   UNL A   1      44.516  24.515  32.554  1.00  0.00    -0.269 OA
BRANCH  31  34
ATOM     34  C   UNL A   1      43.947  26.537  31.522  1.00  0.00     0.039 A 
ATOM     35  C   UNL A   1      43.596  27.473  32.499  1.00  0.00     0.014 A 
ATOM     36  C   UNL A   1      43.353  26.583  30.260  1.00  0.00     0.014 A 
ATOM     37  C   UNL A   1      42.679  28.470  32.183  1.00  0.00     0.010 A 
ATOM     38  C   UNL A   1      42.531  27.630  29.908  1.00  0.00     0.010 A 
ATOM     39  C   UNL A   1      42.158  28.545  30.880  1.00  0.00    -0.014 A 
BRANCH  39  40
ATOM     40  C   UNL A   1      41.344  29.684  30.484  1.00  0.00     0.031 A 
ATOM     41  C   UNL A   1      42.160  30.838  30.044  1.00  0.00     0.074 A 
ATOM     42  C   UNL A   1      40.001  29.666  30.356  1.00  0.00     0.049 A 
ATOM     43  N   UNL A   1      42.416  31.898  30.731  1.00  0.00    -0.248 NA
ATOM     44  C   UNL A   1      42.919  30.737  28.786  1.00  0.00     0.031 C 
ATOM     45  C   UNL A   1      39.105  28.510  30.464  1.00  0.00     0.029 A 
ATOM     46  N   UNL A   1      39.150  30.676  30.015  1.00  0.00    -0.354 N 
ATOM     47  C   UNL A   1      43.153  32.714  29.885  1.00  0.00     0.074 A 
ATOM     48  C   UNL A   1      43.617  31.876  28.808  1.00  0.00     0.031 C 
ATOM     49  C   UNL A   1      37.882  28.836  29.981  1.00  0.00     0.029 A 
ATOM     50  C   UNL A   1      37.860  30.260  29.697  1.00  0.00     0.049 A 
ATOM     51  H   UNL A   1      39.426  31.621  29.994  1.00  0.00     0.167 HD
ATOM     52  C   UNL A   1      43.012  34.065  29.952  1.00  0.00     0.031 A 
ATOM     53  C   UNL A   1      36.851  31.043  29.243  1.00  0.00     0.031 A 
ATOM     54  C   UNL A   1      42.278  34.458  31.128  1.00  0.00     0.049 A 
ATOM     55  C   UNL A   1      37.131  32.415  29.711  1.00  0.00     0.074 A 
ATOM     56  C   UNL A   1      42.511  34.531  32.483  1.00  0.00     0.029 A 
ATOM     57  N   UNL A   1      40.920  34.430  30.946  1.00  0.00    -0.354 N 
ATOM     58  N   UNL A   1      37.117  32.755  30.968  1.00  0.00    -0.248 NA
ATOM     59  C   UNL A   1      37.746  33.376  28.802  1.00  0.00     0.031 C 
ATOM     60  C   UNL A   1      41.239  34.380  33.115  1.00  0.00     0.029 A 
ATOM     61  C   UNL A   1      40.258  34.268  32.133  1.00  0.00     0.049 A 
ATOM     62  H   UNL A   1      40.477  34.517  30.072  1.00  0.00     0.167 HD
ATOM     63  C   UNL A   1      38.096  33.720  31.058  1.00  0.00     0.074 A 
ATOM     64  C   UNL A   1      38.303  34.196  29.696  1.00  0.00     0.031 C 
ATOM     65  C   UNL A   1      38.890  33.803  32.162  1.00  0.00     0.031 A 
BRANCH  52  66
ATOM     66  C   UNL A   1      43.028  34.952  28.731  1.00  0.00    -0.014 A 
ATOM     67  C   UNL A   1      44.263  35.327  28.179  1.00  0.00     0.009 A 
ATOM     68  C   UNL A   1      41.892  35.662  28.289  1.00  0.00     0.009 A 
ATOM     69  C   UNL A   1      44.355  36.364  27.241  1.00  0.00     0.001 A 
ATOM     70  C   UNL A   1      41.975  36.672  27.328  1.00  0.00     0.001 A 
ATOM     71  C   UNL A   1      43.210  37.034  26.814  1.00  0.00     0.000 A 
ENDBRANCH  52  66
BRANCH  53  72
ATOM     72  C   UNL A   1      35.768  30.784  28.267  1.00  0.00    -0.014 A 
ATOM     73  C   UNL A   1      35.671  29.519  27.655  1.00  0.00     0.009 A 
ATOM     74  C   UNL A   1      34.646  31.626  28.202  1.00  0.00     0.009 A 
ATOM     75  C   UNL A   1      34.467  29.071  27.099  1.00  0.00     0.001 A 
ATOM     76  C   UNL A   1      33.444  31.181  27.635  1.00  0.00     0.001 A 
ATOM     77  C   UNL A   1      33.346  29.894  27.113  1.00  0.00     0.000 A 
ENDBRANCH  53  72
BRANCH  65  78
ATOM     78  C   UNL A   1      38.375  33.216  33.441  1.00  0.00    -0.014 A 
ATOM     79  C   UNL A   1      38.718  31.936  33.909  1.00  0.00     0.009 A 
ATOM     80  C   UNL A   1      37.590  34.044  34.256  1.00  0.00     0.009 A 
ATOM     81  C   UNL A   1      38.285  31.506  35.169  1.00  0.00     0.001 A 
ATOM     82  C   UNL A   1      37.173  33.620  35.516  1.00  0.00     0.001 A 
ATOM     83  C   UNL A   1      37.522  32.352  35.974  1.00  0.00     0.000 A 
ENDBRANCH  65  78
ENDBRANCH  39  40
ENDBRANCH  31  34
ENDBRANCH  29  30
ENDBRANCH  28  29
ENDBRANCH  27  28
ENDBRANCH   1  27
TORSDOF 17
ENDMDL
MODEL 2
REMARK VINA RESULT:     -10.4      4.014      7.743
REMARK SMILES CC(C)[C@H](NC(=O)Cn1ccc2c(Br)cccc21)C(=O)NCCCCCCNC(=O)c1ccc(-c2c3nc(c(-c4ccccc4)c4ccc([nH]4)c(-c4ccccc4)c4nc(c(-c5ccccc5)c5ccc2[nH]5)C=C4)C=C3)cc1
REMARK SMILES IDX 24 1 23 2 22 3 21 4 19 5 20 6 4 8 2 9 1 10 3 11 5 12 6 13
REMARK SMILES IDX 7 15 8 16 9 17 10 18 18 19 11 20 12 21 17 22 13 23 16 24
REMARK SMILES IDX 14 25 15 26 25 27 26 28 27 29 28 30 29 31 30 33 31 34 32 35
REMARK SMILES IDX 78 36 33 37 77 38 34 39 35 40 36 41 71 42 37 43 76 44 70 45
REMARK SMILES IDX 72 46 38 47 75 48 69 49 68 50 39 52 61 53 46 54 60 55 47 56
REMARK SMILES IDX 50 57 59 58 73 59 48 60 49 61 58 63 74 64 51 65 40 66 41 67
REMARK SMILES IDX 45 68 42 69 44 70 43 71 62 72 63 73 67 74 64 75 66 76 65 77
REMARK SMILES IDX 52 78 53 79 57 80 54 81 56 82 55 83
REMARK H PARENT 21 7 5 14 28 32 72 51 50 62
REMARK Flexibility Score: inf
ROOT
ATOM      1  C   UNL A   1      40.463  21.796  26.333  1.00  0.00     0.002 C 
ENDROOT
BRANCH   1   2
ATOM      2  C   UNL A   1      38.948  21.966  26.480  1.00  0.00     0.021 C 
BRANCH   2   3
ATOM      3  C   UNL A   1      38.178  21.844  25.171  1.00  0.00     0.116 C 
BRANCH   3   4
ATOM      4  N   UNL A   1      37.417  20.607  25.087  1.00  0.00    -0.354 N 
ATOM      5  C   UNL A   1      36.065  20.397  25.060  1.00  0.00     0.242 C 
ATOM      6  O   UNL A   1      35.667  19.268  24.762  1.00  0.00    -0.273 OA
ATOM      7  H   UNL A   1      37.964  19.789  25.045  1.00  0.00     0.163 HD
BRANCH   5   8
ATOM      8  C   UNL A   1      35.064  21.564  25.257  1.00  0.00     0.173 C 
BRANCH   8   9
ATOM      9  C   UNL A   1      33.857  21.162  26.140  1.00  0.00     0.015 C 
ATOM     10  C   UNL A   1      33.411  22.138  27.233  1.00  0.00     0.010 C 
ATOM     11  C   UNL A   1      32.642  20.809  25.276  1.00  0.00     0.010 C 
ENDBRANCH   8   9
BRANCH   8  12
ATOM     12  N   UNL A   1      34.790  22.144  23.917  1.00  0.00    -0.343 N 
ATOM     13  C   UNL A   1      34.202  23.252  23.399  1.00  0.00     0.240 C 
ATOM     14  H   UNL A   1      35.132  21.559  23.203  1.00  0.00     0.164 HD
ATOM     15  O   UNL A   1      34.228  23.357  22.167  1.00  0.00    -0.273 OA
BRANCH  13  16
ATOM     16  C   UNL A   1      33.519  24.312  24.231  1.00  0.00     0.222 C 
BRANCH  16  17
ATOM     17  N   UNL A   1      32.361  24.948  23.601  1.00  0.00    -0.338 N 
ATOM     18  C   UNL A   1      31.078  24.461  23.567  1.00  0.00     0.087 A 
ATOM     19  C   UNL A   1      32.363  26.271  23.184  1.00  0.00     0.050 A 
ATOM     20  C   UNL A   1      30.231  25.537  23.417  1.00  0.00     0.029 A 
ATOM     21  C   UNL A   1      31.028  26.694  23.179  1.00  0.00     0.014 A 
ATOM     22  C   UNL A   1      33.424  27.141  22.888  1.00  0.00     0.027 A 
ATOM     23  C   UNL A   1      30.761  28.062  22.965  1.00  0.00     0.027 A 
ATOM     24  C   UNL A   1      33.122  28.477  22.611  1.00  0.00     0.003 A 
ATOM     25  Br  UNL A   1      28.997  28.740  23.095  1.00  0.00    -0.050 Br
ATOM     26  C   UNL A   1      31.811  28.941  22.673  1.00  0.00     0.016 A 
ENDBRANCH  16  17
ENDBRANCH  13  16
ENDBRANCH   8  12
ENDBRANCH   5   8
ENDBRANCH   3   4
ENDBRANCH   2   3
ENDBRANCH   1   2
BRANCH   1  27
ATOM     27  C   UNL A   1      41.179  21.124  27.514  1.00  0.00     0.002 C 
BRANCH  27  28
ATOM     28  C   UNL A   1      42.037  19.893  27.185  1.00  0.00     0.021 C 
BRANCH  28  29
ATOM     29  C   UNL A   1      42.138  19.586  25.698  1.00  0.00     0.116 C 
BRANCH  29  30
ATOM     30  N   UNL A   1      43.519  19.529  25.240  1.00  0.00    -0.352 N 
ATOM     31  C   UNL A   1      44.385  20.558  24.945  1.00  0.00     0.251 C 
ATOM     32  H   UNL A   1      43.887  18.623  25.125  1.00  0.00     0.163 HD
ATOM     33  O   UNL A   1      45.357  20.352  24.232  1.00  0.00    -0.269 OA
BRANCH  31  34
ATOM     34  C   UNL A   1      44.152  21.910  25.497  1.00  0.00     0.039 A 
ATOM     35  C   UNL A   1      43.417  22.841  24.758  1.00  0.00     0.014 A 
ATOM     36  C   UNL A   1      44.729  22.278  26.714  1.00  0.00     0.014 A 
ATOM     37  C   UNL A   1      43.237  24.122  25.271  1.00  0.00     0.010 A 
ATOM     38  C   UNL A   1      44.463  23.505  27.276  1.00  0.00     0.010 A 
ATOM     39  C   UNL A   1      43.757  24.442  26.536  1.00  0.00    -0.014 A 
BRANCH  39  40
ATOM     40  C   UNL A   1      43.422  25.711  27.163  1.00  0.00     0.031 A 
ATOM     41  C   UNL A   1      44.356  26.794  26.785  1.00  0.00     0.074 A 
ATOM     42  C   UNL A   1      42.300  25.949  27.874  1.00  0.00     0.049 A 
ATOM     43  N   UNL A   1      45.316  27.263  27.507  1.00  0.00    -0.248 NA
ATOM     44  C   UNL A   1      44.348  27.292  25.398  1.00  0.00     0.031 C 
ATOM     45  C   UNL A   1      41.152  25.056  28.065  1.00  0.00     0.029 A 
ATOM     46  N   UNL A   1      41.907  27.087  28.515  1.00  0.00    -0.354 N 
ATOM     47  C   UNL A   1      45.863  28.298  26.764  1.00  0.00     0.074 A 
ATOM     48  C   UNL A   1      45.390  28.128  25.413  1.00  0.00     0.031 C 
ATOM     49  C   UNL A   1      40.112  25.755  28.578  1.00  0.00     0.029 A 
ATOM     50  C   UNL A   1      40.572  27.091  28.913  1.00  0.00     0.049 A 
ATOM     51  H   UNL A   1      42.515  27.843  28.682  1.00  0.00     0.167 HD
ATOM     52  C   UNL A   1      46.356  29.399  27.392  1.00  0.00     0.031 A 
ATOM     53  C   UNL A   1      39.907  28.125  29.486  1.00  0.00     0.031 A 
ATOM     54  C   UNL A   1      46.472  29.184  28.812  1.00  0.00     0.049 A 
ATOM     55  C   UNL A   1      40.920  28.967  30.153  1.00  0.00     0.074 A 
ATOM     56  C   UNL A   1      47.293  28.474  29.660  1.00  0.00     0.029 A 
ATOM     57  N   UNL A   1      45.310  29.445  29.490  1.00  0.00    -0.354 N 
ATOM     58  N   UNL A   1      41.615  28.565  31.178  1.00  0.00    -0.248 NA
ATOM     59  C   UNL A   1      41.404  30.173  29.493  1.00  0.00     0.031 C 
ATOM     60  C   UNL A   1      46.510  28.179  30.818  1.00  0.00     0.029 A 
ATOM     61  C   UNL A   1      45.251  28.755  30.671  1.00  0.00     0.049 A 
ATOM     62  H   UNL A   1      44.606  30.054  29.168  1.00  0.00     0.167 HD
ATOM     63  C   UNL A   1      42.836  29.182  31.008  1.00  0.00     0.074 A 
ATOM     64  C   UNL A   1      42.591  30.289  30.092  1.00  0.00     0.031 C 
ATOM     65  C   UNL A   1      43.990  28.541  31.343  1.00  0.00     0.031 A 
BRANCH  52  66
ATOM     66  C   UNL A   1      46.198  30.796  26.843  1.00  0.00    -0.014 A 
ATOM     67  C   UNL A   1      47.307  31.657  26.845  1.00  0.00     0.009 A 
ATOM     68  C   UNL A   1      44.939  31.382  26.599  1.00  0.00     0.009 A 
ATOM     69  C   UNL A   1      47.159  33.033  26.624  1.00  0.00     0.001 A 
ATOM     70  C   UNL A   1      44.792  32.748  26.344  1.00  0.00     0.001 A 
ATOM     71  C   UNL A   1      45.902  33.576  26.371  1.00  0.00     0.000 A 
ENDBRANCH  52  66
BRANCH  53  72
ATOM     72  C   UNL A   1      38.507  28.590  29.350  1.00  0.00    -0.014 A 
ATOM     73  C   UNL A   1      37.739  28.825  30.507  1.00  0.00     0.009 A 
ATOM     74  C   UNL A   1      38.048  29.135  28.141  1.00  0.00     0.009 A 
ATOM     75  C   UNL A   1      36.617  29.663  30.475  1.00  0.00     0.001 A 
ATOM     76  C   UNL A   1      36.918  29.964  28.109  1.00  0.00     0.001 A 
ATOM     77  C   UNL A   1      36.223  30.253  29.280  1.00  0.00     0.000 A 
ENDBRANCH  53  72
BRANCH  65  78
ATOM     78  C   UNL A   1      43.908  27.429  32.344  1.00  0.00    -0.014 A 
ATOM     79  C   UNL A   1      44.148  26.079  32.037  1.00  0.00     0.009 A 
ATOM     80  C   UNL A   1      43.680  27.786  33.681  1.00  0.00     0.009 A 
ATOM     81  C   UNL A   1      44.164  25.116  33.052  1.00  0.00     0.001 A 
ATOM     82  C   UNL A   1      43.711  26.827  34.692  1.00  0.00     0.001 A 
ATOM     83  C   UNL A   1      43.955  25.493  34.379  1.00  0.00     0.000 A 
ENDBRANCH  65  78
ENDBRANCH  39  40
ENDBRANCH  31  34
ENDBRANCH  29  30
ENDBRANCH  28  29
ENDBRANCH  27  28
ENDBRANCH   1  27
TORSDOF 17
ENDMDL
MODEL 3
REMARK VINA RESULT:     -10.4      3.588      6.640
REMARK SMILES CC(C)[C@H](NC(=O)Cn1ccc2c(Br)cccc21)C(=O)NCCCCCCNC(=O)c1ccc(-c2c3nc(c(-c4ccccc4)c4ccc([nH]4)c(-c4ccccc4)c4nc(c(-c5ccccc5)c5ccc2[nH]5)C=C4)C=C3)cc1
REMARK SMILES IDX 24 1 23 2 22 3 21 4 19 5 20 6 4 8 2 9 1 10 3 11 5 12 6 13
REMARK SMILES IDX 7 15 8 16 9 17 10 18 18 19 11 20 12 21 17 22 13 23 16 24
REMARK SMILES IDX 14 25 15 26 25 27 26 28 27 29 28 30 29 31 30 33 31 34 32 35
REMARK SMILES IDX 78 36 33 37 77 38 34 39 35 40 36 41 71 42 37 43 76 44 70 45
REMARK SMILES IDX 72 46 38 47 75 48 69 49 68 50 39 52 61 53 46 54 60 55 47 56
REMARK SMILES IDX 50 57 59 58 73 59 48 60 49 61 58 63 74 64 51 65 40 66 41 67
REMARK SMILES IDX 45 68 42 69 44 70 43 71 62 72 63 73 67 74 64 75 66 76 65 77
REMARK SMILES IDX 52 78 53 79 57 80 54 81 56 82 55 83
REMARK H PARENT 21 7 5 14 28 32 72 51 50 62
REMARK Flexibility Score: inf
ROOT
ATOM      1  C   UNL A   1      39.821  22.408  26.648  1.00  0.00     0.002 C 
ENDROOT
BRANCH   1   2
ATOM      2  C   UNL A   1      39.136  23.777  26.643  1.00  0.00     0.021 C 
BRANCH   2   3
ATOM      3  C   UNL A   1      37.704  23.754  26.125  1.00  0.00     0.116 C 
BRANCH   3   4
ATOM      4  N   UNL A   1      37.616  23.254  24.762  1.00  0.00    -0.354 N 
ATOM      5  C   UNL A   1      36.554  23.213  23.898  1.00  0.00     0.242 C 
ATOM      6  O   UNL A   1      36.787  22.942  22.717  1.00  0.00    -0.273 OA
ATOM      7  H   UNL A   1      38.455  22.883  24.403  1.00  0.00     0.163 HD
BRANCH   5   8
ATOM      8  C   UNL A   1      35.130  23.627  24.351  1.00  0.00     0.173 C 
BRANCH   8   9
ATOM      9  C   UNL A   1      34.369  22.465  25.036  1.00  0.00     0.015 C 
ATOM     10  C   UNL A   1      34.870  21.038  24.794  1.00  0.00     0.010 C 
ATOM     11  C   UNL A   1      34.267  22.697  26.548  1.00  0.00     0.010 C 
ENDBRANCH   8   9
BRANCH   8  12
ATOM     12  N   UNL A   1      34.482  24.310  23.203  1.00  0.00    -0.343 N 
ATOM     13  C   UNL A   1      33.246  24.755  22.861  1.00  0.00     0.240 C 
ATOM     14  H   UNL A   1      35.133  24.492  22.487  1.00  0.00     0.164 HD
ATOM     15  O   UNL A   1      33.156  25.327  21.768  1.00  0.00    -0.273 OA
BRANCH  13  16
ATOM     16  C   UNL A   1      32.015  24.565  23.717  1.00  0.00     0.222 C 
BRANCH  16  17
ATOM     17  N   UNL A   1      31.777  25.618  24.706  1.00  0.00    -0.338 N 
ATOM     18  C   UNL A   1      32.277  25.668  25.984  1.00  0.00     0.087 A 
ATOM     19  C   UNL A   1      31.222  26.847  24.380  1.00  0.00     0.050 A 
ATOM     20  C   UNL A   1      32.311  26.992  26.363  1.00  0.00     0.029 A 
ATOM     21  C   UNL A   1      31.652  27.754  25.355  1.00  0.00     0.014 A 
ATOM     22  C   UNL A   1      30.450  27.244  23.277  1.00  0.00     0.027 A 
ATOM     23  C   UNL A   1      31.378  29.124  25.161  1.00  0.00     0.027 A 
ATOM     24  C   UNL A   1      30.135  28.599  23.149  1.00  0.00     0.003 A 
ATOM     25  Br  UNL A   1      32.056  30.430  26.353  1.00  0.00    -0.050 Br
ATOM     26  C   UNL A   1      30.612  29.534  24.063  1.00  0.00     0.016 A 
ENDBRANCH  16  17
ENDBRANCH  13  16
ENDBRANCH   8  12
ENDBRANCH   5   8
ENDBRANCH   3   4
ENDBRANCH   2   3
ENDBRANCH   1   2
BRANCH   1  27
ATOM     27  C   UNL A   1      40.795  22.150  27.808  1.00  0.00     0.002 C 
BRANCH  27  28
ATOM     28  C   UNL A   1      41.886  21.095  27.567  1.00  0.00     0.021 C 
BRANCH  28  29
ATOM     29  C   UNL A   1      42.545  21.186  26.197  1.00  0.00     0.116 C 
BRANCH  29  30
ATOM     30  N   UNL A   1      43.992  21.309  26.289  1.00  0.00    -0.352 N 
ATOM     31  C   UNL A   1      44.765  22.439  26.442  1.00  0.00     0.251 C 
ATOM     32  H   UNL A   1      44.491  20.462  26.234  1.00  0.00     0.163 HD
ATOM     33  O   UNL A   1      45.947  22.416  26.131  1.00  0.00    -0.269 OA
BRANCH  31  34
ATOM     34  C   UNL A   1      44.174  23.677  26.994  1.00  0.00     0.039 A 
ATOM     35  C   UNL A   1      44.371  23.995  28.341  1.00  0.00     0.014 A 
ATOM     36  C   UNL A   1      43.361  24.482  26.194  1.00  0.00     0.014 A 
ATOM     37  C   UNL A   1      43.778  25.142  28.859  1.00  0.00     0.010 A 
ATOM     38  C   UNL A   1      42.864  25.673  26.672  1.00  0.00     0.010 A 
ATOM     39  C   UNL A   1      43.033  25.980  28.013  1.00  0.00    -0.014 A 
BRANCH  39  40
ATOM     40  C   UNL A   1      42.564  27.271  28.493  1.00  0.00     0.031 A 
ATOM     41  C   UNL A   1      43.529  28.360  28.227  1.00  0.00     0.074 A 
ATOM     42  C   UNL A   1      41.325  27.512  28.973  1.00  0.00     0.049 A 
ATOM     43  N   UNL A   1      44.330  28.896  29.083  1.00  0.00    -0.248 NA
ATOM     44  C   UNL A   1      43.764  28.781  26.835  1.00  0.00     0.031 C 
ATOM     45  C   UNL A   1      40.181  26.595  29.005  1.00  0.00     0.029 A 
ATOM     46  N   UNL A   1      40.798  28.670  29.464  1.00  0.00    -0.354 N 
ATOM     47  C   UNL A   1      44.983  29.906  28.391  1.00  0.00     0.074 A 
ATOM     48  C   UNL A   1      44.769  29.648  26.990  1.00  0.00     0.031 C 
ATOM     49  C   UNL A   1      39.050  27.289  29.278  1.00  0.00     0.029 A 
ATOM     50  C   UNL A   1      39.413  28.655  29.611  1.00  0.00     0.049 A 
ATOM     51  H   UNL A   1      41.350  29.452  29.693  1.00  0.00     0.167 HD
ATOM     52  C   UNL A   1      45.329  31.054  29.033  1.00  0.00     0.031 A 
ATOM     53  C   UNL A   1      38.633  29.697  29.992  1.00  0.00     0.031 A 
ATOM     54  C   UNL A   1      45.188  30.921  30.461  1.00  0.00     0.049 A 
ATOM     55  C   UNL A   1      39.489  30.605  30.781  1.00  0.00     0.074 A 
ATOM     56  C   UNL A   1      45.854  30.284  31.484  1.00  0.00     0.029 A 
ATOM     57  N   UNL A   1      43.916  31.182  30.899  1.00  0.00    -0.354 N 
ATOM     58  N   UNL A   1      39.994  30.281  31.937  1.00  0.00    -0.248 NA
ATOM     59  C   UNL A   1      40.062  31.788  30.150  1.00  0.00     0.031 C 
ATOM     60  C   UNL A   1      44.879  30.028  32.496  1.00  0.00     0.029 A 
ATOM     61  C   UNL A   1      43.657  30.556  32.088  1.00  0.00     0.049 A 
ATOM     62  H   UNL A   1      43.271  31.750  30.420  1.00  0.00     0.167 HD
ATOM     63  C   UNL A   1      41.212  30.925  31.955  1.00  0.00     0.074 A 
ATOM     64  C   UNL A   1      41.116  31.973  30.947  1.00  0.00     0.031 C 
ATOM     65  C   UNL A   1      42.298  30.340  32.532  1.00  0.00     0.031 A 
BRANCH  52  66
ATOM     66  C   UNL A   1      45.246  32.414  28.382  1.00  0.00    -0.014 A 
ATOM     67  C   UNL A   1      43.982  32.972  28.133  1.00  0.00     0.009 A 
ATOM     68  C   UNL A   1      46.346  33.025  27.747  1.00  0.00     0.009 A 
ATOM     69  C   UNL A   1      43.830  34.077  27.285  1.00  0.00     0.001 A 
ATOM     70  C   UNL A   1      46.203  34.148  26.930  1.00  0.00     0.001 A 
ATOM     71  C   UNL A   1      44.941  34.666  26.687  1.00  0.00     0.000 A 
ENDBRANCH  52  66
BRANCH  53  72
ATOM     72  C   UNL A   1      37.273  30.111  29.577  1.00  0.00    -0.014 A 
ATOM     73  C   UNL A   1      36.481  30.873  30.457  1.00  0.00     0.009 A 
ATOM     74  C   UNL A   1      36.894  30.073  28.226  1.00  0.00     0.009 A 
ATOM     75  C   UNL A   1      35.418  31.654  29.986  1.00  0.00     0.001 A 
ATOM     76  C   UNL A   1      35.823  30.846  27.758  1.00  0.00     0.001 A 
ATOM     77  C   UNL A   1      35.107  31.660  28.631  1.00  0.00     0.000 A 
ENDBRANCH  53  72
BRANCH  65  78
ATOM     78  C   UNL A   1      42.058  29.281  33.565  1.00  0.00    -0.014 A 
ATOM     79  C   UNL A   1      41.901  27.917  33.268  1.00  0.00     0.009 A 
ATOM     80  C   UNL A   1      42.097  29.678  34.910  1.00  0.00     0.009 A 
ATOM     81  C   UNL A   1      41.794  26.978  34.300  1.00  0.00     0.001 A 
ATOM     82  C   UNL A   1      42.005  28.739  35.936  1.00  0.00     0.001 A 
ATOM     83  C   UNL A   1      41.856  27.389  35.631  1.00  0.00     0.000 A 
ENDBRANCH  65  78
ENDBRANCH  39  40
ENDBRANCH  31  34
ENDBRANCH  29  30
ENDBRANCH  28  29
ENDBRANCH  27  28
ENDBRANCH   1  27
TORSDOF 17
ENDMDL
