MODEL 1
REMARK VINA RESULT:     -11.3      0.000      0.000
REMARK SMILES O=C(NCCCCCCNC(=O)c1cccc2nc(Cl)c(Cl)nc12)c1ccc(-c2c3nc(c(-c4ccccc4)c4ccc([nH]4)c(-c4ccccc4)c4nc(c(-c5ccccc5)c5ccc2[nH]5)C=C4)C=C3)cc1
REMARK SMILES IDX 5 1 4 2 3 3 1 4 2 5 25 7 26 8 72 9 27 10 71 11 28 12 29 13
REMARK SMILES IDX 30 14 65 15 31 16 70 17 64 18 66 19 32 20 69 21 63 22 62 23
REMARK SMILES IDX 33 25 55 26 40 27 54 28 41 29 44 30 53 31 67 32 42 33 43 34
REMARK SMILES IDX 52 36 68 37 45 38 34 39 35 40 39 41 36 42 38 43 37 44 56 45
REMARK SMILES IDX 57 46 61 47 58 48 60 49 59 50 46 51 47 52 51 53 48 54 50 55
REMARK SMILES IDX 49 56 6 57 7 58 8 59 9 60 10 61 11 62 12 64 13 65 14 66
REMARK SMILES IDX 24 67 15 68 17 69 23 70 16 71 18 72 21 73 19 74 22 75 20 76
REMARK H PARENT 3 6 66 24 44 35 10 63
REMARK Flexibility Score: inf
ROOT
ATOM      1  C   UNL A   1      32.144  28.510  26.452  1.00  0.00     0.021 C 
ENDROOT
BRANCH   1   2
ATOM      2  C   UNL A   1      33.399  28.784  27.276  1.00  0.00     0.116 C 
BRANCH   2   3
ATOM      3  N   UNL A   1      33.482  30.159  27.731  1.00  0.00    -0.352 N 
ATOM      4  O   UNL A   1      34.328  31.971  28.750  1.00  0.00    -0.269 OA
ATOM      5  C   UNL A   1      34.521  30.838  28.310  1.00  0.00     0.251 C 
ATOM      6  H   UNL A   1      32.661  30.687  27.603  1.00  0.00     0.163 HD
BRANCH   5   7
ATOM      7  C   UNL A   1      35.873  30.239  28.425  1.00  0.00     0.039 A 
ATOM      8  C   UNL A   1      36.242  29.673  29.651  1.00  0.00     0.014 A 
ATOM      9  C   UNL A   1      36.807  30.308  27.388  1.00  0.00     0.014 A 
ATOM     10  C   UNL A   1      37.534  29.171  29.834  1.00  0.00     0.010 A 
ATOM     11  C   UNL A   1      38.078  29.751  27.550  1.00  0.00     0.010 A 
ATOM     12  C   UNL A   1      38.463  29.206  28.785  1.00  0.00    -0.014 A 
BRANCH  12  13
ATOM     13  C   UNL A   1      39.867  28.769  28.996  1.00  0.00     0.031 A 
ATOM     14  C   UNL A   1      40.842  29.698  29.668  1.00  0.00     0.074 A 
ATOM     15  C   UNL A   1      40.272  27.550  28.591  1.00  0.00     0.049 A 
ATOM     16  N   UNL A   1      42.118  29.523  29.910  1.00  0.00    -0.248 NA
ATOM     17  C   UNL A   1      40.321  31.002  30.115  1.00  0.00     0.031 C 
ATOM     18  C   UNL A   1      39.428  26.552  27.931  1.00  0.00     0.029 A 
ATOM     19  N   UNL A   1      41.499  26.941  28.685  1.00  0.00    -0.354 N 
ATOM     20  C   UNL A   1      42.549  30.697  30.517  1.00  0.00     0.074 A 
ATOM     21  C   UNL A   1      41.415  31.591  30.571  1.00  0.00     0.031 C 
ATOM     22  C   UNL A   1      40.155  25.443  27.712  1.00  0.00     0.029 A 
ATOM     23  C   UNL A   1      41.520  25.662  28.184  1.00  0.00     0.049 A 
ATOM     24  H   UNL A   1      42.289  27.379  29.075  1.00  0.00     0.167 HD
ATOM     25  C   UNL A   1      43.776  30.996  31.003  1.00  0.00     0.031 A 
ATOM     26  C   UNL A   1      42.523  24.764  28.119  1.00  0.00     0.031 A 
ATOM     27  C   UNL A   1      44.898  30.101  30.985  1.00  0.00     0.049 A 
ATOM     28  C   UNL A   1      43.878  25.123  28.663  1.00  0.00     0.074 A 
ATOM     29  C   UNL A   1      46.175  30.311  31.476  1.00  0.00     0.029 A 
ATOM     30  N   UNL A   1      44.873  28.818  30.464  1.00  0.00    -0.354 N 
ATOM     31  N   UNL A   1      44.266  26.234  29.241  1.00  0.00    -0.248 NA
ATOM     32  C   UNL A   1      44.931  24.101  28.556  1.00  0.00     0.031 C 
ATOM     33  C   UNL A   1      46.932  29.165  31.226  1.00  0.00     0.029 A 
ATOM     34  C   UNL A   1      46.114  28.227  30.619  1.00  0.00     0.049 A 
ATOM     35  H   UNL A   1      44.090  28.390  30.046  1.00  0.00     0.167 HD
ATOM     36  C   UNL A   1      45.594  26.035  29.592  1.00  0.00     0.074 A 
ATOM     37  C   UNL A   1      45.947  24.695  29.168  1.00  0.00     0.031 C 
ATOM     38  C   UNL A   1      46.445  26.887  30.211  1.00  0.00     0.031 A 
BRANCH  25  39
ATOM     39  C   UNL A   1      43.973  32.354  31.616  1.00  0.00    -0.014 A 
ATOM     40  C   UNL A   1      44.481  33.404  30.837  1.00  0.00     0.009 A 
ATOM     41  C   UNL A   1      43.726  32.573  32.979  1.00  0.00     0.009 A 
ATOM     42  C   UNL A   1      44.745  34.648  31.413  1.00  0.00     0.001 A 
ATOM     43  C   UNL A   1      43.967  33.824  33.548  1.00  0.00     0.001 A 
ATOM     44  C   UNL A   1      44.484  34.858  32.766  1.00  0.00     0.000 A 
ENDBRANCH  25  39
BRANCH  26  45
ATOM     45  C   UNL A   1      42.271  23.416  27.546  1.00  0.00    -0.014 A 
ATOM     46  C   UNL A   1      41.705  22.397  28.326  1.00  0.00     0.009 A 
ATOM     47  C   UNL A   1      42.608  23.142  26.211  1.00  0.00     0.009 A 
ATOM     48  C   UNL A   1      41.490  21.128  27.785  1.00  0.00     0.001 A 
ATOM     49  C   UNL A   1      42.370  21.880  25.665  1.00  0.00     0.001 A 
ATOM     50  C   UNL A   1      41.816  20.872  26.454  1.00  0.00     0.000 A 
ENDBRANCH  26  45
BRANCH  38  51
ATOM     51  C   UNL A   1      47.833  26.403  30.513  1.00  0.00    -0.014 A 
ATOM     52  C   UNL A   1      48.798  26.391  29.494  1.00  0.00     0.009 A 
ATOM     53  C   UNL A   1      48.152  25.856  31.764  1.00  0.00     0.009 A 
ATOM     54  C   UNL A   1      50.057  25.831  29.719  1.00  0.00     0.001 A 
ATOM     55  C   UNL A   1      49.419  25.316  31.992  1.00  0.00     0.001 A 
ATOM     56  C   UNL A   1      50.366  25.296  30.968  1.00  0.00     0.000 A 
ENDBRANCH  38  51
ENDBRANCH  12  13
ENDBRANCH   5   7
ENDBRANCH   2   3
ENDBRANCH   1   2
BRANCH   1  57
ATOM     57  C   UNL A   1      31.831  29.526  25.353  1.00  0.00     0.002 C 
BRANCH  57  58
ATOM     58  C   UNL A   1      30.985  29.016  24.183  1.00  0.00     0.002 C 
BRANCH  58  59
ATOM     59  C   UNL A   1      31.701  28.885  22.834  1.00  0.00     0.021 C 
BRANCH  59  60
ATOM     60  C   UNL A   1      32.991  28.066  22.841  1.00  0.00     0.116 C 
BRANCH  60  61
ATOM     61  N   UNL A   1      33.173  27.295  21.626  1.00  0.00    -0.352 N 
ATOM     62  C   UNL A   1      32.921  25.967  21.397  1.00  0.00     0.253 C 
ATOM     63  H   UNL A   1      33.529  27.794  20.857  1.00  0.00     0.163 HD
ATOM     64  O   UNL A   1      33.103  25.484  20.278  1.00  0.00    -0.269 OA
BRANCH  62  65
ATOM     65  C   UNL A   1      32.354  25.131  22.465  1.00  0.00     0.067 A 
ATOM     66  C   UNL A   1      30.993  25.288  22.770  1.00  0.00     0.016 A 
ATOM     67  C   UNL A   1      33.155  24.163  23.086  1.00  0.00     0.103 A 
ATOM     68  C   UNL A   1      30.414  24.483  23.738  1.00  0.00     0.003 A 
ATOM     69  C   UNL A   1      32.534  23.332  24.056  1.00  0.00     0.091 A 
ATOM     70  N   UNL A   1      34.474  24.007  22.802  1.00  0.00    -0.230 NA
ATOM     71  C   UNL A   1      31.191  23.513  24.369  1.00  0.00     0.031 A 
ATOM     72  N   UNL A   1      33.205  22.360  24.702  1.00  0.00    -0.231 NA
ATOM     73  C   UNL A   1      35.132  23.013  23.442  1.00  0.00     0.167 A 
ATOM     74  C   UNL A   1      34.508  22.203  24.371  1.00  0.00     0.167 A 
ATOM     75  Cl  UNL A   1      36.783  22.876  22.998  1.00  0.00    -0.059 Cl
ATOM     76  Cl  UNL A   1      35.284  20.928  25.218  1.00  0.00    -0.059 Cl
ENDBRANCH  62  65
ENDBRANCH  60  61
ENDBRANCH  59  60
ENDBRANCH  58  59
ENDBRANCH  57  58
ENDBRANCH   1  57
TORSDOF 13
ENDMDL
MODEL 2
REMARK VINA RESULT:     -11.3      2.163      6.769
REMARK SMILES O=C(NCCCCCCNC(=O)c1cccc2nc(Cl)c(Cl)nc12)c1ccc(-c2c3nc(c(-c4ccccc4)c4ccc([nH]4)c(-c4ccccc4)c4nc(c(-c5ccccc5)c5ccc2[nH]5)C=C4)C=C3)cc1
REMARK SMILES IDX 5 1 4 2 3 3 1 4 2 5 25 7 26 8 72 9 27 10 71 11 28 12 29 13
REMARK SMILES IDX 30 14 65 15 31 16 70 17 64 18 66 19 32 20 69 21 63 22 62 23
REMARK SMILES IDX 33 25 55 26 40 27 54 28 41 29 44 30 53 31 67 32 42 33 43 34
REMARK SMILES IDX 52 36 68 37 45 38 34 39 35 40 39 41 36 42 38 43 37 44 56 45
REMARK SMILES IDX 57 46 61 47 58 48 60 49 59 50 46 51 47 52 51 53 48 54 50 55
REMARK SMILES IDX 49 56 6 57 7 58 8 59 9 60 10 61 11 62 12 64 13 65 14 66
REMARK SMILES IDX 24 67 15 68 17 69 23 70 16 71 18 72 21 73 19 74 22 75 20 76
REMARK H PARENT 3 6 66 24 44 35 10 63
REMARK Flexibility Score: inf
ROOT
ATOM      1  C   UNL A   1      31.534  30.787  26.080  1.00  0.00     0.021 C 
ENDROOT
BRANCH   1   2
ATOM      2  C   UNL A   1      32.659  31.429  26.885  1.00  0.00     0.116 C 
BRANCH   2   3
ATOM      3  N   UNL A   1      32.375  32.805  27.248  1.00  0.00    -0.352 N 
ATOM      4  O   UNL A   1      32.550  34.748  28.358  1.00  0.00    -0.269 OA
ATOM      5  C   UNL A   1      33.049  33.658  28.082  1.00  0.00     0.251 C 
ATOM      6  H   UNL A   1      31.570  33.185  26.829  1.00  0.00     0.163 HD
BRANCH   5   7
ATOM      7  C   UNL A   1      34.364  33.297  28.665  1.00  0.00     0.039 A 
ATOM      8  C   UNL A   1      35.516  33.571  27.918  1.00  0.00     0.014 A 
ATOM      9  C   UNL A   1      34.476  32.615  29.880  1.00  0.00     0.014 A 
ATOM     10  C   UNL A   1      36.771  33.174  28.388  1.00  0.00     0.010 A 
ATOM     11  C   UNL A   1      35.735  32.273  30.379  1.00  0.00     0.010 A 
ATOM     12  C   UNL A   1      36.891  32.521  29.623  1.00  0.00    -0.014 A 
BRANCH  12  13
ATOM     13  C   UNL A   1      38.204  32.005  30.087  1.00  0.00     0.031 A 
ATOM     14  C   UNL A   1      38.710  30.685  29.570  1.00  0.00     0.074 A 
ATOM     15  C   UNL A   1      38.944  32.709  30.966  1.00  0.00     0.049 A 
ATOM     16  N   UNL A   1      39.808  30.042  29.879  1.00  0.00    -0.248 NA
ATOM     17  C   UNL A   1      37.864  29.986  28.587  1.00  0.00     0.031 C 
ATOM     18  C   UNL A   1      38.573  34.003  31.542  1.00  0.00     0.029 A 
ATOM     19  N   UNL A   1      40.170  32.436  31.521  1.00  0.00    -0.354 N 
ATOM     20  C   UNL A   1      39.773  28.863  29.145  1.00  0.00     0.074 A 
ATOM     21  C   UNL A   1      38.531  28.857  28.407  1.00  0.00     0.031 C 
ATOM     22  C   UNL A   1      39.567  34.426  32.341  1.00  0.00     0.029 A 
ATOM     23  C   UNL A   1      40.628  33.421  32.361  1.00  0.00     0.049 A 
ATOM     24  H   UNL A   1      40.673  31.611  31.334  1.00  0.00     0.167 HD
ATOM     25  C   UNL A   1      40.701  27.881  29.077  1.00  0.00     0.031 A 
ATOM     26  C   UNL A   1      41.775  33.511  33.061  1.00  0.00     0.031 A 
ATOM     27  C   UNL A   1      41.953  27.895  29.780  1.00  0.00     0.049 A 
ATOM     28  C   UNL A   1      42.789  32.404  32.971  1.00  0.00     0.074 A 
ATOM     29  C   UNL A   1      42.966  26.952  29.753  1.00  0.00     0.029 A 
ATOM     30  N   UNL A   1      42.371  28.912  30.622  1.00  0.00    -0.354 N 
ATOM     31  N   UNL A   1      42.742  31.300  32.265  1.00  0.00    -0.248 NA
ATOM     32  C   UNL A   1      44.018  32.558  33.765  1.00  0.00     0.031 C 
ATOM     33  C   UNL A   1      43.987  27.384  30.602  1.00  0.00     0.029 A 
ATOM     34  C   UNL A   1      43.626  28.617  31.123  1.00  0.00     0.049 A 
ATOM     35  H   UNL A   1      41.854  29.723  30.832  1.00  0.00     0.167 HD
ATOM     36  C   UNL A   1      43.943  30.645  32.506  1.00  0.00     0.074 A 
ATOM     37  C   UNL A   1      44.702  31.476  33.419  1.00  0.00     0.031 C 
ATOM     38  C   UNL A   1      44.377  29.461  32.013  1.00  0.00     0.031 A 
BRANCH  25  39
ATOM     39  C   UNL A   1      40.406  26.700  28.195  1.00  0.00    -0.014 A 
ATOM     40  C   UNL A   1      40.887  26.676  26.877  1.00  0.00     0.009 A 
ATOM     41  C   UNL A   1      39.593  25.650  28.645  1.00  0.00     0.009 A 
ATOM     42  C   UNL A   1      40.552  25.624  26.023  1.00  0.00     0.001 A 
ATOM     43  C   UNL A   1      39.281  24.586  27.797  1.00  0.00     0.001 A 
ATOM     44  C   UNL A   1      39.754  24.578  26.485  1.00  0.00     0.000 A 
ENDBRANCH  25  39
BRANCH  26  45
ATOM     45  C   UNL A   1      42.045  34.717  33.886  1.00  0.00    -0.014 A 
ATOM     46  C   UNL A   1      41.651  34.772  35.231  1.00  0.00     0.009 A 
ATOM     47  C   UNL A   1      42.693  35.827  33.323  1.00  0.00     0.009 A 
ATOM     48  C   UNL A   1      41.891  35.917  35.994  1.00  0.00     0.001 A 
ATOM     49  C   UNL A   1      42.955  36.962  34.094  1.00  0.00     0.001 A 
ATOM     50  C   UNL A   1      42.548  37.008  35.426  1.00  0.00     0.000 A 
ENDBRANCH  26  45
BRANCH  38  51
ATOM     51  C   UNL A   1      45.748  28.994  32.406  1.00  0.00    -0.014 A 
ATOM     52  C   UNL A   1      46.847  29.310  31.592  1.00  0.00     0.009 A 
ATOM     53  C   UNL A   1      45.936  28.152  33.512  1.00  0.00     0.009 A 
ATOM     54  C   UNL A   1      48.109  28.782  31.870  1.00  0.00     0.001 A 
ATOM     55  C   UNL A   1      47.204  27.644  33.800  1.00  0.00     0.001 A 
ATOM     56  C   UNL A   1      48.286  27.952  32.975  1.00  0.00     0.000 A 
ENDBRANCH  38  51
ENDBRANCH  12  13
ENDBRANCH   5   7
ENDBRANCH   2   3
ENDBRANCH   1   2
BRANCH   1  57
ATOM     57  C   UNL A   1      31.598  29.265  25.939  1.00  0.00     0.002 C 
BRANCH  57  58
ATOM     58  C   UNL A   1      31.622  28.720  24.508  1.00  0.00     0.002 C 
BRANCH  58  59
ATOM     59  C   UNL A   1      32.882  29.023  23.688  1.00  0.00     0.021 C 
BRANCH  59  60
ATOM     60  C   UNL A   1      33.792  27.830  23.402  1.00  0.00     0.116 C 
BRANCH  60  61
ATOM     61  N   UNL A   1      33.672  27.346  22.040  1.00  0.00    -0.352 N 
ATOM     62  C   UNL A   1      33.094  26.192  21.579  1.00  0.00     0.253 C 
ATOM     63  H   UNL A   1      34.062  27.927  21.348  1.00  0.00     0.163 HD
ATOM     64  O   UNL A   1      33.051  25.959  20.369  1.00  0.00    -0.269 OA
BRANCH  62  65
ATOM     65  C   UNL A   1      32.448  25.265  22.521  1.00  0.00     0.067 A 
ATOM     66  C   UNL A   1      31.074  25.423  22.759  1.00  0.00     0.016 A 
ATOM     67  C   UNL A   1      33.193  24.221  23.085  1.00  0.00     0.103 A 
ATOM     68  C   UNL A   1      30.424  24.537  23.604  1.00  0.00     0.003 A 
ATOM     69  C   UNL A   1      32.500  23.311  23.927  1.00  0.00     0.091 A 
ATOM     70  N   UNL A   1      34.524  24.064  22.865  1.00  0.00    -0.230 NA
ATOM     71  C   UNL A   1      31.144  23.490  24.177  1.00  0.00     0.031 A 
ATOM     72  N   UNL A   1      33.115  22.263  24.507  1.00  0.00    -0.231 NA
ATOM     73  C   UNL A   1      35.126  22.996  23.437  1.00  0.00     0.167 A 
ATOM     74  C   UNL A   1      34.432  22.111  24.240  1.00  0.00     0.167 A 
ATOM     75  Cl  UNL A   1      36.798  22.866  23.080  1.00  0.00    -0.059 Cl
ATOM     76  Cl  UNL A   1      35.133  20.739  24.995  1.00  0.00    -0.059 Cl
ENDBRANCH  62  65
ENDBRANCH  60  61
ENDBRANCH  59  60
ENDBRANCH  58  59
ENDBRANCH  57  58
ENDBRANCH   1  57
TORSDOF 13
ENDMDL
MODEL 3
REMARK VINA RESULT:     -11.2      2.691      7.550
REMARK SMILES O=C(NCCCCCCNC(=O)c1cccc2nc(Cl)c(Cl)nc12)c1ccc(-c2c3nc(c(-c4ccccc4)c4ccc([nH]4)c(-c4ccccc4)c4nc(c(-c5ccccc5)c5ccc2[nH]5)C=C4)C=C3)cc1
REMARK SMILES IDX 5 1 4 2 3 3 1 4 2 5 25 7 26 8 72 9 27 10 71 11 28 12 29 13
REMARK SMILES IDX 30 14 65 15 31 16 70 17 64 18 66 19 32 20 69 21 63 22 62 23
REMARK SMILES IDX 33 25 55 26 40 27 54 28 41 29 44 30 53 31 67 32 42 33 43 34
REMARK SMILES IDX 52 36 68 37 45 38 34 39 35 40 39 41 36 42 38 43 37 44 56 45
REMARK SMILES IDX 57 46 61 47 58 48 60 49 59 50 46 51 47 52 51 53 48 54 50 55
REMARK SMILES IDX 49 56 6 57 7 58 8 59 9 60 10 61 11 62 12 64 13 65 14 66
REMARK SMILES IDX 24 67 15 68 17 69 23 70 16 71 18 72 21 73 19 74 22 75 20 76
REMARK H PARENT 3 6 66 24 44 35 10 63
REMARK Flexibility Score: inf
ROOT
ATOM      1  C   UNL A   1      37.692  19.812  24.656  1.00  0.00     0.021 C 
ENDROOT
BRANCH   1   2
ATOM      2  C   UNL A   1      38.750  20.227  25.673  1.00  0.00     0.116 C 
BRANCH   2   3
ATOM      3  N   UNL A   1      39.869  19.306  25.727  1.00  0.00    -0.352 N 
ATOM      4  O   UNL A   1      42.000  18.619  25.885  1.00  0.00    -0.269 OA
ATOM      5  C   UNL A   1      41.185  19.527  26.039  1.00  0.00     0.251 C 
ATOM      6  H   UNL A   1      39.647  18.373  25.504  1.00  0.00     0.163 HD
BRANCH   5   7
ATOM      7  C   UNL A   1      41.652  20.839  26.551  1.00  0.00     0.039 A 
ATOM      8  C   UNL A   1      41.598  21.066  27.930  1.00  0.00     0.014 A 
ATOM      9  C   UNL A   1      42.049  21.871  25.696  1.00  0.00     0.014 A 
ATOM     10  C   UNL A   1      41.948  22.314  28.452  1.00  0.00     0.010 A 
ATOM     11  C   UNL A   1      42.457  23.099  26.221  1.00  0.00     0.010 A 
ATOM     12  C   UNL A   1      42.381  23.342  27.602  1.00  0.00    -0.014 A 
BRANCH  12  13
ATOM     13  C   UNL A   1      42.660  24.702  28.131  1.00  0.00     0.031 A 
ATOM     14  C   UNL A   1      44.073  25.093  28.470  1.00  0.00     0.074 A 
ATOM     15  C   UNL A   1      41.658  25.585  28.309  1.00  0.00     0.049 A 
ATOM     16  N   UNL A   1      44.521  26.214  28.978  1.00  0.00    -0.248 NA
ATOM     17  C   UNL A   1      45.121  24.089  28.218  1.00  0.00     0.031 C 
ATOM     18  C   UNL A   1      40.246  25.335  28.017  1.00  0.00     0.029 A 
ATOM     19  N   UNL A   1      41.680  26.877  28.771  1.00  0.00    -0.354 N 
ATOM     20  C   UNL A   1      45.892  26.039  29.123  1.00  0.00     0.074 A 
ATOM     21  C   UNL A   1      46.200  24.696  28.688  1.00  0.00     0.031 C 
ATOM     22  C   UNL A   1      39.543  26.451  28.274  1.00  0.00     0.029 A 
ATOM     23  C   UNL A   1      40.447  27.482  28.779  1.00  0.00     0.049 A 
ATOM     24  H   UNL A   1      42.503  27.328  29.069  1.00  0.00     0.167 HD
ATOM     25  C   UNL A   1      46.816  26.925  29.561  1.00  0.00     0.031 A 
ATOM     26  C   UNL A   1      40.085  28.727  29.145  1.00  0.00     0.031 A 
ATOM     27  C   UNL A   1      46.524  28.273  29.962  1.00  0.00     0.049 A 
ATOM     28  C   UNL A   1      41.131  29.692  29.632  1.00  0.00     0.074 A 
ATOM     29  C   UNL A   1      47.401  29.250  30.398  1.00  0.00     0.029 A 
ATOM     30  N   UNL A   1      45.260  28.839  29.957  1.00  0.00    -0.354 N 
ATOM     31  N   UNL A   1      42.424  29.513  29.754  1.00  0.00    -0.248 NA
ATOM     32  C   UNL A   1      40.670  31.034  30.021  1.00  0.00     0.031 C 
ATOM     33  C   UNL A   1      46.665  30.401  30.687  1.00  0.00     0.029 A 
ATOM     34  C   UNL A   1      45.335  30.152  30.387  1.00  0.00     0.049 A 
ATOM     35  H   UNL A   1      44.433  28.378  29.688  1.00  0.00     0.167 HD
ATOM     36  C   UNL A   1      42.933  30.723  30.204  1.00  0.00     0.074 A 
ATOM     37  C   UNL A   1      41.813  31.633  30.330  1.00  0.00     0.031 C 
ATOM     38  C   UNL A   1      44.216  31.050  30.488  1.00  0.00     0.031 A 
BRANCH  25  39
ATOM     39  C   UNL A   1      48.247  26.472  29.619  1.00  0.00    -0.014 A 
ATOM     40  C   UNL A   1      48.743  25.874  30.787  1.00  0.00     0.009 A 
ATOM     41  C   UNL A   1      49.121  26.703  28.547  1.00  0.00     0.009 A 
ATOM     42  C   UNL A   1      50.090  25.522  30.884  1.00  0.00     0.001 A 
ATOM     43  C   UNL A   1      50.463  26.328  28.636  1.00  0.00     0.001 A 
ATOM     44  C   UNL A   1      50.947  25.745  29.807  1.00  0.00     0.000 A 
ENDBRANCH  25  39
BRANCH  26  45
ATOM     45  C   UNL A   1      38.664  29.148  29.028  1.00  0.00    -0.014 A 
ATOM     46  C   UNL A   1      37.799  29.071  30.129  1.00  0.00     0.009 A 
ATOM     47  C   UNL A   1      38.166  29.621  27.804  1.00  0.00     0.009 A 
ATOM     48  C   UNL A   1      36.461  29.451  30.006  1.00  0.00     0.001 A 
ATOM     49  C   UNL A   1      36.834  30.022  27.690  1.00  0.00     0.001 A 
ATOM     50  C   UNL A   1      35.981  29.932  28.789  1.00  0.00     0.000 A 
ENDBRANCH  26  45
BRANCH  38  51
ATOM     51  C   UNL A   1      44.505  32.457  30.924  1.00  0.00    -0.014 A 
ATOM     52  C   UNL A   1      44.847  33.423  29.965  1.00  0.00     0.009 A 
ATOM     53  C   UNL A   1      44.550  32.797  32.284  1.00  0.00     0.009 A 
ATOM     54  C   UNL A   1      45.240  34.703  30.359  1.00  0.00     0.001 A 
ATOM     55  C   UNL A   1      44.923  34.085  32.673  1.00  0.00     0.001 A 
ATOM     56  C   UNL A   1      45.275  35.033  31.713  1.00  0.00     0.000 A 
ENDBRANCH  38  51
ENDBRANCH  12  13
ENDBRANCH   5   7
ENDBRANCH   2   3
ENDBRANCH   1   2
BRANCH   1  57
ATOM     57  C   UNL A   1      36.243  20.132  25.030  1.00  0.00     0.002 C 
BRANCH  57  58
ATOM     58  C   UNL A   1      35.928  21.603  25.311  1.00  0.00     0.002 C 
BRANCH  58  59
ATOM     59  C   UNL A   1      35.238  21.907  26.645  1.00  0.00     0.021 C 
BRANCH  59  60
ATOM     60  C   UNL A   1      34.548  23.266  26.744  1.00  0.00     0.116 C 
BRANCH  60  61
ATOM     61  N   UNL A   1      33.236  23.187  27.358  1.00  0.00    -0.352 N 
ATOM     62  C   UNL A   1      32.011  23.020  26.766  1.00  0.00     0.253 C 
ATOM     63  H   UNL A   1      33.223  23.265  28.339  1.00  0.00     0.163 HD
ATOM     64  O   UNL A   1      30.993  22.937  27.457  1.00  0.00    -0.269 OA
BRANCH  62  65
ATOM     65  C   UNL A   1      31.914  22.857  25.308  1.00  0.00     0.067 A 
ATOM     66  C   UNL A   1      31.726  24.009  24.529  1.00  0.00     0.016 A 
ATOM     67  C   UNL A   1      32.085  21.587  24.741  1.00  0.00     0.103 A 
ATOM     68  C   UNL A   1      31.678  23.897  23.149  1.00  0.00     0.003 A 
ATOM     69  C   UNL A   1      32.058  21.501  23.324  1.00  0.00     0.091 A 
ATOM     70  N   UNL A   1      32.262  20.465  25.487  1.00  0.00    -0.230 NA
ATOM     71  C   UNL A   1      31.846  22.644  22.562  1.00  0.00     0.031 A 
ATOM     72  N   UNL A   1      32.229  20.334  22.674  1.00  0.00    -0.231 NA
ATOM     73  C   UNL A   1      32.452  19.303  24.822  1.00  0.00     0.167 A 
ATOM     74  C   UNL A   1      32.440  19.240  23.441  1.00  0.00     0.167 A 
ATOM     75  Cl  UNL A   1      32.694  17.949  25.846  1.00  0.00    -0.059 Cl
ATOM     76  Cl  UNL A   1      32.673  17.800  22.538  1.00  0.00    -0.059 Cl
ENDBRANCH  62  65
ENDBRANCH  60  61
ENDBRANCH  59  60
ENDBRANCH  58  59
ENDBRANCH  57  58
ENDBRANCH   1  57
TORSDOF 13
ENDMDL
