MODEL 1
REMARK VINA RESULT:     -12.3      0.000      0.000
REMARK SMILES O=C(C[C@]12CSc3[nH]c(=O)sc3[C@H]1c1cc(Cl)ccc1OC2=O)NCCCCCCNC(=O)c1ccc(-c2c3nc(c(-c4ccccc4)c4ccc([nH]4)c(-c4ccccc4)c4nc(c(-c5ccccc5)c5ccc2[nH]5)C=C4)C=C3)cc1
REMARK SMILES IDX 28 1 27 2 26 3 25 4 24 5 1 6 2 7 3 9 4 10 5 11 13 12 22 13
REMARK SMILES IDX 6 14 12 15 14 16 21 17 23 18 7 19 11 20 15 21 20 22 8 23
REMARK SMILES IDX 9 24 16 25 19 26 10 28 17 29 18 30 29 31 30 32 31 33 32 34
REMARK SMILES IDX 33 36 34 37 35 38 81 39 36 40 80 41 37 42 38 43 39 44 74 45
REMARK SMILES IDX 40 46 79 47 73 48 75 49 41 50 78 51 72 52 71 53 42 55 64 56
REMARK SMILES IDX 49 57 63 58 50 59 53 60 62 61 76 62 51 63 52 64 61 66 77 67
REMARK SMILES IDX 54 68 43 69 44 70 48 71 45 72 47 73 46 74 65 75 66 76 70 77
REMARK SMILES IDX 67 78 69 79 68 80 55 81 56 82 60 83 57 84 59 85 58 86
REMARK H PARENT 24 8 8 27 31 35 75 54 53 65
REMARK Flexibility Score: inf
ROOT
ATOM      1  C   UNL A   1      32.104  30.454  26.323  1.00  0.00     0.002 C 
ENDROOT
BRANCH   1   2
ATOM      2  C   UNL A   1      31.754  29.380  25.289  1.00  0.00     0.002 C 
BRANCH   2   3
ATOM      3  C   UNL A   1      32.697  29.335  24.074  1.00  0.00     0.021 C 
BRANCH   3   4
ATOM      4  C   UNL A   1      33.941  28.477  24.286  1.00  0.00     0.116 C 
BRANCH   4   5
ATOM      5  N   UNL A   1      33.559  27.097  24.229  1.00  0.00    -0.356 N 
ATOM      6  O   UNL A   1      33.741  26.700  26.483  1.00  0.00    -0.275 OA
ATOM      7  C   UNL A   1      33.688  26.308  25.326  1.00  0.00     0.221 C 
ATOM      8  H   UNL A   1      33.204  26.720  23.391  1.00  0.00     0.163 HD
BRANCH   7   9
ATOM      9  C   UNL A   1      33.978  24.900  24.953  1.00  0.00     0.120 C 
BRANCH   9  10
ATOM     10  C   UNL A   1      33.222  23.740  25.663  1.00  0.00     0.098 C 
ATOM     11  C   UNL A   1      34.128  23.239  26.806  1.00  0.00     0.097 C 
ATOM     12  C   UNL A   1      32.949  22.741  24.494  1.00  0.00     0.085 C 
ATOM     13  C   UNL A   1      31.846  24.054  26.307  1.00  0.00     0.319 C 
ATOM     14  S   UNL A   1      33.792  21.584  27.433  1.00  0.00    -0.106 SA
ATOM     15  C   UNL A   1      32.804  21.303  24.882  1.00  0.00     0.049 A 
ATOM     16  C   UNL A   1      31.981  23.497  23.543  1.00  0.00     0.006 A 
ATOM     17  O   UNL A   1      30.766  24.267  25.479  1.00  0.00    -0.426 OA
ATOM     18  O   UNL A   1      31.664  24.101  27.521  1.00  0.00    -0.251 OA
ATOM     19  C   UNL A   1      33.266  20.783  26.032  1.00  0.00     0.090 A 
ATOM     20  S   UNL A   1      32.607  20.024  23.693  1.00  0.00    -0.077 S 
ATOM     21  C   UNL A   1      32.396  23.816  22.236  1.00  0.00     0.028 A 
ATOM     22  C   UNL A   1      31.046  24.366  24.125  1.00  0.00     0.134 A 
ATOM     23  N   UNL A   1      33.511  19.445  25.993  1.00  0.00    -0.307 N 
ATOM     24  C   UNL A   1      33.294  18.830  24.803  1.00  0.00     0.305 A 
ATOM     25  C   UNL A   1      32.009  25.036  21.646  1.00  0.00     0.041 A 
ATOM     26  C   UNL A   1      30.582  25.537  23.508  1.00  0.00     0.049 A 
ATOM     27  H   UNL A   1      33.827  18.951  26.783  1.00  0.00     0.171 HD
ATOM     28  O   UNL A   1      33.573  17.665  24.512  1.00  0.00    -0.257 OA
ATOM     29  Cl  UNL A   1      32.794  25.570  20.209  1.00  0.00    -0.084 Cl
ATOM     30  C   UNL A   1      31.117  25.902  22.281  1.00  0.00     0.024 A 
ENDBRANCH   9  10
ENDBRANCH   7   9
ENDBRANCH   4   5
ENDBRANCH   3   4
ENDBRANCH   2   3
ENDBRANCH   1   2
BRANCH   1  31
ATOM     31  C   UNL A   1      33.028  29.971  27.445  1.00  0.00     0.021 C 
BRANCH  31  32
ATOM     32  C   UNL A   1      34.332  30.759  27.546  1.00  0.00     0.116 C 
BRANCH  32  33
ATOM     33  N   UNL A   1      34.378  31.612  28.707  1.00  0.00    -0.352 N 
ATOM     34  C   UNL A   1      35.313  31.828  29.675  1.00  0.00     0.251 C 
ATOM     35  H   UNL A   1      33.563  32.151  28.826  1.00  0.00     0.163 HD
ATOM     36  O   UNL A   1      35.049  32.702  30.505  1.00  0.00    -0.269 OA
BRANCH  34  37
ATOM     37  C   UNL A   1      36.573  31.050  29.823  1.00  0.00     0.039 A 
ATOM     38  C   UNL A   1      37.870  31.549  29.682  1.00  0.00     0.014 A 
ATOM     39  C   UNL A   1      36.409  29.678  30.084  1.00  0.00     0.014 A 
ATOM     40  C   UNL A   1      38.963  30.696  29.703  1.00  0.00     0.010 A 
ATOM     41  C   UNL A   1      37.500  28.822  30.135  1.00  0.00     0.010 A 
ATOM     42  C   UNL A   1      38.773  29.329  29.900  1.00  0.00    -0.014 A 
BRANCH  42  43
ATOM     43  C   UNL A   1      39.963  28.492  29.970  1.00  0.00     0.031 A 
ATOM     44  C   UNL A   1      40.602  28.422  31.316  1.00  0.00     0.074 A 
ATOM     45  C   UNL A   1      40.402  27.749  28.938  1.00  0.00     0.049 A 
ATOM     46  N   UNL A   1      41.810  28.741  31.647  1.00  0.00    -0.248 NA
ATOM     47  C   UNL A   1      39.748  28.043  32.454  1.00  0.00     0.031 C 
ATOM     48  C   UNL A   1      39.724  27.491  27.664  1.00  0.00     0.029 A 
ATOM     49  N   UNL A   1      41.510  26.960  28.865  1.00  0.00    -0.354 N 
ATOM     50  C   UNL A   1      41.927  28.457  33.007  1.00  0.00     0.074 A 
ATOM     51  C   UNL A   1      40.599  28.148  33.473  1.00  0.00     0.031 C 
ATOM     52  C   UNL A   1      40.301  26.426  27.064  1.00  0.00     0.029 A 
ATOM     53  C   UNL A   1      41.470  26.033  27.833  1.00  0.00     0.049 A 
ATOM     54  H   UNL A   1      42.269  27.040  29.487  1.00  0.00     0.167 HD
ATOM     55  C   UNL A   1      43.138  28.309  33.613  1.00  0.00     0.031 A 
ATOM     56  C   UNL A   1      42.296  24.971  27.671  1.00  0.00     0.031 A 
ATOM     57  C   UNL A   1      44.198  28.887  32.834  1.00  0.00     0.049 A 
ATOM     58  C   UNL A   1      43.516  25.219  28.472  1.00  0.00     0.074 A 
ATOM     59  C   UNL A   1      44.523  30.161  32.419  1.00  0.00     0.029 A 
ATOM     60  N   UNL A   1      44.952  28.031  32.070  1.00  0.00    -0.354 N 
ATOM     61  N   UNL A   1      44.389  26.142  28.200  1.00  0.00    -0.248 NA
ATOM     62  C   UNL A   1      43.573  24.680  29.820  1.00  0.00     0.031 C 
ATOM     63  C   UNL A   1      45.103  29.992  31.130  1.00  0.00     0.029 A 
ATOM     64  C   UNL A   1      45.151  28.623  30.853  1.00  0.00     0.049 A 
ATOM     65  H   UNL A   1      45.289  27.148  32.349  1.00  0.00     0.167 HD
ATOM     66  C   UNL A   1      44.805  26.607  29.438  1.00  0.00     0.074 A 
ATOM     67  C   UNL A   1      44.365  25.590  30.389  1.00  0.00     0.031 C 
ATOM     68  C   UNL A   1      45.217  27.899  29.601  1.00  0.00     0.031 A 
BRANCH  55  69
ATOM     69  C   UNL A   1      43.411  27.306  34.711  1.00  0.00    -0.014 A 
ATOM     70  C   UNL A   1      43.778  27.664  36.021  1.00  0.00     0.009 A 
ATOM     71  C   UNL A   1      43.013  25.968  34.516  1.00  0.00     0.009 A 
ATOM     72  C   UNL A   1      43.706  26.760  37.087  1.00  0.00     0.001 A 
ATOM     73  C   UNL A   1      42.898  25.073  35.587  1.00  0.00     0.001 A 
ATOM     74  C   UNL A   1      43.235  25.474  36.875  1.00  0.00     0.000 A 
ENDBRANCH  55  69
BRANCH  56  75
ATOM     75  C   UNL A   1      41.955  23.620  27.177  1.00  0.00    -0.014 A 
ATOM     76  C   UNL A   1      41.005  22.838  27.860  1.00  0.00     0.009 A 
ATOM     77  C   UNL A   1      42.773  22.981  26.233  1.00  0.00     0.009 A 
ATOM     78  C   UNL A   1      40.908  21.460  27.642  1.00  0.00     0.001 A 
ATOM     79  C   UNL A   1      42.679  21.599  26.017  1.00  0.00     0.001 A 
ATOM     80  C   UNL A   1      41.758  20.838  26.734  1.00  0.00     0.000 A 
ENDBRANCH  56  75
BRANCH  68  81
ATOM     81  C   UNL A   1      45.490  28.732  28.372  1.00  0.00    -0.014 A 
ATOM     82  C   UNL A   1      46.822  28.855  27.945  1.00  0.00     0.009 A 
ATOM     83  C   UNL A   1      44.517  29.536  27.755  1.00  0.00     0.009 A 
ATOM     84  C   UNL A   1      47.177  29.767  26.949  1.00  0.00     0.001 A 
ATOM     85  C   UNL A   1      44.868  30.429  26.735  1.00  0.00     0.001 A 
ATOM     86  C   UNL A   1      46.200  30.552  26.343  1.00  0.00     0.000 A 
ENDBRANCH  68  81
ENDBRANCH  42  43
ENDBRANCH  34  37
ENDBRANCH  32  33
ENDBRANCH  31  32
ENDBRANCH   1  31
TORSDOF 14
ENDMDL
MODEL 2
REMARK VINA RESULT:     -12.2      5.068      8.310
REMARK SMILES O=C(C[C@]12CSc3[nH]c(=O)sc3[C@H]1c1cc(Cl)ccc1OC2=O)NCCCCCCNC(=O)c1ccc(-c2c3nc(c(-c4ccccc4)c4ccc([nH]4)c(-c4ccccc4)c4nc(c(-c5ccccc5)c5ccc2[nH]5)C=C4)C=C3)cc1
REMARK SMILES IDX 28 1 27 2 26 3 25 4 24 5 1 6 2 7 3 9 4 10 5 11 13 12 22 13
REMARK SMILES IDX 6 14 12 15 14 16 21 17 23 18 7 19 11 20 15 21 20 22 8 23
REMARK SMILES IDX 9 24 16 25 19 26 10 28 17 29 18 30 29 31 30 32 31 33 32 34
REMARK SMILES IDX 33 36 34 37 35 38 81 39 36 40 80 41 37 42 38 43 39 44 74 45
REMARK SMILES IDX 40 46 79 47 73 48 75 49 41 50 78 51 72 52 71 53 42 55 64 56
REMARK SMILES IDX 49 57 63 58 50 59 53 60 62 61 76 62 51 63 52 64 61 66 77 67
REMARK SMILES IDX 54 68 43 69 44 70 48 71 45 72 47 73 46 74 65 75 66 76 70 77
REMARK SMILES IDX 67 78 69 79 68 80 55 81 56 82 60 83 57 84 59 85 58 86
REMARK H PARENT 24 8 8 27 31 35 75 54 53 65
REMARK Flexibility Score: inf
ROOT
ATOM      1  C   UNL A   1      41.440  31.871  34.358  1.00  0.00     0.002 C 
ENDROOT
BRANCH   1   2
ATOM      2  C   UNL A   1      40.727  30.633  33.805  1.00  0.00     0.002 C 
BRANCH   2   3
ATOM      3  C   UNL A   1      39.191  30.729  33.806  1.00  0.00     0.021 C 
BRANCH   3   4
ATOM      4  C   UNL A   1      38.496  29.536  33.157  1.00  0.00     0.116 C 
BRANCH   4   5
ATOM      5  N   UNL A   1      37.118  29.870  32.946  1.00  0.00    -0.356 N 
ATOM      6  O   UNL A   1      37.197  29.789  30.652  1.00  0.00    -0.275 OA
ATOM      7  C   UNL A   1      36.668  30.146  31.695  1.00  0.00     0.221 C 
ATOM      8  H   UNL A   1      36.497  29.900  33.710  1.00  0.00     0.163 HD
BRANCH   7   9
ATOM      9  C   UNL A   1      35.556  31.131  31.723  1.00  0.00     0.120 C 
BRANCH   9  10
ATOM     10  C   UNL A   1      35.845  32.614  32.094  1.00  0.00     0.098 C 
ATOM     11  C   UNL A   1      35.805  32.716  33.632  1.00  0.00     0.097 C 
ATOM     12  C   UNL A   1      34.737  33.387  31.310  1.00  0.00     0.085 C 
ATOM     13  C   UNL A   1      37.203  33.223  31.655  1.00  0.00     0.319 C 
ATOM     14  S   UNL A   1      35.547  34.358  34.325  1.00  0.00    -0.106 SA
ATOM     15  C   UNL A   1      34.329  34.707  31.884  1.00  0.00     0.049 A 
ATOM     16  C   UNL A   1      35.066  33.143  29.812  1.00  0.00     0.006 A 
ATOM     17  O   UNL A   1      37.396  33.506  30.321  1.00  0.00    -0.426 OA
ATOM     18  O   UNL A   1      38.109  33.487  32.441  1.00  0.00    -0.251 OA
ATOM     19  C   UNL A   1      34.537  35.069  33.161  1.00  0.00     0.090 A 
ATOM     20  S   UNL A   1      33.020  35.663  31.204  1.00  0.00    -0.077 S 
ATOM     21  C   UNL A   1      34.156  32.435  29.004  1.00  0.00     0.028 A 
ATOM     22  C   UNL A   1      36.419  33.044  29.452  1.00  0.00     0.134 A 
ATOM     23  N   UNL A   1      33.684  36.022  33.627  1.00  0.00    -0.307 N 
ATOM     24  C   UNL A   1      32.727  36.446  32.764  1.00  0.00     0.305 A 
ATOM     25  C   UNL A   1      34.625  31.553  28.010  1.00  0.00     0.041 A 
ATOM     26  C   UNL A   1      36.889  32.240  28.404  1.00  0.00     0.049 A 
ATOM     27  H   UNL A   1      33.756  36.384  34.540  1.00  0.00     0.171 HD
ATOM     28  O   UNL A   1      31.783  37.196  33.016  1.00  0.00    -0.257 OA
ATOM     29  Cl  UNL A   1      33.530  30.444  27.276  1.00  0.00    -0.084 Cl
ATOM     30  C   UNL A   1      35.986  31.442  27.717  1.00  0.00     0.024 A 
ENDBRANCH   9  10
ENDBRANCH   7   9
ENDBRANCH   4   5
ENDBRANCH   3   4
ENDBRANCH   2   3
ENDBRANCH   1   2
BRANCH   1  31
ATOM     31  C   UNL A   1      41.827  32.902  33.293  1.00  0.00     0.021 C 
BRANCH  31  32
ATOM     32  C   UNL A   1      40.755  33.961  33.047  1.00  0.00     0.116 C 
BRANCH  32  33
ATOM     33  N   UNL A   1      40.815  34.517  31.719  1.00  0.00    -0.352 N 
ATOM     34  C   UNL A   1      40.935  33.967  30.477  1.00  0.00     0.251 C 
ATOM     35  H   UNL A   1      40.759  35.499  31.705  1.00  0.00     0.163 HD
ATOM     36  O   UNL A   1      40.882  34.750  29.525  1.00  0.00    -0.269 OA
BRANCH  34  37
ATOM     37  C   UNL A   1      41.181  32.523  30.212  1.00  0.00     0.039 A 
ATOM     38  C   UNL A   1      40.234  31.499  30.291  1.00  0.00     0.014 A 
ATOM     39  C   UNL A   1      42.509  32.184  29.899  1.00  0.00     0.014 A 
ATOM     40  C   UNL A   1      40.615  30.172  30.159  1.00  0.00     0.010 A 
ATOM     41  C   UNL A   1      42.893  30.860  29.736  1.00  0.00     0.010 A 
ATOM     42  C   UNL A   1      41.949  29.853  29.910  1.00  0.00    -0.014 A 
BRANCH  42  43
ATOM     43  C   UNL A   1      42.277  28.447  29.724  1.00  0.00     0.031 A 
ATOM     44  C   UNL A   1      43.030  27.825  30.852  1.00  0.00     0.074 A 
ATOM     45  C   UNL A   1      41.849  27.724  28.673  1.00  0.00     0.049 A 
ATOM     46  N   UNL A   1      44.187  27.250  30.822  1.00  0.00    -0.248 NA
ATOM     47  C   UNL A   1      42.458  27.953  32.202  1.00  0.00     0.031 C 
ATOM     48  C   UNL A   1      40.874  28.114  27.651  1.00  0.00     0.029 A 
ATOM     49  N   UNL A   1      42.114  26.423  28.368  1.00  0.00    -0.354 N 
ATOM     50  C   UNL A   1      44.430  26.799  32.119  1.00  0.00     0.074 A 
ATOM     51  C   UNL A   1      43.394  27.365  32.945  1.00  0.00     0.031 C 
ATOM     52  C   UNL A   1      40.446  27.008  27.003  1.00  0.00     0.029 A 
ATOM     53  C   UNL A   1      41.224  25.868  27.459  1.00  0.00     0.049 A 
ATOM     54  H   UNL A   1      42.868  25.922  28.757  1.00  0.00     0.167 HD
ATOM     55  C   UNL A   1      45.356  25.838  32.389  1.00  0.00     0.031 A 
ATOM     56  C   UNL A   1      41.087  24.553  27.166  1.00  0.00     0.031 A 
ATOM     57  C   UNL A   1      46.295  25.686  31.313  1.00  0.00     0.049 A 
ATOM     58  C   UNL A   1      42.325  23.862  27.590  1.00  0.00     0.074 A 
ATOM     59  C   UNL A   1      47.251  26.490  30.728  1.00  0.00     0.029 A 
ATOM     60  N   UNL A   1      46.088  24.643  30.444  1.00  0.00    -0.354 N 
ATOM     61  N   UNL A   1      43.483  24.031  27.023  1.00  0.00    -0.248 NA
ATOM     62  C   UNL A   1      42.356  23.258  28.911  1.00  0.00     0.031 C 
ATOM     63  C   UNL A   1      47.232  26.141  29.349  1.00  0.00     0.029 A 
ATOM     64  C   UNL A   1      46.309  25.107  29.176  1.00  0.00     0.049 A 
ATOM     65  H   UNL A   1      45.828  23.726  30.690  1.00  0.00     0.167 HD
ATOM     66  C   UNL A   1      44.396  23.970  28.065  1.00  0.00     0.074 A 
ATOM     67  C   UNL A   1      43.659  23.371  29.175  1.00  0.00     0.031 C 
ATOM     68  C   UNL A   1      45.570  24.664  28.012  1.00  0.00     0.031 A 
BRANCH  55  69
ATOM     69  C   UNL A   1      45.178  24.774  33.448  1.00  0.00    -0.014 A 
ATOM     70  C   UNL A   1      44.008  24.005  33.593  1.00  0.00     0.009 A 
ATOM     71  C   UNL A   1      46.315  24.320  34.146  1.00  0.00     0.009 A 
ATOM     72  C   UNL A   1      43.981  22.826  34.345  1.00  0.00     0.001 A 
ATOM     73  C   UNL A   1      46.304  23.118  34.864  1.00  0.00     0.001 A 
ATOM     74  C   UNL A   1      45.138  22.365  34.954  1.00  0.00     0.000 A 
ENDBRANCH  55  69
BRANCH  56  75
ATOM     75  C   UNL A   1      39.841  23.807  26.887  1.00  0.00    -0.014 A 
ATOM     76  C   UNL A   1      39.901  22.469  26.457  1.00  0.00     0.009 A 
ATOM     77  C   UNL A   1      38.621  24.487  26.746  1.00  0.00     0.009 A 
ATOM     78  C   UNL A   1      38.798  21.848  25.862  1.00  0.00     0.001 A 
ATOM     79  C   UNL A   1      37.518  23.866  26.145  1.00  0.00     0.001 A 
ATOM     80  C   UNL A   1      37.613  22.553  25.689  1.00  0.00     0.000 A 
ENDBRANCH  56  75
BRANCH  68  81
ATOM     81  C   UNL A   1      45.997  25.264  26.694  1.00  0.00    -0.014 A 
ATOM     82  C   UNL A   1      47.043  24.637  25.996  1.00  0.00     0.009 A 
ATOM     83  C   UNL A   1      45.540  26.508  26.230  1.00  0.00     0.009 A 
ATOM     84  C   UNL A   1      47.628  25.243  24.882  1.00  0.00     0.001 A 
ATOM     85  C   UNL A   1      46.107  27.102  25.095  1.00  0.00     0.001 A 
ATOM     86  C   UNL A   1      47.159  26.474  24.432  1.00  0.00     0.000 A 
ENDBRANCH  68  81
ENDBRANCH  42  43
ENDBRANCH  34  37
ENDBRANCH  32  33
ENDBRANCH  31  32
ENDBRANCH   1  31
TORSDOF 14
ENDMDL
MODEL 3
REMARK VINA RESULT:     -12.1      5.014     10.232
REMARK SMILES O=C(C[C@]12CSc3[nH]c(=O)sc3[C@H]1c1cc(Cl)ccc1OC2=O)NCCCCCCNC(=O)c1ccc(-c2c3nc(c(-c4ccccc4)c4ccc([nH]4)c(-c4ccccc4)c4nc(c(-c5ccccc5)c5ccc2[nH]5)C=C4)C=C3)cc1
REMARK SMILES IDX 28 1 27 2 26 3 25 4 24 5 1 6 2 7 3 9 4 10 5 11 13 12 22 13
REMARK SMILES IDX 6 14 12 15 14 16 21 17 23 18 7 19 11 20 15 21 20 22 8 23
REMARK SMILES IDX 9 24 16 25 19 26 10 28 17 29 18 30 29 31 30 32 31 33 32 34
REMARK SMILES IDX 33 36 34 37 35 38 81 39 36 40 80 41 37 42 38 43 39 44 74 45
REMARK SMILES IDX 40 46 79 47 73 48 75 49 41 50 78 51 72 52 71 53 42 55 64 56
REMARK SMILES IDX 49 57 63 58 50 59 53 60 62 61 76 62 51 63 52 64 61 66 77 67
REMARK SMILES IDX 54 68 43 69 44 70 48 71 45 72 47 73 46 74 65 75 66 76 70 77
REMARK SMILES IDX 67 78 69 79 68 80 55 81 56 82 60 83 57 84 59 85 58 86
REMARK H PARENT 24 8 8 27 31 35 75 54 53 65
REMARK Flexibility Score: inf
ROOT
ATOM      1  C   UNL A   1      46.228  28.481  28.819  1.00  0.00     0.002 C 
ENDROOT
BRANCH   1   2
ATOM      2  C   UNL A   1      45.678  28.966  27.475  1.00  0.00     0.002 C 
BRANCH   2   3
ATOM      3  C   UNL A   1      45.164  27.845  26.556  1.00  0.00     0.021 C 
BRANCH   3   4
ATOM      4  C   UNL A   1      43.743  28.064  26.045  1.00  0.00     0.116 C 
BRANCH   4   5
ATOM      5  N   UNL A   1      43.384  26.961  25.204  1.00  0.00    -0.356 N 
ATOM      6  O   UNL A   1      41.481  26.386  26.355  1.00  0.00    -0.275 OA
ATOM      7  C   UNL A   1      42.382  26.121  25.572  1.00  0.00     0.221 C 
ATOM      8  H   UNL A   1      43.865  26.811  24.358  1.00  0.00     0.163 HD
BRANCH   7   9
ATOM      9  C   UNL A   1      42.620  24.742  25.075  1.00  0.00     0.120 C 
BRANCH   9  10
ATOM     10  C   UNL A   1      43.840  23.931  25.599  1.00  0.00     0.098 C 
ATOM     11  C   UNL A   1      45.058  24.336  24.746  1.00  0.00     0.097 C 
ATOM     12  C   UNL A   1      43.352  22.452  25.467  1.00  0.00     0.085 C 
ATOM     13  C   UNL A   1      44.263  24.125  27.079  1.00  0.00     0.319 C 
ATOM     14  S   UNL A   1      46.451  23.194  24.732  1.00  0.00    -0.106 SA
ATOM     15  C   UNL A   1      44.424  21.422  25.295  1.00  0.00     0.049 A 
ATOM     16  C   UNL A   1      42.170  22.333  26.468  1.00  0.00     0.006 A 
ATOM     17  O   UNL A   1      43.468  23.589  28.067  1.00  0.00    -0.426 OA
ATOM     18  O   UNL A   1      45.287  24.716  27.415  1.00  0.00    -0.251 OA
ATOM     19  C   UNL A   1      45.667  21.694  24.864  1.00  0.00     0.090 A 
ATOM     20  S   UNL A   1      44.060  19.725  25.018  1.00  0.00    -0.077 S 
ATOM     21  C   UNL A   1      40.875  22.062  25.987  1.00  0.00     0.028 A 
ATOM     22  C   UNL A   1      42.246  23.077  27.655  1.00  0.00     0.134 A 
ATOM     23  N   UNL A   1      46.312  20.642  24.290  1.00  0.00    -0.307 N 
ATOM     24  C   UNL A   1      45.609  19.485  24.197  1.00  0.00     0.305 A 
ATOM     25  C   UNL A   1      39.753  22.665  26.591  1.00  0.00     0.041 A 
ATOM     26  C   UNL A   1      41.128  23.605  28.316  1.00  0.00     0.049 A 
ATOM     27  H   UNL A   1      47.237  20.715  23.960  1.00  0.00     0.171 HD
ATOM     28  O   UNL A   1      45.948  18.460  23.603  1.00  0.00    -0.257 OA
ATOM     29  Cl  UNL A   1      38.228  22.609  25.792  1.00  0.00    -0.084 Cl
ATOM     30  C   UNL A   1      39.876  23.445  27.743  1.00  0.00     0.024 A 
ENDBRANCH   9  10
ENDBRANCH   7   9
ENDBRANCH   4   5
ENDBRANCH   3   4
ENDBRANCH   2   3
ENDBRANCH   1   2
BRANCH   1  31
ATOM     31  C   UNL A   1      46.706  27.026  28.816  1.00  0.00     0.021 C 
BRANCH  31  32
ATOM     32  C   UNL A   1      47.079  26.500  30.201  1.00  0.00     0.116 C 
BRANCH  32  33
ATOM     33  N   UNL A   1      46.239  25.409  30.627  1.00  0.00    -0.352 N 
ATOM     34  C   UNL A   1      44.891  25.263  30.769  1.00  0.00     0.251 C 
ATOM     35  H   UNL A   1      46.745  24.600  30.868  1.00  0.00     0.163 HD
ATOM     36  O   UNL A   1      44.494  24.142  31.098  1.00  0.00    -0.269 OA
BRANCH  34  37
ATOM     37  C   UNL A   1      43.901  26.363  30.613  1.00  0.00     0.039 A 
ATOM     38  C   UNL A   1      43.084  26.584  29.501  1.00  0.00     0.014 A 
ATOM     39  C   UNL A   1      43.835  27.273  31.682  1.00  0.00     0.014 A 
ATOM     40  C   UNL A   1      42.302  27.726  29.414  1.00  0.00     0.010 A 
ATOM     41  C   UNL A   1      43.032  28.403  31.616  1.00  0.00     0.010 A 
ATOM     42  C   UNL A   1      42.299  28.648  30.459  1.00  0.00    -0.014 A 
BRANCH  42  43
ATOM     43  C   UNL A   1      41.414  29.797  30.335  1.00  0.00     0.031 A 
ATOM     44  C   UNL A   1      42.103  31.095  30.081  1.00  0.00     0.074 A 
ATOM     45  C   UNL A   1      40.071  29.697  30.339  1.00  0.00     0.049 A 
ATOM     46  N   UNL A   1      42.061  32.177  30.787  1.00  0.00    -0.248 NA
ATOM     47  C   UNL A   1      43.039  31.155  28.946  1.00  0.00     0.031 C 
ATOM     48  C   UNL A   1      39.262  28.476  30.287  1.00  0.00     0.029 A 
ATOM     49  N   UNL A   1      39.142  30.689  30.268  1.00  0.00    -0.354 N 
ATOM     50  C   UNL A   1      42.839  33.114  30.108  1.00  0.00     0.074 A 
ATOM     51  C   UNL A   1      43.511  32.396  29.055  1.00  0.00     0.031 C 
ATOM     52  C   UNL A   1      37.996  28.800  29.940  1.00  0.00     0.029 A 
ATOM     53  C   UNL A   1      37.879  30.248  29.898  1.00  0.00     0.049 A 
ATOM     54  H   UNL A   1      39.347  31.633  30.461  1.00  0.00     0.167 HD
ATOM     55  C   UNL A   1      42.728  34.451  30.341  1.00  0.00     0.031 A 
ATOM     56  C   UNL A   1      36.838  31.022  29.508  1.00  0.00     0.031 A 
ATOM     57  C   UNL A   1      42.086  34.721  31.598  1.00  0.00     0.049 A 
ATOM     58  C   UNL A   1      37.090  32.399  29.987  1.00  0.00     0.074 A 
ATOM     59  C   UNL A   1      42.389  34.480  32.922  1.00  0.00     0.029 A 
ATOM     60  N   UNL A   1      40.753  35.048  31.563  1.00  0.00    -0.354 N 
ATOM     61  N   UNL A   1      37.085  32.745  31.241  1.00  0.00    -0.248 NA
ATOM     62  C   UNL A   1      37.737  33.333  29.082  1.00  0.00     0.031 C 
ATOM     63  C   UNL A   1      41.135  34.227  33.546  1.00  0.00     0.029 A 
ATOM     64  C   UNL A   1      40.134  34.381  32.584  1.00  0.00     0.049 A 
ATOM     65  H   UNL A   1      40.321  35.654  30.918  1.00  0.00     0.167 HD
ATOM     66  C   UNL A   1      38.088  33.696  31.346  1.00  0.00     0.074 A 
ATOM     67  C   UNL A   1      38.365  34.104  29.971  1.00  0.00     0.031 C 
ATOM     68  C   UNL A   1      38.787  33.855  32.508  1.00  0.00     0.031 A 
BRANCH  55  69
ATOM     69  C   UNL A   1      42.845  35.504  29.264  1.00  0.00    -0.014 A 
ATOM     70  C   UNL A   1      44.037  36.193  28.971  1.00  0.00     0.009 A 
ATOM     71  C   UNL A   1      41.810  35.615  28.313  1.00  0.00     0.009 A 
ATOM     72  C   UNL A   1      44.210  36.908  27.782  1.00  0.00     0.001 A 
ATOM     73  C   UNL A   1      41.995  36.293  27.102  1.00  0.00     0.001 A 
ATOM     74  C   UNL A   1      43.200  36.931  26.832  1.00  0.00     0.000 A 
ENDBRANCH  55  69
BRANCH  56  75
ATOM     75  C   UNL A   1      35.838  30.740  28.456  1.00  0.00    -0.014 A 
ATOM     76  C   UNL A   1      34.713  31.573  28.310  1.00  0.00     0.009 A 
ATOM     77  C   UNL A   1      35.821  29.496  27.805  1.00  0.00     0.009 A 
ATOM     78  C   UNL A   1      33.594  31.160  27.580  1.00  0.00     0.001 A 
ATOM     79  C   UNL A   1      34.698  29.080  27.078  1.00  0.00     0.001 A 
ATOM     80  C   UNL A   1      33.579  29.905  26.981  1.00  0.00     0.000 A 
ENDBRANCH  56  75
BRANCH  68  81
ATOM     81  C   UNL A   1      38.268  33.191  33.761  1.00  0.00    -0.014 A 
ATOM     82  C   UNL A   1      37.655  34.005  34.729  1.00  0.00     0.009 A 
ATOM     83  C   UNL A   1      38.533  31.852  34.090  1.00  0.00     0.009 A 
ATOM     84  C   UNL A   1      37.337  33.503  35.992  1.00  0.00     0.001 A 
ATOM     85  C   UNL A   1      38.187  31.341  35.346  1.00  0.00     0.001 A 
ATOM     86  C   UNL A   1      37.602  32.171  36.300  1.00  0.00     0.000 A 
ENDBRANCH  68  81
ENDBRANCH  42  43
ENDBRANCH  34  37
ENDBRANCH  32  33
ENDBRANCH  31  32
ENDBRANCH   1  31
TORSDOF 14
ENDMDL
