MODEL 1
REMARK VINA RESULT:     -11.3      0.000      0.000
REMARK SMILES C[C@H](NC(=O)c1ccc(C(C)(C)C)cc1)C(=O)N[C@@H](C(=O)NCCCCCCNC(=O)c1ccc(-c2c3nc(c(-c4ccccc4)c4ccc([nH]4)c(-c4ccccc4)c4nc(c(-c5ccccc5)c5ccc2[nH]5)C=C4)C=C3)cc1)[C@H](C)O
REMARK SMILES IDX 24 1 23 2 22 3 20 4 21 5 19 7 18 8 16 9 17 10 2 12 1 13 3 14
REMARK SMILES IDX 4 15 5 17 6 18 7 19 15 20 8 21 14 22 9 23 10 24 11 25 12 26
REMARK SMILES IDX 13 27 80 28 81 29 82 30 25 32 26 33 27 34 28 35 29 36 30 37
REMARK SMILES IDX 31 39 32 40 33 41 79 42 34 43 78 44 35 45 36 46 37 47 72 48
REMARK SMILES IDX 38 49 77 50 71 51 73 52 39 53 76 54 70 55 69 56 40 58 62 59
REMARK SMILES IDX 47 60 61 61 48 62 51 63 60 64 74 65 49 66 50 67 59 69 75 70
REMARK SMILES IDX 52 71 41 72 42 73 46 74 43 75 45 76 44 77 63 78 64 79 68 80
REMARK SMILES IDX 65 81 67 82 66 83 53 84 54 85 58 86 55 87 57 88 56 89
REMARK H PARENT 22 6 18 11 3 16 82 31 29 38 73 57 51 68
REMARK Flexibility Score: inf
ROOT
ATOM      1  C   UNL A   1      31.964  28.566  27.029  1.00  0.00     0.021 C 
ENDROOT
BRANCH   1   2
ATOM      2  C   UNL A   1      33.138  27.727  26.539  1.00  0.00     0.116 C 
BRANCH   2   3
ATOM      3  N   UNL A   1      33.786  28.295  25.374  1.00  0.00    -0.354 N 
ATOM      4  C   UNL A   1      33.555  28.172  24.037  1.00  0.00     0.245 C 
ATOM      5  O   UNL A   1      34.119  29.014  23.328  1.00  0.00    -0.273 OA
ATOM      6  H   UNL A   1      34.542  28.887  25.592  1.00  0.00     0.163 HD
BRANCH   4   7
ATOM      7  C   UNL A   1      32.484  27.213  23.435  1.00  0.00     0.200 C 
BRANCH   7   8
ATOM      8  N   UNL A   1      32.947  26.339  22.352  1.00  0.00    -0.340 N 
ATOM      9  C   UNL A   1      32.882  24.991  22.176  1.00  0.00     0.243 C 
ATOM     10  O   UNL A   1      33.324  24.547  21.111  1.00  0.00    -0.273 OA
ATOM     11  H   UNL A   1      33.386  26.818  21.613  1.00  0.00     0.164 HD
BRANCH   9  12
ATOM     12  C   UNL A   1      32.344  24.024  23.257  1.00  0.00     0.168 C 
ATOM     13  C   UNL A   1      30.841  23.810  23.252  1.00  0.00     0.041 C 
BRANCH  12  14
ATOM     14  N   UNL A   1      32.836  24.411  24.583  1.00  0.00    -0.341 N 
ATOM     15  C   UNL A   1      33.459  23.643  25.533  1.00  0.00     0.251 C 
ATOM     16  H   UNL A   1      32.701  25.356  24.824  1.00  0.00     0.164 HD
ATOM     17  O   UNL A   1      33.909  24.158  26.551  1.00  0.00    -0.269 OA
BRANCH  15  18
ATOM     18  C   UNL A   1      33.509  22.183  25.359  1.00  0.00     0.039 A 
ATOM     19  C   UNL A   1      32.322  21.466  25.491  1.00  0.00     0.014 A 
ATOM     20  C   UNL A   1      34.693  21.535  25.017  1.00  0.00     0.014 A 
ATOM     21  C   UNL A   1      32.304  20.105  25.185  1.00  0.00     0.005 A 
ATOM     22  C   UNL A   1      34.665  20.173  24.700  1.00  0.00     0.005 A 
ATOM     23  C   UNL A   1      33.464  19.439  24.734  1.00  0.00    -0.043 A 
BRANCH  23  24
ATOM     24  C   UNL A   1      33.378  17.969  24.284  1.00  0.00    -0.013 C 
ATOM     25  C   UNL A   1      34.784  17.342  24.314  1.00  0.00     0.016 C 
ATOM     26  C   UNL A   1      32.446  17.181  25.232  1.00  0.00     0.016 C 
ATOM     27  C   UNL A   1      32.809  17.792  22.857  1.00  0.00     0.016 C 
ENDBRANCH  23  24
ENDBRANCH  15  18
ENDBRANCH  12  14
ENDBRANCH   9  12
ENDBRANCH   7   8
BRANCH   7  28
ATOM     28  C   UNL A   1      31.283  28.064  22.928  1.00  0.00     0.143 C 
ATOM     29  C   UNL A   1      30.028  27.913  23.784  1.00  0.00     0.041 C 
BRANCH  28  30
ATOM     30  O   UNL A   1      30.951  27.686  21.582  1.00  0.00    -0.391 OA
ATOM     31  H   UNL A   1      30.535  28.436  21.129  1.00  0.00     0.211 HD
ENDBRANCH  28  30
ENDBRANCH   7  28
ENDBRANCH   4   7
ENDBRANCH   2   3
ENDBRANCH   1   2
BRANCH   1  32
ATOM     32  C   UNL A   1      32.212  30.077  27.036  1.00  0.00     0.002 C 
BRANCH  32  33
ATOM     33  C   UNL A   1      31.218  30.920  26.228  1.00  0.00     0.002 C 
BRANCH  33  34
ATOM     34  C   UNL A   1      31.372  32.440  26.345  1.00  0.00     0.021 C 
BRANCH  34  35
ATOM     35  C   UNL A   1      32.491  32.923  27.265  1.00  0.00     0.116 C 
BRANCH  35  36
ATOM     36  N   UNL A   1      32.313  34.298  27.698  1.00  0.00    -0.352 N 
ATOM     37  C   UNL A   1      33.009  35.026  28.630  1.00  0.00     0.251 C 
ATOM     38  H   UNL A   1      31.578  34.782  27.256  1.00  0.00     0.163 HD
ATOM     39  O   UNL A   1      32.618  36.145  28.952  1.00  0.00    -0.269 OA
BRANCH  37  40
ATOM     40  C   UNL A   1      34.217  34.464  29.273  1.00  0.00     0.039 A 
ATOM     41  C   UNL A   1      34.077  33.813  30.503  1.00  0.00     0.014 A 
ATOM     42  C   UNL A   1      35.481  34.593  28.690  1.00  0.00     0.014 A 
ATOM     43  C   UNL A   1      35.189  33.228  31.112  1.00  0.00     0.010 A 
ATOM     44  C   UNL A   1      36.581  33.964  29.273  1.00  0.00     0.010 A 
ATOM     45  C   UNL A   1      36.443  33.269  30.484  1.00  0.00    -0.014 A 
BRANCH  45  46
ATOM     46  C   UNL A   1      37.610  32.552  31.059  1.00  0.00     0.031 A 
ATOM     47  C   UNL A   1      38.281  33.056  32.304  1.00  0.00     0.074 A 
ATOM     48  C   UNL A   1      38.106  31.480  30.413  1.00  0.00     0.049 A 
ATOM     49  N   UNL A   1      39.345  32.593  32.911  1.00  0.00    -0.248 NA
ATOM     50  C   UNL A   1      37.693  34.244  32.941  1.00  0.00     0.031 C 
ATOM     51  C   UNL A   1      37.571  30.913  29.174  1.00  0.00     0.029 A 
ATOM     52  N   UNL A   1      39.183  30.681  30.707  1.00  0.00    -0.354 N 
ATOM     53  C   UNL A   1      39.565  33.441  33.988  1.00  0.00     0.074 A 
ATOM     54  C   UNL A   1      38.543  34.465  33.935  1.00  0.00     0.031 C 
ATOM     55  C   UNL A   1      38.313  29.850  28.821  1.00  0.00     0.029 A 
ATOM     56  C   UNL A   1      39.392  29.682  29.788  1.00  0.00     0.049 A 
ATOM     57  H   UNL A   1      39.752  30.812  31.500  1.00  0.00     0.167 HD
ATOM     58  C   UNL A   1      40.524  33.367  34.942  1.00  0.00     0.031 A 
ATOM     59  C   UNL A   1      40.352  28.739  29.724  1.00  0.00     0.031 A 
ATOM     60  C   UNL A   1      41.535  32.345  35.005  1.00  0.00     0.049 A 
ATOM     61  C   UNL A   1      41.406  28.685  30.790  1.00  0.00     0.074 A 
ATOM     62  C   UNL A   1      42.506  32.153  35.972  1.00  0.00     0.029 A 
ATOM     63  N   UNL A   1      41.705  31.346  34.061  1.00  0.00    -0.354 N 
ATOM     64  N   UNL A   1      41.560  29.455  31.840  1.00  0.00    -0.248 NA
ATOM     65  C   UNL A   1      42.417  27.624  30.667  1.00  0.00     0.031 C 
ATOM     66  C   UNL A   1      43.293  31.060  35.591  1.00  0.00     0.029 A 
ATOM     67  C   UNL A   1      42.784  30.549  34.408  1.00  0.00     0.049 A 
ATOM     68  H   UNL A   1      41.145  31.221  33.262  1.00  0.00     0.167 HD
ATOM     69  C   UNL A   1      42.671  28.963  32.509  1.00  0.00     0.074 A 
ATOM     70  C   UNL A   1      43.144  27.819  31.758  1.00  0.00     0.031 C 
ATOM     71  C   UNL A   1      43.249  29.421  33.646  1.00  0.00     0.031 A 
BRANCH  58  72
ATOM     72  C   UNL A   1      40.531  34.436  35.998  1.00  0.00    -0.014 A 
ATOM     73  C   UNL A   1      39.770  34.302  37.170  1.00  0.00     0.009 A 
ATOM     74  C   UNL A   1      41.345  35.568  35.839  1.00  0.00     0.009 A 
ATOM     75  C   UNL A   1      39.800  35.297  38.149  1.00  0.00     0.001 A 
ATOM     76  C   UNL A   1      41.391  36.550  36.831  1.00  0.00     0.001 A 
ATOM     77  C   UNL A   1      40.613  36.418  37.981  1.00  0.00     0.000 A 
ENDBRANCH  58  72
BRANCH  59  78
ATOM     78  C   UNL A   1      40.355  27.763  28.605  1.00  0.00    -0.014 A 
ATOM     79  C   UNL A   1      39.678  26.541  28.728  1.00  0.00     0.009 A 
ATOM     80  C   UNL A   1      41.036  28.049  27.412  1.00  0.00     0.009 A 
ATOM     81  C   UNL A   1      39.700  25.615  27.683  1.00  0.00     0.001 A 
ATOM     82  C   UNL A   1      41.035  27.131  26.361  1.00  0.00     0.001 A 
ATOM     83  C   UNL A   1      40.375  25.911  26.500  1.00  0.00     0.000 A 
ENDBRANCH  59  78
BRANCH  71  84
ATOM     84  C   UNL A   1      44.446  28.671  34.152  1.00  0.00    -0.014 A 
ATOM     85  C   UNL A   1      44.308  27.636  35.091  1.00  0.00     0.009 A 
ATOM     86  C   UNL A   1      45.724  28.980  33.660  1.00  0.00     0.009 A 
ATOM     87  C   UNL A   1      45.431  26.946  35.549  1.00  0.00     0.001 A 
ATOM     88  C   UNL A   1      46.842  28.273  34.104  1.00  0.00     0.001 A 
ATOM     89  C   UNL A   1      46.696  27.263  35.053  1.00  0.00     0.000 A 
ENDBRANCH  71  84
ENDBRANCH  45  46
ENDBRANCH  37  40
ENDBRANCH  35  36
ENDBRANCH  34  35
ENDBRANCH  33  34
ENDBRANCH  32  33
ENDBRANCH   1  32
TORSDOF 20
ENDMDL
MODEL 2
REMARK VINA RESULT:     -11.3      1.779      6.338
REMARK SMILES C[C@H](NC(=O)c1ccc(C(C)(C)C)cc1)C(=O)N[C@@H](C(=O)NCCCCCCNC(=O)c1ccc(-c2c3nc(c(-c4ccccc4)c4ccc([nH]4)c(-c4ccccc4)c4nc(c(-c5ccccc5)c5ccc2[nH]5)C=C4)C=C3)cc1)[C@H](C)O
REMARK SMILES IDX 24 1 23 2 22 3 20 4 21 5 19 7 18 8 16 9 17 10 2 12 1 13 3 14
REMARK SMILES IDX 4 15 5 17 6 18 7 19 15 20 8 21 14 22 9 23 10 24 11 25 12 26
REMARK SMILES IDX 13 27 80 28 81 29 82 30 25 32 26 33 27 34 28 35 29 36 30 37
REMARK SMILES IDX 31 39 32 40 33 41 79 42 34 43 78 44 35 45 36 46 37 47 72 48
REMARK SMILES IDX 38 49 77 50 71 51 73 52 39 53 76 54 70 55 69 56 40 58 62 59
REMARK SMILES IDX 47 60 61 61 48 62 51 63 60 64 74 65 49 66 50 67 59 69 75 70
REMARK SMILES IDX 52 71 41 72 42 73 46 74 43 75 45 76 44 77 63 78 64 79 68 80
REMARK SMILES IDX 65 81 67 82 66 83 53 84 54 85 58 86 55 87 57 88 56 89
REMARK H PARENT 22 6 18 11 3 16 82 31 29 38 73 57 51 68
REMARK Flexibility Score: inf
ROOT
ATOM      1  C   UNL A   1      35.200  29.300  27.557  1.00  0.00     0.021 C 
ENDROOT
BRANCH   1   2
ATOM      2  C   UNL A   1      33.993  29.143  26.640  1.00  0.00     0.116 C 
BRANCH   2   3
ATOM      3  N   UNL A   1      32.768  28.872  27.366  1.00  0.00    -0.354 N 
ATOM      4  C   UNL A   1      31.736  28.012  27.144  1.00  0.00     0.245 C 
ATOM      5  O   UNL A   1      30.983  27.838  28.110  1.00  0.00    -0.273 OA
ATOM      6  H   UNL A   1      32.663  29.417  28.179  1.00  0.00     0.163 HD
BRANCH   4   7
ATOM      7  C   UNL A   1      31.618  27.120  25.872  1.00  0.00     0.200 C 
BRANCH   7   8
ATOM      8  N   UNL A   1      31.086  27.782  24.675  1.00  0.00    -0.340 N 
ATOM      9  C   UNL A   1      31.597  27.958  23.427  1.00  0.00     0.243 C 
ATOM     10  O   UNL A   1      30.871  28.524  22.603  1.00  0.00    -0.273 OA
ATOM     11  H   UNL A   1      30.190  28.170  24.799  1.00  0.00     0.164 HD
BRANCH   9  12
ATOM     12  C   UNL A   1      33.034  27.537  23.036  1.00  0.00     0.168 C 
ATOM     13  C   UNL A   1      34.088  28.623  23.157  1.00  0.00     0.041 C 
BRANCH  12  14
ATOM     14  N   UNL A   1      33.044  26.912  21.711  1.00  0.00    -0.341 N 
ATOM     15  C   UNL A   1      33.044  25.580  21.382  1.00  0.00     0.251 C 
ATOM     16  H   UNL A   1      33.050  27.536  20.950  1.00  0.00     0.164 HD
ATOM     17  O   UNL A   1      32.939  25.230  20.212  1.00  0.00    -0.269 OA
BRANCH  15  18
ATOM     18  C   UNL A   1      33.255  24.578  22.438  1.00  0.00     0.039 A 
ATOM     19  C   UNL A   1      32.284  23.596  22.613  1.00  0.00     0.014 A 
ATOM     20  C   UNL A   1      34.417  24.569  23.206  1.00  0.00     0.014 A 
ATOM     21  C   UNL A   1      32.521  22.545  23.500  1.00  0.00     0.005 A 
ATOM     22  C   UNL A   1      34.654  23.506  24.083  1.00  0.00     0.005 A 
ATOM     23  C   UNL A   1      33.732  22.450  24.217  1.00  0.00    -0.043 A 
BRANCH  23  24
ATOM     24  C   UNL A   1      34.013  21.212  25.088  1.00  0.00    -0.013 C 
ATOM     25  C   UNL A   1      33.174  20.026  24.578  1.00  0.00     0.016 C 
ATOM     26  C   UNL A   1      35.514  20.845  25.014  1.00  0.00     0.016 C 
ATOM     27  C   UNL A   1      33.683  21.420  26.583  1.00  0.00     0.016 C 
ENDBRANCH  23  24
ENDBRANCH  15  18
ENDBRANCH  12  14
ENDBRANCH   9  12
ENDBRANCH   7   8
BRANCH   7  28
ATOM     28  C   UNL A   1      30.733  25.885  26.210  1.00  0.00     0.143 C 
ATOM     29  C   UNL A   1      31.532  24.598  26.396  1.00  0.00     0.041 C 
BRANCH  28  30
ATOM     30  O   UNL A   1      29.778  25.667  25.159  1.00  0.00    -0.391 OA
ATOM     31  H   UNL A   1      29.922  24.790  24.769  1.00  0.00     0.211 HD
ENDBRANCH  28  30
ENDBRANCH   7  28
ENDBRANCH   4   7
ENDBRANCH   2   3
ENDBRANCH   1   2
BRANCH   1  32
ATOM     32  C   UNL A   1      35.175  30.548  28.444  1.00  0.00     0.002 C 
BRANCH  32  33
ATOM     33  C   UNL A   1      34.861  31.869  27.730  1.00  0.00     0.002 C 
BRANCH  33  34
ATOM     34  C   UNL A   1      33.583  32.587  28.174  1.00  0.00     0.021 C 
BRANCH  34  35
ATOM     35  C   UNL A   1      33.670  34.110  28.245  1.00  0.00     0.116 C 
BRANCH  35  36
ATOM     36  N   UNL A   1      33.278  34.639  29.540  1.00  0.00    -0.352 N 
ATOM     37  C   UNL A   1      33.811  34.411  30.784  1.00  0.00     0.251 C 
ATOM     38  H   UNL A   1      32.510  35.255  29.523  1.00  0.00     0.163 HD
ATOM     39  O   UNL A   1      33.250  34.855  31.782  1.00  0.00    -0.269 OA
BRANCH  37  40
ATOM     40  C   UNL A   1      35.046  33.612  30.937  1.00  0.00     0.039 A 
ATOM     41  C   UNL A   1      36.220  34.076  30.336  1.00  0.00     0.014 A 
ATOM     42  C   UNL A   1      35.052  32.406  31.645  1.00  0.00     0.014 A 
ATOM     43  C   UNL A   1      37.413  33.371  30.503  1.00  0.00     0.010 A 
ATOM     44  C   UNL A   1      36.254  31.731  31.855  1.00  0.00     0.010 A 
ATOM     45  C   UNL A   1      37.447  32.212  31.294  1.00  0.00    -0.014 A 
BRANCH  45  46
ATOM     46  C   UNL A   1      38.728  31.517  31.578  1.00  0.00     0.031 A 
ATOM     47  C   UNL A   1      39.181  30.366  30.727  1.00  0.00     0.074 A 
ATOM     48  C   UNL A   1      39.450  31.884  32.654  1.00  0.00     0.049 A 
ATOM     49  N   UNL A   1      40.239  29.606  30.865  1.00  0.00    -0.248 NA
ATOM     50  C   UNL A   1      38.329  30.011  29.582  1.00  0.00     0.031 C 
ATOM     51  C   UNL A   1      39.100  32.959  33.584  1.00  0.00     0.029 A 
ATOM     52  N   UNL A   1      40.627  31.383  33.152  1.00  0.00    -0.354 N 
ATOM     53  C   UNL A   1      40.170  28.673  29.839  1.00  0.00     0.074 A 
ATOM     54  C   UNL A   1      38.952  28.942  29.104  1.00  0.00     0.031 C 
ATOM     55  C   UNL A   1      40.048  33.046  34.532  1.00  0.00     0.029 A 
ATOM     56  C   UNL A   1      41.052  32.014  34.295  1.00  0.00     0.049 A 
ATOM     57  H   UNL A   1      41.119  30.641  32.731  1.00  0.00     0.167 HD
ATOM     58  C   UNL A   1      41.048  27.689  29.529  1.00  0.00     0.031 A 
ATOM     59  C   UNL A   1      42.125  31.783  35.075  1.00  0.00     0.031 A 
ATOM     60  C   UNL A   1      42.265  27.425  30.249  1.00  0.00     0.049 A 
ATOM     61  C   UNL A   1      43.078  30.681  34.712  1.00  0.00     0.074 A 
ATOM     62  C   UNL A   1      43.248  26.491  29.968  1.00  0.00     0.029 A 
ATOM     63  N   UNL A   1      42.663  28.093  31.395  1.00  0.00    -0.354 N 
ATOM     64  N   UNL A   1      43.033  29.851  33.699  1.00  0.00    -0.248 NA
ATOM     65  C   UNL A   1      44.235  30.490  35.598  1.00  0.00     0.031 C 
ATOM     66  C   UNL A   1      44.223  26.567  30.969  1.00  0.00     0.029 A 
ATOM     67  C   UNL A   1      43.865  27.575  31.849  1.00  0.00     0.049 A 
ATOM     68  H   UNL A   1      42.167  28.827  31.824  1.00  0.00     0.167 HD
ATOM     69  C   UNL A   1      44.161  29.051  33.816  1.00  0.00     0.074 A 
ATOM     70  C   UNL A   1      44.880  29.506  34.988  1.00  0.00     0.031 C 
ATOM     71  C   UNL A   1      44.564  28.030  33.022  1.00  0.00     0.031 A 
BRANCH  58  72
ATOM     72  C   UNL A   1      40.715  26.811  28.356  1.00  0.00    -0.014 A 
ATOM     73  C   UNL A   1      41.279  27.044  27.093  1.00  0.00     0.009 A 
ATOM     74  C   UNL A   1      39.863  25.709  28.529  1.00  0.00     0.009 A 
ATOM     75  C   UNL A   1      40.971  26.209  26.017  1.00  0.00     0.001 A 
ATOM     76  C   UNL A   1      39.576  24.862  27.457  1.00  0.00     0.001 A 
ATOM     77  C   UNL A   1      40.124  25.117  26.200  1.00  0.00     0.000 A 
ENDBRANCH  58  72
BRANCH  59  78
ATOM     78  C   UNL A   1      42.358  32.619  36.279  1.00  0.00    -0.014 A 
ATOM     79  C   UNL A   1      43.125  33.791  36.190  1.00  0.00     0.009 A 
ATOM     80  C   UNL A   1      41.818  32.250  37.520  1.00  0.00     0.009 A 
ATOM     81  C   UNL A   1      43.362  34.566  37.328  1.00  0.00     0.001 A 
ATOM     82  C   UNL A   1      42.037  33.040  38.649  1.00  0.00     0.001 A 
ATOM     83  C   UNL A   1      42.815  34.192  38.555  1.00  0.00     0.000 A 
ENDBRANCH  59  78
BRANCH  71  84
ATOM     84  C   UNL A   1      45.849  27.348  33.388  1.00  0.00    -0.014 A 
ATOM     85  C   UNL A   1      45.857  26.217  34.219  1.00  0.00     0.009 A 
ATOM     86  C   UNL A   1      47.065  27.824  32.870  1.00  0.00     0.009 A 
ATOM     87  C   UNL A   1      47.061  25.592  34.547  1.00  0.00     0.001 A 
ATOM     88  C   UNL A   1      48.264  27.183  33.183  1.00  0.00     0.001 A 
ATOM     89  C   UNL A   1      48.262  26.074  34.027  1.00  0.00     0.000 A 
ENDBRANCH  71  84
ENDBRANCH  45  46
ENDBRANCH  37  40
ENDBRANCH  35  36
ENDBRANCH  34  35
ENDBRANCH  33  34
ENDBRANCH  32  33
ENDBRANCH   1  32
TORSDOF 20
ENDMDL
MODEL 3
REMARK VINA RESULT:     -11.3      1.799      3.043
REMARK SMILES C[C@H](NC(=O)c1ccc(C(C)(C)C)cc1)C(=O)N[C@@H](C(=O)NCCCCCCNC(=O)c1ccc(-c2c3nc(c(-c4ccccc4)c4ccc([nH]4)c(-c4ccccc4)c4nc(c(-c5ccccc5)c5ccc2[nH]5)C=C4)C=C3)cc1)[C@H](C)O
REMARK SMILES IDX 24 1 23 2 22 3 20 4 21 5 19 7 18 8 16 9 17 10 2 12 1 13 3 14
REMARK SMILES IDX 4 15 5 17 6 18 7 19 15 20 8 21 14 22 9 23 10 24 11 25 12 26
REMARK SMILES IDX 13 27 80 28 81 29 82 30 25 32 26 33 27 34 28 35 29 36 30 37
REMARK SMILES IDX 31 39 32 40 33 41 79 42 34 43 78 44 35 45 36 46 37 47 72 48
REMARK SMILES IDX 38 49 77 50 71 51 73 52 39 53 76 54 70 55 69 56 40 58 62 59
REMARK SMILES IDX 47 60 61 61 48 62 51 63 60 64 74 65 49 66 50 67 59 69 75 70
REMARK SMILES IDX 52 71 41 72 42 73 46 74 43 75 45 76 44 77 63 78 64 79 68 80
REMARK SMILES IDX 65 81 67 82 66 83 53 84 54 85 58 86 55 87 57 88 56 89
REMARK H PARENT 22 6 18 11 3 16 82 31 29 38 73 57 51 68
REMARK Flexibility Score: inf
ROOT
ATOM      1  C   UNL A   1      35.307  29.185  27.239  1.00  0.00     0.021 C 
ENDROOT
BRANCH   1   2
ATOM      2  C   UNL A   1      34.096  28.885  26.362  1.00  0.00     0.116 C 
BRANCH   2   3
ATOM      3  N   UNL A   1      32.874  28.733  27.126  1.00  0.00    -0.354 N 
ATOM      4  C   UNL A   1      31.795  27.914  26.987  1.00  0.00     0.245 C 
ATOM      5  O   UNL A   1      31.054  27.852  27.976  1.00  0.00    -0.273 OA
ATOM      6  H   UNL A   1      32.812  29.343  27.897  1.00  0.00     0.163 HD
BRANCH   4   7
ATOM      7  C   UNL A   1      31.608  26.936  25.789  1.00  0.00     0.200 C 
BRANCH   7   8
ATOM      8  N   UNL A   1      30.923  27.488  24.615  1.00  0.00    -0.340 N 
ATOM      9  C   UNL A   1      31.347  27.744  23.348  1.00  0.00     0.243 C 
ATOM     10  O   UNL A   1      30.502  28.171  22.554  1.00  0.00    -0.273 OA
ATOM     11  H   UNL A   1      29.979  27.715  24.774  1.00  0.00     0.164 HD
BRANCH   9  12
ATOM     12  C   UNL A   1      32.820  27.580  22.901  1.00  0.00     0.168 C 
ATOM     13  C   UNL A   1      33.659  28.844  22.941  1.00  0.00     0.041 C 
BRANCH  12  14
ATOM     14  N   UNL A   1      32.889  26.919  21.595  1.00  0.00    -0.341 N 
ATOM     15  C   UNL A   1      33.039  25.586  21.307  1.00  0.00     0.251 C 
ATOM     16  H   UNL A   1      32.817  27.515  20.816  1.00  0.00     0.164 HD
ATOM     17  O   UNL A   1      32.964  25.189  20.149  1.00  0.00    -0.269 OA
BRANCH  15  18
ATOM     18  C   UNL A   1      33.373  24.648  22.390  1.00  0.00     0.039 A 
ATOM     19  C   UNL A   1      32.716  23.420  22.420  1.00  0.00     0.014 A 
ATOM     20  C   UNL A   1      34.357  24.947  23.329  1.00  0.00     0.014 A 
ATOM     21  C   UNL A   1      33.115  22.450  23.340  1.00  0.00     0.005 A 
ATOM     22  C   UNL A   1      34.760  23.966  24.240  1.00  0.00     0.005 A 
ATOM     23  C   UNL A   1      34.179  22.683  24.237  1.00  0.00    -0.043 A 
BRANCH  23  24
ATOM     24  C   UNL A   1      34.676  21.547  25.150  1.00  0.00    -0.013 C 
ATOM     25  C   UNL A   1      33.860  20.271  24.870  1.00  0.00     0.016 C 
ATOM     26  C   UNL A   1      36.172  21.267  24.876  1.00  0.00     0.016 C 
ATOM     27  C   UNL A   1      34.555  21.868  26.657  1.00  0.00     0.016 C 
ENDBRANCH  23  24
ENDBRANCH  15  18
ENDBRANCH  12  14
ENDBRANCH   9  12
ENDBRANCH   7   8
BRANCH   7  28
ATOM     28  C   UNL A   1      30.835  25.680  26.288  1.00  0.00     0.143 C 
ATOM     29  C   UNL A   1      31.703  24.426  26.369  1.00  0.00     0.041 C 
BRANCH  28  30
ATOM     30  O   UNL A   1      29.735  25.402  25.407  1.00  0.00    -0.391 OA
ATOM     31  H   UNL A   1      28.917  25.333  25.924  1.00  0.00     0.211 HD
ENDBRANCH  28  30
ENDBRANCH   7  28
ENDBRANCH   4   7
ENDBRANCH   2   3
ENDBRANCH   1   2
BRANCH   1  32
ATOM     32  C   UNL A   1      35.045  30.172  28.380  1.00  0.00     0.002 C 
BRANCH  32  33
ATOM     33  C   UNL A   1      35.220  31.656  28.033  1.00  0.00     0.002 C 
BRANCH  33  34
ATOM     34  C   UNL A   1      33.937  32.491  27.980  1.00  0.00     0.021 C 
BRANCH  34  35
ATOM     35  C   UNL A   1      34.127  34.004  28.070  1.00  0.00     0.116 C 
BRANCH  35  36
ATOM     36  N   UNL A   1      33.496  34.584  29.243  1.00  0.00    -0.352 N 
ATOM     37  C   UNL A   1      33.830  34.473  30.569  1.00  0.00     0.251 C 
ATOM     38  H   UNL A   1      32.706  35.141  29.058  1.00  0.00     0.163 HD
ATOM     39  O   UNL A   1      33.088  34.938  31.430  1.00  0.00    -0.269 OA
BRANCH  37  40
ATOM     40  C   UNL A   1      35.068  33.773  30.977  1.00  0.00     0.039 A 
ATOM     41  C   UNL A   1      34.957  32.627  31.770  1.00  0.00     0.014 A 
ATOM     42  C   UNL A   1      36.330  34.246  30.604  1.00  0.00     0.014 A 
ATOM     43  C   UNL A   1      36.103  31.915  32.130  1.00  0.00     0.010 A 
ATOM     44  C   UNL A   1      37.469  33.506  30.920  1.00  0.00     0.010 A 
ATOM     45  C   UNL A   1      37.365  32.329  31.678  1.00  0.00    -0.014 A 
BRANCH  45  46
ATOM     46  C   UNL A   1      38.579  31.520  31.953  1.00  0.00     0.031 A 
ATOM     47  C   UNL A   1      39.462  31.836  33.125  1.00  0.00     0.074 A 
ATOM     48  C   UNL A   1      38.921  30.537  31.097  1.00  0.00     0.049 A 
ATOM     49  N   UNL A   1      40.591  31.275  33.481  1.00  0.00    -0.248 NA
ATOM     50  C   UNL A   1      39.033  32.936  34.002  1.00  0.00     0.031 C 
ATOM     51  C   UNL A   1      38.171  30.156  29.900  1.00  0.00     0.029 A 
ATOM     52  N   UNL A   1      39.998  29.686  31.101  1.00  0.00    -0.354 N 
ATOM     53  C   UNL A   1      41.015  31.963  34.609  1.00  0.00     0.074 A 
ATOM     54  C   UNL A   1      40.041  33.002  34.862  1.00  0.00     0.031 C 
ATOM     55  C   UNL A   1      38.802  29.138  29.292  1.00  0.00     0.029 A 
ATOM     56  C   UNL A   1      40.015  28.819  30.036  1.00  0.00     0.049 A 
ATOM     57  H   UNL A   1      40.692  29.697  31.799  1.00  0.00     0.167 HD
ATOM     58  C   UNL A   1      42.112  31.742  35.373  1.00  0.00     0.031 A 
ATOM     59  C   UNL A   1      40.913  27.877  29.690  1.00  0.00     0.031 A 
ATOM     60  C   UNL A   1      43.078  30.702  35.133  1.00  0.00     0.049 A 
ATOM     61  C   UNL A   1      42.123  27.657  30.551  1.00  0.00     0.074 A 
ATOM     62  C   UNL A   1      44.184  30.361  35.892  1.00  0.00     0.029 A 
ATOM     63  N   UNL A   1      43.053  29.839  34.050  1.00  0.00    -0.354 N 
ATOM     64  N   UNL A   1      42.475  28.273  31.653  1.00  0.00    -0.248 NA
ATOM     65  C   UNL A   1      43.056  26.606  30.122  1.00  0.00     0.031 C 
ATOM     66  C   UNL A   1      44.854  29.317  35.245  1.00  0.00     0.029 A 
ATOM     67  C   UNL A   1      44.140  28.982  34.105  1.00  0.00     0.049 A 
ATOM     68  H   UNL A   1      42.366  29.835  33.345  1.00  0.00     0.167 HD
ATOM     69  C   UNL A   1      43.659  27.674  32.058  1.00  0.00     0.074 A 
ATOM     70  C   UNL A   1      43.958  26.635  31.094  1.00  0.00     0.031 C 
ATOM     71  C   UNL A   1      44.431  27.961  33.134  1.00  0.00     0.031 A 
BRANCH  58  72
ATOM     72  C   UNL A   1      42.333  32.654  36.546  1.00  0.00    -0.014 A 
ATOM     73  C   UNL A   1      41.801  32.353  37.809  1.00  0.00     0.009 A 
ATOM     74  C   UNL A   1      43.121  33.806  36.395  1.00  0.00     0.009 A 
ATOM     75  C   UNL A   1      42.029  33.205  38.892  1.00  0.00     0.001 A 
ATOM     76  C   UNL A   1      43.366  34.643  37.485  1.00  0.00     0.001 A 
ATOM     77  C   UNL A   1      42.814  34.346  38.731  1.00  0.00     0.000 A 
ENDBRANCH  58  72
BRANCH  59  78
ATOM     78  C   UNL A   1      40.697  27.064  28.466  1.00  0.00    -0.014 A 
ATOM     79  C   UNL A   1      41.263  27.457  27.245  1.00  0.00     0.009 A 
ATOM     80  C   UNL A   1      39.922  25.895  28.515  1.00  0.00     0.009 A 
ATOM     81  C   UNL A   1      41.041  26.703  26.090  1.00  0.00     0.001 A 
ATOM     82  C   UNL A   1      39.723  25.131  27.364  1.00  0.00     0.001 A 
ATOM     83  C   UNL A   1      40.275  25.540  26.151  1.00  0.00     0.000 A 
ENDBRANCH  59  78
BRANCH  71  84
ATOM     84  C   UNL A   1      45.662  27.127  33.332  1.00  0.00    -0.014 A 
ATOM     85  C   UNL A   1      46.900  27.529  32.807  1.00  0.00     0.009 A 
ATOM     86  C   UNL A   1      45.590  25.940  34.079  1.00  0.00     0.009 A 
ATOM     87  C   UNL A   1      48.037  26.744  33.002  1.00  0.00     0.001 A 
ATOM     88  C   UNL A   1      46.734  25.169  34.291  1.00  0.00     0.001 A 
ATOM     89  C   UNL A   1      47.953  25.567  33.746  1.00  0.00     0.000 A 
ENDBRANCH  71  84
ENDBRANCH  45  46
ENDBRANCH  37  40
ENDBRANCH  35  36
ENDBRANCH  34  35
ENDBRANCH  33  34
ENDBRANCH  32  33
ENDBRANCH   1  32
TORSDOF 20
ENDMDL
