MODEL 1
REMARK VINA RESULT:     -11.6      0.000      0.000
REMARK SMILES Cc1cc(Cl)cc2c1O[C@H](C(F)(F)F)C(C(=O)NCCCCCCNC(=O)c1ccc(-c3c4nc(c(-c5ccccc5)c5ccc([nH]5)c(-c5ccccc5)c5nc(c(-c6ccccc6)c6ccc3[nH]6)C=C5)C=C4)cc1)=C2
REMARK SMILES IDX 22 1 21 2 20 3 19 4 18 5 16 6 17 7 15 9 1 10 2 11 3 12 8 13
REMARK SMILES IDX 4 14 7 15 9 16 5 17 6 18 76 19 10 20 11 21 12 22 13 23 14 24
REMARK SMILES IDX 23 25 24 26 25 27 26 28 27 30 28 31 29 32 75 33 30 34 74 35
REMARK SMILES IDX 31 36 32 37 33 38 68 39 34 40 73 41 67 42 69 43 35 44 72 45
REMARK SMILES IDX 66 46 65 47 36 49 58 50 43 51 57 52 44 53 47 54 56 55 70 56
REMARK SMILES IDX 45 57 46 58 55 60 71 61 48 62 37 63 38 64 42 65 39 66 41 67
REMARK SMILES IDX 40 68 59 69 60 70 64 71 61 72 63 73 62 74 49 75 50 76 54 77
REMARK SMILES IDX 51 78 53 79 52 80
REMARK H PARENT 18 8 25 29 69 48 47 59
REMARK Flexibility Score: inf
ROOT
ATOM      1  C   UNL A   1      31.787  28.846  25.530  1.00  0.00     0.002 C 
ENDROOT
BRANCH   1   2
ATOM      2  C   UNL A   1      30.710  28.034  24.797  1.00  0.00     0.002 C 
BRANCH   2   3
ATOM      3  C   UNL A   1      30.896  27.934  23.281  1.00  0.00     0.021 C 
BRANCH   3   4
ATOM      4  C   UNL A   1      30.746  26.515  22.740  1.00  0.00     0.116 C 
BRANCH   4   5
ATOM      5  N   UNL A   1      31.661  26.253  21.644  1.00  0.00    -0.352 N 
ATOM      6  C   UNL A   1      32.690  25.413  21.389  1.00  0.00     0.251 C 
ATOM      7  O   UNL A   1      33.182  25.507  20.260  1.00  0.00    -0.270 OA
ATOM      8  H   UNL A   1      31.484  26.847  20.878  1.00  0.00     0.163 HD
BRANCH   6   9
ATOM      9  C   UNL A   1      33.252  24.421  22.356  1.00  0.00     0.067 C 
ATOM     10  C   UNL A   1      36.188  21.641  25.567  1.00  0.00     0.048 C 
ATOM     11  C   UNL A   1      34.908  21.425  24.810  1.00  0.00    -0.007 A 
ATOM     12  C   UNL A   1      34.221  20.215  24.958  1.00  0.00     0.027 A 
ATOM     13  C   UNL A   1      34.359  22.411  23.977  1.00  0.00     0.131 A 
ATOM     14  C   UNL A   1      33.027  19.994  24.270  1.00  0.00     0.042 A 
ATOM     15  C   UNL A   1      33.170  22.188  23.274  1.00  0.00     0.019 A 
ATOM     16  O   UNL A   1      35.065  23.570  23.848  1.00  0.00    -0.475 OA
ATOM     17  Cl  UNL A   1      32.203  18.495  24.457  1.00  0.00    -0.084 Cl
ATOM     18  C   UNL A   1      32.502  20.970  23.425  1.00  0.00     0.032 A 
ATOM     19  C   UNL A   1      32.671  23.207  22.358  1.00  0.00     0.025 C 
ATOM     20  C   UNL A   1      34.373  24.720  23.305  1.00  0.00     0.314 C 
BRANCH  20  21
ATOM     21  C   UNL A   1      33.946  25.642  24.461  1.00  0.00     0.429 C 
ATOM     22  F   UNL A   1      34.796  25.510  25.511  1.00  0.00    -0.167 F 
ATOM     23  F   UNL A   1      33.968  26.953  24.120  1.00  0.00    -0.167 F 
ATOM     24  F   UNL A   1      32.701  25.372  24.910  1.00  0.00    -0.167 F 
ENDBRANCH  20  21
ENDBRANCH   6   9
ENDBRANCH   4   5
ENDBRANCH   3   4
ENDBRANCH   2   3
ENDBRANCH   1   2
BRANCH   1  25
ATOM     25  C   UNL A   1      32.323  28.212  26.818  1.00  0.00     0.021 C 
BRANCH  25  26
ATOM     26  C   UNL A   1      33.707  28.700  27.235  1.00  0.00     0.116 C 
BRANCH  26  27
ATOM     27  N   UNL A   1      33.678  30.082  27.684  1.00  0.00    -0.352 N 
ATOM     28  C   UNL A   1      34.621  30.787  28.381  1.00  0.00     0.251 C 
ATOM     29  H   UNL A   1      32.862  30.584  27.453  1.00  0.00     0.163 HD
ATOM     30  O   UNL A   1      34.341  31.885  28.865  1.00  0.00    -0.269 OA
BRANCH  28  31
ATOM     31  C   UNL A   1      35.973  30.228  28.563  1.00  0.00     0.039 A 
ATOM     32  C   UNL A   1      36.870  30.266  27.491  1.00  0.00     0.014 A 
ATOM     33  C   UNL A   1      36.348  29.650  29.779  1.00  0.00     0.014 A 
ATOM     34  C   UNL A   1      38.163  29.769  27.657  1.00  0.00     0.010 A 
ATOM     35  C   UNL A   1      37.655  29.209  29.960  1.00  0.00     0.010 A 
ATOM     36  C   UNL A   1      38.572  29.263  28.901  1.00  0.00    -0.014 A 
BRANCH  36  37
ATOM     37  C   UNL A   1      39.958  28.784  29.118  1.00  0.00     0.031 A 
ATOM     38  C   UNL A   1      40.988  29.704  29.709  1.00  0.00     0.074 A 
ATOM     39  C   UNL A   1      40.297  27.540  28.729  1.00  0.00     0.049 A 
ATOM     40  N   UNL A   1      42.266  29.496  29.895  1.00  0.00    -0.248 NA
ATOM     41  C   UNL A   1      40.527  31.039  30.127  1.00  0.00     0.031 C 
ATOM     42  C   UNL A   1      39.387  26.561  28.133  1.00  0.00     0.029 A 
ATOM     43  N   UNL A   1      41.504  26.891  28.772  1.00  0.00    -0.354 N 
ATOM     44  C   UNL A   1      42.762  30.672  30.445  1.00  0.00     0.074 A 
ATOM     45  C   UNL A   1      41.659  31.605  30.518  1.00  0.00     0.031 C 
ATOM     46  C   UNL A   1      40.062  25.426  27.891  1.00  0.00     0.029 A 
ATOM     47  C   UNL A   1      41.459  25.613  28.269  1.00  0.00     0.049 A 
ATOM     48  H   UNL A   1      42.325  27.301  29.129  1.00  0.00     0.167 HD
ATOM     49  C   UNL A   1      44.019  30.942  30.868  1.00  0.00     0.031 A 
ATOM     50  C   UNL A   1      42.434  24.698  28.120  1.00  0.00     0.031 A 
ATOM     51  C   UNL A   1      45.113  30.010  30.793  1.00  0.00     0.049 A 
ATOM     52  C   UNL A   1      43.831  25.038  28.560  1.00  0.00     0.074 A 
ATOM     53  C   UNL A   1      46.420  30.183  31.215  1.00  0.00     0.029 A 
ATOM     54  N   UNL A   1      45.028  28.731  30.268  1.00  0.00    -0.354 N 
ATOM     55  N   UNL A   1      44.279  26.146  29.100  1.00  0.00    -0.248 NA
ATOM     56  C   UNL A   1      44.852  23.998  28.382  1.00  0.00     0.031 C 
ATOM     57  C   UNL A   1      47.138  29.026  30.898  1.00  0.00     0.029 A 
ATOM     58  C   UNL A   1      46.262  28.109  30.341  1.00  0.00     0.049 A 
ATOM     59  H   UNL A   1      44.211  28.325  29.897  1.00  0.00     0.167 HD
ATOM     60  C   UNL A   1      45.625  25.923  29.359  1.00  0.00     0.074 A 
ATOM     61  C   UNL A   1      45.917  24.571  28.927  1.00  0.00     0.031 C 
ATOM     62  C   UNL A   1      46.535  26.761  29.911  1.00  0.00     0.031 A 
BRANCH  49  63
ATOM     63  C   UNL A   1      44.286  32.300  31.453  1.00  0.00    -0.014 A 
ATOM     64  C   UNL A   1      44.119  32.542  32.826  1.00  0.00     0.009 A 
ATOM     65  C   UNL A   1      44.779  33.330  30.638  1.00  0.00     0.009 A 
ATOM     66  C   UNL A   1      44.423  33.793  33.367  1.00  0.00     0.001 A 
ATOM     67  C   UNL A   1      45.110  34.572  31.186  1.00  0.00     0.001 A 
ATOM     68  C   UNL A   1      44.927  34.803  32.549  1.00  0.00     0.000 A 
ENDBRANCH  49  63
BRANCH  50  69
ATOM     69  C   UNL A   1      42.117  23.362  27.551  1.00  0.00    -0.014 A 
ATOM     70  C   UNL A   1      41.498  22.383  28.342  1.00  0.00     0.009 A 
ATOM     71  C   UNL A   1      42.417  23.063  26.212  1.00  0.00     0.009 A 
ATOM     72  C   UNL A   1      41.204  21.125  27.811  1.00  0.00     0.001 A 
ATOM     73  C   UNL A   1      42.093  21.815  25.676  1.00  0.00     0.001 A 
ATOM     74  C   UNL A   1      41.496  20.844  26.477  1.00  0.00     0.000 A 
ENDBRANCH  50  69
BRANCH  62  75
ATOM     75  C   UNL A   1      47.925  26.230  30.125  1.00  0.00    -0.014 A 
ATOM     76  C   UNL A   1      48.886  26.253  29.103  1.00  0.00     0.009 A 
ATOM     77  C   UNL A   1      48.291  25.747  31.392  1.00  0.00     0.009 A 
ATOM     78  C   UNL A   1      50.176  25.773  29.337  1.00  0.00     0.001 A 
ATOM     79  C   UNL A   1      49.590  25.298  31.632  1.00  0.00     0.001 A 
ATOM     80  C   UNL A   1      50.528  25.301  30.601  1.00  0.00     0.000 A 
ENDBRANCH  62  75
ENDBRANCH  36  37
ENDBRANCH  28  31
ENDBRANCH  26  27
ENDBRANCH  25  26
ENDBRANCH   1  25
TORSDOF 14
ENDMDL
MODEL 2
REMARK VINA RESULT:     -11.5      1.662      2.301
REMARK SMILES Cc1cc(Cl)cc2c1O[C@H](C(F)(F)F)C(C(=O)NCCCCCCNC(=O)c1ccc(-c3c4nc(c(-c5ccccc5)c5ccc([nH]5)c(-c5ccccc5)c5nc(c(-c6ccccc6)c6ccc3[nH]6)C=C5)C=C4)cc1)=C2
REMARK SMILES IDX 22 1 21 2 20 3 19 4 18 5 16 6 17 7 15 9 1 10 2 11 3 12 8 13
REMARK SMILES IDX 4 14 7 15 9 16 5 17 6 18 76 19 10 20 11 21 12 22 13 23 14 24
REMARK SMILES IDX 23 25 24 26 25 27 26 28 27 30 28 31 29 32 75 33 30 34 74 35
REMARK SMILES IDX 31 36 32 37 33 38 68 39 34 40 73 41 67 42 69 43 35 44 72 45
REMARK SMILES IDX 66 46 65 47 36 49 58 50 43 51 57 52 44 53 47 54 56 55 70 56
REMARK SMILES IDX 45 57 46 58 55 60 71 61 48 62 37 63 38 64 42 65 39 66 41 67
REMARK SMILES IDX 40 68 59 69 60 70 64 71 61 72 63 73 62 74 49 75 50 76 54 77
REMARK SMILES IDX 51 78 53 79 52 80
REMARK H PARENT 18 8 25 29 69 48 47 59
REMARK Flexibility Score: inf
ROOT
ATOM      1  C   UNL A   1      34.110  28.312  24.717  1.00  0.00     0.002 C 
ENDROOT
BRANCH   1   2
ATOM      2  C   UNL A   1      33.481  27.733  23.442  1.00  0.00     0.002 C 
BRANCH   2   3
ATOM      3  C   UNL A   1      32.027  28.142  23.196  1.00  0.00     0.021 C 
BRANCH   3   4
ATOM      4  C   UNL A   1      31.053  26.968  23.209  1.00  0.00     0.116 C 
BRANCH   4   5
ATOM      5  N   UNL A   1      30.615  26.640  24.554  1.00  0.00    -0.352 N 
ATOM      6  C   UNL A   1      30.911  25.716  25.496  1.00  0.00     0.251 C 
ATOM      7  O   UNL A   1      30.299  25.835  26.563  1.00  0.00    -0.270 OA
ATOM      8  H   UNL A   1      29.913  27.258  24.864  1.00  0.00     0.163 HD
BRANCH   6   9
ATOM      9  C   UNL A   1      31.891  24.600  25.331  1.00  0.00     0.067 C 
ATOM     10  C   UNL A   1      34.308  20.058  24.899  1.00  0.00     0.048 C 
ATOM     11  C   UNL A   1      34.710  21.473  25.203  1.00  0.00    -0.007 A 
ATOM     12  C   UNL A   1      36.063  21.773  25.404  1.00  0.00     0.027 A 
ATOM     13  C   UNL A   1      33.775  22.517  25.265  1.00  0.00     0.131 A 
ATOM     14  C   UNL A   1      36.461  23.081  25.682  1.00  0.00     0.042 A 
ATOM     15  C   UNL A   1      34.169  23.828  25.557  1.00  0.00     0.019 A 
ATOM     16  O   UNL A   1      32.467  22.183  25.078  1.00  0.00    -0.475 OA
ATOM     17  Cl  UNL A   1      38.128  23.426  25.936  1.00  0.00    -0.084 Cl
ATOM     18  C   UNL A   1      35.522  24.108  25.765  1.00  0.00     0.032 A 
ATOM     19  C   UNL A   1      33.159  24.871  25.689  1.00  0.00     0.025 C 
ATOM     20  C   UNL A   1      31.539  23.252  24.778  1.00  0.00     0.314 C 
BRANCH  20  21
ATOM     21  C   UNL A   1      31.276  23.280  23.261  1.00  0.00     0.429 C 
ATOM     22  F   UNL A   1      32.158  24.106  22.643  1.00  0.00    -0.167 F 
ATOM     23  F   UNL A   1      31.426  22.065  22.682  1.00  0.00    -0.167 F 
ATOM     24  F   UNL A   1      30.033  23.712  22.957  1.00  0.00    -0.167 F 
ENDBRANCH  20  21
ENDBRANCH   6   9
ENDBRANCH   4   5
ENDBRANCH   3   4
ENDBRANCH   2   3
ENDBRANCH   1   2
BRANCH   1  25
ATOM     25  C   UNL A   1      33.118  28.718  25.812  1.00  0.00     0.021 C 
BRANCH  25  26
ATOM     26  C   UNL A   1      33.723  28.822  27.208  1.00  0.00     0.116 C 
BRANCH  26  27
ATOM     27  N   UNL A   1      33.693  30.186  27.708  1.00  0.00    -0.352 N 
ATOM     28  C   UNL A   1      34.633  30.863  28.437  1.00  0.00     0.251 C 
ATOM     29  H   UNL A   1      32.879  30.698  27.491  1.00  0.00     0.163 HD
ATOM     30  O   UNL A   1      34.351  31.942  28.961  1.00  0.00    -0.269 OA
BRANCH  28  31
ATOM     31  C   UNL A   1      35.983  30.295  28.606  1.00  0.00     0.039 A 
ATOM     32  C   UNL A   1      36.873  30.338  27.530  1.00  0.00     0.014 A 
ATOM     33  C   UNL A   1      36.362  29.704  29.815  1.00  0.00     0.014 A 
ATOM     34  C   UNL A   1      38.165  29.832  27.684  1.00  0.00     0.010 A 
ATOM     35  C   UNL A   1      37.667  29.255  29.985  1.00  0.00     0.010 A 
ATOM     36  C   UNL A   1      38.579  29.313  28.921  1.00  0.00    -0.014 A 
BRANCH  36  37
ATOM     37  C   UNL A   1      39.963  28.826  29.126  1.00  0.00     0.031 A 
ATOM     38  C   UNL A   1      41.005  29.739  29.706  1.00  0.00     0.074 A 
ATOM     39  C   UNL A   1      40.291  27.579  28.736  1.00  0.00     0.049 A 
ATOM     40  N   UNL A   1      42.283  29.523  29.881  1.00  0.00    -0.248 NA
ATOM     41  C   UNL A   1      40.557  31.077  30.126  1.00  0.00     0.031 C 
ATOM     42  C   UNL A   1      39.368  26.605  28.150  1.00  0.00     0.029 A 
ATOM     43  N   UNL A   1      41.493  26.921  28.768  1.00  0.00    -0.354 N 
ATOM     44  C   UNL A   1      42.792  30.696  30.424  1.00  0.00     0.074 A 
ATOM     45  C   UNL A   1      41.696  31.636  30.507  1.00  0.00     0.031 C 
ATOM     46  C   UNL A   1      40.033  25.466  27.903  1.00  0.00     0.029 A 
ATOM     47  C   UNL A   1      41.434  25.644  28.267  1.00  0.00     0.049 A 
ATOM     48  H   UNL A   1      42.320  27.326  29.117  1.00  0.00     0.167 HD
ATOM     49  C   UNL A   1      44.055  30.958  30.835  1.00  0.00     0.031 A 
ATOM     50  C   UNL A   1      42.402  24.721  28.110  1.00  0.00     0.031 A 
ATOM     51  C   UNL A   1      45.142  30.018  30.752  1.00  0.00     0.049 A 
ATOM     52  C   UNL A   1      43.805  25.053  28.537  1.00  0.00     0.074 A 
ATOM     53  C   UNL A   1      46.454  30.183  31.162  1.00  0.00     0.029 A 
ATOM     54  N   UNL A   1      45.043  28.739  30.229  1.00  0.00    -0.354 N 
ATOM     55  N   UNL A   1      44.266  26.158  29.071  1.00  0.00    -0.248 NA
ATOM     56  C   UNL A   1      44.818  24.005  28.351  1.00  0.00     0.031 C 
ATOM     57  C   UNL A   1      47.161  29.021  30.839  1.00  0.00     0.029 A 
ATOM     58  C   UNL A   1      46.274  28.109  30.292  1.00  0.00     0.049 A 
ATOM     59  H   UNL A   1      44.220  28.338  29.866  1.00  0.00     0.167 HD
ATOM     60  C   UNL A   1      45.612  25.926  29.318  1.00  0.00     0.074 A 
ATOM     61  C   UNL A   1      45.891  24.572  28.885  1.00  0.00     0.031 C 
ATOM     62  C   UNL A   1      46.533  26.759  29.861  1.00  0.00     0.031 A 
BRANCH  49  63
ATOM     63  C   UNL A   1      44.336  32.315  31.416  1.00  0.00    -0.014 A 
ATOM     64  C   UNL A   1      44.712  33.390  30.595  1.00  0.00     0.009 A 
ATOM     65  C   UNL A   1      44.153  32.542  32.789  1.00  0.00     0.009 A 
ATOM     66  C   UNL A   1      44.917  34.660  31.140  1.00  0.00     0.001 A 
ATOM     67  C   UNL A   1      44.330  33.818  33.327  1.00  0.00     0.001 A 
ATOM     68  C   UNL A   1      44.716  34.874  32.503  1.00  0.00     0.000 A 
ENDBRANCH  49  63
BRANCH  50  69
ATOM     69  C   UNL A   1      42.071  23.387  27.546  1.00  0.00    -0.014 A 
ATOM     70  C   UNL A   1      42.431  23.065  26.229  1.00  0.00     0.009 A 
ATOM     71  C   UNL A   1      41.409  22.424  28.323  1.00  0.00     0.009 A 
ATOM     72  C   UNL A   1      42.116  21.813  25.694  1.00  0.00     0.001 A 
ATOM     73  C   UNL A   1      41.123  21.162  27.795  1.00  0.00     0.001 A 
ATOM     74  C   UNL A   1      41.469  20.862  26.479  1.00  0.00     0.000 A 
ENDBRANCH  50  69
BRANCH  62  75
ATOM     75  C   UNL A   1      47.922  26.218  30.062  1.00  0.00    -0.014 A 
ATOM     76  C   UNL A   1      48.865  26.208  29.023  1.00  0.00     0.009 A 
ATOM     77  C   UNL A   1      48.305  25.761  31.334  1.00  0.00     0.009 A 
ATOM     78  C   UNL A   1      50.154  25.720  29.246  1.00  0.00     0.001 A 
ATOM     79  C   UNL A   1      49.604  25.304  31.561  1.00  0.00     0.001 A 
ATOM     80  C   UNL A   1      50.524  25.274  30.514  1.00  0.00     0.000 A 
ENDBRANCH  62  75
ENDBRANCH  36  37
ENDBRANCH  28  31
ENDBRANCH  26  27
ENDBRANCH  25  26
ENDBRANCH   1  25
TORSDOF 14
ENDMDL
MODEL 3
REMARK VINA RESULT:     -11.5      2.930      7.948
REMARK SMILES Cc1cc(Cl)cc2c1O[C@H](C(F)(F)F)C(C(=O)NCCCCCCNC(=O)c1ccc(-c3c4nc(c(-c5ccccc5)c5ccc([nH]5)c(-c5ccccc5)c5nc(c(-c6ccccc6)c6ccc3[nH]6)C=C5)C=C4)cc1)=C2
REMARK SMILES IDX 22 1 21 2 20 3 19 4 18 5 16 6 17 7 15 9 1 10 2 11 3 12 8 13
REMARK SMILES IDX 4 14 7 15 9 16 5 17 6 18 76 19 10 20 11 21 12 22 13 23 14 24
REMARK SMILES IDX 23 25 24 26 25 27 26 28 27 30 28 31 29 32 75 33 30 34 74 35
REMARK SMILES IDX 31 36 32 37 33 38 68 39 34 40 73 41 67 42 69 43 35 44 72 45
REMARK SMILES IDX 66 46 65 47 36 49 58 50 43 51 57 52 44 53 47 54 56 55 70 56
REMARK SMILES IDX 45 57 46 58 55 60 71 61 48 62 37 63 38 64 42 65 39 66 41 67
REMARK SMILES IDX 40 68 59 69 60 70 64 71 61 72 63 73 62 74 49 75 50 76 54 77
REMARK SMILES IDX 51 78 53 79 52 80
REMARK H PARENT 18 8 25 29 69 48 47 59
REMARK Flexibility Score: inf
ROOT
ATOM      1  C   UNL A   1      35.413  22.093  24.231  1.00  0.00     0.002 C 
ENDROOT
BRANCH   1   2
ATOM      2  C   UNL A   1      34.038  22.246  23.566  1.00  0.00     0.002 C 
BRANCH   2   3
ATOM      3  C   UNL A   1      32.886  21.548  24.293  1.00  0.00     0.021 C 
BRANCH   3   4
ATOM      4  C   UNL A   1      31.565  22.307  24.214  1.00  0.00     0.116 C 
BRANCH   4   5
ATOM      5  N   UNL A   1      31.007  22.563  25.530  1.00  0.00    -0.352 N 
ATOM      6  C   UNL A   1      30.699  23.643  26.284  1.00  0.00     0.251 C 
ATOM      7  O   UNL A   1      30.181  23.392  27.378  1.00  0.00    -0.270 OA
ATOM      8  H   UNL A   1      30.796  21.723  26.001  1.00  0.00     0.163 HD
BRANCH   6   9
ATOM      9  C   UNL A   1      30.943  25.064  25.894  1.00  0.00     0.067 C 
ATOM     10  C   UNL A   1      32.316  30.034  25.613  1.00  0.00     0.048 C 
ATOM     11  C   UNL A   1      31.320  29.146  24.923  1.00  0.00    -0.007 A 
ATOM     12  C   UNL A   1      30.527  29.673  23.897  1.00  0.00     0.027 A 
ATOM     13  C   UNL A   1      31.176  27.790  25.252  1.00  0.00     0.131 A 
ATOM     14  C   UNL A   1      29.599  28.866  23.237  1.00  0.00     0.042 A 
ATOM     15  C   UNL A   1      30.237  26.981  24.603  1.00  0.00     0.019 A 
ATOM     16  O   UNL A   1      31.955  27.317  26.265  1.00  0.00    -0.475 OA
ATOM     17  Cl  UNL A   1      28.626  29.537  21.986  1.00  0.00    -0.084 Cl
ATOM     18  C   UNL A   1      29.446  27.526  23.588  1.00  0.00     0.032 A 
ATOM     19  C   UNL A   1      30.062  25.596  25.026  1.00  0.00     0.025 C 
ATOM     20  C   UNL A   1      32.098  25.882  26.387  1.00  0.00     0.314 C 
BRANCH  20  21
ATOM     21  C   UNL A   1      33.440  25.454  25.766  1.00  0.00     0.429 C 
ATOM     22  F   UNL A   1      33.295  25.231  24.435  1.00  0.00    -0.167 F 
ATOM     23  F   UNL A   1      34.398  26.403  25.887  1.00  0.00    -0.167 F 
ATOM     24  F   UNL A   1      33.932  24.324  26.317  1.00  0.00    -0.167 F 
ENDBRANCH  20  21
ENDBRANCH   6   9
ENDBRANCH   4   5
ENDBRANCH   3   4
ENDBRANCH   2   3
ENDBRANCH   1   2
BRANCH   1  25
ATOM     25  C   UNL A   1      36.380  23.262  24.013  1.00  0.00     0.021 C 
BRANCH  25  26
ATOM     26  C   UNL A   1      37.150  23.687  25.258  1.00  0.00     0.116 C 
BRANCH  26  27
ATOM     27  N   UNL A   1      38.231  22.765  25.565  1.00  0.00    -0.352 N 
ATOM     28  C   UNL A   1      39.432  23.009  26.175  1.00  0.00     0.251 C 
ATOM     29  H   UNL A   1      38.078  21.830  25.294  1.00  0.00     0.163 HD
ATOM     30  O   UNL A   1      40.318  22.155  26.160  1.00  0.00    -0.269 OA
BRANCH  28  31
ATOM     31  C   UNL A   1      39.668  24.302  26.843  1.00  0.00     0.039 A 
ATOM     32  C   UNL A   1      39.177  24.494  28.137  1.00  0.00     0.014 A 
ATOM     33  C   UNL A   1      40.356  25.327  26.188  1.00  0.00     0.014 A 
ATOM     34  C   UNL A   1      39.419  25.700  28.795  1.00  0.00     0.010 A 
ATOM     35  C   UNL A   1      40.649  26.506  26.867  1.00  0.00     0.010 A 
ATOM     36  C   UNL A   1      40.181  26.703  28.174  1.00  0.00    -0.014 A 
BRANCH  36  37
ATOM     37  C   UNL A   1      40.502  27.969  28.875  1.00  0.00     0.031 A 
ATOM     38  C   UNL A   1      41.833  28.138  29.551  1.00  0.00     0.074 A 
ATOM     39  C   UNL A   1      39.572  28.940  28.948  1.00  0.00     0.049 A 
ATOM     40  N   UNL A   1      42.264  29.133  30.283  1.00  0.00    -0.248 NA
ATOM     41  C   UNL A   1      42.800  27.037  29.403  1.00  0.00     0.031 C 
ATOM     42  C   UNL A   1      38.241  28.886  28.341  1.00  0.00     0.029 A 
ATOM     43  N   UNL A   1      39.604  30.161  29.572  1.00  0.00    -0.354 N 
ATOM     44  C   UNL A   1      43.545  28.777  30.685  1.00  0.00     0.074 A 
ATOM     45  C   UNL A   1      43.804  27.456  30.158  1.00  0.00     0.031 C 
ATOM     46  C   UNL A   1      37.594  30.033  28.601  1.00  0.00     0.029 A 
ATOM     47  C   UNL A   1      38.444  30.882  29.430  1.00  0.00     0.049 A 
ATOM     48  H   UNL A   1      40.385  30.489  30.075  1.00  0.00     0.167 HD
ATOM     49  C   UNL A   1      44.431  29.496  31.414  1.00  0.00     0.031 A 
ATOM     50  C   UNL A   1      38.098  32.087  29.919  1.00  0.00     0.031 A 
ATOM     51  C   UNL A   1      44.168  30.811  31.936  1.00  0.00     0.049 A 
ATOM     52  C   UNL A   1      39.087  32.847  30.759  1.00  0.00     0.074 A 
ATOM     53  C   UNL A   1      45.011  31.629  32.669  1.00  0.00     0.029 A 
ATOM     54  N   UNL A   1      42.977  31.501  31.778  1.00  0.00    -0.354 N 
ATOM     55  N   UNL A   1      40.303  32.506  31.112  1.00  0.00    -0.248 NA
ATOM     56  C   UNL A   1      38.659  34.160  31.258  1.00  0.00     0.031 C 
ATOM     57  C   UNL A   1      44.311  32.794  32.997  1.00  0.00     0.029 A 
ATOM     58  C   UNL A   1      43.058  32.729  32.412  1.00  0.00     0.049 A 
ATOM     59  H   UNL A   1      42.191  31.168  31.288  1.00  0.00     0.167 HD
ATOM     60  C   UNL A   1      40.799  33.578  31.842  1.00  0.00     0.074 A 
ATOM     61  C   UNL A   1      39.756  34.583  31.873  1.00  0.00     0.031 C 
ATOM     62  C   UNL A   1      42.012  33.720  32.429  1.00  0.00     0.031 A 
BRANCH  49  63
ATOM     63  C   UNL A   1      45.774  28.880  31.691  1.00  0.00    -0.014 A 
ATOM     64  C   UNL A   1      46.865  29.111  30.838  1.00  0.00     0.009 A 
ATOM     65  C   UNL A   1      45.971  28.122  32.855  1.00  0.00     0.009 A 
ATOM     66  C   UNL A   1      48.122  28.578  31.136  1.00  0.00     0.001 A 
ATOM     67  C   UNL A   1      47.234  27.614  33.166  1.00  0.00     0.001 A 
ATOM     68  C   UNL A   1      48.306  27.839  32.304  1.00  0.00     0.000 A 
ENDBRANCH  49  63
BRANCH  50  69
ATOM     69  C   UNL A   1      36.764  32.661  29.603  1.00  0.00    -0.014 A 
ATOM     70  C   UNL A   1      35.707  32.543  30.517  1.00  0.00     0.009 A 
ATOM     71  C   UNL A   1      36.545  33.344  28.397  1.00  0.00     0.009 A 
ATOM     72  C   UNL A   1      34.451  33.076  30.221  1.00  0.00     0.001 A 
ATOM     73  C   UNL A   1      35.296  33.904  28.117  1.00  0.00     0.001 A 
ATOM     74  C   UNL A   1      34.248  33.762  29.025  1.00  0.00     0.000 A 
ENDBRANCH  50  69
BRANCH  62  75
ATOM     75  C   UNL A   1      42.300  35.025  33.118  1.00  0.00    -0.014 A 
ATOM     76  C   UNL A   1      41.829  35.292  34.412  1.00  0.00     0.009 A 
ATOM     77  C   UNL A   1      43.105  35.980  32.475  1.00  0.00     0.009 A 
ATOM     78  C   UNL A   1      42.131  36.505  35.035  1.00  0.00     0.001 A 
ATOM     79  C   UNL A   1      43.431  37.177  33.114  1.00  0.00     0.001 A 
ATOM     80  C   UNL A   1      42.936  37.442  34.389  1.00  0.00     0.000 A 
ENDBRANCH  62  75
ENDBRANCH  36  37
ENDBRANCH  28  31
ENDBRANCH  26  27
ENDBRANCH  25  26
ENDBRANCH   1  25
TORSDOF 14
ENDMDL
