MODEL 1
REMARK VINA RESULT:     -10.1      0.000      0.000
REMARK SMILES CN(CCS(C)(=O)=O)S(=O)(=O)c1cc(C(=O)NCCCCCCNC(=O)c2ccc(-c3c4nc(c(-c5ccccc5)c5ccc([nH]5)c(-c5ccccc5)c5nc(c(-c6ccccc6)c6ccc3[nH]6)C=C5)C=C4)cc2)ccc1F
REMARK SMILES IDX 19 1 18 2 17 3 15 4 16 5 14 7 12 8 13 9 77 10 76 11 78 12
REMARK SMILES IDX 75 13 9 14 10 15 11 16 2 17 1 18 3 19 4 20 5 21 6 22 7 23
REMARK SMILES IDX 8 24 20 25 21 26 22 27 23 28 24 29 25 30 26 32 27 33 28 34
REMARK SMILES IDX 74 35 29 36 73 37 30 38 31 39 32 40 67 41 33 42 72 43 66 44
REMARK SMILES IDX 68 45 34 46 71 47 65 48 64 49 35 51 57 52 42 53 56 54 43 55
REMARK SMILES IDX 46 56 55 57 69 58 44 59 45 60 54 62 70 63 47 64 36 65 37 66
REMARK SMILES IDX 41 67 38 68 40 69 39 70 58 71 59 72 63 73 60 74 62 75 61 76
REMARK SMILES IDX 48 77 49 78 53 79 50 80 52 81 51 82
REMARK H PARENT 17 6 24 31 68 50 46 61
REMARK Flexibility Score: inf
ROOT
ATOM      1  C   UNL A   1      31.590  29.524  24.369  1.00  0.00     0.021 C 
ENDROOT
BRANCH   1   2
ATOM      2  C   UNL A   1      30.494  29.300  23.322  1.00  0.00     0.116 C 
BRANCH   2   3
ATOM      3  N   UNL A   1      30.907  28.303  22.359  1.00  0.00    -0.352 N 
ATOM      4  C   UNL A   1      31.004  26.941  22.386  1.00  0.00     0.251 C 
ATOM      5  O   UNL A   1      31.335  26.399  21.331  1.00  0.00    -0.269 OA
ATOM      6  H   UNL A   1      31.179  28.691  21.496  1.00  0.00     0.163 HD
BRANCH   4   7
ATOM      7  C   UNL A   1      30.767  26.077  23.582  1.00  0.00     0.041 A 
ATOM      8  C   UNL A   1      31.482  24.083  24.813  1.00  0.00     0.119 A 
ATOM      9  C   UNL A   1      31.498  24.872  23.651  1.00  0.00     0.038 A 
ATOM     10  C   UNL A   1      30.623  24.410  25.849  1.00  0.00     0.143 A 
ATOM     11  C   UNL A   1      29.861  25.571  25.779  1.00  0.00     0.041 A 
ATOM     12  F   UNL A   1      30.527  23.669  26.960  1.00  0.00    -0.206 F 
ATOM     13  C   UNL A   1      29.976  26.429  24.679  1.00  0.00     0.017 A 
BRANCH   8  14
ATOM     14  S   UNL A   1      32.578  22.703  24.970  1.00  0.00     0.245 S 
ATOM     15  O   UNL A   1      33.317  22.563  23.741  1.00  0.00    -0.207 OA
ATOM     16  O   UNL A   1      31.827  21.576  25.485  1.00  0.00    -0.207 OA
BRANCH  14  17
ATOM     17  N   UNL A   1      33.672  23.195  26.190  1.00  0.00    -0.200 NA
ATOM     18  C   UNL A   1      33.643  22.375  27.420  1.00  0.00     0.124 C 
BRANCH  17  19
ATOM     19  C   UNL A   1      35.002  23.782  25.848  1.00  0.00     0.118 C 
BRANCH  19  20
ATOM     20  C   UNL A   1      36.248  22.991  26.219  1.00  0.00     0.153 C 
BRANCH  20  21
ATOM     21  S   UNL A   1      36.887  21.874  24.979  1.00  0.00     0.148 S 
ATOM     22  C   UNL A   1      36.697  22.698  23.420  1.00  0.00     0.158 C 
ATOM     23  O   UNL A   1      38.316  21.764  25.216  1.00  0.00    -0.229 OA
ATOM     24  O   UNL A   1      36.066  20.686  24.941  1.00  0.00    -0.229 OA
ENDBRANCH  20  21
ENDBRANCH  19  20
ENDBRANCH  17  19
ENDBRANCH  14  17
ENDBRANCH   8  14
ENDBRANCH   4   7
ENDBRANCH   2   3
ENDBRANCH   1   2
BRANCH   1  25
ATOM     25  C   UNL A   1      33.002  29.187  23.864  1.00  0.00     0.002 C 
BRANCH  25  26
ATOM     26  C   UNL A   1      33.750  28.123  24.681  1.00  0.00     0.002 C 
BRANCH  26  27
ATOM     27  C   UNL A   1      33.103  27.772  26.022  1.00  0.00     0.021 C 
BRANCH  27  28
ATOM     28  C   UNL A   1      33.883  28.268  27.232  1.00  0.00     0.116 C 
BRANCH  28  29
ATOM     29  N   UNL A   1      33.710  29.699  27.432  1.00  0.00    -0.352 N 
ATOM     30  C   UNL A   1      34.554  30.590  28.043  1.00  0.00     0.251 C 
ATOM     31  H   UNL A   1      32.871  30.077  27.083  1.00  0.00     0.163 HD
ATOM     32  O   UNL A   1      34.166  31.713  28.345  1.00  0.00    -0.269 OA
BRANCH  30  33
ATOM     33  C   UNL A   1      35.941  30.180  28.344  1.00  0.00     0.039 A 
ATOM     34  C   UNL A   1      36.251  29.697  29.618  1.00  0.00     0.014 A 
ATOM     35  C   UNL A   1      36.929  30.267  27.360  1.00  0.00     0.014 A 
ATOM     36  C   UNL A   1      37.546  29.251  29.888  1.00  0.00     0.010 A 
ATOM     37  C   UNL A   1      38.193  29.748  27.605  1.00  0.00     0.010 A 
ATOM     38  C   UNL A   1      38.518  29.245  28.875  1.00  0.00    -0.014 A 
BRANCH  38  39
ATOM     39  C   UNL A   1      39.894  28.745  29.118  1.00  0.00     0.031 A 
ATOM     40  C   UNL A   1      40.925  29.664  29.714  1.00  0.00     0.074 A 
ATOM     41  C   UNL A   1      40.236  27.499  28.737  1.00  0.00     0.049 A 
ATOM     42  N   UNL A   1      42.204  29.461  29.904  1.00  0.00    -0.248 NA
ATOM     43  C   UNL A   1      40.462  31.001  30.124  1.00  0.00     0.031 C 
ATOM     44  C   UNL A   1      39.336  26.519  28.128  1.00  0.00     0.029 A 
ATOM     45  N   UNL A   1      41.443  26.848  28.797  1.00  0.00    -0.354 N 
ATOM     46  C   UNL A   1      42.698  30.646  30.435  1.00  0.00     0.074 A 
ATOM     47  C   UNL A   1      41.597  31.581  30.485  1.00  0.00     0.031 C 
ATOM     48  C   UNL A   1      40.015  25.385  27.892  1.00  0.00     0.029 A 
ATOM     49  C   UNL A   1      41.408  25.574  28.284  1.00  0.00     0.049 A 
ATOM     50  H   UNL A   1      42.257  27.256  29.172  1.00  0.00     0.167 HD
ATOM     51  C   UNL A   1      43.952  30.924  30.862  1.00  0.00     0.031 A 
ATOM     52  C   UNL A   1      42.392  24.667  28.132  1.00  0.00     0.031 A 
ATOM     53  C   UNL A   1      45.043  29.989  30.820  1.00  0.00     0.049 A 
ATOM     54  C   UNL A   1      43.786  25.015  28.579  1.00  0.00     0.074 A 
ATOM     55  C   UNL A   1      46.340  30.160  31.269  1.00  0.00     0.029 A 
ATOM     56  N   UNL A   1      44.963  28.709  30.297  1.00  0.00    -0.354 N 
ATOM     57  N   UNL A   1      44.226  26.121  29.129  1.00  0.00    -0.248 NA
ATOM     58  C   UNL A   1      44.818  23.985  28.391  1.00  0.00     0.031 C 
ATOM     59  C   UNL A   1      47.062  29.003  30.962  1.00  0.00     0.029 A 
ATOM     60  C   UNL A   1      46.196  28.086  30.389  1.00  0.00     0.049 A 
ATOM     61  H   UNL A   1      44.151  28.302  29.915  1.00  0.00     0.167 HD
ATOM     62  C   UNL A   1      45.573  25.904  29.392  1.00  0.00     0.074 A 
ATOM     63  C   UNL A   1      45.876  24.559  28.947  1.00  0.00     0.031 C 
ATOM     64  C   UNL A   1      46.476  26.742  29.955  1.00  0.00     0.031 A 
BRANCH  51  65
ATOM     65  C   UNL A   1      44.213  32.304  31.403  1.00  0.00    -0.014 A 
ATOM     66  C   UNL A   1      44.072  32.590  32.772  1.00  0.00     0.009 A 
ATOM     67  C   UNL A   1      44.643  33.322  30.540  1.00  0.00     0.009 A 
ATOM     68  C   UNL A   1      44.320  33.875  33.256  1.00  0.00     0.001 A 
ATOM     69  C   UNL A   1      44.924  34.598  31.032  1.00  0.00     0.001 A 
ATOM     70  C   UNL A   1      44.752  34.876  32.387  1.00  0.00     0.000 A 
ENDBRANCH  51  65
BRANCH  52  71
ATOM     71  C   UNL A   1      42.099  23.336  27.535  1.00  0.00    -0.014 A 
ATOM     72  C   UNL A   1      41.454  22.342  28.287  1.00  0.00     0.009 A 
ATOM     73  C   UNL A   1      42.481  23.044  26.216  1.00  0.00     0.009 A 
ATOM     74  C   UNL A   1      41.231  21.073  27.746  1.00  0.00     0.001 A 
ATOM     75  C   UNL A   1      42.227  21.785  25.665  1.00  0.00     0.001 A 
ATOM     76  C   UNL A   1      41.614  20.798  26.434  1.00  0.00     0.000 A 
ENDBRANCH  52  71
BRANCH  64  77
ATOM     77  C   UNL A   1      47.866  26.214  30.185  1.00  0.00    -0.014 A 
ATOM     78  C   UNL A   1      48.847  26.262  29.183  1.00  0.00     0.009 A 
ATOM     79  C   UNL A   1      48.213  25.723  31.455  1.00  0.00     0.009 A 
ATOM     80  C   UNL A   1      50.140  25.801  29.441  1.00  0.00     0.001 A 
ATOM     81  C   UNL A   1      49.514  25.295  31.718  1.00  0.00     0.001 A 
ATOM     82  C   UNL A   1      50.473  25.326  30.709  1.00  0.00     0.000 A 
ENDBRANCH  64  77
ENDBRANCH  38  39
ENDBRANCH  30  33
ENDBRANCH  28  29
ENDBRANCH  27  28
ENDBRANCH  26  27
ENDBRANCH  25  26
ENDBRANCH   1  25
TORSDOF 18
ENDMDL
MODEL 2
REMARK VINA RESULT:     -10.0      2.281      7.646
REMARK SMILES CN(CCS(C)(=O)=O)S(=O)(=O)c1cc(C(=O)NCCCCCCNC(=O)c2ccc(-c3c4nc(c(-c5ccccc5)c5ccc([nH]5)c(-c5ccccc5)c5nc(c(-c6ccccc6)c6ccc3[nH]6)C=C5)C=C4)cc2)ccc1F
REMARK SMILES IDX 19 1 18 2 17 3 15 4 16 5 14 7 12 8 13 9 77 10 76 11 78 12
REMARK SMILES IDX 75 13 9 14 10 15 11 16 2 17 1 18 3 19 4 20 5 21 6 22 7 23
REMARK SMILES IDX 8 24 20 25 21 26 22 27 23 28 24 29 25 30 26 32 27 33 28 34
REMARK SMILES IDX 74 35 29 36 73 37 30 38 31 39 32 40 67 41 33 42 72 43 66 44
REMARK SMILES IDX 68 45 34 46 71 47 65 48 64 49 35 51 57 52 42 53 56 54 43 55
REMARK SMILES IDX 46 56 55 57 69 58 44 59 45 60 54 62 70 63 47 64 36 65 37 66
REMARK SMILES IDX 41 67 38 68 40 69 39 70 58 71 59 72 63 73 60 74 62 75 61 76
REMARK SMILES IDX 48 77 49 78 53 79 50 80 52 81 51 82
REMARK H PARENT 17 6 24 31 68 50 46 61
REMARK Flexibility Score: inf
ROOT
ATOM      1  C   UNL A   1      34.775  19.881  25.045  1.00  0.00     0.021 C 
ENDROOT
BRANCH   1   2
ATOM      2  C   UNL A   1      33.297  20.211  25.280  1.00  0.00     0.116 C 
BRANCH   2   3
ATOM      3  N   UNL A   1      32.591  20.306  24.021  1.00  0.00    -0.352 N 
ATOM      4  C   UNL A   1      32.409  21.307  23.110  1.00  0.00     0.251 C 
ATOM      5  O   UNL A   1      31.791  21.006  22.088  1.00  0.00    -0.269 OA
ATOM      6  H   UNL A   1      32.144  19.468  23.766  1.00  0.00     0.163 HD
BRANCH   4   7
ATOM      7  C   UNL A   1      32.872  22.720  23.267  1.00  0.00     0.041 A 
ATOM      8  C   UNL A   1      32.295  24.962  24.068  1.00  0.00     0.119 A 
ATOM      9  C   UNL A   1      31.917  23.655  23.718  1.00  0.00     0.038 A 
ATOM     10  C   UNL A   1      33.591  25.386  23.827  1.00  0.00     0.143 A 
ATOM     11  C   UNL A   1      34.536  24.489  23.340  1.00  0.00     0.041 A 
ATOM     12  F   UNL A   1      33.998  26.633  24.093  1.00  0.00    -0.206 F 
ATOM     13  C   UNL A   1      34.193  23.150  23.117  1.00  0.00     0.017 A 
BRANCH   8  14
ATOM     14  S   UNL A   1      31.135  26.049  24.846  1.00  0.00     0.245 S 
ATOM     15  O   UNL A   1      31.595  26.330  26.181  1.00  0.00    -0.207 OA
ATOM     16  O   UNL A   1      29.802  25.518  24.645  1.00  0.00    -0.207 OA
BRANCH  14  17
ATOM     17  N   UNL A   1      31.260  27.490  23.932  1.00  0.00    -0.200 NA
ATOM     18  C   UNL A   1      30.762  27.392  22.543  1.00  0.00     0.124 C 
BRANCH  17  19
ATOM     19  C   UNL A   1      31.100  28.830  24.571  1.00  0.00     0.118 C 
BRANCH  19  20
ATOM     20  C   UNL A   1      32.359  29.598  24.943  1.00  0.00     0.153 C 
BRANCH  20  21
ATOM     21  S   UNL A   1      32.398  30.334  26.571  1.00  0.00     0.148 S 
ATOM     22  C   UNL A   1      31.364  31.773  26.492  1.00  0.00     0.158 C 
ATOM     23  O   UNL A   1      31.736  29.399  27.465  1.00  0.00    -0.229 OA
ATOM     24  O   UNL A   1      33.740  30.782  26.858  1.00  0.00    -0.229 OA
ENDBRANCH  20  21
ENDBRANCH  19  20
ENDBRANCH  17  19
ENDBRANCH  14  17
ENDBRANCH   8  14
ENDBRANCH   4   7
ENDBRANCH   2   3
ENDBRANCH   1   2
BRANCH   1  25
ATOM     25  C   UNL A   1      35.731  21.014  25.449  1.00  0.00     0.002 C 
BRANCH  25  26
ATOM     26  C   UNL A   1      37.015  21.113  24.613  1.00  0.00     0.002 C 
BRANCH  26  27
ATOM     27  C   UNL A   1      37.984  19.941  24.783  1.00  0.00     0.021 C 
BRANCH  27  28
ATOM     28  C   UNL A   1      38.876  20.052  26.012  1.00  0.00     0.116 C 
BRANCH  28  29
ATOM     29  N   UNL A   1      40.075  19.239  25.881  1.00  0.00    -0.352 N 
ATOM     30  C   UNL A   1      41.388  19.620  25.985  1.00  0.00     0.251 C 
ATOM     31  H   UNL A   1      39.922  18.285  25.690  1.00  0.00     0.163 HD
ATOM     32  O   UNL A   1      42.287  18.872  25.616  1.00  0.00    -0.269 OA
BRANCH  30  33
ATOM     33  C   UNL A   1      41.712  20.949  26.540  1.00  0.00     0.039 A 
ATOM     34  C   UNL A   1      41.809  21.108  27.925  1.00  0.00     0.014 A 
ATOM     35  C   UNL A   1      41.926  22.034  25.686  1.00  0.00     0.014 A 
ATOM     36  C   UNL A   1      42.174  22.348  28.451  1.00  0.00     0.010 A 
ATOM     37  C   UNL A   1      42.369  23.243  26.206  1.00  0.00     0.010 A 
ATOM     38  C   UNL A   1      42.487  23.416  27.595  1.00  0.00    -0.014 A 
BRANCH  38  39
ATOM     39  C   UNL A   1      42.912  24.737  28.120  1.00  0.00     0.031 A 
ATOM     40  C   UNL A   1      41.880  25.797  28.393  1.00  0.00     0.074 A 
ATOM     41  C   UNL A   1      44.222  25.009  28.279  1.00  0.00     0.049 A 
ATOM     42  N   UNL A   1      42.050  27.046  28.746  1.00  0.00    -0.248 NA
ATOM     43  C   UNL A   1      40.470  25.410  28.215  1.00  0.00     0.031 C 
ATOM     44  C   UNL A   1      45.321  24.076  28.028  1.00  0.00     0.029 A 
ATOM     45  N   UNL A   1      44.850  26.162  28.681  1.00  0.00    -0.354 N 
ATOM     46  C   UNL A   1      40.775  27.594  28.815  1.00  0.00     0.074 A 
ATOM     47  C   UNL A   1      39.846  26.562  28.411  1.00  0.00     0.031 C 
ATOM     48  C   UNL A   1      46.486  24.684  28.304  1.00  0.00     0.029 A 
ATOM     49  C   UNL A   1      46.221  26.063  28.700  1.00  0.00     0.049 A 
ATOM     50  H   UNL A   1      44.365  26.981  28.931  1.00  0.00     0.167 HD
ATOM     51  C   UNL A   1      40.408  28.839  29.197  1.00  0.00     0.031 A 
ATOM     52  C   UNL A   1      47.158  26.986  28.989  1.00  0.00     0.031 A 
ATOM     53  C   UNL A   1      41.333  29.861  29.606  1.00  0.00     0.049 A 
ATOM     54  C   UNL A   1      46.725  28.375  29.375  1.00  0.00     0.074 A 
ATOM     55  C   UNL A   1      41.058  31.141  30.055  1.00  0.00     0.029 A 
ATOM     56  N   UNL A   1      42.711  29.718  29.615  1.00  0.00    -0.354 N 
ATOM     57  N   UNL A   1      45.513  28.863  29.486  1.00  0.00    -0.248 NA
ATOM     58  C   UNL A   1      47.792  29.340  29.682  1.00  0.00     0.031 C 
ATOM     59  C   UNL A   1      42.274  31.793  30.278  1.00  0.00     0.029 A 
ATOM     60  C   UNL A   1      43.302  30.897  30.038  1.00  0.00     0.049 A 
ATOM     61  H   UNL A   1      43.198  28.901  29.358  1.00  0.00     0.167 HD
ATOM     62  C   UNL A   1      45.670  30.174  29.918  1.00  0.00     0.074 A 
ATOM     63  C   UNL A   1      47.094  30.403  30.053  1.00  0.00     0.031 C 
ATOM     64  C   UNL A   1      44.720  31.103  30.182  1.00  0.00     0.031 A 
BRANCH  51  65
ATOM     65  C   UNL A   1      38.940  29.168  29.181  1.00  0.00    -0.014 A 
ATOM     66  C   UNL A   1      38.142  29.005  30.326  1.00  0.00     0.009 A 
ATOM     67  C   UNL A   1      38.354  29.686  28.016  1.00  0.00     0.009 A 
ATOM     68  C   UNL A   1      36.783  29.317  30.292  1.00  0.00     0.001 A 
ATOM     69  C   UNL A   1      37.001  30.030  27.995  1.00  0.00     0.001 A 
ATOM     70  C   UNL A   1      36.214  29.835  29.129  1.00  0.00     0.000 A 
ENDBRANCH  51  65
BRANCH  52  71
ATOM     71  C   UNL A   1      48.602  26.631  28.933  1.00  0.00    -0.014 A 
ATOM     72  C   UNL A   1      49.253  26.106  30.060  1.00  0.00     0.009 A 
ATOM     73  C   UNL A   1      49.344  26.837  27.759  1.00  0.00     0.009 A 
ATOM     74  C   UNL A   1      50.621  25.827  30.025  1.00  0.00     0.001 A 
ATOM     75  C   UNL A   1      50.705  26.526  27.715  1.00  0.00     0.001 A 
ATOM     76  C   UNL A   1      51.345  26.034  28.851  1.00  0.00     0.000 A 
ENDBRANCH  52  71
BRANCH  64  77
ATOM     77  C   UNL A   1      45.177  32.436  30.706  1.00  0.00    -0.014 A 
ATOM     78  C   UNL A   1      45.364  32.664  32.078  1.00  0.00     0.009 A 
ATOM     79  C   UNL A   1      45.491  33.461  29.798  1.00  0.00     0.009 A 
ATOM     80  C   UNL A   1      45.829  33.901  32.530  1.00  0.00     0.001 A 
ATOM     81  C   UNL A   1      45.987  34.683  30.250  1.00  0.00     0.001 A 
ATOM     82  C   UNL A   1      46.147  34.905  31.616  1.00  0.00     0.000 A 
ENDBRANCH  64  77
ENDBRANCH  38  39
ENDBRANCH  30  33
ENDBRANCH  28  29
ENDBRANCH  27  28
ENDBRANCH  26  27
ENDBRANCH  25  26
ENDBRANCH   1  25
TORSDOF 18
ENDMDL
MODEL 3
REMARK VINA RESULT:      -9.9      3.730      5.587
REMARK SMILES CN(CCS(C)(=O)=O)S(=O)(=O)c1cc(C(=O)NCCCCCCNC(=O)c2ccc(-c3c4nc(c(-c5ccccc5)c5ccc([nH]5)c(-c5ccccc5)c5nc(c(-c6ccccc6)c6ccc3[nH]6)C=C5)C=C4)cc2)ccc1F
REMARK SMILES IDX 19 1 18 2 17 3 15 4 16 5 14 7 12 8 13 9 77 10 76 11 78 12
REMARK SMILES IDX 75 13 9 14 10 15 11 16 2 17 1 18 3 19 4 20 5 21 6 22 7 23
REMARK SMILES IDX 8 24 20 25 21 26 22 27 23 28 24 29 25 30 26 32 27 33 28 34
REMARK SMILES IDX 74 35 29 36 73 37 30 38 31 39 32 40 67 41 33 42 72 43 66 44
REMARK SMILES IDX 68 45 34 46 71 47 65 48 64 49 35 51 57 52 42 53 56 54 43 55
REMARK SMILES IDX 46 56 55 57 69 58 44 59 45 60 54 62 70 63 47 64 36 65 37 66
REMARK SMILES IDX 41 67 38 68 40 69 39 70 58 71 59 72 63 73 60 74 62 75 61 76
REMARK SMILES IDX 48 77 49 78 53 79 50 80 52 81 51 82
REMARK H PARENT 17 6 24 31 68 50 46 61
REMARK Flexibility Score: inf
ROOT
ATOM      1  C   UNL A   1      34.250  31.224  27.290  1.00  0.00     0.021 C 
ENDROOT
BRANCH   1   2
ATOM      2  C   UNL A   1      34.393  29.699  27.295  1.00  0.00     0.116 C 
BRANCH   2   3
ATOM      3  N   UNL A   1      33.191  29.077  27.808  1.00  0.00    -0.352 N 
ATOM      4  C   UNL A   1      32.177  28.361  27.239  1.00  0.00     0.251 C 
ATOM      5  O   UNL A   1      31.328  27.914  28.010  1.00  0.00    -0.269 OA
ATOM      6  H   UNL A   1      33.080  29.198  28.778  1.00  0.00     0.163 HD
BRANCH   4   7
ATOM      7  C   UNL A   1      32.009  28.105  25.775  1.00  0.00     0.041 A 
ATOM      8  C   UNL A   1      32.627  26.672  23.887  1.00  0.00     0.119 A 
ATOM      9  C   UNL A   1      32.831  27.110  25.206  1.00  0.00     0.038 A 
ATOM     10  C   UNL A   1      31.707  27.326  23.085  1.00  0.00     0.143 A 
ATOM     11  C   UNL A   1      30.919  28.340  23.618  1.00  0.00     0.041 A 
ATOM     12  F   UNL A   1      31.502  26.987  21.806  1.00  0.00    -0.206 F 
ATOM     13  C   UNL A   1      31.028  28.688  24.969  1.00  0.00     0.017 A 
BRANCH   8  14
ATOM     14  S   UNL A   1      33.510  25.270  23.265  1.00  0.00     0.245 S 
ATOM     15  O   UNL A   1      34.313  24.726  24.329  1.00  0.00    -0.207 OA
ATOM     16  O   UNL A   1      34.136  25.641  22.012  1.00  0.00    -0.207 OA
BRANCH  14  17
ATOM     17  N   UNL A   1      32.273  24.142  22.909  1.00  0.00    -0.200 NA
ATOM     18  C   UNL A   1      32.730  22.909  22.234  1.00  0.00     0.124 C 
BRANCH  17  19
ATOM     19  C   UNL A   1      31.094  23.974  23.810  1.00  0.00     0.118 C 
BRANCH  19  20
ATOM     20  C   UNL A   1      31.301  23.243  25.127  1.00  0.00     0.153 C 
BRANCH  20  21
ATOM     21  S   UNL A   1      30.740  24.078  26.604  1.00  0.00     0.148 S 
ATOM     22  C   UNL A   1      29.701  25.409  26.060  1.00  0.00     0.158 C 
ATOM     23  O   UNL A   1      29.878  23.143  27.308  1.00  0.00    -0.229 OA
ATOM     24  O   UNL A   1      31.874  24.664  27.279  1.00  0.00    -0.229 OA
ENDBRANCH  20  21
ENDBRANCH  19  20
ENDBRANCH  17  19
ENDBRANCH  14  17
ENDBRANCH   8  14
ENDBRANCH   4   7
ENDBRANCH   2   3
ENDBRANCH   1   2
BRANCH   1  25
ATOM     25  C   UNL A   1      34.825  31.900  28.545  1.00  0.00     0.002 C 
BRANCH  25  26
ATOM     26  C   UNL A   1      35.524  33.245  28.299  1.00  0.00     0.002 C 
BRANCH  26  27
ATOM     27  C   UNL A   1      34.627  34.474  28.465  1.00  0.00     0.021 C 
BRANCH  27  28
ATOM     28  C   UNL A   1      33.265  34.167  29.072  1.00  0.00     0.116 C 
BRANCH  28  29
ATOM     29  N   UNL A   1      32.916  35.119  30.115  1.00  0.00    -0.352 N 
ATOM     30  C   UNL A   1      33.388  35.199  31.400  1.00  0.00     0.251 C 
ATOM     31  H   UNL A   1      32.247  35.797  29.864  1.00  0.00     0.163 HD
ATOM     32  O   UNL A   1      32.826  35.905  32.230  1.00  0.00    -0.269 OA
BRANCH  30  33
ATOM     33  C   UNL A   1      34.581  34.416  31.780  1.00  0.00     0.039 A 
ATOM     34  C   UNL A   1      34.419  33.124  32.286  1.00  0.00     0.014 A 
ATOM     35  C   UNL A   1      35.858  34.961  31.626  1.00  0.00     0.014 A 
ATOM     36  C   UNL A   1      35.547  32.357  32.588  1.00  0.00     0.010 A 
ATOM     37  C   UNL A   1      36.977  34.170  31.849  1.00  0.00     0.010 A 
ATOM     38  C   UNL A   1      36.833  32.864  32.344  1.00  0.00    -0.014 A 
BRANCH  38  39
ATOM     39  C   UNL A   1      38.051  32.063  32.621  1.00  0.00     0.031 A 
ATOM     40  C   UNL A   1      38.874  32.360  33.845  1.00  0.00     0.074 A 
ATOM     41  C   UNL A   1      38.457  31.127  31.742  1.00  0.00     0.049 A 
ATOM     42  N   UNL A   1      40.026  31.856  34.210  1.00  0.00    -0.248 NA
ATOM     43  C   UNL A   1      38.347  33.383  34.765  1.00  0.00     0.031 C 
ATOM     44  C   UNL A   1      37.761  30.760  30.508  1.00  0.00     0.029 A 
ATOM     45  N   UNL A   1      39.567  30.319  31.749  1.00  0.00    -0.354 N 
ATOM     46  C   UNL A   1      40.366  32.511  35.387  1.00  0.00     0.074 A 
ATOM     47  C   UNL A   1      39.332  33.487  35.645  1.00  0.00     0.031 C 
ATOM     48  C   UNL A   1      38.446  29.784  29.890  1.00  0.00     0.029 A 
ATOM     49  C   UNL A   1      39.655  29.494  30.654  1.00  0.00     0.049 A 
ATOM     50  H   UNL A   1      40.237  30.330  32.470  1.00  0.00     0.167 HD
ATOM     51  C   UNL A   1      41.435  32.305  36.191  1.00  0.00     0.031 A 
ATOM     52  C   UNL A   1      40.610  28.614  30.298  1.00  0.00     0.031 A 
ATOM     53  C   UNL A   1      42.458  31.327  35.937  1.00  0.00     0.049 A 
ATOM     54  C   UNL A   1      41.808  28.431  31.191  1.00  0.00     0.074 A 
ATOM     55  C   UNL A   1      43.557  31.010  36.715  1.00  0.00     0.029 A 
ATOM     56  N   UNL A   1      42.506  30.510  34.820  1.00  0.00    -0.354 N 
ATOM     57  N   UNL A   1      42.089  29.020  32.328  1.00  0.00    -0.248 NA
ATOM     58  C   UNL A   1      42.817  27.455  30.753  1.00  0.00     0.031 C 
ATOM     59  C   UNL A   1      44.304  30.043  36.037  1.00  0.00     0.029 A 
ATOM     60  C   UNL A   1      43.631  29.705  34.874  1.00  0.00     0.049 A 
ATOM     61  H   UNL A   1      41.839  30.502  34.094  1.00  0.00     0.167 HD
ATOM     62  C   UNL A   1      43.282  28.455  32.763  1.00  0.00     0.074 A 
ATOM     63  C   UNL A   1      43.667  27.473  31.770  1.00  0.00     0.031 C 
ATOM     64  C   UNL A   1      43.992  28.723  33.885  1.00  0.00     0.031 A 
BRANCH  51  65
ATOM     65  C   UNL A   1      41.556  33.164  37.421  1.00  0.00    -0.014 A 
ATOM     66  C   UNL A   1      42.274  34.372  37.401  1.00  0.00     0.009 A 
ATOM     67  C   UNL A   1      40.910  32.781  38.606  1.00  0.00     0.009 A 
ATOM     68  C   UNL A   1      42.374  35.156  38.551  1.00  0.00     0.001 A 
ATOM     69  C   UNL A   1      40.982  33.584  39.745  1.00  0.00     0.001 A 
ATOM     70  C   UNL A   1      41.723  34.765  39.720  1.00  0.00     0.000 A 
ENDBRANCH  51  65
BRANCH  52  71
ATOM     71  C   UNL A   1      40.476  27.829  29.041  1.00  0.00    -0.014 A 
ATOM     72  C   UNL A   1      39.783  26.609  29.031  1.00  0.00     0.009 A 
ATOM     73  C   UNL A   1      41.060  28.285  27.848  1.00  0.00     0.009 A 
ATOM     74  C   UNL A   1      39.708  25.844  27.864  1.00  0.00     0.001 A 
ATOM     75  C   UNL A   1      40.954  27.535  26.674  1.00  0.00     0.001 A 
ATOM     76  C   UNL A   1      40.290  26.311  26.686  1.00  0.00     0.000 A 
ENDBRANCH  52  71
BRANCH  64  77
ATOM     77  C   UNL A   1      45.226  27.903  34.140  1.00  0.00    -0.014 A 
ATOM     78  C   UNL A   1      45.169  26.676  34.819  1.00  0.00     0.009 A 
ATOM     79  C   UNL A   1      46.459  28.340  33.628  1.00  0.00     0.009 A 
ATOM     80  C   UNL A   1      46.327  25.919  35.004  1.00  0.00     0.001 A 
ATOM     81  C   UNL A   1      47.608  27.565  33.785  1.00  0.00     0.001 A 
ATOM     82  C   UNL A   1      47.542  26.359  34.480  1.00  0.00     0.000 A 
ENDBRANCH  64  77
ENDBRANCH  38  39
ENDBRANCH  30  33
ENDBRANCH  28  29
ENDBRANCH  27  28
ENDBRANCH  26  27
ENDBRANCH  25  26
ENDBRANCH   1  25
TORSDOF 18
ENDMDL
