MODEL 1
REMARK VINA RESULT:     -11.2      0.000      0.000
REMARK SMILES COc1ccc([C@H]2CC(c3ccc(S(C)(=O)=O)cc3)=NN2c2ccc(C(=O)NCCCCCCNC(=O)c3ccc(-c4c5nc(c(-c6ccccc6)c6ccc([nH]6)c(-c6ccccc6)c6nc(c(-c7ccccc7)c7ccc4[nH]7)C=C6)C=C5)cc3)cc2)cc1OC
REMARK SMILES IDX 31 1 30 2 29 3 28 4 26 5 27 6 25 8 22 9 23 10 87 11 24 12
REMARK SMILES IDX 86 13 21 14 7 15 8 16 9 17 20 18 6 19 3 20 4 21 89 22 5 23
REMARK SMILES IDX 88 24 2 25 1 26 90 27 91 28 10 29 11 30 19 31 12 32 18 33
REMARK SMILES IDX 13 34 14 35 15 36 16 37 17 38 32 39 33 40 34 41 35 42 36 43
REMARK SMILES IDX 37 45 38 46 39 47 85 48 40 49 84 50 41 51 42 52 43 53 78 54
REMARK SMILES IDX 44 55 83 56 77 57 79 58 45 59 82 60 76 61 75 62 46 64 68 65
REMARK SMILES IDX 53 66 67 67 54 68 57 69 66 70 80 71 55 72 56 73 65 75 81 76
REMARK SMILES IDX 58 77 47 78 48 79 52 80 49 81 51 82 50 83 69 84 70 85 74 86
REMARK SMILES IDX 71 87 73 88 72 89 59 90 60 91 64 92 61 93 63 94 62 95
REMARK H PARENT 28 7 35 44 79 63 57 74
REMARK Flexibility Score: inf
ROOT
ATOM      1  C   UNL A   1      38.134  29.080  28.011  1.00  0.00     0.002 C 
ENDROOT
BRANCH   1   2
ATOM      2  C   UNL A   1      37.727  29.232  29.484  1.00  0.00     0.021 C 
BRANCH   2   3
ATOM      3  C   UNL A   1      36.212  29.194  29.693  1.00  0.00     0.116 C 
BRANCH   3   4
ATOM      4  N   UNL A   1      35.601  30.336  29.042  1.00  0.00    -0.352 N 
ATOM      5  C   UNL A   1      34.746  30.444  27.977  1.00  0.00     0.251 C 
ATOM      6  O   UNL A   1      34.417  31.579  27.630  1.00  0.00    -0.269 OA
ATOM      7  H   UNL A   1      35.847  31.200  29.443  1.00  0.00     0.163 HD
BRANCH   5   8
ATOM      8  C   UNL A   1      34.156  29.270  27.280  1.00  0.00     0.039 A 
ATOM      9  C   UNL A   1      32.893  27.012  26.140  1.00  0.00     0.060 A 
ATOM     10  C   UNL A   1      32.212  27.835  27.042  1.00  0.00     0.029 A 
ATOM     11  C   UNL A   1      34.191  27.366  25.770  1.00  0.00     0.029 A 
ATOM     12  C   UNL A   1      32.839  28.938  27.622  1.00  0.00     0.016 A 
ATOM     13  C   UNL A   1      34.803  28.509  26.302  1.00  0.00     0.016 A 
BRANCH   9  14
ATOM     14  N   UNL A   1      32.266  25.898  25.616  1.00  0.00    -0.257 N 
ATOM     15  C   UNL A   1      30.850  25.812  25.262  1.00  0.00     0.144 C 
ATOM     16  C   UNL A   1      30.720  24.359  24.777  1.00  0.00     0.091 C 
ATOM     17  C   UNL A   1      32.101  23.854  25.091  1.00  0.00     0.071 C 
ATOM     18  N   UNL A   1      32.938  24.726  25.555  1.00  0.00    -0.176 NA
BRANCH  15  19
ATOM     19  C   UNL A   1      30.469  26.836  24.205  1.00  0.00    -0.019 A 
ATOM     20  C   UNL A   1      29.793  28.861  22.359  1.00  0.00     0.160 A 
ATOM     21  C   UNL A   1      28.793  28.163  23.051  1.00  0.00     0.051 A 
ATOM     22  C   UNL A   1      31.139  28.551  22.577  1.00  0.00     0.161 A 
ATOM     23  C   UNL A   1      29.128  27.154  23.961  1.00  0.00     0.010 A 
ATOM     24  C   UNL A   1      31.457  27.539  23.493  1.00  0.00     0.056 A 
BRANCH  20  25
ATOM     25  O   UNL A   1      29.432  29.927  21.579  1.00  0.00    -0.493 OA
ATOM     26  C   UNL A   1      28.033  30.197  21.634  1.00  0.00     0.278 C 
ENDBRANCH  20  25
BRANCH  22  27
ATOM     27  O   UNL A   1      32.250  29.131  22.026  1.00  0.00    -0.493 OA
ATOM     28  C   UNL A   1      33.500  28.926  22.663  1.00  0.00     0.278 C 
ENDBRANCH  22  27
ENDBRANCH  15  19
BRANCH  17  29
ATOM     29  C   UNL A   1      32.467  22.446  24.922  1.00  0.00    -0.002 A 
ATOM     30  C   UNL A   1      32.066  21.796  23.748  1.00  0.00     0.011 A 
ATOM     31  C   UNL A   1      33.146  21.758  25.929  1.00  0.00     0.011 A 
ATOM     32  C   UNL A   1      32.360  20.446  23.571  1.00  0.00     0.021 A 
ATOM     33  C   UNL A   1      33.418  20.398  25.764  1.00  0.00     0.021 A 
ATOM     34  C   UNL A   1      33.020  19.749  24.587  1.00  0.00     0.067 A 
BRANCH  34  35
ATOM     35  S   UNL A   1      33.365  18.020  24.364  1.00  0.00     0.175 S 
ATOM     36  C   UNL A   1      35.117  17.888  24.614  1.00  0.00     0.163 C 
ATOM     37  O   UNL A   1      32.692  17.322  25.445  1.00  0.00    -0.224 OA
ATOM     38  O   UNL A   1      33.093  17.692  22.979  1.00  0.00    -0.224 OA
ENDBRANCH  34  35
ENDBRANCH  17  29
ENDBRANCH   9  14
ENDBRANCH   5   8
ENDBRANCH   3   4
ENDBRANCH   2   3
ENDBRANCH   1   2
BRANCH   1  39
ATOM     39  C   UNL A   1      39.557  28.551  27.791  1.00  0.00     0.002 C 
BRANCH  39  40
ATOM     40  C   UNL A   1      39.647  27.058  27.464  1.00  0.00     0.021 C 
BRANCH  40  41
ATOM     41  C   UNL A   1      39.704  26.150  28.688  1.00  0.00     0.116 C 
BRANCH  41  42
ATOM     42  N   UNL A   1      40.131  24.804  28.341  1.00  0.00    -0.352 N 
ATOM     43  C   UNL A   1      41.292  24.392  27.738  1.00  0.00     0.251 C 
ATOM     44  H   UNL A   1      39.497  24.087  28.572  1.00  0.00     0.163 HD
ATOM     45  O   UNL A   1      41.402  23.244  27.319  1.00  0.00    -0.269 OA
BRANCH  43  46
ATOM     46  C   UNL A   1      42.413  25.343  27.582  1.00  0.00     0.039 A 
ATOM     47  C   UNL A   1      42.763  25.772  26.299  1.00  0.00     0.014 A 
ATOM     48  C   UNL A   1      43.127  25.790  28.696  1.00  0.00     0.014 A 
ATOM     49  C   UNL A   1      43.802  26.690  26.137  1.00  0.00     0.010 A 
ATOM     50  C   UNL A   1      44.120  26.752  28.540  1.00  0.00     0.010 A 
ATOM     51  C   UNL A   1      44.472  27.205  27.259  1.00  0.00    -0.014 A 
BRANCH  51  52
ATOM     52  C   UNL A   1      45.553  28.208  27.114  1.00  0.00     0.031 A 
ATOM     53  C   UNL A   1      45.230  29.675  27.132  1.00  0.00     0.074 A 
ATOM     54  C   UNL A   1      46.819  27.799  26.904  1.00  0.00     0.049 A 
ATOM     55  N   UNL A   1      46.030  30.700  26.970  1.00  0.00    -0.248 NA
ATOM     56  C   UNL A   1      43.819  30.038  27.335  1.00  0.00     0.031 C 
ATOM     57  C   UNL A   1      47.259  26.403  26.833  1.00  0.00     0.029 A 
ATOM     58  N   UNL A   1      47.968  28.521  26.708  1.00  0.00    -0.354 N 
ATOM     59  C   UNL A   1      45.216  31.824  27.032  1.00  0.00     0.074 A 
ATOM     60  C   UNL A   1      43.858  31.355  27.198  1.00  0.00     0.031 C 
ATOM     61  C   UNL A   1      48.587  26.373  26.642  1.00  0.00     0.029 A 
ATOM     62  C   UNL A   1      49.085  27.741  26.540  1.00  0.00     0.049 A 
ATOM     63  H   UNL A   1      47.990  29.505  26.689  1.00  0.00     0.167 HD
ATOM     64  C   UNL A   1      45.568  33.130  26.973  1.00  0.00     0.031 A 
ATOM     65  C   UNL A   1      50.368  28.089  26.329  1.00  0.00     0.031 A 
ATOM     66  C   UNL A   1      46.919  33.597  26.816  1.00  0.00     0.049 A 
ATOM     67  C   UNL A   1      50.734  29.542  26.250  1.00  0.00     0.074 A 
ATOM     68  C   UNL A   1      47.387  34.901  26.804  1.00  0.00     0.029 A 
ATOM     69  N   UNL A   1      48.022  32.776  26.642  1.00  0.00    -0.354 N 
ATOM     70  N   UNL A   1      49.962  30.595  26.369  1.00  0.00    -0.248 NA
ATOM     71  C   UNL A   1      52.151  29.854  26.015  1.00  0.00     0.031 C 
ATOM     72  C   UNL A   1      48.767  34.867  26.575  1.00  0.00     0.029 A 
ATOM     73  C   UNL A   1      49.165  33.541  26.495  1.00  0.00     0.049 A 
ATOM     74  H   UNL A   1      47.995  31.791  26.623  1.00  0.00     0.167 HD
ATOM     75  C   UNL A   1      50.802  31.695  26.248  1.00  0.00     0.074 A 
ATOM     76  C   UNL A   1      52.143  31.179  26.058  1.00  0.00     0.031 C 
ATOM     77  C   UNL A   1      50.491  33.013  26.296  1.00  0.00     0.031 A 
BRANCH  64  78
ATOM     78  C   UNL A   1      44.460  34.142  27.065  1.00  0.00    -0.014 A 
ATOM     79  C   UNL A   1      43.756  34.556  25.922  1.00  0.00     0.009 A 
ATOM     80  C   UNL A   1      44.114  34.688  28.310  1.00  0.00     0.009 A 
ATOM     81  C   UNL A   1      42.763  35.532  26.018  1.00  0.00     0.001 A 
ATOM     82  C   UNL A   1      43.100  35.643  28.408  1.00  0.00     0.001 A 
ATOM     83  C   UNL A   1      42.434  36.074  27.261  1.00  0.00     0.000 A 
ENDBRANCH  64  78
BRANCH  65  84
ATOM     84  C   UNL A   1      51.406  27.034  26.212  1.00  0.00    -0.014 A 
ATOM     85  C   UNL A   1      52.126  26.627  27.345  1.00  0.00     0.009 A 
ATOM     86  C   UNL A   1      51.671  26.418  24.980  1.00  0.00     0.009 A 
ATOM     87  C   UNL A   1      53.100  25.632  27.244  1.00  0.00     0.001 A 
ATOM     88  C   UNL A   1      52.630  25.407  24.886  1.00  0.00     0.001 A 
ATOM     89  C   UNL A   1      53.347  25.019  26.016  1.00  0.00     0.000 A 
ENDBRANCH  65  84
BRANCH  77  90
ATOM     90  C   UNL A   1      51.624  33.988  26.165  1.00  0.00    -0.014 A 
ATOM     91  C   UNL A   1      52.351  34.415  27.286  1.00  0.00     0.009 A 
ATOM     92  C   UNL A   1      51.993  34.458  24.894  1.00  0.00     0.009 A 
ATOM     93  C   UNL A   1      53.406  35.318  27.141  1.00  0.00     0.001 A 
ATOM     94  C   UNL A   1      53.064  35.341  24.749  1.00  0.00     0.001 A 
ATOM     95  C   UNL A   1      53.764  35.777  25.873  1.00  0.00     0.000 A 
ENDBRANCH  77  90
ENDBRANCH  51  52
ENDBRANCH  43  46
ENDBRANCH  41  42
ENDBRANCH  40  41
ENDBRANCH  39  40
ENDBRANCH   1  39
TORSDOF 19
ENDMDL
MODEL 2
REMARK VINA RESULT:     -10.7      7.352     11.790
REMARK SMILES COc1ccc([C@H]2CC(c3ccc(S(C)(=O)=O)cc3)=NN2c2ccc(C(=O)NCCCCCCNC(=O)c3ccc(-c4c5nc(c(-c6ccccc6)c6ccc([nH]6)c(-c6ccccc6)c6nc(c(-c7ccccc7)c7ccc4[nH]7)C=C6)C=C5)cc3)cc2)cc1OC
REMARK SMILES IDX 31 1 30 2 29 3 28 4 26 5 27 6 25 8 22 9 23 10 87 11 24 12
REMARK SMILES IDX 86 13 21 14 7 15 8 16 9 17 20 18 6 19 3 20 4 21 89 22 5 23
REMARK SMILES IDX 88 24 2 25 1 26 90 27 91 28 10 29 11 30 19 31 12 32 18 33
REMARK SMILES IDX 13 34 14 35 15 36 16 37 17 38 32 39 33 40 34 41 35 42 36 43
REMARK SMILES IDX 37 45 38 46 39 47 85 48 40 49 84 50 41 51 42 52 43 53 78 54
REMARK SMILES IDX 44 55 83 56 77 57 79 58 45 59 82 60 76 61 75 62 46 64 68 65
REMARK SMILES IDX 53 66 67 67 54 68 57 69 66 70 80 71 55 72 56 73 65 75 81 76
REMARK SMILES IDX 58 77 47 78 48 79 52 80 49 81 51 82 50 83 69 84 70 85 74 86
REMARK SMILES IDX 71 87 73 88 72 89 59 90 60 91 64 92 61 93 63 94 62 95
REMARK H PARENT 28 7 35 44 79 63 57 74
REMARK Flexibility Score: inf
ROOT
ATOM      1  C   UNL A   1      39.931  27.326  27.685  1.00  0.00     0.002 C 
ENDROOT
BRANCH   1   2
ATOM      2  C   UNL A   1      39.539  25.843  27.620  1.00  0.00     0.021 C 
BRANCH   2   3
ATOM      3  C   UNL A   1      40.014  25.153  26.339  1.00  0.00     0.116 C 
BRANCH   3   4
ATOM      4  N   UNL A   1      39.895  23.717  26.485  1.00  0.00    -0.352 N 
ATOM      5  C   UNL A   1      38.890  22.836  26.181  1.00  0.00     0.251 C 
ATOM      6  O   UNL A   1      39.075  21.651  26.456  1.00  0.00    -0.269 OA
ATOM      7  H   UNL A   1      40.690  23.291  26.879  1.00  0.00     0.163 HD
BRANCH   5   8
ATOM      8  C   UNL A   1      37.638  23.235  25.483  1.00  0.00     0.039 A 
ATOM      9  C   UNL A   1      35.158  24.007  24.368  1.00  0.00     0.060 A 
ATOM     10  C   UNL A   1      35.516  24.401  25.661  1.00  0.00     0.029 A 
ATOM     11  C   UNL A   1      36.079  23.275  23.619  1.00  0.00     0.029 A 
ATOM     12  C   UNL A   1      36.731  24.005  26.222  1.00  0.00     0.016 A 
ATOM     13  C   UNL A   1      37.326  22.928  24.156  1.00  0.00     0.016 A 
BRANCH   9  14
ATOM     14  N   UNL A   1      33.929  24.373  23.853  1.00  0.00    -0.257 N 
ATOM     15  C   UNL A   1      33.150  23.597  22.890  1.00  0.00     0.144 C 
ATOM     16  C   UNL A   1      31.922  24.494  22.662  1.00  0.00     0.091 C 
ATOM     17  C   UNL A   1      32.328  25.701  23.461  1.00  0.00     0.071 C 
ATOM     18  N   UNL A   1      33.444  25.609  24.111  1.00  0.00    -0.176 NA
BRANCH  15  19
ATOM     19  C   UNL A   1      32.797  22.220  23.429  1.00  0.00    -0.019 A 
ATOM     20  C   UNL A   1      32.309  19.621  24.415  1.00  0.00     0.160 A 
ATOM     21  C   UNL A   1      32.062  19.932  23.071  1.00  0.00     0.051 A 
ATOM     22  C   UNL A   1      32.796  20.605  25.281  1.00  0.00     0.161 A 
ATOM     23  C   UNL A   1      32.297  21.223  22.583  1.00  0.00     0.010 A 
ATOM     24  C   UNL A   1      33.028  21.892  24.777  1.00  0.00     0.056 A 
BRANCH  20  25
ATOM     25  O   UNL A   1      32.193  18.319  24.822  1.00  0.00    -0.493 OA
ATOM     26  C   UNL A   1      33.343  17.539  24.498  1.00  0.00     0.278 C 
ENDBRANCH  20  25
BRANCH  22  27
ATOM     27  O   UNL A   1      33.122  20.492  26.606  1.00  0.00    -0.493 OA
ATOM     28  C   UNL A   1      33.861  21.543  27.207  1.00  0.00     0.278 C 
ENDBRANCH  22  27
ENDBRANCH  15  19
BRANCH  17  29
ATOM     29  C   UNL A   1      31.527  26.928  23.471  1.00  0.00    -0.002 A 
ATOM     30  C   UNL A   1      30.614  27.128  22.429  1.00  0.00     0.011 A 
ATOM     31  C   UNL A   1      31.714  27.895  24.460  1.00  0.00     0.011 A 
ATOM     32  C   UNL A   1      29.865  28.302  22.382  1.00  0.00     0.021 A 
ATOM     33  C   UNL A   1      30.983  29.084  24.400  1.00  0.00     0.021 A 
ATOM     34  C   UNL A   1      30.065  29.281  23.359  1.00  0.00     0.067 A 
BRANCH  34  35
ATOM     35  S   UNL A   1      29.127  30.789  23.274  1.00  0.00     0.175 S 
ATOM     36  C   UNL A   1      27.439  30.260  23.422  1.00  0.00     0.163 C 
ATOM     37  O   UNL A   1      29.472  31.558  24.457  1.00  0.00    -0.224 OA
ATOM     38  O   UNL A   1      29.299  31.341  21.947  1.00  0.00    -0.224 OA
ENDBRANCH  34  35
ENDBRANCH  17  29
ENDBRANCH   9  14
ENDBRANCH   5   8
ENDBRANCH   3   4
ENDBRANCH   2   3
ENDBRANCH   1   2
BRANCH   1  39
ATOM     39  C   UNL A   1      39.552  28.033  28.992  1.00  0.00     0.002 C 
BRANCH  39  40
ATOM     40  C   UNL A   1      38.656  29.262  28.825  1.00  0.00     0.021 C 
BRANCH  40  41
ATOM     41  C   UNL A   1      37.299  29.147  29.510  1.00  0.00     0.116 C 
BRANCH  41  42
ATOM     42  N   UNL A   1      36.697  30.452  29.736  1.00  0.00    -0.352 N 
ATOM     43  C   UNL A   1      36.833  31.293  30.811  1.00  0.00     0.251 C 
ATOM     44  H   UNL A   1      36.109  30.777  29.016  1.00  0.00     0.163 HD
ATOM     45  O   UNL A   1      36.086  32.258  30.943  1.00  0.00    -0.269 OA
BRANCH  43  46
ATOM     46  C   UNL A   1      37.878  31.027  31.822  1.00  0.00     0.039 A 
ATOM     47  C   UNL A   1      39.172  31.506  31.600  1.00  0.00     0.014 A 
ATOM     48  C   UNL A   1      37.584  30.289  32.971  1.00  0.00     0.014 A 
ATOM     49  C   UNL A   1      40.163  31.286  32.558  1.00  0.00     0.010 A 
ATOM     50  C   UNL A   1      38.555  30.125  33.954  1.00  0.00     0.010 A 
ATOM     51  C   UNL A   1      39.855  30.614  33.752  1.00  0.00    -0.014 A 
BRANCH  51  52
ATOM     52  C   UNL A   1      40.883  30.401  34.799  1.00  0.00     0.031 A 
ATOM     53  C   UNL A   1      41.691  29.135  34.817  1.00  0.00     0.074 A 
ATOM     54  C   UNL A   1      41.046  31.319  35.771  1.00  0.00     0.049 A 
ATOM     55  N   UNL A   1      42.597  28.745  35.678  1.00  0.00    -0.248 NA
ATOM     56  C   UNL A   1      41.429  28.169  33.738  1.00  0.00     0.031 C 
ATOM     57  C   UNL A   1      40.303  32.576  35.884  1.00  0.00     0.029 A 
ATOM     58  N   UNL A   1      41.892  31.333  36.850  1.00  0.00    -0.354 N 
ATOM     59  C   UNL A   1      42.998  27.484  35.256  1.00  0.00     0.074 A 
ATOM     60  C   UNL A   1      42.203  27.154  34.093  1.00  0.00     0.031 C 
ATOM     61  C   UNL A   1      40.748  33.252  36.954  1.00  0.00     0.029 A 
ATOM     62  C   UNL A   1      41.779  32.463  37.621  1.00  0.00     0.049 A 
ATOM     63  H   UNL A   1      42.520  30.603  37.053  1.00  0.00     0.167 HD
ATOM     64  C   UNL A   1      43.952  26.677  35.779  1.00  0.00     0.031 A 
ATOM     65  C   UNL A   1      42.434  32.825  38.740  1.00  0.00     0.031 A 
ATOM     66  C   UNL A   1      44.748  27.007  36.930  1.00  0.00     0.049 A 
ATOM     67  C   UNL A   1      43.476  31.909  39.312  1.00  0.00     0.074 A 
ATOM     68  C   UNL A   1      45.781  26.284  37.503  1.00  0.00     0.029 A 
ATOM     69  N   UNL A   1      44.598  28.158  37.689  1.00  0.00    -0.354 N 
ATOM     70  N   UNL A   1      43.885  30.744  38.869  1.00  0.00    -0.248 NA
ATOM     71  C   UNL A   1      44.153  32.361  40.537  1.00  0.00     0.031 C 
ATOM     72  C   UNL A   1      46.224  26.977  38.636  1.00  0.00     0.029 A 
ATOM     73  C   UNL A   1      45.500  28.155  38.738  1.00  0.00     0.049 A 
ATOM     74  H   UNL A   1      43.944  28.872  37.507  1.00  0.00     0.167 HD
ATOM     75  C   UNL A   1      44.883  30.336  39.744  1.00  0.00     0.074 A 
ATOM     76  C   UNL A   1      45.024  31.382  40.737  1.00  0.00     0.031 C 
ATOM     77  C   UNL A   1      45.620  29.199  39.723  1.00  0.00     0.031 A 
BRANCH  64  78
ATOM     78  C   UNL A   1      44.169  25.350  35.107  1.00  0.00    -0.014 A 
ATOM     79  C   UNL A   1      45.130  25.195  34.094  1.00  0.00     0.009 A 
ATOM     80  C   UNL A   1      43.403  24.239  35.491  1.00  0.00     0.009 A 
ATOM     81  C   UNL A   1      45.285  23.968  33.447  1.00  0.00     0.001 A 
ATOM     82  C   UNL A   1      43.579  23.005  34.862  1.00  0.00     0.001 A 
ATOM     83  C   UNL A   1      44.510  22.873  33.832  1.00  0.00     0.000 A 
ENDBRANCH  64  78
BRANCH  65  84
ATOM     84  C   UNL A   1      42.143  34.136  39.371  1.00  0.00    -0.014 A 
ATOM     85  C   UNL A   1      41.164  34.234  40.371  1.00  0.00     0.009 A 
ATOM     86  C   UNL A   1      42.850  35.289  38.997  1.00  0.00     0.009 A 
ATOM     87  C   UNL A   1      40.888  35.463  40.973  1.00  0.00     0.001 A 
ATOM     88  C   UNL A   1      42.588  36.512  39.617  1.00  0.00     0.001 A 
ATOM     89  C   UNL A   1      41.604  36.599  40.600  1.00  0.00     0.000 A 
ENDBRANCH  65  84
BRANCH  77  90
ATOM     90  C   UNL A   1      46.661  29.040  40.793  1.00  0.00    -0.014 A 
ATOM     91  C   UNL A   1      47.952  29.565  40.636  1.00  0.00     0.009 A 
ATOM     92  C   UNL A   1      46.333  28.386  41.991  1.00  0.00     0.009 A 
ATOM     93  C   UNL A   1      48.904  29.412  41.646  1.00  0.00     0.001 A 
ATOM     94  C   UNL A   1      47.278  28.255  43.009  1.00  0.00     0.001 A 
ATOM     95  C   UNL A   1      48.565  28.761  42.832  1.00  0.00     0.000 A 
ENDBRANCH  77  90
ENDBRANCH  51  52
ENDBRANCH  43  46
ENDBRANCH  41  42
ENDBRANCH  40  41
ENDBRANCH  39  40
ENDBRANCH   1  39
TORSDOF 19
ENDMDL
MODEL 3
REMARK VINA RESULT:     -10.7      6.416     13.672
REMARK SMILES COc1ccc([C@H]2CC(c3ccc(S(C)(=O)=O)cc3)=NN2c2ccc(C(=O)NCCCCCCNC(=O)c3ccc(-c4c5nc(c(-c6ccccc6)c6ccc([nH]6)c(-c6ccccc6)c6nc(c(-c7ccccc7)c7ccc4[nH]7)C=C6)C=C5)cc3)cc2)cc1OC
REMARK SMILES IDX 31 1 30 2 29 3 28 4 26 5 27 6 25 8 22 9 23 10 87 11 24 12
REMARK SMILES IDX 86 13 21 14 7 15 8 16 9 17 20 18 6 19 3 20 4 21 89 22 5 23
REMARK SMILES IDX 88 24 2 25 1 26 90 27 91 28 10 29 11 30 19 31 12 32 18 33
REMARK SMILES IDX 13 34 14 35 15 36 16 37 17 38 32 39 33 40 34 41 35 42 36 43
REMARK SMILES IDX 37 45 38 46 39 47 85 48 40 49 84 50 41 51 42 52 43 53 78 54
REMARK SMILES IDX 44 55 83 56 77 57 79 58 45 59 82 60 76 61 75 62 46 64 68 65
REMARK SMILES IDX 53 66 67 67 54 68 57 69 66 70 80 71 55 72 56 73 65 75 81 76
REMARK SMILES IDX 58 77 47 78 48 79 52 80 49 81 51 82 50 83 69 84 70 85 74 86
REMARK SMILES IDX 71 87 73 88 72 89 59 90 60 91 64 92 61 93 63 94 62 95
REMARK H PARENT 28 7 35 44 79 63 57 74
REMARK Flexibility Score: inf
ROOT
ATOM      1  C   UNL A   1      51.842  29.641  28.748  1.00  0.00     0.002 C 
ENDROOT
BRANCH   1   2
ATOM      2  C   UNL A   1      50.736  29.264  29.744  1.00  0.00     0.021 C 
BRANCH   2   3
ATOM      3  C   UNL A   1      51.245  29.130  31.181  1.00  0.00     0.116 C 
BRANCH   3   4
ATOM      4  N   UNL A   1      51.403  27.729  31.513  1.00  0.00    -0.352 N 
ATOM      5  C   UNL A   1      50.531  26.788  31.995  1.00  0.00     0.251 C 
ATOM      6  O   UNL A   1      50.978  25.662  32.212  1.00  0.00    -0.269 OA
ATOM      7  H   UNL A   1      52.314  27.386  31.365  1.00  0.00     0.163 HD
BRANCH   5   8
ATOM      8  C   UNL A   1      49.080  27.047  32.196  1.00  0.00     0.039 A 
ATOM      9  C   UNL A   1      46.308  27.582  32.349  1.00  0.00     0.060 A 
ATOM     10  C   UNL A   1      46.879  27.089  31.172  1.00  0.00     0.029 A 
ATOM     11  C   UNL A   1      47.129  27.746  33.466  1.00  0.00     0.029 A 
ATOM     12  C   UNL A   1      48.250  26.844  31.087  1.00  0.00     0.016 A 
ATOM     13  C   UNL A   1      48.495  27.441  33.403  1.00  0.00     0.016 A 
BRANCH   9  14
ATOM     14  N   UNL A   1      44.955  27.862  32.393  1.00  0.00    -0.257 N 
ATOM     15  C   UNL A   1      43.890  26.957  31.967  1.00  0.00     0.144 C 
ATOM     16  C   UNL A   1      42.627  27.801  32.206  1.00  0.00     0.091 C 
ATOM     17  C   UNL A   1      43.257  29.107  32.603  1.00  0.00     0.071 C 
ATOM     18  N   UNL A   1      44.548  29.115  32.699  1.00  0.00    -0.176 NA
BRANCH  15  19
ATOM     19  C   UNL A   1      43.903  25.657  32.756  1.00  0.00    -0.019 A 
ATOM     20  C   UNL A   1      44.069  23.303  34.301  1.00  0.00     0.160 A 
ATOM     21  C   UNL A   1      44.558  23.330  32.988  1.00  0.00     0.051 A 
ATOM     22  C   UNL A   1      43.487  24.448  34.854  1.00  0.00     0.161 A 
ATOM     23  C   UNL A   1      44.470  24.496  32.219  1.00  0.00     0.010 A 
ATOM     24  C   UNL A   1      43.408  25.607  34.071  1.00  0.00     0.056 A 
BRANCH  20  25
ATOM     25  O   UNL A   1      44.293  22.188  35.064  1.00  0.00    -0.493 OA
ATOM     26  C   UNL A   1      45.608  21.663  34.895  1.00  0.00     0.278 C 
ENDBRANCH  20  25
BRANCH  22  27
ATOM     27  O   UNL A   1      42.982  24.627  36.113  1.00  0.00    -0.493 OA
ATOM     28  C   UNL A   1      41.628  25.030  36.243  1.00  0.00     0.278 C 
ENDBRANCH  22  27
ENDBRANCH  15  19
BRANCH  17  29
ATOM     29  C   UNL A   1      42.458  30.315  32.828  1.00  0.00    -0.002 A 
ATOM     30  C   UNL A   1      41.065  30.187  32.865  1.00  0.00     0.011 A 
ATOM     31  C   UNL A   1      43.070  31.564  32.945  1.00  0.00     0.011 A 
ATOM     32  C   UNL A   1      40.271  31.319  33.036  1.00  0.00     0.021 A 
ATOM     33  C   UNL A   1      42.275  32.703  33.089  1.00  0.00     0.021 A 
ATOM     34  C   UNL A   1      40.880  32.574  33.130  1.00  0.00     0.067 A 
BRANCH  34  35
ATOM     35  S   UNL A   1      39.858  34.016  33.318  1.00  0.00     0.175 S 
ATOM     36  C   UNL A   1      40.897  35.180  34.166  1.00  0.00     0.163 C 
ATOM     37  O   UNL A   1      39.602  34.519  31.980  1.00  0.00    -0.224 OA
ATOM     38  O   UNL A   1      38.769  33.671  34.208  1.00  0.00    -0.224 OA
ENDBRANCH  34  35
ENDBRANCH  17  29
ENDBRANCH   9  14
ENDBRANCH   5   8
ENDBRANCH   3   4
ENDBRANCH   2   3
ENDBRANCH   1   2
BRANCH   1  39
ATOM     39  C   UNL A   1      51.671  29.046  27.344  1.00  0.00     0.002 C 
BRANCH  39  40
ATOM     40  C   UNL A   1      52.945  28.456  26.734  1.00  0.00     0.021 C 
BRANCH  40  41
ATOM     41  C   UNL A   1      53.448  27.196  27.429  1.00  0.00     0.116 C 
BRANCH  41  42
ATOM     42  N   UNL A   1      53.510  26.065  26.515  1.00  0.00    -0.352 N 
ATOM     43  C   UNL A   1      52.511  25.207  26.131  1.00  0.00     0.251 C 
ATOM     44  H   UNL A   1      54.393  25.891  26.118  1.00  0.00     0.163 HD
ATOM     45  O   UNL A   1      52.778  24.175  25.524  1.00  0.00    -0.269 OA
BRANCH  43  46
ATOM     46  C   UNL A   1      51.106  25.524  26.461  1.00  0.00     0.039 A 
ATOM     47  C   UNL A   1      50.640  25.265  27.753  1.00  0.00     0.014 A 
ATOM     48  C   UNL A   1      50.249  26.053  25.493  1.00  0.00     0.014 A 
ATOM     49  C   UNL A   1      49.323  25.584  28.088  1.00  0.00     0.010 A 
ATOM     50  C   UNL A   1      48.957  26.429  25.845  1.00  0.00     0.010 A 
ATOM     51  C   UNL A   1      48.479  26.190  27.143  1.00  0.00    -0.014 A 
BRANCH  51  52
ATOM     52  C   UNL A   1      47.088  26.570  27.487  1.00  0.00     0.031 A 
ATOM     53  C   UNL A   1      45.984  25.556  27.396  1.00  0.00     0.074 A 
ATOM     54  C   UNL A   1      46.808  27.844  27.824  1.00  0.00     0.049 A 
ATOM     55  N   UNL A   1      44.700  25.711  27.607  1.00  0.00    -0.248 NA
ATOM     56  C   UNL A   1      46.369  24.195  26.992  1.00  0.00     0.031 C 
ATOM     57  C   UNL A   1      47.786  28.930  27.918  1.00  0.00     0.029 A 
ATOM     58  N   UNL A   1      45.616  28.439  28.145  1.00  0.00    -0.354 N 
ATOM     59  C   UNL A   1      44.125  24.474  27.342  1.00  0.00     0.074 A 
ATOM     60  C   UNL A   1      45.190  23.595  26.909  1.00  0.00     0.031 C 
ATOM     61  C   UNL A   1      47.157  30.051  28.305  1.00  0.00     0.029 A 
ATOM     62  C   UNL A   1      45.732  29.772  28.449  1.00  0.00     0.049 A 
ATOM     63  H   UNL A   1      44.757  27.956  28.157  1.00  0.00     0.167 HD
ATOM     64  C   UNL A   1      42.830  24.098  27.462  1.00  0.00     0.031 A 
ATOM     65  C   UNL A   1      44.795  30.670  28.806  1.00  0.00     0.031 A 
ATOM     66  C   UNL A   1      41.772  24.968  27.899  1.00  0.00     0.049 A 
ATOM     67  C   UNL A   1      43.362  30.236  28.917  1.00  0.00     0.074 A 
ATOM     68  C   UNL A   1      40.436  24.667  28.111  1.00  0.00     0.029 A 
ATOM     69  N   UNL A   1      41.929  26.314  28.190  1.00  0.00    -0.354 N 
ATOM     70  N   UNL A   1      42.842  29.049  28.720  1.00  0.00    -0.248 NA
ATOM     71  C   UNL A   1      42.389  31.266  29.309  1.00  0.00     0.031 C 
ATOM     72  C   UNL A   1      39.778  25.844  28.486  1.00  0.00     0.029 A 
ATOM     73  C   UNL A   1      40.713  26.865  28.555  1.00  0.00     0.049 A 
ATOM     74  H   UNL A   1      42.781  26.806  28.143  1.00  0.00     0.167 HD
ATOM     75  C   UNL A   1      41.486  29.182  28.986  1.00  0.00     0.074 A 
ATOM     76  C   UNL A   1      41.267  30.562  29.370  1.00  0.00     0.031 C 
ATOM     77  C   UNL A   1      40.510  28.243  28.924  1.00  0.00     0.031 A 
BRANCH  64  78
ATOM     78  C   UNL A   1      42.493  22.678  27.097  1.00  0.00    -0.014 A 
ATOM     79  C   UNL A   1      42.222  21.717  28.085  1.00  0.00     0.009 A 
ATOM     80  C   UNL A   1      42.447  22.297  25.748  1.00  0.00     0.009 A 
ATOM     81  C   UNL A   1      41.960  20.393  27.730  1.00  0.00     0.001 A 
ATOM     82  C   UNL A   1      42.156  20.978  25.394  1.00  0.00     0.001 A 
ATOM     83  C   UNL A   1      41.925  20.024  26.385  1.00  0.00     0.000 A 
ENDBRANCH  64  78
BRANCH  65  84
ATOM     84  C   UNL A   1      45.194  32.065  29.118  1.00  0.00    -0.014 A 
ATOM     85  C   UNL A   1      45.222  33.033  28.103  1.00  0.00     0.009 A 
ATOM     86  C   UNL A   1      45.529  32.443  30.428  1.00  0.00     0.009 A 
ATOM     87  C   UNL A   1      45.592  34.349  28.390  1.00  0.00     0.001 A 
ATOM     88  C   UNL A   1      45.876  33.765  30.715  1.00  0.00     0.001 A 
ATOM     89  C   UNL A   1      45.913  34.714  29.696  1.00  0.00     0.000 A 
ENDBRANCH  65  84
BRANCH  77  90
ATOM     90  C   UNL A   1      39.123  28.673  29.302  1.00  0.00    -0.014 A 
ATOM     91  C   UNL A   1      38.221  29.151  28.339  1.00  0.00     0.009 A 
ATOM     92  C   UNL A   1      38.701  28.565  30.636  1.00  0.00     0.009 A 
ATOM     93  C   UNL A   1      36.933  29.541  28.711  1.00  0.00     0.001 A 
ATOM     94  C   UNL A   1      37.405  28.931  31.001  1.00  0.00     0.001 A 
ATOM     95  C   UNL A   1      36.525  29.427  30.040  1.00  0.00     0.000 A 
ENDBRANCH  77  90
ENDBRANCH  51  52
ENDBRANCH  43  46
ENDBRANCH  41  42
ENDBRANCH  40  41
ENDBRANCH  39  40
ENDBRANCH   1  39
TORSDOF 19
ENDMDL
