MODEL 1
REMARK VINA RESULT:     -10.4      0.000      0.000
REMARK SMILES C[C@@H](C(=O)NCCCCCCNC(=O)c1ccc(-c2c3nc(c(-c4ccccc4)c4ccc([nH]4)c(-c4ccccc4)c4nc(c(-c5ccccc5)c5ccc2[nH]5)C=C4)C=C3)cc1)c1ccc(C[C@@H]2CCC[C@@H]2O)cc1
REMARK SMILES IDX 7 1 6 2 5 3 3 4 4 5 2 7 1 8 63 9 64 10 75 11 65 12 74 13
REMARK SMILES IDX 66 14 67 15 68 16 69 17 72 18 70 19 71 20 73 21 8 23 9 24
REMARK SMILES IDX 10 25 11 26 12 27 13 28 14 30 15 31 16 32 62 33 17 34 61 35
REMARK SMILES IDX 18 36 19 37 20 38 55 39 21 40 60 41 54 42 56 43 22 44 59 45
REMARK SMILES IDX 53 46 52 47 23 49 45 50 30 51 44 52 31 53 34 54 43 55 57 56
REMARK SMILES IDX 32 57 33 58 42 60 58 61 35 62 24 63 25 64 29 65 26 66 28 67
REMARK SMILES IDX 27 68 46 69 47 70 51 71 48 72 50 73 49 74 36 75 37 76 41 77
REMARK SMILES IDX 38 78 40 79 39 80
REMARK H PARENT 5 6 73 22 12 29 56 48 34 59
REMARK Flexibility Score: inf
ROOT
ATOM      1  C   UNL A   1      33.284  28.450  25.443  1.00  0.00     0.021 C 
ENDROOT
BRANCH   1   2
ATOM      2  C   UNL A   1      33.327  27.002  25.940  1.00  0.00     0.116 C 
BRANCH   2   3
ATOM      3  N   UNL A   1      34.105  26.177  25.043  1.00  0.00    -0.356 N 
ATOM      4  C   UNL A   1      33.798  25.003  24.424  1.00  0.00     0.227 C 
ATOM      5  O   UNL A   1      34.715  24.467  23.801  1.00  0.00    -0.274 OA
ATOM      6  H   UNL A   1      35.006  26.522  24.846  1.00  0.00     0.163 HD
BRANCH   4   7
ATOM      7  C   UNL A   1      32.363  24.452  24.491  1.00  0.00     0.105 C 
ATOM      8  C   UNL A   1      32.184  23.142  23.714  1.00  0.00     0.023 C 
BRANCH   7   9
ATOM      9  C   UNL A   1      31.310  25.432  23.987  1.00  0.00    -0.036 A 
ATOM     10  C   UNL A   1      31.559  26.220  22.855  1.00  0.00     0.005 A 
ATOM     11  C   UNL A   1      30.127  25.648  24.707  1.00  0.00     0.005 A 
ATOM     12  C   UNL A   1      30.668  27.230  22.485  1.00  0.00     0.004 A 
ATOM     13  C   UNL A   1      29.240  26.653  24.335  1.00  0.00     0.004 A 
ATOM     14  C   UNL A   1      29.523  27.485  23.248  1.00  0.00    -0.048 A 
BRANCH  14  15
ATOM     15  C   UNL A   1      28.626  28.660  22.958  1.00  0.00     0.041 C 
BRANCH  15  16
ATOM     16  C   UNL A   1      29.193  30.072  23.233  1.00  0.00     0.022 C 
ATOM     17  C   UNL A   1      28.219  31.022  23.940  1.00  0.00     0.007 C 
ATOM     18  C   UNL A   1      29.664  30.910  22.037  1.00  0.00     0.117 C 
ATOM     19  C   UNL A   1      27.647  31.952  22.867  1.00  0.00     0.003 C 
ATOM     20  C   UNL A   1      28.432  31.682  21.587  1.00  0.00     0.032 C 
BRANCH  18  21
ATOM     21  O   UNL A   1      30.237  30.163  20.985  1.00  0.00    -0.393 OA
ATOM     22  H   UNL A   1      30.898  29.551  21.345  1.00  0.00     0.210 HD
ENDBRANCH  18  21
ENDBRANCH  15  16
ENDBRANCH  14  15
ENDBRANCH   7   9
ENDBRANCH   4   7
ENDBRANCH   2   3
ENDBRANCH   1   2
BRANCH   1  23
ATOM     23  C   UNL A   1      31.920  29.136  25.608  1.00  0.00     0.002 C 
BRANCH  23  24
ATOM     24  C   UNL A   1      31.730  29.900  26.922  1.00  0.00     0.002 C 
BRANCH  24  25
ATOM     25  C   UNL A   1      31.501  31.404  26.766  1.00  0.00     0.021 C 
BRANCH  25  26
ATOM     26  C   UNL A   1      32.762  32.251  26.873  1.00  0.00     0.116 C 
BRANCH  26  27
ATOM     27  N   UNL A   1      32.498  33.558  27.449  1.00  0.00    -0.352 N 
ATOM     28  C   UNL A   1      33.175  34.212  28.445  1.00  0.00     0.251 C 
ATOM     29  H   UNL A   1      31.727  34.041  27.071  1.00  0.00     0.163 HD
ATOM     30  O   UNL A   1      32.711  35.237  28.940  1.00  0.00    -0.269 OA
BRANCH  28  31
ATOM     31  C   UNL A   1      34.461  33.674  28.938  1.00  0.00     0.039 A 
ATOM     32  C   UNL A   1      35.643  34.056  28.297  1.00  0.00     0.014 A 
ATOM     33  C   UNL A   1      34.500  32.779  30.010  1.00  0.00     0.014 A 
ATOM     34  C   UNL A   1      36.866  33.561  28.751  1.00  0.00     0.010 A 
ATOM     35  C   UNL A   1      35.725  32.346  30.509  1.00  0.00     0.010 A 
ATOM     36  C   UNL A   1      36.918  32.712  29.868  1.00  0.00    -0.014 A 
BRANCH  36  37
ATOM     37  C   UNL A   1      38.205  32.153  30.347  1.00  0.00     0.031 A 
ATOM     38  C   UNL A   1      38.718  30.860  29.773  1.00  0.00     0.074 A 
ATOM     39  C   UNL A   1      38.889  32.776  31.326  1.00  0.00     0.049 A 
ATOM     40  N   UNL A   1      39.800  30.190  30.079  1.00  0.00    -0.248 NA
ATOM     41  C   UNL A   1      37.890  30.220  28.736  1.00  0.00     0.031 C 
ATOM     42  C   UNL A   1      38.483  34.015  31.990  1.00  0.00     0.029 A 
ATOM     43  N   UNL A   1      40.075  32.445  31.932  1.00  0.00    -0.354 N 
ATOM     44  C   UNL A   1      39.767  29.042  29.297  1.00  0.00     0.074 A 
ATOM     45  C   UNL A   1      38.536  29.081  28.539  1.00  0.00     0.031 C 
ATOM     46  C   UNL A   1      39.424  34.360  32.885  1.00  0.00     0.029 A 
ATOM     47  C   UNL A   1      40.478  33.352  32.882  1.00  0.00     0.049 A 
ATOM     48  H   UNL A   1      40.588  31.636  31.706  1.00  0.00     0.167 HD
ATOM     49  C   UNL A   1      40.686  28.052  29.200  1.00  0.00     0.031 A 
ATOM     50  C   UNL A   1      41.578  33.369  33.657  1.00  0.00     0.031 A 
ATOM     51  C   UNL A   1      41.923  28.026  29.933  1.00  0.00     0.049 A 
ATOM     52  C   UNL A   1      42.590  32.265  33.525  1.00  0.00     0.074 A 
ATOM     53  C   UNL A   1      42.952  27.104  29.857  1.00  0.00     0.029 A 
ATOM     54  N   UNL A   1      42.298  28.970  30.876  1.00  0.00    -0.354 N 
ATOM     55  N   UNL A   1      42.577  31.222  32.732  1.00  0.00    -0.248 NA
ATOM     56  C   UNL A   1      43.778  32.354  34.386  1.00  0.00     0.031 C 
ATOM     57  C   UNL A   1      43.932  27.467  30.787  1.00  0.00     0.029 A 
ATOM     58  C   UNL A   1      43.536  28.643  31.403  1.00  0.00     0.049 A 
ATOM     59  H   UNL A   1      41.765  29.756  31.133  1.00  0.00     0.167 HD
ATOM     60  C   UNL A   1      43.769  30.551  32.968  1.00  0.00     0.074 A 
ATOM     61  C   UNL A   1      44.484  31.310  33.975  1.00  0.00     0.031 C 
ATOM     62  C   UNL A   1      44.236  29.413  32.398  1.00  0.00     0.031 A 
BRANCH  49  63
ATOM     63  C   UNL A   1      40.373  26.910  28.274  1.00  0.00    -0.014 A 
ATOM     64  C   UNL A   1      40.872  26.874  26.962  1.00  0.00     0.009 A 
ATOM     65  C   UNL A   1      39.575  25.846  28.725  1.00  0.00     0.009 A 
ATOM     66  C   UNL A   1      40.539  25.821  26.106  1.00  0.00     0.001 A 
ATOM     67  C   UNL A   1      39.271  24.779  27.878  1.00  0.00     0.001 A 
ATOM     68  C   UNL A   1      39.743  24.774  26.566  1.00  0.00     0.000 A 
ENDBRANCH  49  63
BRANCH  50  69
ATOM     69  C   UNL A   1      41.807  34.495  34.597  1.00  0.00    -0.014 A 
ATOM     70  C   UNL A   1      41.351  34.412  35.923  1.00  0.00     0.009 A 
ATOM     71  C   UNL A   1      42.472  35.658  34.181  1.00  0.00     0.009 A 
ATOM     72  C   UNL A   1      41.536  35.480  36.804  1.00  0.00     0.001 A 
ATOM     73  C   UNL A   1      42.678  36.714  35.072  1.00  0.00     0.001 A 
ATOM     74  C   UNL A   1      42.201  36.628  36.378  1.00  0.00     0.000 A 
ENDBRANCH  50  69
BRANCH  62  75
ATOM     75  C   UNL A   1      45.605  28.950  32.809  1.00  0.00    -0.014 A 
ATOM     76  C   UNL A   1      46.758  29.392  32.144  1.00  0.00     0.009 A 
ATOM     77  C   UNL A   1      45.740  28.083  33.905  1.00  0.00     0.009 A 
ATOM     78  C   UNL A   1      48.019  28.945  32.547  1.00  0.00     0.001 A 
ATOM     79  C   UNL A   1      47.002  27.661  34.323  1.00  0.00     0.001 A 
ATOM     80  C   UNL A   1      48.139  28.084  33.637  1.00  0.00     0.000 A 
ENDBRANCH  62  75
ENDBRANCH  36  37
ENDBRANCH  28  31
ENDBRANCH  26  27
ENDBRANCH  25  26
ENDBRANCH  24  25
ENDBRANCH  23  24
ENDBRANCH   1  23
TORSDOF 17
ENDMDL
MODEL 2
REMARK VINA RESULT:     -10.2      0.852      5.889
REMARK SMILES C[C@@H](C(=O)NCCCCCCNC(=O)c1ccc(-c2c3nc(c(-c4ccccc4)c4ccc([nH]4)c(-c4ccccc4)c4nc(c(-c5ccccc5)c5ccc2[nH]5)C=C4)C=C3)cc1)c1ccc(C[C@@H]2CCC[C@@H]2O)cc1
REMARK SMILES IDX 7 1 6 2 5 3 3 4 4 5 2 7 1 8 63 9 64 10 75 11 65 12 74 13
REMARK SMILES IDX 66 14 67 15 68 16 69 17 72 18 70 19 71 20 73 21 8 23 9 24
REMARK SMILES IDX 10 25 11 26 12 27 13 28 14 30 15 31 16 32 62 33 17 34 61 35
REMARK SMILES IDX 18 36 19 37 20 38 55 39 21 40 60 41 54 42 56 43 22 44 59 45
REMARK SMILES IDX 53 46 52 47 23 49 45 50 30 51 44 52 31 53 34 54 43 55 57 56
REMARK SMILES IDX 32 57 33 58 42 60 58 61 35 62 24 63 25 64 29 65 26 66 28 67
REMARK SMILES IDX 27 68 46 69 47 70 51 71 48 72 50 73 49 74 36 75 37 76 41 77
REMARK SMILES IDX 38 78 40 79 39 80
REMARK H PARENT 5 6 73 22 12 29 56 48 34 59
REMARK Flexibility Score: inf
ROOT
ATOM      1  C   UNL A   1      33.189  27.500  25.573  1.00  0.00     0.021 C 
ENDROOT
BRANCH   1   2
ATOM      2  C   UNL A   1      33.527  26.033  25.855  1.00  0.00     0.116 C 
BRANCH   2   3
ATOM      3  N   UNL A   1      34.278  25.462  24.760  1.00  0.00    -0.356 N 
ATOM      4  C   UNL A   1      33.947  24.485  23.869  1.00  0.00     0.227 C 
ATOM      5  O   UNL A   1      34.846  24.123  23.108  1.00  0.00    -0.274 OA
ATOM      6  H   UNL A   1      35.178  25.842  24.636  1.00  0.00     0.163 HD
BRANCH   4   7
ATOM      7  C   UNL A   1      32.509  23.940  23.826  1.00  0.00     0.105 C 
ATOM      8  C   UNL A   1      32.329  22.792  22.826  1.00  0.00     0.023 C 
BRANCH   7   9
ATOM      9  C   UNL A   1      31.464  25.001  23.500  1.00  0.00    -0.036 A 
ATOM     10  C   UNL A   1      31.712  25.956  22.506  1.00  0.00     0.005 A 
ATOM     11  C   UNL A   1      30.293  25.114  24.262  1.00  0.00     0.005 A 
ATOM     12  C   UNL A   1      30.831  27.024  22.314  1.00  0.00     0.004 A 
ATOM     13  C   UNL A   1      29.416  26.176  24.068  1.00  0.00     0.004 A 
ATOM     14  C   UNL A   1      29.699  27.168  23.124  1.00  0.00    -0.048 A 
BRANCH  14  15
ATOM     15  C   UNL A   1      28.816  28.385  23.037  1.00  0.00     0.041 C 
BRANCH  15  16
ATOM     16  C   UNL A   1      29.480  29.717  22.615  1.00  0.00     0.022 C 
ATOM     17  C   UNL A   1      29.913  30.610  23.783  1.00  0.00     0.007 C 
ATOM     18  C   UNL A   1      28.672  30.683  21.740  1.00  0.00     0.117 C 
ATOM     19  C   UNL A   1      28.852  31.704  23.923  1.00  0.00     0.003 C 
ATOM     20  C   UNL A   1      27.921  31.571  22.722  1.00  0.00     0.032 C 
BRANCH  18  21
ATOM     21  O   UNL A   1      27.804  30.058  20.819  1.00  0.00    -0.393 OA
ATOM     22  H   UNL A   1      27.880  29.095  20.906  1.00  0.00     0.210 HD
ENDBRANCH  18  21
ENDBRANCH  15  16
ENDBRANCH  14  15
ENDBRANCH   7   9
ENDBRANCH   4   7
ENDBRANCH   2   3
ENDBRANCH   1   2
BRANCH   1  23
ATOM     23  C   UNL A   1      31.855  27.969  26.170  1.00  0.00     0.002 C 
BRANCH  23  24
ATOM     24  C   UNL A   1      31.973  28.996  27.300  1.00  0.00     0.002 C 
BRANCH  24  25
ATOM     25  C   UNL A   1      31.599  30.427  26.910  1.00  0.00     0.021 C 
BRANCH  25  26
ATOM     26  C   UNL A   1      32.786  31.365  26.732  1.00  0.00     0.116 C 
BRANCH  26  27
ATOM     27  N   UNL A   1      32.501  32.708  27.208  1.00  0.00    -0.352 N 
ATOM     28  C   UNL A   1      33.185  33.457  28.128  1.00  0.00     0.251 C 
ATOM     29  H   UNL A   1      31.708  33.139  26.813  1.00  0.00     0.163 HD
ATOM     30  O   UNL A   1      32.707  34.507  28.552  1.00  0.00    -0.269 OA
BRANCH  28  31
ATOM     31  C   UNL A   1      34.497  32.993  28.628  1.00  0.00     0.039 A 
ATOM     32  C   UNL A   1      35.661  33.490  28.034  1.00  0.00     0.014 A 
ATOM     33  C   UNL A   1      34.580  32.054  29.660  1.00  0.00     0.014 A 
ATOM     34  C   UNL A   1      36.908  33.066  28.495  1.00  0.00     0.010 A 
ATOM     35  C   UNL A   1      35.823  31.690  30.169  1.00  0.00     0.010 A 
ATOM     36  C   UNL A   1      36.999  32.173  29.574  1.00  0.00    -0.014 A 
BRANCH  36  37
ATOM     37  C   UNL A   1      38.314  31.688  30.059  1.00  0.00     0.031 A 
ATOM     38  C   UNL A   1      38.971  32.358  31.235  1.00  0.00     0.074 A 
ATOM     39  C   UNL A   1      38.939  30.681  29.419  1.00  0.00     0.049 A 
ATOM     40  N   UNL A   1      40.130  32.107  31.789  1.00  0.00    -0.248 NA
ATOM     41  C   UNL A   1      38.241  33.478  31.852  1.00  0.00     0.031 C 
ATOM     42  C   UNL A   1      38.426  29.970  28.247  1.00  0.00     0.029 A 
ATOM     43  N   UNL A   1      40.148  30.082  29.670  1.00  0.00    -0.354 N 
ATOM     44  C   UNL A   1      40.278  33.052  32.797  1.00  0.00     0.074 A 
ATOM     45  C   UNL A   1      39.117  33.911  32.746  1.00  0.00     0.031 C 
ATOM     46  C   UNL A   1      39.297  29.006  27.903  1.00  0.00     0.029 A 
ATOM     47  C   UNL A   1      40.441  29.054  28.807  1.00  0.00     0.049 A 
ATOM     48  H   UNL A   1      40.747  30.361  30.400  1.00  0.00     0.167 HD
ATOM     49  C   UNL A   1      41.281  33.184  33.698  1.00  0.00     0.031 A 
ATOM     50  C   UNL A   1      41.511  28.238  28.757  1.00  0.00     0.031 A 
ATOM     51  C   UNL A   1      42.423  32.313  33.766  1.00  0.00     0.049 A 
ATOM     52  C   UNL A   1      42.606  28.397  29.774  1.00  0.00     0.074 A 
ATOM     53  C   UNL A   1      43.460  32.320  34.683  1.00  0.00     0.029 A 
ATOM     54  N   UNL A   1      42.676  31.277  32.881  1.00  0.00    -0.354 N 
ATOM     55  N   UNL A   1      42.700  29.251  30.763  1.00  0.00    -0.248 NA
ATOM     56  C   UNL A   1      43.736  27.462  29.676  1.00  0.00     0.031 C 
ATOM     57  C   UNL A   1      44.364  31.314  34.326  1.00  0.00     0.029 A 
ATOM     58  C   UNL A   1      43.862  30.648  33.219  1.00  0.00     0.049 A 
ATOM     59  H   UNL A   1      42.099  31.025  32.125  1.00  0.00     0.167 HD
ATOM     60  C   UNL A   1      43.876  28.934  31.428  1.00  0.00     0.074 A 
ATOM     61  C   UNL A   1      44.458  27.804  30.733  1.00  0.00     0.031 C 
ATOM     62  C   UNL A   1      44.423  29.520  32.521  1.00  0.00     0.031 A 
BRANCH  49  63
ATOM     63  C   UNL A   1      41.185  34.324  34.673  1.00  0.00    -0.014 A 
ATOM     64  C   UNL A   1      41.695  35.596  34.365  1.00  0.00     0.009 A 
ATOM     65  C   UNL A   1      40.564  34.126  35.916  1.00  0.00     0.009 A 
ATOM     66  C   UNL A   1      41.628  36.632  35.299  1.00  0.00     0.001 A 
ATOM     67  C   UNL A   1      40.469  35.172  36.837  1.00  0.00     0.001 A 
ATOM     68  C   UNL A   1      41.012  36.420  36.532  1.00  0.00     0.000 A 
ENDBRANCH  49  63
BRANCH  50  69
ATOM     69  C   UNL A   1      41.579  27.165  27.733  1.00  0.00    -0.014 A 
ATOM     70  C   UNL A   1      41.097  25.878  28.027  1.00  0.00     0.009 A 
ATOM     71  C   UNL A   1      42.126  27.411  26.465  1.00  0.00     0.009 A 
ATOM     72  C   UNL A   1      41.186  24.856  27.079  1.00  0.00     0.001 A 
ATOM     73  C   UNL A   1      42.189  26.393  25.511  1.00  0.00     0.001 A 
ATOM     74  C   UNL A   1      41.728  25.115  25.822  1.00  0.00     0.000 A 
ENDBRANCH  50  69
BRANCH  62  75
ATOM     75  C   UNL A   1      45.686  28.916  33.065  1.00  0.00    -0.014 A 
ATOM     76  C   UNL A   1      46.947  29.282  32.569  1.00  0.00     0.009 A 
ATOM     77  C   UNL A   1      45.611  27.990  34.118  1.00  0.00     0.009 A 
ATOM     78  C   UNL A   1      48.105  28.703  33.094  1.00  0.00     0.001 A 
ATOM     79  C   UNL A   1      46.770  27.435  34.658  1.00  0.00     0.001 A 
ATOM     80  C   UNL A   1      48.016  27.784  34.140  1.00  0.00     0.000 A 
ENDBRANCH  62  75
ENDBRANCH  36  37
ENDBRANCH  28  31
ENDBRANCH  26  27
ENDBRANCH  25  26
ENDBRANCH  24  25
ENDBRANCH  23  24
ENDBRANCH   1  23
TORSDOF 17
ENDMDL
MODEL 3
REMARK VINA RESULT:     -10.2      2.638      7.757
REMARK SMILES C[C@@H](C(=O)NCCCCCCNC(=O)c1ccc(-c2c3nc(c(-c4ccccc4)c4ccc([nH]4)c(-c4ccccc4)c4nc(c(-c5ccccc5)c5ccc2[nH]5)C=C4)C=C3)cc1)c1ccc(C[C@@H]2CCC[C@@H]2O)cc1
REMARK SMILES IDX 7 1 6 2 5 3 3 4 4 5 2 7 1 8 63 9 64 10 75 11 65 12 74 13
REMARK SMILES IDX 66 14 67 15 68 16 69 17 72 18 70 19 71 20 73 21 8 23 9 24
REMARK SMILES IDX 10 25 11 26 12 27 13 28 14 30 15 31 16 32 62 33 17 34 61 35
REMARK SMILES IDX 18 36 19 37 20 38 55 39 21 40 60 41 54 42 56 43 22 44 59 45
REMARK SMILES IDX 53 46 52 47 23 49 45 50 30 51 44 52 31 53 34 54 43 55 57 56
REMARK SMILES IDX 32 57 33 58 42 60 58 61 35 62 24 63 25 64 29 65 26 66 28 67
REMARK SMILES IDX 27 68 46 69 47 70 51 71 48 72 50 73 49 74 36 75 37 76 41 77
REMARK SMILES IDX 38 78 40 79 39 80
REMARK H PARENT 5 6 73 22 12 29 56 48 34 59
REMARK Flexibility Score: inf
ROOT
ATOM      1  C   UNL A   1      30.872  29.292  23.231  1.00  0.00     0.021 C 
ENDROOT
BRANCH   1   2
ATOM      2  C   UNL A   1      30.685  27.954  22.511  1.00  0.00     0.116 C 
BRANCH   2   3
ATOM      3  N   UNL A   1      31.917  27.537  21.879  1.00  0.00    -0.356 N 
ATOM      4  C   UNL A   1      32.949  26.785  22.355  1.00  0.00     0.227 C 
ATOM      5  O   UNL A   1      33.930  26.690  21.616  1.00  0.00    -0.274 OA
ATOM      6  H   UNL A   1      32.028  27.847  20.951  1.00  0.00     0.163 HD
BRANCH   4   7
ATOM      7  C   UNL A   1      32.822  26.079  23.716  1.00  0.00     0.105 C 
ATOM      8  C   UNL A   1      33.983  26.391  24.667  1.00  0.00     0.023 C 
BRANCH   7   9
ATOM      9  C   UNL A   1      32.712  24.562  23.607  1.00  0.00    -0.036 A 
ATOM     10  C   UNL A   1      33.865  23.766  23.630  1.00  0.00     0.005 A 
ATOM     11  C   UNL A   1      31.476  23.947  23.368  1.00  0.00     0.005 A 
ATOM     12  C   UNL A   1      33.784  22.395  23.370  1.00  0.00     0.004 A 
ATOM     13  C   UNL A   1      31.397  22.582  23.112  1.00  0.00     0.004 A 
ATOM     14  C   UNL A   1      32.554  21.799  23.065  1.00  0.00    -0.048 A 
BRANCH  14  15
ATOM     15  C   UNL A   1      32.460  20.358  22.637  1.00  0.00     0.041 C 
BRANCH  15  16
ATOM     16  C   UNL A   1      32.392  19.288  23.751  1.00  0.00     0.022 C 
ATOM     17  C   UNL A   1      33.544  19.346  24.760  1.00  0.00     0.007 C 
ATOM     18  C   UNL A   1      32.387  17.811  23.338  1.00  0.00     0.117 C 
ATOM     19  C   UNL A   1      34.526  18.237  24.378  1.00  0.00     0.003 C 
ATOM     20  C   UNL A   1      33.855  17.411  23.285  1.00  0.00     0.032 C 
BRANCH  18  21
ATOM     21  O   UNL A   1      31.719  17.542  22.123  1.00  0.00    -0.393 OA
ATOM     22  H   UNL A   1      30.844  17.169  22.311  1.00  0.00     0.210 HD
ENDBRANCH  18  21
ENDBRANCH  15  16
ENDBRANCH  14  15
ENDBRANCH   7   9
ENDBRANCH   4   7
ENDBRANCH   2   3
ENDBRANCH   1   2
BRANCH   1  23
ATOM     23  C   UNL A   1      30.959  29.182  24.760  1.00  0.00     0.002 C 
BRANCH  23  24
ATOM     24  C   UNL A   1      32.229  29.767  25.385  1.00  0.00     0.002 C 
BRANCH  24  25
ATOM     25  C   UNL A   1      32.646  29.130  26.711  1.00  0.00     0.021 C 
BRANCH  25  26
ATOM     26  C   UNL A   1      33.960  29.651  27.278  1.00  0.00     0.116 C 
BRANCH  26  27
ATOM     27  N   UNL A   1      33.838  31.005  27.793  1.00  0.00    -0.352 N 
ATOM     28  C   UNL A   1      34.630  31.654  28.702  1.00  0.00     0.251 C 
ATOM     29  H   UNL A   1      33.082  31.527  27.438  1.00  0.00     0.163 HD
ATOM     30  O   UNL A   1      34.282  32.738  29.166  1.00  0.00    -0.269 OA
BRANCH  28  31
ATOM     31  C   UNL A   1      35.902  31.041  29.142  1.00  0.00     0.039 A 
ATOM     32  C   UNL A   1      37.107  31.637  28.758  1.00  0.00     0.014 A 
ATOM     33  C   UNL A   1      35.909  29.872  29.907  1.00  0.00     0.014 A 
ATOM     34  C   UNL A   1      38.317  31.075  29.166  1.00  0.00     0.010 A 
ATOM     35  C   UNL A   1      37.113  29.356  30.376  1.00  0.00     0.010 A 
ATOM     36  C   UNL A   1      38.329  29.937  29.988  1.00  0.00    -0.014 A 
BRANCH  36  37
ATOM     37  C   UNL A   1      39.605  29.308  30.408  1.00  0.00     0.031 A 
ATOM     38  C   UNL A   1      40.324  29.817  31.628  1.00  0.00     0.074 A 
ATOM     39  C   UNL A   1      40.141  28.315  29.672  1.00  0.00     0.049 A 
ATOM     40  N   UNL A   1      41.464  29.426  32.139  1.00  0.00    -0.248 NA
ATOM     41  C   UNL A   1      39.693  30.932  32.353  1.00  0.00     0.031 C 
ATOM     42  C   UNL A   1      39.563  27.755  28.451  1.00  0.00     0.029 A 
ATOM     43  N   UNL A   1      41.300  27.602  29.851  1.00  0.00    -0.354 N 
ATOM     44  C   UNL A   1      41.697  30.263  33.224  1.00  0.00     0.074 A 
ATOM     45  C   UNL A   1      40.608  31.213  33.267  1.00  0.00     0.031 C 
ATOM     46  C   UNL A   1      40.350  26.759  28.010  1.00  0.00     0.029 A 
ATOM     47  C   UNL A   1      41.502  26.635  28.896  1.00  0.00     0.049 A 
ATOM     48  H   UNL A   1      41.926  27.767  30.593  1.00  0.00     0.167 HD
ATOM     49  C   UNL A   1      42.714  30.235  34.117  1.00  0.00     0.031 A 
ATOM     50  C   UNL A   1      42.502  25.745  28.758  1.00  0.00     0.031 A 
ATOM     51  C   UNL A   1      43.784  29.273  34.091  1.00  0.00     0.049 A 
ATOM     52  C   UNL A   1      43.616  25.724  29.768  1.00  0.00     0.074 A 
ATOM     53  C   UNL A   1      44.825  29.116  34.988  1.00  0.00     0.029 A 
ATOM     54  N   UNL A   1      43.945  28.303  33.114  1.00  0.00    -0.354 N 
ATOM     55  N   UNL A   1      43.786  26.478  30.826  1.00  0.00    -0.248 NA
ATOM     56  C   UNL A   1      44.666  24.715  29.570  1.00  0.00     0.031 C 
ATOM     57  C   UNL A   1      45.642  28.077  34.530  1.00  0.00     0.029 A 
ATOM     58  C   UNL A   1      45.079  27.554  33.377  1.00  0.00     0.049 A 
ATOM     59  H   UNL A   1      43.342  28.166  32.348  1.00  0.00     0.167 HD
ATOM     60  C   UNL A   1      44.939  26.010  31.443  1.00  0.00     0.074 A 
ATOM     61  C   UNL A   1      45.422  24.903  30.641  1.00  0.00     0.031 C 
ATOM     62  C   UNL A   1      45.541  26.452  32.574  1.00  0.00     0.031 A 
BRANCH  49  63
ATOM     63  C   UNL A   1      42.719  31.288  35.190  1.00  0.00    -0.014 A 
ATOM     64  C   UNL A   1      43.348  32.528  34.995  1.00  0.00     0.009 A 
ATOM     65  C   UNL A   1      42.073  31.040  36.412  1.00  0.00     0.009 A 
ATOM     66  C   UNL A   1      43.372  33.479  36.019  1.00  0.00     0.001 A 
ATOM     67  C   UNL A   1      42.071  32.004  37.421  1.00  0.00     0.001 A 
ATOM     68  C   UNL A   1      42.731  33.217  37.228  1.00  0.00     0.000 A 
ENDBRANCH  49  63
BRANCH  50  69
ATOM     69  C   UNL A   1      42.474  24.764  27.643  1.00  0.00    -0.014 A 
ATOM     70  C   UNL A   1      41.823  23.530  27.804  1.00  0.00     0.009 A 
ATOM     71  C   UNL A   1      43.098  25.047  26.419  1.00  0.00     0.009 A 
ATOM     72  C   UNL A   1      41.819  22.591  26.770  1.00  0.00     0.001 A 
ATOM     73  C   UNL A   1      43.070  24.115  25.378  1.00  0.00     0.001 A 
ATOM     74  C   UNL A   1      42.440  22.885  25.558  1.00  0.00     0.000 A 
ENDBRANCH  50  69
BRANCH  62  75
ATOM     75  C   UNL A   1      46.756  25.702  33.043  1.00  0.00    -0.014 A 
ATOM     76  C   UNL A   1      46.655  24.641  33.955  1.00  0.00     0.009 A 
ATOM     77  C   UNL A   1      48.018  26.046  32.534  1.00  0.00     0.009 A 
ATOM     78  C   UNL A   1      47.802  23.962  34.375  1.00  0.00     0.001 A 
ATOM     79  C   UNL A   1      49.157  25.348  32.934  1.00  0.00     0.001 A 
ATOM     80  C   UNL A   1      49.050  24.313  33.861  1.00  0.00     0.000 A 
ENDBRANCH  62  75
ENDBRANCH  36  37
ENDBRANCH  28  31
ENDBRANCH  26  27
ENDBRANCH  25  26
ENDBRANCH  24  25
ENDBRANCH  23  24
ENDBRANCH   1  23
TORSDOF 17
ENDMDL
