MODEL 1
REMARK VINA RESULT:     -12.0      0.000      0.000
REMARK SMILES O=C(NCCCCCCNC(=O)[C@@H]1CCCC[C@@H]1NS(=O)(=O)c1ccc2ccccc2c1)c1ccc(-c2c3nc(c(-c4ccccc4)c4ccc([nH]4)c(-c4ccccc4)c4nc(c(-c5ccccc5)c5ccc2[nH]5)C=C4)C=C3)cc1
REMARK SMILES IDX 7 1 6 2 5 3 4 4 3 5 1 6 2 7 33 9 34 10 80 11 35 12 79 13
REMARK SMILES IDX 36 14 37 15 38 16 73 17 39 18 78 19 72 20 74 21 40 22 77 23
REMARK SMILES IDX 71 24 70 25 41 27 63 28 48 29 62 30 49 31 52 32 61 33 75 34
REMARK SMILES IDX 50 35 51 36 60 38 76 39 53 40 42 41 43 42 47 43 44 44 46 45
REMARK SMILES IDX 45 46 64 47 65 48 69 49 66 50 68 51 67 52 54 53 55 54 59 55
REMARK SMILES IDX 56 56 58 57 57 58 8 59 9 60 10 61 11 62 12 64 13 65 14 66
REMARK SMILES IDX 18 67 15 68 17 69 16 70 19 71 20 73 21 74 22 75 23 76 24 77
REMARK SMILES IDX 32 78 25 79 31 80 26 81 30 82 27 83 29 84 28 85
REMARK H PARENT 3 8 74 26 52 37 10 63 19 72
REMARK Flexibility Score: inf
ROOT
ATOM      1  C   UNL A   1      37.063  22.023  24.277  1.00  0.00     0.002 C 
ENDROOT
BRANCH   1   2
ATOM      2  C   UNL A   1      36.615  20.603  24.646  1.00  0.00     0.002 C 
BRANCH   2   3
ATOM      3  C   UNL A   1      37.739  19.607  24.935  1.00  0.00     0.021 C 
BRANCH   3   4
ATOM      4  C   UNL A   1      38.886  20.159  25.772  1.00  0.00     0.116 C 
BRANCH   4   5
ATOM      5  N   UNL A   1      40.061  19.306  25.735  1.00  0.00    -0.352 N 
ATOM      6  O   UNL A   1      42.266  18.821  25.780  1.00  0.00    -0.269 OA
ATOM      7  C   UNL A   1      41.368  19.623  26.018  1.00  0.00     0.251 C 
ATOM      8  H   UNL A   1      39.899  18.372  25.471  1.00  0.00     0.163 HD
BRANCH   7   9
ATOM      9  C   UNL A   1      41.696  20.947  26.592  1.00  0.00     0.039 A 
ATOM     10  C   UNL A   1      41.644  21.158  27.972  1.00  0.00     0.014 A 
ATOM     11  C   UNL A   1      42.083  21.985  25.739  1.00  0.00     0.014 A 
ATOM     12  C   UNL A   1      41.858  22.432  28.484  1.00  0.00     0.010 A 
ATOM     13  C   UNL A   1      42.378  23.247  26.265  1.00  0.00     0.010 A 
ATOM     14  C   UNL A   1      42.248  23.485  27.641  1.00  0.00    -0.014 A 
BRANCH  14  15
ATOM     15  C   UNL A   1      42.601  24.792  28.249  1.00  0.00     0.031 A 
ATOM     16  C   UNL A   1      44.021  25.152  28.576  1.00  0.00     0.074 A 
ATOM     17  C   UNL A   1      41.612  25.685  28.449  1.00  0.00     0.049 A 
ATOM     18  N   UNL A   1      44.495  26.289  29.023  1.00  0.00    -0.248 NA
ATOM     19  C   UNL A   1      45.041  24.109  28.387  1.00  0.00     0.031 C 
ATOM     20  C   UNL A   1      40.190  25.437  28.189  1.00  0.00     0.029 A 
ATOM     21  N   UNL A   1      41.650  26.986  28.876  1.00  0.00    -0.354 N 
ATOM     22  C   UNL A   1      45.862  26.098  29.178  1.00  0.00     0.074 A 
ATOM     23  C   UNL A   1      46.140  24.728  28.801  1.00  0.00     0.031 C 
ATOM     24  C   UNL A   1      39.503  26.570  28.395  1.00  0.00     0.029 A 
ATOM     25  C   UNL A   1      40.424  27.604  28.852  1.00  0.00     0.049 A 
ATOM     26  H   UNL A   1      42.476  27.434  29.172  1.00  0.00     0.167 HD
ATOM     27  C   UNL A   1      46.798  26.985  29.593  1.00  0.00     0.031 A 
ATOM     28  C   UNL A   1      40.073  28.865  29.160  1.00  0.00     0.031 A 
ATOM     29  C   UNL A   1      46.519  28.347  29.972  1.00  0.00     0.049 A 
ATOM     30  C   UNL A   1      41.133  29.826  29.607  1.00  0.00     0.074 A 
ATOM     31  C   UNL A   1      47.403  29.322  30.402  1.00  0.00     0.029 A 
ATOM     32  N   UNL A   1      45.260  28.926  29.963  1.00  0.00    -0.354 N 
ATOM     33  N   UNL A   1      42.423  29.631  29.728  1.00  0.00    -0.248 NA
ATOM     34  C   UNL A   1      40.687  31.181  29.957  1.00  0.00     0.031 C 
ATOM     35  C   UNL A   1      46.672  30.482  30.687  1.00  0.00     0.029 A 
ATOM     36  C   UNL A   1      45.341  30.241  30.392  1.00  0.00     0.049 A 
ATOM     37  H   UNL A   1      44.430  28.471  29.692  1.00  0.00     0.167 HD
ATOM     38  C   UNL A   1      42.945  30.836  30.173  1.00  0.00     0.074 A 
ATOM     39  C   UNL A   1      41.837  31.767  30.262  1.00  0.00     0.031 C 
ATOM     40  C   UNL A   1      44.225  31.143  30.492  1.00  0.00     0.031 A 
BRANCH  27  41
ATOM     41  C   UNL A   1      48.220  26.508  29.673  1.00  0.00    -0.014 A 
ATOM     42  C   UNL A   1      49.121  26.734  28.620  1.00  0.00     0.009 A 
ATOM     43  C   UNL A   1      48.682  25.877  30.839  1.00  0.00     0.009 A 
ATOM     44  C   UNL A   1      50.450  26.319  28.726  1.00  0.00     0.001 A 
ATOM     45  C   UNL A   1      50.016  25.481  30.950  1.00  0.00     0.001 A 
ATOM     46  C   UNL A   1      50.899  25.698  29.892  1.00  0.00     0.000 A 
ENDBRANCH  27  41
BRANCH  28  47
ATOM     47  C   UNL A   1      38.652  29.280  29.062  1.00  0.00    -0.014 A 
ATOM     48  C   UNL A   1      38.125  29.749  27.849  1.00  0.00     0.009 A 
ATOM     49  C   UNL A   1      37.811  29.194  30.182  1.00  0.00     0.009 A 
ATOM     50  C   UNL A   1      36.787  30.140  27.766  1.00  0.00     0.001 A 
ATOM     51  C   UNL A   1      36.467  29.557  30.089  1.00  0.00     0.001 A 
ATOM     52  C   UNL A   1      35.958  30.038  28.884  1.00  0.00     0.000 A 
ENDBRANCH  28  47
BRANCH  40  53
ATOM     53  C   UNL A   1      44.480  32.544  30.966  1.00  0.00    -0.014 A 
ATOM     54  C   UNL A   1      44.420  32.863  32.332  1.00  0.00     0.009 A 
ATOM     55  C   UNL A   1      44.783  33.553  30.041  1.00  0.00     0.009 A 
ATOM     56  C   UNL A   1      44.620  34.177  32.758  1.00  0.00     0.001 A 
ATOM     57  C   UNL A   1      45.006  34.861  30.473  1.00  0.00     0.001 A 
ATOM     58  C   UNL A   1      44.914  35.174  31.829  1.00  0.00     0.000 A 
ENDBRANCH  40  53
ENDBRANCH  14  15
ENDBRANCH   7   9
ENDBRANCH   4   5
ENDBRANCH   3   4
ENDBRANCH   2   3
ENDBRANCH   1   2
BRANCH   1  59
ATOM     59  C   UNL A   1      36.074  22.834  23.433  1.00  0.00     0.021 C 
BRANCH  59  60
ATOM     60  C   UNL A   1      35.156  23.748  24.241  1.00  0.00     0.116 C 
BRANCH  60  61
ATOM     61  N   UNL A   1      33.872  23.893  23.599  1.00  0.00    -0.356 N 
ATOM     62  C   UNL A   1      32.917  22.990  23.285  1.00  0.00     0.224 C 
ATOM     63  H   UNL A   1      33.651  24.817  23.341  1.00  0.00     0.163 HD
ATOM     64  O   UNL A   1      32.004  23.392  22.553  1.00  0.00    -0.275 OA
BRANCH  62  65
ATOM     65  C   UNL A   1      32.901  21.537  23.750  1.00  0.00     0.096 C 
ATOM     66  C   UNL A   1      32.229  20.456  22.905  1.00  0.00     0.015 C 
ATOM     67  C   UNL A   1      32.745  21.364  25.267  1.00  0.00     0.082 C 
ATOM     68  C   UNL A   1      32.717  19.070  23.331  1.00  0.00     0.001 C 
ATOM     69  C   UNL A   1      33.087  19.932  25.694  1.00  0.00     0.021 C 
ATOM     70  C   UNL A   1      32.476  18.838  24.819  1.00  0.00     0.002 C 
BRANCH  67  71
ATOM     71  N   UNL A   1      31.544  21.941  25.902  1.00  0.00    -0.207 NA
ATOM     72  H   UNL A   1      31.074  21.129  26.304  1.00  0.00     0.141 HD
BRANCH  71  73
ATOM     73  S   UNL A   1      31.344  23.119  27.062  1.00  0.00     0.240 S 
ATOM     74  O   UNL A   1      29.968  23.016  27.484  1.00  0.00    -0.207 OA
ATOM     75  O   UNL A   1      32.421  23.000  28.024  1.00  0.00    -0.207 OA
BRANCH  73  76
ATOM     76  C   UNL A   1      31.511  24.680  26.252  1.00  0.00     0.083 A 
ATOM     77  C   UNL A   1      30.453  25.149  25.469  1.00  0.00     0.022 A 
ATOM     78  C   UNL A   1      32.641  25.469  26.473  1.00  0.00     0.030 A 
ATOM     79  C   UNL A   1      30.475  26.457  24.993  1.00  0.00     0.010 A 
ATOM     80  C   UNL A   1      32.659  26.797  26.019  1.00  0.00    -0.017 A 
ATOM     81  C   UNL A   1      31.552  27.302  25.291  1.00  0.00    -0.018 A 
ATOM     82  C   UNL A   1      33.731  27.653  26.312  1.00  0.00     0.009 A 
ATOM     83  C   UNL A   1      31.539  28.649  24.903  1.00  0.00     0.009 A 
ATOM     84  C   UNL A   1      33.698  28.994  25.923  1.00  0.00     0.001 A 
ATOM     85  C   UNL A   1      32.601  29.492  25.226  1.00  0.00     0.001 A 
ENDBRANCH  73  76
ENDBRANCH  71  73
ENDBRANCH  67  71
ENDBRANCH  62  65
ENDBRANCH  60  61
ENDBRANCH  59  60
ENDBRANCH   1  59
TORSDOF 16
ENDMDL
MODEL 2
REMARK VINA RESULT:     -11.9      0.461      5.759
REMARK SMILES O=C(NCCCCCCNC(=O)[C@@H]1CCCC[C@@H]1NS(=O)(=O)c1ccc2ccccc2c1)c1ccc(-c2c3nc(c(-c4ccccc4)c4ccc([nH]4)c(-c4ccccc4)c4nc(c(-c5ccccc5)c5ccc2[nH]5)C=C4)C=C3)cc1
REMARK SMILES IDX 7 1 6 2 5 3 4 4 3 5 1 6 2 7 33 9 34 10 80 11 35 12 79 13
REMARK SMILES IDX 36 14 37 15 38 16 73 17 39 18 78 19 72 20 74 21 40 22 77 23
REMARK SMILES IDX 71 24 70 25 41 27 63 28 48 29 62 30 49 31 52 32 61 33 75 34
REMARK SMILES IDX 50 35 51 36 60 38 76 39 53 40 42 41 43 42 47 43 44 44 46 45
REMARK SMILES IDX 45 46 64 47 65 48 69 49 66 50 68 51 67 52 54 53 55 54 59 55
REMARK SMILES IDX 56 56 58 57 57 58 8 59 9 60 10 61 11 62 12 64 13 65 14 66
REMARK SMILES IDX 18 67 15 68 17 69 16 70 19 71 20 73 21 74 22 75 23 76 24 77
REMARK SMILES IDX 32 78 25 79 31 80 26 81 30 82 27 83 29 84 28 85
REMARK H PARENT 3 8 74 26 52 37 10 63 19 72
REMARK Flexibility Score: inf
ROOT
ATOM      1  C   UNL A   1      36.648  21.841  25.560  1.00  0.00     0.002 C 
ENDROOT
BRANCH   1   2
ATOM      2  C   UNL A   1      36.974  20.804  24.477  1.00  0.00     0.002 C 
BRANCH   2   3
ATOM      3  C   UNL A   1      37.932  19.688  24.896  1.00  0.00     0.021 C 
BRANCH   3   4
ATOM      4  C   UNL A   1      38.973  20.091  25.933  1.00  0.00     0.116 C 
BRANCH   4   5
ATOM      5  N   UNL A   1      40.170  19.270  25.867  1.00  0.00    -0.352 N 
ATOM      6  O   UNL A   1      42.386  18.847  25.809  1.00  0.00    -0.269 OA
ATOM      7  C   UNL A   1      41.480  19.634  26.061  1.00  0.00     0.251 C 
ATOM      8  H   UNL A   1      40.021  18.321  25.655  1.00  0.00     0.163 HD
BRANCH   7   9
ATOM      9  C   UNL A   1      41.800  20.991  26.556  1.00  0.00     0.039 A 
ATOM     10  C   UNL A   1      41.732  21.287  27.920  1.00  0.00     0.014 A 
ATOM     11  C   UNL A   1      42.195  21.976  25.645  1.00  0.00     0.014 A 
ATOM     12  C   UNL A   1      41.938  22.591  28.355  1.00  0.00     0.010 A 
ATOM     13  C   UNL A   1      42.483  23.268  26.095  1.00  0.00     0.010 A 
ATOM     14  C   UNL A   1      42.337  23.591  27.453  1.00  0.00    -0.014 A 
BRANCH  14  15
ATOM     15  C   UNL A   1      42.681  24.933  27.983  1.00  0.00     0.031 A 
ATOM     16  C   UNL A   1      41.632  25.982  28.216  1.00  0.00     0.074 A 
ATOM     17  C   UNL A   1      43.965  25.173  28.314  1.00  0.00     0.049 A 
ATOM     18  N   UNL A   1      41.766  27.166  28.762  1.00  0.00    -0.248 NA
ATOM     19  C   UNL A   1      40.263  25.673  27.778  1.00  0.00     0.031 C 
ATOM     20  C   UNL A   1      45.075  24.236  28.113  1.00  0.00     0.029 A 
ATOM     21  N   UNL A   1      44.549  26.253  28.922  1.00  0.00    -0.354 N 
ATOM     22  C   UNL A   1      40.505  27.747  28.724  1.00  0.00     0.074 A 
ATOM     23  C   UNL A   1      39.623  26.796  28.081  1.00  0.00     0.031 C 
ATOM     24  C   UNL A   1      46.189  24.754  28.651  1.00  0.00     0.029 A 
ATOM     25  C   UNL A   1      45.885  26.076  29.184  1.00  0.00     0.049 A 
ATOM     26  H   UNL A   1      44.058  27.077  29.148  1.00  0.00     0.167 HD
ATOM     27  C   UNL A   1      40.119  28.960  29.188  1.00  0.00     0.031 A 
ATOM     28  C   UNL A   1      46.773  26.884  29.790  1.00  0.00     0.031 A 
ATOM     29  C   UNL A   1      40.999  29.907  29.825  1.00  0.00     0.049 A 
ATOM     30  C   UNL A   1      46.313  28.216  30.301  1.00  0.00     0.074 A 
ATOM     31  C   UNL A   1      40.699  31.161  30.331  1.00  0.00     0.029 A 
ATOM     32  N   UNL A   1      42.352  29.702  30.044  1.00  0.00    -0.354 N 
ATOM     33  N   UNL A   1      45.113  28.738  30.273  1.00  0.00    -0.248 NA
ATOM     34  C   UNL A   1      47.333  29.067  30.927  1.00  0.00     0.031 C 
ATOM     35  C   UNL A   1      41.879  31.728  30.825  1.00  0.00     0.029 A 
ATOM     36  C   UNL A   1      42.903  30.811  30.666  1.00  0.00     0.049 A 
ATOM     37  H   UNL A   1      42.849  28.890  29.794  1.00  0.00     0.167 HD
ATOM     38  C   UNL A   1      45.231  29.983  30.874  1.00  0.00     0.074 A 
ATOM     39  C   UNL A   1      46.612  30.118  31.292  1.00  0.00     0.031 C 
ATOM     40  C   UNL A   1      44.283  30.934  31.054  1.00  0.00     0.031 A 
BRANCH  27  41
ATOM     41  C   UNL A   1      38.678  29.344  29.014  1.00  0.00    -0.014 A 
ATOM     42  C   UNL A   1      38.192  29.793  27.775  1.00  0.00     0.009 A 
ATOM     43  C   UNL A   1      37.780  29.200  30.084  1.00  0.00     0.009 A 
ATOM     44  C   UNL A   1      36.841  30.109  27.618  1.00  0.00     0.001 A 
ATOM     45  C   UNL A   1      36.426  29.498  29.918  1.00  0.00     0.001 A 
ATOM     46  C   UNL A   1      35.958  29.957  28.687  1.00  0.00     0.000 A 
ENDBRANCH  27  41
BRANCH  28  47
ATOM     47  C   UNL A   1      48.185  26.451  29.934  1.00  0.00    -0.014 A 
ATOM     48  C   UNL A   1      48.609  25.762  31.080  1.00  0.00     0.009 A 
ATOM     49  C   UNL A   1      49.112  26.713  28.914  1.00  0.00     0.009 A 
ATOM     50  C   UNL A   1      49.941  25.361  31.208  1.00  0.00     0.001 A 
ATOM     51  C   UNL A   1      50.435  26.285  29.032  1.00  0.00     0.001 A 
ATOM     52  C   UNL A   1      50.851  25.617  30.182  1.00  0.00     0.000 A 
ENDBRANCH  28  47
BRANCH  40  53
ATOM     53  C   UNL A   1      44.724  32.199  31.731  1.00  0.00    -0.014 A 
ATOM     54  C   UNL A   1      45.198  33.288  30.981  1.00  0.00     0.009 A 
ATOM     55  C   UNL A   1      44.665  32.304  33.128  1.00  0.00     0.009 A 
ATOM     56  C   UNL A   1      45.643  34.444  31.623  1.00  0.00     0.001 A 
ATOM     57  C   UNL A   1      45.088  33.472  33.764  1.00  0.00     0.001 A 
ATOM     58  C   UNL A   1      45.586  34.536  33.013  1.00  0.00     0.000 A 
ENDBRANCH  40  53
ENDBRANCH  14  15
ENDBRANCH   7   9
ENDBRANCH   4   5
ENDBRANCH   3   4
ENDBRANCH   2   3
ENDBRANCH   1   2
BRANCH   1  59
ATOM     59  C   UNL A   1      35.958  23.119  25.071  1.00  0.00     0.021 C 
BRANCH  59  60
ATOM     60  C   UNL A   1      35.632  23.129  23.580  1.00  0.00     0.116 C 
BRANCH  60  61
ATOM     61  N   UNL A   1      34.268  23.540  23.349  1.00  0.00    -0.356 N 
ATOM     62  C   UNL A   1      33.112  22.841  23.317  1.00  0.00     0.224 C 
ATOM     63  H   UNL A   1      34.159  24.505  23.185  1.00  0.00     0.163 HD
ATOM     64  O   UNL A   1      32.119  23.448  22.895  1.00  0.00    -0.275 OA
BRANCH  62  65
ATOM     65  C   UNL A   1      32.959  21.384  23.741  1.00  0.00     0.096 C 
ATOM     66  C   UNL A   1      32.226  20.385  22.846  1.00  0.00     0.015 C 
ATOM     67  C   UNL A   1      32.742  21.187  25.247  1.00  0.00     0.082 C 
ATOM     68  C   UNL A   1      32.581  18.953  23.248  1.00  0.00     0.001 C 
ATOM     69  C   UNL A   1      32.948  19.720  25.644  1.00  0.00     0.021 C 
ATOM     70  C   UNL A   1      32.275  18.705  24.721  1.00  0.00     0.002 C 
BRANCH  67  71
ATOM     71  N   UNL A   1      31.574  21.847  25.863  1.00  0.00    -0.207 NA
ATOM     72  H   UNL A   1      31.025  21.068  26.227  1.00  0.00     0.141 HD
BRANCH  71  73
ATOM     73  S   UNL A   1      31.437  23.008  27.049  1.00  0.00     0.240 S 
ATOM     74  O   UNL A   1      30.088  22.894  27.547  1.00  0.00    -0.207 OA
ATOM     75  O   UNL A   1      32.568  22.879  27.945  1.00  0.00    -0.207 OA
BRANCH  73  76
ATOM     76  C   UNL A   1      31.554  24.581  26.253  1.00  0.00     0.083 A 
ATOM     77  C   UNL A   1      30.414  25.113  25.642  1.00  0.00     0.022 A 
ATOM     78  C   UNL A   1      32.737  25.317  26.321  1.00  0.00     0.030 A 
ATOM     79  C   UNL A   1      30.424  26.431  25.193  1.00  0.00     0.010 A 
ATOM     80  C   UNL A   1      32.747  26.655  25.895  1.00  0.00    -0.017 A 
ATOM     81  C   UNL A   1      31.569  27.223  25.347  1.00  0.00    -0.018 A 
ATOM     82  C   UNL A   1      33.887  27.459  26.044  1.00  0.00     0.009 A 
ATOM     83  C   UNL A   1      31.559  28.579  24.991  1.00  0.00     0.009 A 
ATOM     84  C   UNL A   1      33.857  28.809  25.690  1.00  0.00     0.001 A 
ATOM     85  C   UNL A   1      32.693  29.369  25.171  1.00  0.00     0.001 A 
ENDBRANCH  73  76
ENDBRANCH  71  73
ENDBRANCH  67  71
ENDBRANCH  62  65
ENDBRANCH  60  61
ENDBRANCH  59  60
ENDBRANCH   1  59
TORSDOF 16
ENDMDL
MODEL 3
REMARK VINA RESULT:     -11.9      3.332      8.809
REMARK SMILES O=C(NCCCCCCNC(=O)[C@@H]1CCCC[C@@H]1NS(=O)(=O)c1ccc2ccccc2c1)c1ccc(-c2c3nc(c(-c4ccccc4)c4ccc([nH]4)c(-c4ccccc4)c4nc(c(-c5ccccc5)c5ccc2[nH]5)C=C4)C=C3)cc1
REMARK SMILES IDX 7 1 6 2 5 3 4 4 3 5 1 6 2 7 33 9 34 10 80 11 35 12 79 13
REMARK SMILES IDX 36 14 37 15 38 16 73 17 39 18 78 19 72 20 74 21 40 22 77 23
REMARK SMILES IDX 71 24 70 25 41 27 63 28 48 29 62 30 49 31 52 32 61 33 75 34
REMARK SMILES IDX 50 35 51 36 60 38 76 39 53 40 42 41 43 42 47 43 44 44 46 45
REMARK SMILES IDX 45 46 64 47 65 48 69 49 66 50 68 51 67 52 54 53 55 54 59 55
REMARK SMILES IDX 56 56 58 57 57 58 8 59 9 60 10 61 11 62 12 64 13 65 14 66
REMARK SMILES IDX 18 67 15 68 17 69 16 70 19 71 20 73 21 74 22 75 23 76 24 77
REMARK SMILES IDX 32 78 25 79 31 80 26 81 30 82 27 83 29 84 28 85
REMARK H PARENT 3 8 74 26 52 37 10 63 19 72
REMARK Flexibility Score: inf
ROOT
ATOM      1  C   UNL A   1      32.136  29.489  27.255  1.00  0.00     0.002 C 
ENDROOT
BRANCH   1   2
ATOM      2  C   UNL A   1      31.484  30.367  26.179  1.00  0.00     0.002 C 
BRANCH   2   3
ATOM      3  C   UNL A   1      31.313  31.843  26.542  1.00  0.00     0.021 C 
BRANCH   3   4
ATOM      4  C   UNL A   1      32.605  32.573  26.886  1.00  0.00     0.116 C 
BRANCH   4   5
ATOM      5  N   UNL A   1      32.368  33.814  27.604  1.00  0.00    -0.352 N 
ATOM      6  O   UNL A   1      32.681  35.361  29.218  1.00  0.00    -0.269 OA
ATOM      7  C   UNL A   1      33.110  34.387  28.607  1.00  0.00     0.251 C 
ATOM      8  H   UNL A   1      31.565  34.313  27.333  1.00  0.00     0.163 HD
BRANCH   7   9
ATOM      9  C   UNL A   1      34.426  33.814  28.968  1.00  0.00     0.039 A 
ATOM     10  C   UNL A   1      35.572  34.146  28.242  1.00  0.00     0.014 A 
ATOM     11  C   UNL A   1      34.517  32.949  30.064  1.00  0.00     0.014 A 
ATOM     12  C   UNL A   1      36.779  33.520  28.532  1.00  0.00     0.010 A 
ATOM     13  C   UNL A   1      35.750  32.385  30.407  1.00  0.00     0.010 A 
ATOM     14  C   UNL A   1      36.887  32.651  29.630  1.00  0.00    -0.014 A 
BRANCH  14  15
ATOM     15  C   UNL A   1      38.225  32.117  29.986  1.00  0.00     0.031 A 
ATOM     16  C   UNL A   1      39.118  32.818  30.969  1.00  0.00     0.074 A 
ATOM     17  C   UNL A   1      38.601  30.941  29.447  1.00  0.00     0.049 A 
ATOM     18  N   UNL A   1      40.272  32.425  31.450  1.00  0.00    -0.248 NA
ATOM     19  C   UNL A   1      38.670  34.124  31.473  1.00  0.00     0.031 C 
ATOM     20  C   UNL A   1      37.825  30.180  28.464  1.00  0.00     0.029 A 
ATOM     21  N   UNL A   1      39.705  30.161  29.675  1.00  0.00    -0.354 N 
ATOM     22  C   UNL A   1      40.693  33.437  32.303  1.00  0.00     0.074 A 
ATOM     23  C   UNL A   1      39.683  34.473  32.257  1.00  0.00     0.031 C 
ATOM     24  C   UNL A   1      38.441  29.013  28.226  1.00  0.00     0.029 A 
ATOM     25  C   UNL A   1      39.678  28.968  28.995  1.00  0.00     0.049 A 
ATOM     26  H   UNL A   1      40.445  30.430  30.266  1.00  0.00     0.167 HD
ATOM     27  C   UNL A   1      41.817  33.493  33.059  1.00  0.00     0.031 A 
ATOM     28  C   UNL A   1      40.550  27.944  28.991  1.00  0.00     0.031 A 
ATOM     29  C   UNL A   1      42.823  32.463  33.101  1.00  0.00     0.049 A 
ATOM     30  C   UNL A   1      41.779  28.032  29.845  1.00  0.00     0.074 A 
ATOM     31  C   UNL A   1      43.994  32.429  33.839  1.00  0.00     0.029 A 
ATOM     32  N   UNL A   1      42.774  31.283  32.375  1.00  0.00    -0.354 N 
ATOM     33  N   UNL A   1      42.149  28.989  30.659  1.00  0.00    -0.248 NA
ATOM     34  C   UNL A   1      42.709  26.897  29.778  1.00  0.00     0.031 C 
ATOM     35  C   UNL A   1      44.672  31.243  33.532  1.00  0.00     0.029 A 
ATOM     36  C   UNL A   1      43.901  30.520  32.638  1.00  0.00     0.049 A 
ATOM     37  H   UNL A   1      42.048  31.025  31.763  1.00  0.00     0.167 HD
ATOM     38  C   UNL A   1      43.357  28.575  31.201  1.00  0.00     0.074 A 
ATOM     39  C   UNL A   1      43.637  27.263  30.651  1.00  0.00     0.031 C 
ATOM     40  C   UNL A   1      44.169  29.228  32.066  1.00  0.00     0.031 A 
BRANCH  27  41
ATOM     41  C   UNL A   1      42.029  34.721  33.898  1.00  0.00    -0.014 A 
ATOM     42  C   UNL A   1      41.613  34.763  35.238  1.00  0.00     0.009 A 
ATOM     43  C   UNL A   1      42.705  35.827  33.361  1.00  0.00     0.009 A 
ATOM     44  C   UNL A   1      41.852  35.898  36.017  1.00  0.00     0.001 A 
ATOM     45  C   UNL A   1      42.961  36.952  34.148  1.00  0.00     0.001 A 
ATOM     46  C   UNL A   1      42.530  36.989  35.474  1.00  0.00     0.000 A 
ENDBRANCH  27  41
BRANCH  28  47
ATOM     47  C   UNL A   1      40.288  26.756  28.142  1.00  0.00    -0.014 A 
ATOM     48  C   UNL A   1      39.509  25.692  28.620  1.00  0.00     0.009 A 
ATOM     49  C   UNL A   1      40.806  26.690  26.839  1.00  0.00     0.009 A 
ATOM     50  C   UNL A   1      39.269  24.576  27.814  1.00  0.00     0.001 A 
ATOM     51  C   UNL A   1      40.541  25.587  26.026  1.00  0.00     0.001 A 
ATOM     52  C   UNL A   1      39.780  24.528  26.516  1.00  0.00     0.000 A 
ENDBRANCH  28  47
BRANCH  40  53
ATOM     53  C   UNL A   1      45.434  28.521  32.460  1.00  0.00    -0.014 A 
ATOM     54  C   UNL A   1      45.451  27.627  33.543  1.00  0.00     0.009 A 
ATOM     55  C   UNL A   1      46.617  28.750  31.743  1.00  0.00     0.009 A 
ATOM     56  C   UNL A   1      46.641  27.007  33.925  1.00  0.00     0.001 A 
ATOM     57  C   UNL A   1      47.800  28.109  32.113  1.00  0.00     0.001 A 
ATOM     58  C   UNL A   1      47.813  27.247  33.209  1.00  0.00     0.000 A 
ENDBRANCH  40  53
ENDBRANCH  14  15
ENDBRANCH   7   9
ENDBRANCH   4   5
ENDBRANCH   3   4
ENDBRANCH   2   3
ENDBRANCH   1   2
BRANCH   1  59
ATOM     59  C   UNL A   1      31.792  27.997  27.195  1.00  0.00     0.021 C 
BRANCH  59  60
ATOM     60  C   UNL A   1      32.492  27.233  26.074  1.00  0.00     0.116 C 
BRANCH  60  61
ATOM     61  N   UNL A   1      31.674  26.143  25.598  1.00  0.00    -0.356 N 
ATOM     62  C   UNL A   1      30.603  26.117  24.775  1.00  0.00     0.224 C 
ATOM     63  H   UNL A   1      31.944  25.258  25.935  1.00  0.00     0.163 HD
ATOM     64  O   UNL A   1      29.989  25.044  24.712  1.00  0.00    -0.275 OA
BRANCH  62  65
ATOM     65  C   UNL A   1      30.105  27.299  23.950  1.00  0.00     0.096 C 
ATOM     66  C   UNL A   1      28.637  27.397  23.536  1.00  0.00     0.015 C 
ATOM     67  C   UNL A   1      31.108  27.805  22.905  1.00  0.00     0.082 C 
ATOM     68  C   UNL A   1      28.295  28.831  23.127  1.00  0.00     0.001 C 
ATOM     69  C   UNL A   1      30.697  29.183  22.372  1.00  0.00     0.021 C 
ATOM     70  C   UNL A   1      29.217  29.317  22.014  1.00  0.00     0.002 C 
BRANCH  67  71
ATOM     71  N   UNL A   1      31.574  26.847  21.884  1.00  0.00    -0.207 NA
ATOM     72  H   UNL A   1      31.262  27.265  21.006  1.00  0.00     0.141 HD
BRANCH  71  73
ATOM     73  S   UNL A   1      33.082  26.246  21.513  1.00  0.00     0.240 S 
ATOM     74  O   UNL A   1      32.948  25.644  20.209  1.00  0.00    -0.207 OA
ATOM     75  O   UNL A   1      34.059  27.289  21.748  1.00  0.00    -0.207 OA
BRANCH  73  76
ATOM     76  C   UNL A   1      33.410  24.931  22.648  1.00  0.00     0.083 A 
ATOM     77  C   UNL A   1      32.732  23.719  22.488  1.00  0.00     0.022 A 
ATOM     78  C   UNL A   1      34.399  25.074  23.622  1.00  0.00     0.030 A 
ATOM     79  C   UNL A   1      33.120  22.609  23.234  1.00  0.00     0.010 A 
ATOM     80  C   UNL A   1      34.814  23.953  24.358  1.00  0.00    -0.017 A 
ATOM     81  C   UNL A   1      34.182  22.702  24.143  1.00  0.00    -0.018 A 
ATOM     82  C   UNL A   1      35.876  24.033  25.271  1.00  0.00     0.009 A 
ATOM     83  C   UNL A   1      34.647  21.569  24.825  1.00  0.00     0.009 A 
ATOM     84  C   UNL A   1      36.331  22.893  25.936  1.00  0.00     0.001 A 
ATOM     85  C   UNL A   1      35.721  21.662  25.708  1.00  0.00     0.001 A 
ENDBRANCH  73  76
ENDBRANCH  71  73
ENDBRANCH  67  71
ENDBRANCH  62  65
ENDBRANCH  60  61
ENDBRANCH  59  60
ENDBRANCH   1  59
TORSDOF 16
ENDMDL
