MODEL 1
REMARK VINA RESULT:     -11.0      0.000      0.000
REMARK SMILES CCCOc1ccccc1O[C@@H]1CC[C@@]([NH3+])(C(=O)NCCCCCCNC(=O)c2ccc(-c3c4nc(c(-c5ccccc5)c5ccc([nH]5)c(-c5ccccc5)c5nc(c(-c6ccccc6)c6ccc3[nH]6)C=C5)C=C4)cc2)C1
REMARK SMILES IDX 21 1 20 2 19 3 17 4 18 5 15 7 12 8 13 9 77 10 14 11 11 12
REMARK SMILES IDX 10 13 5 14 6 15 7 16 9 17 8 18 4 19 3 20 2 21 1 22 16 23
REMARK SMILES IDX 22 27 23 28 24 29 25 30 26 31 27 32 28 34 29 35 30 36 76 37
REMARK SMILES IDX 31 38 75 39 32 40 33 41 34 42 69 43 35 44 74 45 68 46 70 47
REMARK SMILES IDX 36 48 73 49 67 50 66 51 37 53 59 54 44 55 58 56 45 57 48 58
REMARK SMILES IDX 57 59 71 60 46 61 47 62 56 64 72 65 49 66 38 67 39 68 43 69
REMARK SMILES IDX 40 70 42 71 41 72 60 73 61 74 65 75 62 76 64 77 63 78 50 79
REMARK SMILES IDX 51 80 55 81 52 82 54 83 53 84
REMARK H PARENT 19 6 16 24 16 25 16 26 26 33 70 52 48 63
REMARK Flexibility Score: inf
ROOT
ATOM      1  C   UNL A   1      37.126  23.420  25.599  1.00  0.00     0.021 C 
ENDROOT
BRANCH   1   2
ATOM      2  C   UNL A   1      35.727  23.786  26.115  1.00  0.00     0.116 C 
BRANCH   2   3
ATOM      3  N   UNL A   1      35.132  22.807  27.022  1.00  0.00    -0.351 N 
ATOM      4  C   UNL A   1      33.925  22.139  26.913  1.00  0.00     0.281 C 
ATOM      5  O   UNL A   1      33.742  21.111  27.565  1.00  0.00    -0.268 OA
ATOM      6  H   UNL A   1      35.666  22.591  27.821  1.00  0.00     0.163 HD
BRANCH   4   7
ATOM      7  C   UNL A   1      32.798  22.732  25.903  1.00  0.00     0.177 C 
ATOM      8  C   UNL A   1      32.862  25.535  24.173  1.00  0.00     0.180 C 
ATOM      9  C   UNL A   1      33.380  24.030  22.943  1.00  0.00     0.052 C 
ATOM     10  C   UNL A   1      32.419  24.725  26.000  1.00  0.00     0.124 C 
ATOM     11  C   UNL A   1      33.494  22.375  24.046  1.00  0.00     0.083 C 
BRANCH   8  12
ATOM     12  O   UNL A   1      32.210  26.704  23.726  1.00  0.00    -0.486 OA
BRANCH  12  13
ATOM     13  C   UNL A   1      32.364  27.782  24.505  1.00  0.00     0.161 A 
ATOM     14  C   UNL A   1      31.329  28.665  24.713  1.00  0.00     0.161 A 
ATOM     15  C   UNL A   1      31.541  29.791  25.499  1.00  0.00     0.050 A 
ATOM     16  C   UNL A   1      32.811  30.020  26.049  1.00  0.00     0.004 A 
ATOM     17  C   UNL A   1      33.640  28.023  25.000  1.00  0.00     0.050 A 
ATOM     18  C   UNL A   1      33.869  29.150  25.777  1.00  0.00     0.004 A 
BRANCH  14  19
ATOM     19  O   UNL A   1      30.248  28.550  23.894  1.00  0.00    -0.490 OA
BRANCH  19  20
ATOM     20  C   UNL A   1      29.788  29.761  23.089  1.00  0.00     0.229 C 
BRANCH  20  21
ATOM     21  C   UNL A   1      28.820  31.627  23.649  1.00  0.00     0.038 C 
ATOM     22  C   UNL A   1      28.906  33.271  23.023  1.00  0.00     0.007 C 
ENDBRANCH  20  21
ENDBRANCH  19  20
ENDBRANCH  14  19
ENDBRANCH  12  13
ENDBRANCH   8  12
BRANCH   7  23
ATOM     23  N   UNL A   1      31.624  21.902  26.346  1.00  0.00    -0.345 N 
ATOM     24  H   UNL A   1      31.894  21.329  27.145  1.00  0.00     0.345 HD
ATOM     25  H   UNL A   1      31.324  21.299  25.580  1.00  0.00     0.345 HD
ATOM     26  H   UNL A   1      30.855  22.517  26.614  1.00  0.00     0.345 HD
ENDBRANCH   7  23
ENDBRANCH   4   7
ENDBRANCH   2   3
ENDBRANCH   1   2
BRANCH   1  27
ATOM     27  C   UNL A   1      37.162  22.407  24.456  1.00  0.00     0.002 C 
BRANCH  27  28
ATOM     28  C   UNL A   1      36.791  20.980  24.859  1.00  0.00     0.002 C 
BRANCH  28  29
ATOM     29  C   UNL A   1      37.962  19.994  24.878  1.00  0.00     0.021 C 
BRANCH  29  30
ATOM     30  C   UNL A   1      39.143  20.435  25.735  1.00  0.00     0.116 C 
BRANCH  30  31
ATOM     31  N   UNL A   1      40.150  19.390  25.851  1.00  0.00    -0.352 N 
ATOM     32  C   UNL A   1      41.491  19.502  26.124  1.00  0.00     0.251 C 
ATOM     33  H   UNL A   1      39.822  18.471  25.716  1.00  0.00     0.163 HD
ATOM     34  O   UNL A   1      42.245  18.549  25.959  1.00  0.00    -0.269 OA
BRANCH  32  35
ATOM     35  C   UNL A   1      42.024  20.793  26.598  1.00  0.00     0.039 A 
ATOM     36  C   UNL A   1      42.546  21.697  25.669  1.00  0.00     0.014 A 
ATOM     37  C   UNL A   1      41.975  21.122  27.956  1.00  0.00     0.014 A 
ATOM     38  C   UNL A   1      42.939  22.966  26.092  1.00  0.00     0.010 A 
ATOM     39  C   UNL A   1      42.292  22.412  28.362  1.00  0.00     0.010 A 
ATOM     40  C   UNL A   1      42.765  23.352  27.432  1.00  0.00    -0.014 A 
BRANCH  40  41
ATOM     41  C   UNL A   1      43.032  24.742  27.876  1.00  0.00     0.031 A 
ATOM     42  C   UNL A   1      44.424  25.166  28.250  1.00  0.00     0.074 A 
ATOM     43  C   UNL A   1      42.003  25.601  28.016  1.00  0.00     0.049 A 
ATOM     44  N   UNL A   1      44.834  26.310  28.739  1.00  0.00    -0.248 NA
ATOM     45  C   UNL A   1      45.492  24.170  28.070  1.00  0.00     0.031 C 
ATOM     46  C   UNL A   1      40.602  25.303  27.710  1.00  0.00     0.029 A 
ATOM     47  N   UNL A   1      41.975  26.899  28.463  1.00  0.00    -0.354 N 
ATOM     48  C   UNL A   1      46.201  26.167  28.934  1.00  0.00     0.074 A 
ATOM     49  C   UNL A   1      46.542  24.811  28.561  1.00  0.00     0.031 C 
ATOM     50  C   UNL A   1      39.857  26.394  27.952  1.00  0.00     0.029 A 
ATOM     51  C   UNL A   1      40.715  27.446  28.485  1.00  0.00     0.049 A 
ATOM     52  H   UNL A   1      42.782  27.391  28.738  1.00  0.00     0.167 HD
ATOM     53  C   UNL A   1      47.095  27.086  29.372  1.00  0.00     0.031 A 
ATOM     54  C   UNL A   1      40.291  28.652  28.909  1.00  0.00     0.031 A 
ATOM     55  C   UNL A   1      46.748  28.430  29.754  1.00  0.00     0.049 A 
ATOM     56  C   UNL A   1      41.295  29.631  29.453  1.00  0.00     0.074 A 
ATOM     57  C   UNL A   1      47.588  29.449  30.169  1.00  0.00     0.029 A 
ATOM     58  N   UNL A   1      45.459  28.937  29.784  1.00  0.00    -0.354 N 
ATOM     59  N   UNL A   1      42.595  29.507  29.565  1.00  0.00    -0.248 NA
ATOM     60  C   UNL A   1      40.771  30.920  29.930  1.00  0.00     0.031 C 
ATOM     61  C   UNL A   1      46.799  30.546  30.524  1.00  0.00     0.029 A 
ATOM     62  C   UNL A   1      45.476  30.240  30.253  1.00  0.00     0.049 A 
ATOM     63  H   UNL A   1      44.650  28.444  29.511  1.00  0.00     0.167 HD
ATOM     64  C   UNL A   1      43.047  30.707  30.098  1.00  0.00     0.074 A 
ATOM     65  C   UNL A   1      41.885  31.555  30.264  1.00  0.00     0.031 C 
ATOM     66  C   UNL A   1      44.312  31.074  30.420  1.00  0.00     0.031 A 
BRANCH  53  67
ATOM     67  C   UNL A   1      48.533  26.660  29.484  1.00  0.00    -0.014 A 
ATOM     68  C   UNL A   1      49.432  26.827  28.418  1.00  0.00     0.009 A 
ATOM     69  C   UNL A   1      49.008  26.123  30.691  1.00  0.00     0.009 A 
ATOM     70  C   UNL A   1      50.764  26.428  28.547  1.00  0.00     0.001 A 
ATOM     71  C   UNL A   1      50.348  25.759  30.829  1.00  0.00     0.001 A 
ATOM     72  C   UNL A   1      51.222  25.900  29.753  1.00  0.00     0.000 A 
ENDBRANCH  53  67
BRANCH  54  73
ATOM     73  C   UNL A   1      38.845  29.000  28.852  1.00  0.00    -0.014 A 
ATOM     74  C   UNL A   1      38.280  29.522  27.678  1.00  0.00     0.009 A 
ATOM     75  C   UNL A   1      38.024  28.829  29.979  1.00  0.00     0.009 A 
ATOM     76  C   UNL A   1      36.935  29.897  27.645  1.00  0.00     0.001 A 
ATOM     77  C   UNL A   1      36.670  29.168  29.931  1.00  0.00     0.001 A 
ATOM     78  C   UNL A   1      36.130  29.714  28.769  1.00  0.00     0.000 A 
ENDBRANCH  54  73
BRANCH  66  79
ATOM     79  C   UNL A   1      44.514  32.462  30.961  1.00  0.00    -0.014 A 
ATOM     80  C   UNL A   1      44.512  32.717  32.342  1.00  0.00     0.009 A 
ATOM     81  C   UNL A   1      44.771  33.522  30.076  1.00  0.00     0.009 A 
ATOM     82  C   UNL A   1      44.732  34.011  32.822  1.00  0.00     0.001 A 
ATOM     83  C   UNL A   1      45.028  34.805  30.561  1.00  0.00     0.001 A 
ATOM     84  C   UNL A   1      44.998  35.050  31.932  1.00  0.00     0.000 A 
ENDBRANCH  66  79
ENDBRANCH  40  41
ENDBRANCH  32  35
ENDBRANCH  30  31
ENDBRANCH  29  30
ENDBRANCH  28  29
ENDBRANCH  27  28
ENDBRANCH   1  27
TORSDOF 19
ENDMDL
MODEL 2
REMARK VINA RESULT:     -11.0      3.520      9.256
REMARK SMILES CCCOc1ccccc1O[C@@H]1CC[C@@]([NH3+])(C(=O)NCCCCCCNC(=O)c2ccc(-c3c4nc(c(-c5ccccc5)c5ccc([nH]5)c(-c5ccccc5)c5nc(c(-c6ccccc6)c6ccc3[nH]6)C=C5)C=C4)cc2)C1
REMARK SMILES IDX 21 1 20 2 19 3 17 4 18 5 15 7 12 8 13 9 77 10 14 11 11 12
REMARK SMILES IDX 10 13 5 14 6 15 7 16 9 17 8 18 4 19 3 20 2 21 1 22 16 23
REMARK SMILES IDX 22 27 23 28 24 29 25 30 26 31 27 32 28 34 29 35 30 36 76 37
REMARK SMILES IDX 31 38 75 39 32 40 33 41 34 42 69 43 35 44 74 45 68 46 70 47
REMARK SMILES IDX 36 48 73 49 67 50 66 51 37 53 59 54 44 55 58 56 45 57 48 58
REMARK SMILES IDX 57 59 71 60 46 61 47 62 56 64 72 65 49 66 38 67 39 68 43 69
REMARK SMILES IDX 40 70 42 71 41 72 60 73 61 74 65 75 62 76 64 77 63 78 50 79
REMARK SMILES IDX 51 80 55 81 52 82 54 83 53 84
REMARK H PARENT 19 6 16 24 16 25 16 26 26 33 70 52 48 63
REMARK Flexibility Score: inf
ROOT
ATOM      1  C   UNL A   1      33.481  27.517  25.188  1.00  0.00     0.021 C 
ENDROOT
BRANCH   1   2
ATOM      2  C   UNL A   1      32.799  26.990  23.917  1.00  0.00     0.116 C 
BRANCH   2   3
ATOM      3  N   UNL A   1      31.657  27.779  23.463  1.00  0.00    -0.351 N 
ATOM      4  C   UNL A   1      30.307  27.562  23.677  1.00  0.00     0.281 C 
ATOM      5  O   UNL A   1      29.514  28.492  23.530  1.00  0.00    -0.268 OA
ATOM      6  H   UNL A   1      31.878  28.577  22.930  1.00  0.00     0.163 HD
BRANCH   4   7
ATOM      7  C   UNL A   1      29.823  26.082  24.142  1.00  0.00     0.177 C 
ATOM      8  C   UNL A   1      31.645  23.375  24.597  1.00  0.00     0.180 C 
ATOM      9  C   UNL A   1      31.306  24.208  26.395  1.00  0.00     0.052 C 
ATOM     10  C   UNL A   1      30.657  24.491  23.195  1.00  0.00     0.124 C 
ATOM     11  C   UNL A   1      30.346  25.925  26.082  1.00  0.00     0.083 C 
BRANCH   8  12
ATOM     12  O   UNL A   1      31.831  21.987  24.414  1.00  0.00    -0.486 OA
BRANCH  12  13
ATOM     13  C   UNL A   1      33.088  21.551  24.561  1.00  0.00     0.161 A 
ATOM     14  C   UNL A   1      33.368  20.209  24.676  1.00  0.00     0.161 A 
ATOM     15  C   UNL A   1      34.682  19.799  24.864  1.00  0.00     0.050 A 
ATOM     16  C   UNL A   1      35.699  20.763  24.954  1.00  0.00     0.004 A 
ATOM     17  C   UNL A   1      34.076  22.517  24.700  1.00  0.00     0.050 A 
ATOM     18  C   UNL A   1      35.392  22.124  24.899  1.00  0.00     0.004 A 
BRANCH  14  19
ATOM     19  O   UNL A   1      32.314  19.377  24.906  1.00  0.00    -0.490 OA
BRANCH  19  20
ATOM     20  C   UNL A   1      32.311  17.985  24.285  1.00  0.00     0.229 C 
BRANCH  20  21
ATOM     21  C   UNL A   1      33.532  16.215  24.617  1.00  0.00     0.038 C 
ATOM     22  C   UNL A   1      35.158  15.966  25.244  1.00  0.00     0.007 C 
ENDBRANCH  20  21
ENDBRANCH  19  20
ENDBRANCH  14  19
ENDBRANCH  12  13
ENDBRANCH   8  12
BRANCH   7  23
ATOM     23  N   UNL A   1      28.352  26.213  23.856  1.00  0.00    -0.345 N 
ATOM     24  H   UNL A   1      27.837  26.260  24.735  1.00  0.00     0.345 HD
ATOM     25  H   UNL A   1      28.036  25.404  23.320  1.00  0.00     0.345 HD
ATOM     26  H   UNL A   1      28.184  27.063  23.318  1.00  0.00     0.345 HD
ENDBRANCH   7  23
ENDBRANCH   4   7
ENDBRANCH   2   3
ENDBRANCH   1   2
BRANCH   1  27
ATOM     27  C   UNL A   1      33.172  28.970  25.547  1.00  0.00     0.002 C 
BRANCH  27  28
ATOM     28  C   UNL A   1      32.092  29.146  26.614  1.00  0.00     0.002 C 
BRANCH  28  29
ATOM     29  C   UNL A   1      31.740  30.601  26.935  1.00  0.00     0.021 C 
BRANCH  29  30
ATOM     30  C   UNL A   1      32.940  31.537  27.018  1.00  0.00     0.116 C 
BRANCH  30  31
ATOM     31  N   UNL A   1      32.544  32.904  27.324  1.00  0.00    -0.352 N 
ATOM     32  C   UNL A   1      33.112  33.799  28.195  1.00  0.00     0.251 C 
ATOM     33  H   UNL A   1      31.755  33.234  26.835  1.00  0.00     0.163 HD
ATOM     34  O   UNL A   1      32.523  34.828  28.509  1.00  0.00    -0.269 OA
BRANCH  32  35
ATOM     35  C   UNL A   1      34.437  33.500  28.773  1.00  0.00     0.039 A 
ATOM     36  C   UNL A   1      34.511  32.820  29.991  1.00  0.00     0.014 A 
ATOM     37  C   UNL A   1      35.602  33.861  28.091  1.00  0.00     0.014 A 
ATOM     38  C   UNL A   1      35.755  32.426  30.483  1.00  0.00     0.010 A 
ATOM     39  C   UNL A   1      36.833  33.399  28.543  1.00  0.00     0.010 A 
ATOM     40  C   UNL A   1      36.921  32.667  29.736  1.00  0.00    -0.014 A 
BRANCH  40  41
ATOM     41  C   UNL A   1      38.235  32.125  30.163  1.00  0.00     0.031 A 
ATOM     42  C   UNL A   1      38.722  30.807  29.632  1.00  0.00     0.074 A 
ATOM     43  C   UNL A   1      38.954  32.787  31.091  1.00  0.00     0.049 A 
ATOM     44  N   UNL A   1      39.800  30.137  29.953  1.00  0.00    -0.248 NA
ATOM     45  C   UNL A   1      37.879  30.146  28.623  1.00  0.00     0.031 C 
ATOM     46  C   UNL A   1      38.577  34.064  31.703  1.00  0.00     0.029 A 
ATOM     47  N   UNL A   1      40.148  32.472  31.691  1.00  0.00    -0.354 N 
ATOM     48  C   UNL A   1      39.759  28.973  29.196  1.00  0.00     0.074 A 
ATOM     49  C   UNL A   1      38.526  29.005  28.439  1.00  0.00     0.031 C 
ATOM     50  C   UNL A   1      39.533  34.435  32.570  1.00  0.00     0.029 A 
ATOM     51  C   UNL A   1      40.558  33.398  32.620  1.00  0.00     0.049 A 
ATOM     52  H   UNL A   1      40.661  31.661  31.475  1.00  0.00     0.167 HD
ATOM     53  C   UNL A   1      40.672  27.976  29.126  1.00  0.00     0.031 A 
ATOM     54  C   UNL A   1      41.627  33.402  33.439  1.00  0.00     0.031 A 
ATOM     55  C   UNL A   1      41.891  27.943  29.891  1.00  0.00     0.049 A 
ATOM     56  C   UNL A   1      42.592  32.249  33.389  1.00  0.00     0.074 A 
ATOM     57  C   UNL A   1      42.901  26.998  29.858  1.00  0.00     0.029 A 
ATOM     58  N   UNL A   1      42.259  28.888  30.836  1.00  0.00    -0.354 N 
ATOM     59  N   UNL A   1      42.577  31.191  32.616  1.00  0.00    -0.248 NA
ATOM     60  C   UNL A   1      43.723  32.292  34.327  1.00  0.00     0.031 C 
ATOM     61  C   UNL A   1      43.840  27.328  30.839  1.00  0.00     0.029 A 
ATOM     62  C   UNL A   1      43.458  28.523  31.425  1.00  0.00     0.049 A 
ATOM     63  H   UNL A   1      41.743  29.699  31.056  1.00  0.00     0.167 HD
ATOM     64  C   UNL A   1      43.707  30.458  32.954  1.00  0.00     0.074 A 
ATOM     65  C   UNL A   1      44.397  31.204  33.985  1.00  0.00     0.031 C 
ATOM     66  C   UNL A   1      44.134  29.272  32.455  1.00  0.00     0.031 A 
BRANCH  53  67
ATOM     67  C   UNL A   1      40.375  26.822  28.207  1.00  0.00    -0.014 A 
ATOM     68  C   UNL A   1      40.865  26.789  26.891  1.00  0.00     0.009 A 
ATOM     69  C   UNL A   1      39.628  25.731  28.678  1.00  0.00     0.009 A 
ATOM     70  C   UNL A   1      40.580  25.706  26.058  1.00  0.00     0.001 A 
ATOM     71  C   UNL A   1      39.375  24.634  27.854  1.00  0.00     0.001 A 
ATOM     72  C   UNL A   1      39.841  24.627  26.541  1.00  0.00     0.000 A 
ENDBRANCH  53  67
BRANCH  54  73
ATOM     73  C   UNL A   1      41.837  34.528  34.389  1.00  0.00    -0.014 A 
ATOM     74  C   UNL A   1      42.569  35.662  34.004  1.00  0.00     0.009 A 
ATOM     75  C   UNL A   1      41.324  34.467  35.694  1.00  0.00     0.009 A 
ATOM     76  C   UNL A   1      42.810  36.694  34.915  1.00  0.00     0.001 A 
ATOM     77  C   UNL A   1      41.533  35.517  36.591  1.00  0.00     0.001 A 
ATOM     78  C   UNL A   1      42.286  36.623  36.205  1.00  0.00     0.000 A 
ENDBRANCH  54  73
BRANCH  66  79
ATOM     79  C   UNL A   1      45.423  28.717  32.995  1.00  0.00    -0.014 A 
ATOM     80  C   UNL A   1      45.438  27.827  34.080  1.00  0.00     0.009 A 
ATOM     81  C   UNL A   1      46.637  29.044  32.369  1.00  0.00     0.009 A 
ATOM     82  C   UNL A   1      46.646  27.301  34.546  1.00  0.00     0.001 A 
ATOM     83  C   UNL A   1      47.837  28.487  32.812  1.00  0.00     0.001 A 
ATOM     84  C   UNL A   1      47.842  27.624  33.906  1.00  0.00     0.000 A 
ENDBRANCH  66  79
ENDBRANCH  40  41
ENDBRANCH  32  35
ENDBRANCH  30  31
ENDBRANCH  29  30
ENDBRANCH  28  29
ENDBRANCH  27  28
ENDBRANCH   1  27
TORSDOF 19
ENDMDL
MODEL 3
REMARK VINA RESULT:     -10.7      2.260      8.329
REMARK SMILES CCCOc1ccccc1O[C@@H]1CC[C@@]([NH3+])(C(=O)NCCCCCCNC(=O)c2ccc(-c3c4nc(c(-c5ccccc5)c5ccc([nH]5)c(-c5ccccc5)c5nc(c(-c6ccccc6)c6ccc3[nH]6)C=C5)C=C4)cc2)C1
REMARK SMILES IDX 21 1 20 2 19 3 17 4 18 5 15 7 12 8 13 9 77 10 14 11 11 12
REMARK SMILES IDX 10 13 5 14 6 15 7 16 9 17 8 18 4 19 3 20 2 21 1 22 16 23
REMARK SMILES IDX 22 27 23 28 24 29 25 30 26 31 27 32 28 34 29 35 30 36 76 37
REMARK SMILES IDX 31 38 75 39 32 40 33 41 34 42 69 43 35 44 74 45 68 46 70 47
REMARK SMILES IDX 36 48 73 49 67 50 66 51 37 53 59 54 44 55 58 56 45 57 48 58
REMARK SMILES IDX 57 59 71 60 46 61 47 62 56 64 72 65 49 66 38 67 39 68 43 69
REMARK SMILES IDX 40 70 42 71 41 72 60 73 61 74 65 75 62 76 64 77 63 78 50 79
REMARK SMILES IDX 51 80 55 81 52 82 54 83 53 84
REMARK H PARENT 19 6 16 24 16 25 16 26 26 33 70 52 48 63
REMARK Flexibility Score: inf
ROOT
ATOM      1  C   UNL A   1      33.255  27.974  24.191  1.00  0.00     0.021 C 
ENDROOT
BRANCH   1   2
ATOM      2  C   UNL A   1      32.479  27.374  23.010  1.00  0.00     0.116 C 
BRANCH   2   3
ATOM      3  N   UNL A   1      31.174  27.981  22.761  1.00  0.00    -0.351 N 
ATOM      4  C   UNL A   1      29.941  27.647  23.294  1.00  0.00     0.281 C 
ATOM      5  O   UNL A   1      29.023  28.465  23.253  1.00  0.00    -0.268 OA
ATOM      6  H   UNL A   1      31.171  28.734  22.127  1.00  0.00     0.163 HD
BRANCH   4   7
ATOM      7  C   UNL A   1      29.763  26.184  23.980  1.00  0.00     0.177 C 
ATOM      8  C   UNL A   1      32.048  23.869  24.500  1.00  0.00     0.180 C 
ATOM      9  C   UNL A   1      31.770  24.869  26.222  1.00  0.00     0.052 C 
ATOM     10  C   UNL A   1      30.743  24.628  23.118  1.00  0.00     0.124 C 
ATOM     11  C   UNL A   1      30.510  26.364  25.843  1.00  0.00     0.083 C 
BRANCH   8  12
ATOM     12  O   UNL A   1      32.441  22.513  24.452  1.00  0.00    -0.486 OA
BRANCH  12  13
ATOM     13  C   UNL A   1      33.758  22.300  24.342  1.00  0.00     0.161 A 
ATOM     14  C   UNL A   1      34.354  21.204  24.922  1.00  0.00     0.161 A 
ATOM     15  C   UNL A   1      35.730  21.038  24.816  1.00  0.00     0.050 A 
ATOM     16  C   UNL A   1      36.490  22.003  24.136  1.00  0.00     0.004 A 
ATOM     17  C   UNL A   1      34.505  23.289  23.712  1.00  0.00     0.050 A 
ATOM     18  C   UNL A   1      35.881  23.143  23.608  1.00  0.00     0.004 A 
BRANCH  14  19
ATOM     19  O   UNL A   1      33.612  20.505  25.825  1.00  0.00    -0.490 OA
BRANCH  19  20
ATOM     20  C   UNL A   1      32.918  19.220  25.387  1.00  0.00     0.229 C 
BRANCH  20  21
ATOM     21  C   UNL A   1      33.080  17.986  23.603  1.00  0.00     0.038 C 
ATOM     22  C   UNL A   1      34.116  16.636  23.154  1.00  0.00     0.007 C 
ENDBRANCH  20  21
ENDBRANCH  19  20
ENDBRANCH  14  19
ENDBRANCH  12  13
ENDBRANCH   8  12
BRANCH   7  23
ATOM     23  N   UNL A   1      28.269  26.052  23.870  1.00  0.00    -0.345 N 
ATOM     24  H   UNL A   1      28.030  25.096  23.606  1.00  0.00     0.345 HD
ATOM     25  H   UNL A   1      27.920  26.697  23.161  1.00  0.00     0.345 HD
ATOM     26  H   UNL A   1      27.840  26.272  24.770  1.00  0.00     0.345 HD
ENDBRANCH   7  23
ENDBRANCH   4   7
ENDBRANCH   2   3
ENDBRANCH   1   2
BRANCH   1  27
ATOM     27  C   UNL A   1      32.911  29.423  24.536  1.00  0.00     0.002 C 
BRANCH  27  28
ATOM     28  C   UNL A   1      31.900  29.585  25.671  1.00  0.00     0.002 C 
BRANCH  28  29
ATOM     29  C   UNL A   1      32.430  29.218  27.059  1.00  0.00     0.021 C 
BRANCH  29  30
ATOM     30  C   UNL A   1      33.862  29.670  27.326  1.00  0.00     0.116 C 
BRANCH  30  31
ATOM     31  N   UNL A   1      33.908  30.862  28.161  1.00  0.00    -0.352 N 
ATOM     32  C   UNL A   1      34.880  31.268  29.042  1.00  0.00     0.251 C 
ATOM     33  H   UNL A   1      33.132  31.463  28.082  1.00  0.00     0.163 HD
ATOM     34  O   UNL A   1      34.663  32.175  29.838  1.00  0.00    -0.269 OA
BRANCH  32  35
ATOM     35  C   UNL A   1      36.187  30.584  29.039  1.00  0.00     0.039 A 
ATOM     36  C   UNL A   1      36.958  30.594  27.874  1.00  0.00     0.014 A 
ATOM     37  C   UNL A   1      36.663  29.964  30.198  1.00  0.00     0.014 A 
ATOM     38  C   UNL A   1      38.246  30.057  27.898  1.00  0.00     0.010 A 
ATOM     39  C   UNL A   1      37.972  29.502  30.242  1.00  0.00     0.010 A 
ATOM     40  C   UNL A   1      38.781  29.555  29.096  1.00  0.00    -0.014 A 
BRANCH  40  41
ATOM     41  C   UNL A   1      40.197  29.119  29.185  1.00  0.00     0.031 A 
ATOM     42  C   UNL A   1      40.591  27.730  28.772  1.00  0.00     0.074 A 
ATOM     43  C   UNL A   1      41.115  29.953  29.713  1.00  0.00     0.049 A 
ATOM     44  N   UNL A   1      41.760  27.145  28.858  1.00  0.00    -0.248 NA
ATOM     45  C   UNL A   1      39.532  26.880  28.206  1.00  0.00     0.031 C 
ATOM     46  C   UNL A   1      40.853  31.318  30.175  1.00  0.00     0.029 A 
ATOM     47  N   UNL A   1      42.453  29.771  29.961  1.00  0.00    -0.354 N 
ATOM     48  C   UNL A   1      41.573  25.858  28.369  1.00  0.00     0.074 A 
ATOM     49  C   UNL A   1      40.171  25.732  28.037  1.00  0.00     0.031 C 
ATOM     50  C   UNL A   1      41.997  31.858  30.624  1.00  0.00     0.029 A 
ATOM     51  C   UNL A   1      43.058  30.861  30.538  1.00  0.00     0.049 A 
ATOM     52  H   UNL A   1      42.932  28.940  29.744  1.00  0.00     0.167 HD
ATOM     53  C   UNL A   1      42.490  24.876  28.198  1.00  0.00     0.031 A 
ATOM     54  C   UNL A   1      44.322  31.033  30.972  1.00  0.00     0.031 A 
ATOM     55  C   UNL A   1      43.881  25.003  28.542  1.00  0.00     0.049 A 
ATOM     56  C   UNL A   1      45.304  29.902  30.833  1.00  0.00     0.074 A 
ATOM     57  C   UNL A   1      44.898  24.080  28.367  1.00  0.00     0.029 A 
ATOM     58  N   UNL A   1      44.451  26.114  29.145  1.00  0.00    -0.354 N 
ATOM     59  N   UNL A   1      45.130  28.716  30.302  1.00  0.00    -0.248 NA
ATOM     60  C   UNL A   1      46.660  30.135  31.352  1.00  0.00     0.031 C 
ATOM     61  C   UNL A   1      46.063  24.601  28.935  1.00  0.00     0.029 A 
ATOM     62  C   UNL A   1      45.794  25.881  29.390  1.00  0.00     0.049 A 
ATOM     63  H   UNL A   1      43.971  26.946  29.366  1.00  0.00     0.167 HD
ATOM     64  C   UNL A   1      46.357  28.074  30.399  1.00  0.00     0.074 A 
ATOM     65  C   UNL A   1      47.273  29.010  31.017  1.00  0.00     0.031 C 
ATOM     66  C   UNL A   1      46.695  26.820  30.010  1.00  0.00     0.031 A 
BRANCH  53  67
ATOM     67  C   UNL A   1      42.010  23.566  27.635  1.00  0.00    -0.014 A 
ATOM     68  C   UNL A   1      41.420  22.589  28.453  1.00  0.00     0.009 A 
ATOM     69  C   UNL A   1      42.111  23.322  26.257  1.00  0.00     0.009 A 
ATOM     70  C   UNL A   1      40.979  21.382  27.908  1.00  0.00     0.001 A 
ATOM     71  C   UNL A   1      41.636  22.130  25.709  1.00  0.00     0.001 A 
ATOM     72  C   UNL A   1      41.082  21.155  26.537  1.00  0.00     0.000 A 
ENDBRANCH  53  67
BRANCH  54  73
ATOM     73  C   UNL A   1      44.730  32.321  31.596  1.00  0.00    -0.014 A 
ATOM     74  C   UNL A   1      45.263  33.357  30.814  1.00  0.00     0.009 A 
ATOM     75  C   UNL A   1      44.607  32.514  32.981  1.00  0.00     0.009 A 
ATOM     76  C   UNL A   1      45.694  34.545  31.410  1.00  0.00     0.001 A 
ATOM     77  C   UNL A   1      45.003  33.718  33.570  1.00  0.00     0.001 A 
ATOM     78  C   UNL A   1      45.559  34.726  32.786  1.00  0.00     0.000 A 
ENDBRANCH  54  73
BRANCH  66  79
ATOM     79  C   UNL A   1      48.122  26.391  30.216  1.00  0.00    -0.014 A 
ATOM     80  C   UNL A   1      48.521  25.706  31.374  1.00  0.00     0.009 A 
ATOM     81  C   UNL A   1      49.069  26.625  29.206  1.00  0.00     0.009 A 
ATOM     82  C   UNL A   1      49.847  25.292  31.529  1.00  0.00     0.001 A 
ATOM     83  C   UNL A   1      50.384  26.177  29.347  1.00  0.00     0.001 A 
ATOM     84  C   UNL A   1      50.773  25.520  30.513  1.00  0.00     0.000 A 
ENDBRANCH  66  79
ENDBRANCH  40  41
ENDBRANCH  32  35
ENDBRANCH  30  31
ENDBRANCH  29  30
ENDBRANCH  28  29
ENDBRANCH  27  28
ENDBRANCH   1  27
TORSDOF 19
ENDMDL
