MODEL 1
REMARK VINA RESULT:     -10.7      0.000      0.000
REMARK SMILES O=C(NCCCCCCNC(=O)c1csc(-c2ccnc(N3CCOCC3)c2)n1)c1ccc(-c2c3nc(c(-c4ccccc4)c4ccc([nH]4)c(-c4ccccc4)c4nc(c(-c5ccccc5)c5ccc2[nH]5)C=C4)C=C3)cc1
REMARK SMILES IDX 6 1 5 2 4 3 3 4 1 5 2 6 30 8 31 9 77 10 32 11 76 12 33 13
REMARK SMILES IDX 34 14 35 15 70 16 36 17 75 18 69 19 71 20 37 21 74 22 68 23
REMARK SMILES IDX 67 24 38 26 60 27 45 28 59 29 46 30 49 31 58 32 72 33 47 34
REMARK SMILES IDX 48 35 57 37 73 38 50 39 39 40 40 41 44 42 41 43 43 44 42 45
REMARK SMILES IDX 61 46 62 47 66 48 63 49 65 50 64 51 51 52 52 53 56 54 53 55
REMARK SMILES IDX 55 56 54 57 7 58 8 59 9 60 10 61 11 62 12 64 13 65 14 66
REMARK SMILES IDX 29 67 15 68 16 69 17 70 18 71 28 72 19 73 21 74 20 75 22 76
REMARK SMILES IDX 23 77 27 78 24 79 26 80 25 81
REMARK H PARENT 3 7 71 25 49 36 10 63
REMARK Flexibility Score: inf
ROOT
ATOM      1  C   UNL A   1      34.506  34.446  28.658  1.00  0.00     0.002 C 
ENDROOT
BRANCH   1   2
ATOM      2  C   UNL A   1      33.210  35.230  28.857  1.00  0.00     0.021 C 
BRANCH   2   3
ATOM      3  C   UNL A   1      33.321  36.412  29.810  1.00  0.00     0.116 C 
BRANCH   3   4
ATOM      4  N   UNL A   1      32.381  36.326  30.915  1.00  0.00    -0.352 N 
ATOM      5  O   UNL A   1      31.501  35.495  32.822  1.00  0.00    -0.269 OA
ATOM      6  C   UNL A   1      32.466  35.585  32.068  1.00  0.00     0.251 C 
ATOM      7  H   UNL A   1      31.569  36.875  30.824  1.00  0.00     0.163 HD
BRANCH   6   8
ATOM      8  C   UNL A   1      33.723  34.877  32.391  1.00  0.00     0.039 A 
ATOM      9  C   UNL A   1      33.699  33.546  32.813  1.00  0.00     0.014 A 
ATOM     10  C   UNL A   1      34.939  35.551  32.260  1.00  0.00     0.014 A 
ATOM     11  C   UNL A   1      34.874  32.933  33.231  1.00  0.00     0.010 A 
ATOM     12  C   UNL A   1      36.132  34.903  32.596  1.00  0.00     0.010 A 
ATOM     13  C   UNL A   1      36.105  33.597  33.107  1.00  0.00    -0.014 A 
BRANCH  13  14
ATOM     14  C   UNL A   1      37.356  32.869  33.440  1.00  0.00     0.031 A 
ATOM     15  C   UNL A   1      37.970  31.889  32.481  1.00  0.00     0.074 A 
ATOM     16  C   UNL A   1      37.948  33.122  34.622  1.00  0.00     0.049 A 
ATOM     17  N   UNL A   1      39.072  31.193  32.614  1.00  0.00    -0.248 NA
ATOM     18  C   UNL A   1      37.261  31.654  31.214  1.00  0.00     0.031 C 
ATOM     19  C   UNL A   1      37.441  34.049  35.639  1.00  0.00     0.029 A 
ATOM     20  N   UNL A   1      39.112  32.642  35.164  1.00  0.00    -0.354 N 
ATOM     21  C   UNL A   1      39.180  30.426  31.461  1.00  0.00     0.074 A 
ATOM     22  C   UNL A   1      38.018  30.723  30.649  1.00  0.00     0.031 C 
ATOM     23  C   UNL A   1      38.312  34.107  36.656  1.00  0.00     0.029 A 
ATOM     24  C   UNL A   1      39.402  33.174  36.397  1.00  0.00     0.049 A 
ATOM     25  H   UNL A   1      39.685  31.980  34.713  1.00  0.00     0.167 HD
ATOM     26  C   UNL A   1      40.159  29.557  31.112  1.00  0.00     0.031 A 
ATOM     27  C   UNL A   1      40.421  32.928  37.239  1.00  0.00     0.031 A 
ATOM     28  C   UNL A   1      41.309  29.259  31.928  1.00  0.00     0.049 A 
ATOM     29  C   UNL A   1      41.467  31.929  36.844  1.00  0.00     0.074 A 
ATOM     30  C   UNL A   1      42.371  28.416  31.645  1.00  0.00     0.029 A 
ATOM     31  N   UNL A   1      41.544  29.787  33.188  1.00  0.00    -0.354 N 
ATOM     32  N   UNL A   1      41.573  31.243  35.732  1.00  0.00    -0.248 NA
ATOM     33  C   UNL A   1      42.533  31.672  37.819  1.00  0.00     0.031 C 
ATOM     34  C   UNL A   1      43.218  28.390  32.758  1.00  0.00     0.029 A 
ATOM     35  C   UNL A   1      42.718  29.265  33.708  1.00  0.00     0.049 A 
ATOM     36  H   UNL A   1      40.963  30.436  33.646  1.00  0.00     0.167 HD
ATOM     37  C   UNL A   1      42.728  30.487  35.866  1.00  0.00     0.074 A 
ATOM     38  C   UNL A   1      43.298  30.816  37.157  1.00  0.00     0.031 C 
ATOM     39  C   UNL A   1      43.267  29.596  34.998  1.00  0.00     0.031 A 
BRANCH  26  40
ATOM     40  C   UNL A   1      40.018  28.837  29.798  1.00  0.00    -0.014 A 
ATOM     41  C   UNL A   1      40.448  29.419  28.595  1.00  0.00     0.009 A 
ATOM     42  C   UNL A   1      39.494  27.534  29.771  1.00  0.00     0.009 A 
ATOM     43  C   UNL A   1      40.327  28.722  27.389  1.00  0.00     0.001 A 
ATOM     44  C   UNL A   1      39.400  26.830  28.570  1.00  0.00     0.001 A 
ATOM     45  C   UNL A   1      39.809  27.427  27.378  1.00  0.00     0.000 A 
ENDBRANCH  26  40
BRANCH  27  46
ATOM     46  C   UNL A   1      40.484  33.630  38.546  1.00  0.00    -0.014 A 
ATOM     47  C   UNL A   1      39.872  33.083  39.683  1.00  0.00     0.009 A 
ATOM     48  C   UNL A   1      41.172  34.848  38.665  1.00  0.00     0.009 A 
ATOM     49  C   UNL A   1      39.929  33.753  40.907  1.00  0.00     0.001 A 
ATOM     50  C   UNL A   1      41.255  35.499  39.897  1.00  0.00     0.001 A 
ATOM     51  C   UNL A   1      40.625  34.956  41.014  1.00  0.00     0.000 A 
ENDBRANCH  27  46
BRANCH  39  52
ATOM     52  C   UNL A   1      44.555  28.940  35.409  1.00  0.00    -0.014 A 
ATOM     53  C   UNL A   1      44.562  27.722  36.108  1.00  0.00     0.009 A 
ATOM     54  C   UNL A   1      45.778  29.539  35.072  1.00  0.00     0.009 A 
ATOM     55  C   UNL A   1      45.770  27.137  36.492  1.00  0.00     0.001 A 
ATOM     56  C   UNL A   1      46.985  28.938  35.432  1.00  0.00     0.001 A 
ATOM     57  C   UNL A   1      46.979  27.742  36.151  1.00  0.00     0.000 A 
ENDBRANCH  39  52
ENDBRANCH  13  14
ENDBRANCH   6   8
ENDBRANCH   3   4
ENDBRANCH   2   3
ENDBRANCH   1   2
BRANCH   1  58
ATOM     58  C   UNL A   1      34.465  32.987  29.121  1.00  0.00     0.002 C 
BRANCH  58  59
ATOM     59  C   UNL A   1      35.199  31.994  28.215  1.00  0.00     0.021 C 
BRANCH  59  60
ATOM     60  C   UNL A   1      34.307  30.915  27.599  1.00  0.00     0.116 C 
BRANCH  60  61
ATOM     61  N   UNL A   1      33.002  31.450  27.254  1.00  0.00    -0.351 N 
ATOM     62  C   UNL A   1      31.995  30.840  26.548  1.00  0.00     0.270 C 
ATOM     63  H   UNL A   1      32.816  32.365  27.567  1.00  0.00     0.163 HD
ATOM     64  O   UNL A   1      31.071  31.525  26.104  1.00  0.00    -0.267 OA
BRANCH  62  65
ATOM     65  C   UNL A   1      32.072  29.399  26.327  1.00  0.00     0.139 A 
ATOM     66  C   UNL A   1      31.718  28.460  27.278  1.00  0.00     0.101 A 
ATOM     67  N   UNL A   1      32.547  28.858  25.132  1.00  0.00    -0.231 NA
ATOM     68  S   UNL A   1      31.883  26.880  26.638  1.00  0.00    -0.122 S 
ATOM     69  C   UNL A   1      32.470  27.547  25.164  1.00  0.00     0.124 A 
BRANCH  69  70
ATOM     70  C   UNL A   1      32.858  26.672  24.065  1.00  0.00     0.016 A 
ATOM     71  C   UNL A   1      32.857  27.142  22.756  1.00  0.00     0.031 A 
ATOM     72  C   UNL A   1      33.231  25.351  24.305  1.00  0.00     0.058 A 
ATOM     73  C   UNL A   1      33.305  26.288  21.766  1.00  0.00     0.114 A 
ATOM     74  C   UNL A   1      33.673  24.556  23.255  1.00  0.00     0.129 A 
ATOM     75  N   UNL A   1      33.740  25.029  21.996  1.00  0.00    -0.239 NA
BRANCH  74  76
ATOM     76  N   UNL A   1      34.127  23.293  23.527  1.00  0.00    -0.352 N 
ATOM     77  C   UNL A   1      33.223  22.157  23.663  1.00  0.00     0.146 C 
ATOM     78  C   UNL A   1      35.534  22.959  23.358  1.00  0.00     0.146 C 
ATOM     79  C   UNL A   1      33.716  21.283  24.826  1.00  0.00     0.181 C 
ATOM     80  C   UNL A   1      35.938  22.075  24.555  1.00  0.00     0.181 C 
ATOM     81  O   UNL A   1      35.097  20.908  24.665  1.00  0.00    -0.378 OA
ENDBRANCH  74  76
ENDBRANCH  69  70
ENDBRANCH  62  65
ENDBRANCH  60  61
ENDBRANCH  59  60
ENDBRANCH  58  59
ENDBRANCH   1  58
TORSDOF 15
ENDMDL
MODEL 2
REMARK VINA RESULT:     -10.6      2.847      6.971
REMARK SMILES O=C(NCCCCCCNC(=O)c1csc(-c2ccnc(N3CCOCC3)c2)n1)c1ccc(-c2c3nc(c(-c4ccccc4)c4ccc([nH]4)c(-c4ccccc4)c4nc(c(-c5ccccc5)c5ccc2[nH]5)C=C4)C=C3)cc1
REMARK SMILES IDX 6 1 5 2 4 3 3 4 1 5 2 6 30 8 31 9 77 10 32 11 76 12 33 13
REMARK SMILES IDX 34 14 35 15 70 16 36 17 75 18 69 19 71 20 37 21 74 22 68 23
REMARK SMILES IDX 67 24 38 26 60 27 45 28 59 29 46 30 49 31 58 32 72 33 47 34
REMARK SMILES IDX 48 35 57 37 73 38 50 39 39 40 40 41 44 42 41 43 43 44 42 45
REMARK SMILES IDX 61 46 62 47 66 48 63 49 65 50 64 51 51 52 52 53 56 54 53 55
REMARK SMILES IDX 55 56 54 57 7 58 8 59 9 60 10 61 11 62 12 64 13 65 14 66
REMARK SMILES IDX 29 67 15 68 16 69 17 70 18 71 28 72 19 73 21 74 20 75 22 76
REMARK SMILES IDX 23 77 27 78 24 79 26 80 25 81
REMARK H PARENT 3 7 71 25 49 36 10 63
REMARK Flexibility Score: inf
ROOT
ATOM      1  C   UNL A   1      33.939  30.748  27.642  1.00  0.00     0.002 C 
ENDROOT
BRANCH   1   2
ATOM      2  C   UNL A   1      32.684  31.616  27.583  1.00  0.00     0.021 C 
BRANCH   2   3
ATOM      3  C   UNL A   1      32.886  32.983  26.943  1.00  0.00     0.116 C 
BRANCH   3   4
ATOM      4  N   UNL A   1      32.548  34.073  27.843  1.00  0.00    -0.352 N 
ATOM      5  O   UNL A   1      32.671  35.315  29.725  1.00  0.00    -0.269 OA
ATOM      6  C   UNL A   1      33.188  34.482  28.987  1.00  0.00     0.251 C 
ATOM      7  H   UNL A   1      31.747  34.591  27.598  1.00  0.00     0.163 HD
BRANCH   6   8
ATOM      8  C   UNL A   1      34.500  33.899  29.339  1.00  0.00     0.039 A 
ATOM      9  C   UNL A   1      35.636  34.201  28.585  1.00  0.00     0.014 A 
ATOM     10  C   UNL A   1      34.594  33.047  30.442  1.00  0.00     0.014 A 
ATOM     11  C   UNL A   1      36.834  33.550  28.851  1.00  0.00     0.010 A 
ATOM     12  C   UNL A   1      35.823  32.462  30.764  1.00  0.00     0.010 A 
ATOM     13  C   UNL A   1      36.946  32.691  29.956  1.00  0.00    -0.014 A 
BRANCH  13  14
ATOM     14  C   UNL A   1      38.272  32.112  30.290  1.00  0.00     0.031 A 
ATOM     15  C   UNL A   1      39.212  32.804  31.236  1.00  0.00     0.074 A 
ATOM     16  C   UNL A   1      38.613  30.932  29.740  1.00  0.00     0.049 A 
ATOM     17  N   UNL A   1      40.393  32.416  31.649  1.00  0.00    -0.248 NA
ATOM     18  C   UNL A   1      38.779  34.097  31.789  1.00  0.00     0.031 C 
ATOM     19  C   UNL A   1      37.784  30.168  28.801  1.00  0.00     0.029 A 
ATOM     20  N   UNL A   1      39.731  30.155  29.902  1.00  0.00    -0.354 N 
ATOM     21  C   UNL A   1      40.852  33.420  32.492  1.00  0.00     0.074 A 
ATOM     22  C   UNL A   1      39.832  34.448  32.514  1.00  0.00     0.031 C 
ATOM     23  C   UNL A   1      38.400  29.013  28.510  1.00  0.00     0.029 A 
ATOM     24  C   UNL A   1      39.691  28.984  29.185  1.00  0.00     0.049 A 
ATOM     25  H   UNL A   1      40.488  30.412  30.476  1.00  0.00     0.167 HD
ATOM     26  C   UNL A   1      42.015  33.477  33.186  1.00  0.00     0.031 A 
ATOM     27  C   UNL A   1      40.600  28.000  29.065  1.00  0.00     0.031 A 
ATOM     28  C   UNL A   1      43.030  32.454  33.154  1.00  0.00     0.049 A 
ATOM     29  C   UNL A   1      41.896  28.111  29.811  1.00  0.00     0.074 A 
ATOM     30  C   UNL A   1      44.228  32.408  33.847  1.00  0.00     0.029 A 
ATOM     31  N   UNL A   1      42.971  31.304  32.382  1.00  0.00    -0.354 N 
ATOM     32  N   UNL A   1      42.294  29.049  30.636  1.00  0.00    -0.248 NA
ATOM     33  C   UNL A   1      42.865  27.027  29.611  1.00  0.00     0.031 C 
ATOM     34  C   UNL A   1      44.919  31.257  33.451  1.00  0.00     0.029 A 
ATOM     35  C   UNL A   1      44.124  30.555  32.560  1.00  0.00     0.049 A 
ATOM     36  H   UNL A   1      42.221  31.055  31.795  1.00  0.00     0.167 HD
ATOM     37  C   UNL A   1      43.554  28.659  31.067  1.00  0.00     0.074 A 
ATOM     38  C   UNL A   1      43.842  27.389  30.431  1.00  0.00     0.031 C 
ATOM     39  C   UNL A   1      44.399  29.298  31.913  1.00  0.00     0.031 A 
BRANCH  26  40
ATOM     40  C   UNL A   1      42.271  34.703  34.020  1.00  0.00    -0.014 A 
ATOM     41  C   UNL A   1      42.902  35.835  33.480  1.00  0.00     0.009 A 
ATOM     42  C   UNL A   1      41.826  34.745  35.350  1.00  0.00     0.009 A 
ATOM     43  C   UNL A   1      43.109  36.972  34.267  1.00  0.00     0.001 A 
ATOM     44  C   UNL A   1      42.009  35.891  36.126  1.00  0.00     0.001 A 
ATOM     45  C   UNL A   1      42.658  37.001  35.586  1.00  0.00     0.000 A 
ENDBRANCH  26  40
BRANCH  27  46
ATOM     46  C   UNL A   1      40.316  26.836  28.188  1.00  0.00    -0.014 A 
ATOM     47  C   UNL A   1      40.832  26.779  26.885  1.00  0.00     0.009 A 
ATOM     48  C   UNL A   1      39.537  25.767  28.657  1.00  0.00     0.009 A 
ATOM     49  C   UNL A   1      40.554  25.685  26.063  1.00  0.00     0.001 A 
ATOM     50  C   UNL A   1      39.288  24.659  27.844  1.00  0.00     0.001 A 
ATOM     51  C   UNL A   1      39.789  24.624  26.545  1.00  0.00     0.000 A 
ENDBRANCH  27  46
BRANCH  39  52
ATOM     52  C   UNL A   1      45.701  28.614  32.219  1.00  0.00    -0.014 A 
ATOM     53  C   UNL A   1      46.857  28.875  31.466  1.00  0.00     0.009 A 
ATOM     54  C   UNL A   1      45.776  27.711  33.292  1.00  0.00     0.009 A 
ATOM     55  C   UNL A   1      48.053  28.216  31.760  1.00  0.00     0.001 A 
ATOM     56  C   UNL A   1      46.979  27.078  33.601  1.00  0.00     0.001 A 
ATOM     57  C   UNL A   1      48.114  27.323  32.828  1.00  0.00     0.000 A 
ENDBRANCH  39  52
ENDBRANCH  13  14
ENDBRANCH   6   8
ENDBRANCH   3   4
ENDBRANCH   2   3
ENDBRANCH   1   2
BRANCH   1  58
ATOM     58  C   UNL A   1      33.812  29.370  26.984  1.00  0.00     0.002 C 
BRANCH  58  59
ATOM     59  C   UNL A   1      32.440  28.703  27.128  1.00  0.00     0.021 C 
BRANCH  59  60
ATOM     60  C   UNL A   1      32.266  27.424  26.309  1.00  0.00     0.116 C 
BRANCH  60  61
ATOM     61  N   UNL A   1      31.099  26.679  26.745  1.00  0.00    -0.351 N 
ATOM     62  C   UNL A   1      30.566  25.539  26.197  1.00  0.00     0.270 C 
ATOM     63  H   UNL A   1      30.630  27.037  27.534  1.00  0.00     0.163 HD
ATOM     64  O   UNL A   1      29.424  25.196  26.511  1.00  0.00    -0.267 OA
BRANCH  62  65
ATOM     65  C   UNL A   1      31.370  24.785  25.238  1.00  0.00     0.139 A 
ATOM     66  C   UNL A   1      31.347  25.013  23.875  1.00  0.00     0.101 A 
ATOM     67  N   UNL A   1      32.206  23.740  25.634  1.00  0.00    -0.231 NA
ATOM     68  S   UNL A   1      32.460  23.980  23.085  1.00  0.00    -0.122 S 
ATOM     69  C   UNL A   1      32.853  23.259  24.597  1.00  0.00     0.124 A 
BRANCH  69  70
ATOM     70  C   UNL A   1      33.829  22.179  24.665  1.00  0.00     0.016 A 
ATOM     71  C   UNL A   1      35.178  22.459  24.857  1.00  0.00     0.031 A 
ATOM     72  C   UNL A   1      33.431  20.850  24.532  1.00  0.00     0.058 A 
ATOM     73  C   UNL A   1      36.044  21.390  24.987  1.00  0.00     0.114 A 
ATOM     74  C   UNL A   1      34.363  19.830  24.678  1.00  0.00     0.129 A 
ATOM     75  N   UNL A   1      35.658  20.096  24.934  1.00  0.00    -0.239 NA
BRANCH  74  76
ATOM     76  N   UNL A   1      33.933  18.531  24.641  1.00  0.00    -0.352 N 
ATOM     77  C   UNL A   1      32.523  18.177  24.758  1.00  0.00     0.146 C 
ATOM     78  C   UNL A   1      34.807  17.476  24.148  1.00  0.00     0.146 C 
ATOM     79  C   UNL A   1      32.411  16.924  25.640  1.00  0.00     0.181 C 
ATOM     80  C   UNL A   1      34.620  16.260  25.078  1.00  0.00     0.181 C 
ATOM     81  O   UNL A   1      33.239  15.851  25.152  1.00  0.00    -0.378 OA
ENDBRANCH  74  76
ENDBRANCH  69  70
ENDBRANCH  62  65
ENDBRANCH  60  61
ENDBRANCH  59  60
ENDBRANCH  58  59
ENDBRANCH   1  58
TORSDOF 15
ENDMDL
MODEL 3
REMARK VINA RESULT:     -10.6      0.210      5.882
REMARK SMILES O=C(NCCCCCCNC(=O)c1csc(-c2ccnc(N3CCOCC3)c2)n1)c1ccc(-c2c3nc(c(-c4ccccc4)c4ccc([nH]4)c(-c4ccccc4)c4nc(c(-c5ccccc5)c5ccc2[nH]5)C=C4)C=C3)cc1
REMARK SMILES IDX 6 1 5 2 4 3 3 4 1 5 2 6 30 8 31 9 77 10 32 11 76 12 33 13
REMARK SMILES IDX 34 14 35 15 70 16 36 17 75 18 69 19 71 20 37 21 74 22 68 23
REMARK SMILES IDX 67 24 38 26 60 27 45 28 59 29 46 30 49 31 58 32 72 33 47 34
REMARK SMILES IDX 48 35 57 37 73 38 50 39 39 40 40 41 44 42 41 43 43 44 42 45
REMARK SMILES IDX 61 46 62 47 66 48 63 49 65 50 64 51 51 52 52 53 56 54 53 55
REMARK SMILES IDX 55 56 54 57 7 58 8 59 9 60 10 61 11 62 12 64 13 65 14 66
REMARK SMILES IDX 29 67 15 68 16 69 17 70 18 71 28 72 19 73 21 74 20 75 22 76
REMARK SMILES IDX 23 77 27 78 24 79 26 80 25 81
REMARK H PARENT 3 7 71 25 49 36 10 63
REMARK Flexibility Score: inf
ROOT
ATOM      1  C   UNL A   1      34.513  34.434  28.680  1.00  0.00     0.002 C 
ENDROOT
BRANCH   1   2
ATOM      2  C   UNL A   1      33.207  35.198  28.892  1.00  0.00     0.021 C 
BRANCH   2   3
ATOM      3  C   UNL A   1      33.304  36.365  29.866  1.00  0.00     0.116 C 
BRANCH   3   4
ATOM      4  N   UNL A   1      32.376  36.239  30.977  1.00  0.00    -0.352 N 
ATOM      5  O   UNL A   1      31.533  35.359  32.879  1.00  0.00    -0.269 OA
ATOM      6  C   UNL A   1      32.489  35.484  32.118  1.00  0.00     0.251 C 
ATOM      7  H   UNL A   1      31.550  36.770  30.901  1.00  0.00     0.163 HD
BRANCH   6   8
ATOM      8  C   UNL A   1      33.765  34.802  32.420  1.00  0.00     0.039 A 
ATOM      9  C   UNL A   1      33.775  33.477  32.862  1.00  0.00     0.014 A 
ATOM     10  C   UNL A   1      34.966  35.494  32.249  1.00  0.00     0.014 A 
ATOM     11  C   UNL A   1      34.970  32.890  33.259  1.00  0.00     0.010 A 
ATOM     12  C   UNL A   1      36.177  34.872  32.565  1.00  0.00     0.010 A 
ATOM     13  C   UNL A   1      36.186  33.573  33.095  1.00  0.00    -0.014 A 
BRANCH  13  14
ATOM     14  C   UNL A   1      37.457  32.872  33.407  1.00  0.00     0.031 A 
ATOM     15  C   UNL A   1      38.182  33.103  34.702  1.00  0.00     0.074 A 
ATOM     16  C   UNL A   1      37.943  31.998  32.505  1.00  0.00     0.049 A 
ATOM     17  N   UNL A   1      39.289  32.549  35.132  1.00  0.00    -0.248 NA
ATOM     18  C   UNL A   1      37.600  34.082  35.633  1.00  0.00     0.031 C 
ATOM     19  C   UNL A   1      37.329  31.694  31.208  1.00  0.00     0.029 A 
ATOM     20  N   UNL A   1      39.049  31.188  32.545  1.00  0.00    -0.354 N 
ATOM     21  C   UNL A   1      39.544  33.122  36.371  1.00  0.00     0.074 A 
ATOM     22  C   UNL A   1      38.491  34.085  36.615  1.00  0.00     0.031 C 
ATOM     23  C   UNL A   1      38.039  30.733  30.600  1.00  0.00     0.029 A 
ATOM     24  C   UNL A   1      39.191  30.401  31.429  1.00  0.00     0.049 A 
ATOM     25  H   UNL A   1      39.681  31.174  33.300  1.00  0.00     0.167 HD
ATOM     26  C   UNL A   1      40.563  32.865  37.228  1.00  0.00     0.031 A 
ATOM     27  C   UNL A   1      40.150  29.520  31.095  1.00  0.00     0.031 A 
ATOM     28  C   UNL A   1      41.613  31.911  36.977  1.00  0.00     0.049 A 
ATOM     29  C   UNL A   1      41.287  29.288  32.044  1.00  0.00     0.074 A 
ATOM     30  C   UNL A   1      42.671  31.558  37.799  1.00  0.00     0.029 A 
ATOM     31  N   UNL A   1      41.744  31.164  35.817  1.00  0.00    -0.354 N 
ATOM     32  N   UNL A   1      41.491  29.809  33.230  1.00  0.00    -0.248 NA
ATOM     33  C   UNL A   1      42.326  28.345  31.610  1.00  0.00     0.031 C 
ATOM     34  C   UNL A   1      43.473  30.640  37.112  1.00  0.00     0.029 A 
ATOM     35  C   UNL A   1      42.881  30.374  35.888  1.00  0.00     0.049 A 
ATOM     36  H   UNL A   1      41.122  31.191  35.054  1.00  0.00     0.167 HD
ATOM     37  C   UNL A   1      42.671  29.244  33.691  1.00  0.00     0.074 A 
ATOM     38  C   UNL A   1      43.124  28.323  32.667  1.00  0.00     0.031 C 
ATOM     39  C   UNL A   1      43.323  29.470  34.858  1.00  0.00     0.031 A 
BRANCH  26  40
ATOM     40  C   UNL A   1      40.611  33.650  38.511  1.00  0.00    -0.014 A 
ATOM     41  C   UNL A   1      39.923  33.222  39.657  1.00  0.00     0.009 A 
ATOM     42  C   UNL A   1      41.401  34.808  38.588  1.00  0.00     0.009 A 
ATOM     43  C   UNL A   1      40.001  33.956  40.844  1.00  0.00     0.001 A 
ATOM     44  C   UNL A   1      41.499  35.524  39.782  1.00  0.00     0.001 A 
ATOM     45  C   UNL A   1      40.792  35.102  40.908  1.00  0.00     0.000 A 
ENDBRANCH  26  40
BRANCH  27  46
ATOM     46  C   UNL A   1      40.079  28.809  29.793  1.00  0.00    -0.014 A 
ATOM     47  C   UNL A   1      40.631  29.378  28.636  1.00  0.00     0.009 A 
ATOM     48  C   UNL A   1      39.470  27.547  29.705  1.00  0.00     0.009 A 
ATOM     49  C   UNL A   1      40.553  28.707  27.413  1.00  0.00     0.001 A 
ATOM     50  C   UNL A   1      39.423  26.865  28.488  1.00  0.00     0.001 A 
ATOM     51  C   UNL A   1      39.956  27.450  27.342  1.00  0.00     0.000 A 
ENDBRANCH  27  46
BRANCH  39  52
ATOM     52  C   UNL A   1      44.580  28.683  35.097  1.00  0.00    -0.014 A 
ATOM     53  C   UNL A   1      45.837  29.181  34.715  1.00  0.00     0.009 A 
ATOM     54  C   UNL A   1      44.508  27.435  35.735  1.00  0.00     0.009 A 
ATOM     55  C   UNL A   1      46.990  28.426  34.935  1.00  0.00     0.001 A 
ATOM     56  C   UNL A   1      45.665  26.696  35.980  1.00  0.00     0.001 A 
ATOM     57  C   UNL A   1      46.905  27.188  35.570  1.00  0.00     0.000 A 
ENDBRANCH  39  52
ENDBRANCH  13  14
ENDBRANCH   6   8
ENDBRANCH   3   4
ENDBRANCH   2   3
ENDBRANCH   1   2
BRANCH   1  58
ATOM     58  C   UNL A   1      34.499  32.975  29.147  1.00  0.00     0.002 C 
BRANCH  58  59
ATOM     59  C   UNL A   1      35.217  31.988  28.223  1.00  0.00     0.021 C 
BRANCH  59  60
ATOM     60  C   UNL A   1      34.316  30.910  27.618  1.00  0.00     0.116 C 
BRANCH  60  61
ATOM     61  N   UNL A   1      33.008  31.448  27.289  1.00  0.00    -0.351 N 
ATOM     62  C   UNL A   1      31.995  30.843  26.589  1.00  0.00     0.270 C 
ATOM     63  H   UNL A   1      32.825  32.360  27.610  1.00  0.00     0.163 HD
ATOM     64  O   UNL A   1      31.066  31.530  26.158  1.00  0.00    -0.267 OA
BRANCH  62  65
ATOM     65  C   UNL A   1      32.069  29.403  26.358  1.00  0.00     0.139 A 
ATOM     66  C   UNL A   1      31.706  28.458  27.299  1.00  0.00     0.101 A 
ATOM     67  N   UNL A   1      32.552  28.869  25.162  1.00  0.00    -0.231 NA
ATOM     68  S   UNL A   1      31.871  26.882  26.649  1.00  0.00    -0.122 S 
ATOM     69  C   UNL A   1      32.470  27.558  25.184  1.00  0.00     0.124 A 
BRANCH  69  70
ATOM     70  C   UNL A   1      32.864  26.690  24.082  1.00  0.00     0.016 A 
ATOM     71  C   UNL A   1      32.855  27.164  22.774  1.00  0.00     0.031 A 
ATOM     72  C   UNL A   1      33.251  25.372  24.317  1.00  0.00     0.058 A 
ATOM     73  C   UNL A   1      33.309  26.317  21.781  1.00  0.00     0.114 A 
ATOM     74  C   UNL A   1      33.699  24.584  23.264  1.00  0.00     0.129 A 
ATOM     75  N   UNL A   1      33.757  25.062  22.006  1.00  0.00    -0.239 NA
BRANCH  74  76
ATOM     76  N   UNL A   1      34.166  23.325  23.531  1.00  0.00    -0.352 N 
ATOM     77  C   UNL A   1      33.277  22.175  23.634  1.00  0.00     0.146 C 
ATOM     78  C   UNL A   1      35.582  23.015  23.389  1.00  0.00     0.146 C 
ATOM     79  C   UNL A   1      33.758  21.294  24.798  1.00  0.00     0.181 C 
ATOM     80  C   UNL A   1      35.973  22.124  24.584  1.00  0.00     0.181 C 
ATOM     81  O   UNL A   1      35.148  20.942  24.662  1.00  0.00    -0.378 OA
ENDBRANCH  74  76
ENDBRANCH  69  70
ENDBRANCH  62  65
ENDBRANCH  60  61
ENDBRANCH  59  60
ENDBRANCH  58  59
ENDBRANCH   1  58
TORSDOF 15
ENDMDL
