MODEL 1
REMARK VINA RESULT:      -8.8      0.000      0.000
REMARK SMILES CC(C)(C)OC(=O)NC[C@H]1CC[C@@H](C(=O)NCCCCCCNC(=O)c2ccc(-c3c4nc(c(-c5ccccc5)c5ccc([nH]5)c(-c5ccccc5)c5nc(c(-c6ccccc6)c6ccc3[nH]6)C=C5)C=C4)cc2)CC1
REMARK SMILES IDX 18 1 17 2 16 3 14 4 15 5 13 7 10 8 11 9 75 10 12 11 74 12
REMARK SMILES IDX 9 13 8 14 6 15 7 16 5 18 2 19 1 20 3 21 4 22 19 23 20 24
REMARK SMILES IDX 21 25 22 26 23 27 24 28 25 30 26 31 27 32 73 33 28 34 72 35
REMARK SMILES IDX 29 36 30 37 31 38 66 39 32 40 71 41 65 42 67 43 33 44 70 45
REMARK SMILES IDX 64 46 63 47 34 49 56 50 41 51 55 52 42 53 45 54 54 55 68 56
REMARK SMILES IDX 43 57 44 58 53 60 69 61 46 62 35 63 36 64 40 65 37 66 39 67
REMARK SMILES IDX 38 68 57 69 58 70 62 71 59 72 61 73 60 74 47 75 48 76 52 77
REMARK SMILES IDX 49 78 51 79 50 80
REMARK H PARENT 16 6 8 17 23 29 67 48 45 59
REMARK Flexibility Score: inf
ROOT
ATOM      1  C   UNL A   1      46.420  23.501  24.542  1.00  0.00     0.021 C 
ENDROOT
BRANCH   1   2
ATOM      2  C   UNL A   1      46.376  24.747  25.437  1.00  0.00     0.116 C 
BRANCH   2   3
ATOM      3  N   UNL A   1      46.131  25.974  24.719  1.00  0.00    -0.356 N 
ATOM      4  C   UNL A   1      46.217  27.273  25.104  1.00  0.00     0.223 C 
ATOM      5  O   UNL A   1      46.251  28.101  24.184  1.00  0.00    -0.275 OA
ATOM      6  H   UNL A   1      45.852  25.847  23.784  1.00  0.00     0.163 HD
BRANCH   4   7
ATOM      7  C   UNL A   1      46.266  27.775  26.562  1.00  0.00     0.078 C 
ATOM      8  C   UNL A   1      46.560  30.650  27.494  1.00  0.00     0.008 C 
ATOM      9  C   UNL A   1      45.222  30.097  26.971  1.00  0.00     0.006 C 
ATOM     10  C   UNL A   1      47.796  29.807  27.106  1.00  0.00     0.006 C 
ATOM     11  C   UNL A   1      45.069  28.588  27.052  1.00  0.00     0.014 C 
ATOM     12  C   UNL A   1      47.604  28.292  27.085  1.00  0.00     0.014 C 
BRANCH   8  13
ATOM     13  C   UNL A   1      46.735  32.145  27.086  1.00  0.00     0.123 C 
BRANCH  13  14
ATOM     14  N   UNL A   1      45.814  32.498  26.022  1.00  0.00    -0.321 N 
ATOM     15  C   UNL A   1      44.496  32.822  26.080  1.00  0.00     0.407 C 
ATOM     16  O   UNL A   1      43.784  32.631  25.096  1.00  0.00    -0.225 OA
ATOM     17  H   UNL A   1      46.204  32.502  25.118  1.00  0.00     0.167 HD
BRANCH  15  18
ATOM     18  O   UNL A   1      44.102  33.417  27.223  1.00  0.00    -0.444 OA
BRANCH  18  19
ATOM     19  C   UNL A   1      43.717  34.822  27.163  1.00  0.00     0.106 C 
ATOM     20  C   UNL A   1      45.039  35.597  27.168  1.00  0.00     0.056 C 
ATOM     21  C   UNL A   1      42.890  35.254  28.385  1.00  0.00     0.056 C 
ATOM     22  C   UNL A   1      42.976  35.140  25.852  1.00  0.00     0.056 C 
ENDBRANCH  18  19
ENDBRANCH  15  18
ENDBRANCH  13  14
ENDBRANCH   8  13
ENDBRANCH   4   7
ENDBRANCH   2   3
ENDBRANCH   1   2
BRANCH   1  23
ATOM     23  C   UNL A   1      45.931  22.206  25.207  1.00  0.00     0.002 C 
BRANCH  23  24
ATOM     24  C   UNL A   1      46.191  20.900  24.440  1.00  0.00     0.002 C 
BRANCH  24  25
ATOM     25  C   UNL A   1      44.972  20.011  24.190  1.00  0.00     0.021 C 
BRANCH  25  26
ATOM     26  C   UNL A   1      44.449  19.229  25.381  1.00  0.00     0.116 C 
BRANCH  26  27
ATOM     27  N   UNL A   1      43.020  18.997  25.291  1.00  0.00    -0.352 N 
ATOM     28  C   UNL A   1      41.970  19.691  25.841  1.00  0.00     0.251 C 
ATOM     29  H   UNL A   1      42.761  18.216  24.750  1.00  0.00     0.163 HD
ATOM     30  O   UNL A   1      40.854  19.179  25.859  1.00  0.00    -0.269 OA
BRANCH  28  31
ATOM     31  C   UNL A   1      42.160  21.043  26.420  1.00  0.00     0.039 A 
ATOM     32  C   UNL A   1      42.090  21.195  27.809  1.00  0.00     0.014 A 
ATOM     33  C   UNL A   1      42.344  22.169  25.614  1.00  0.00     0.014 A 
ATOM     34  C   UNL A   1      42.254  22.459  28.386  1.00  0.00     0.010 A 
ATOM     35  C   UNL A   1      42.601  23.411  26.193  1.00  0.00     0.010 A 
ATOM     36  C   UNL A   1      42.545  23.574  27.586  1.00  0.00    -0.014 A 
BRANCH  36  37
ATOM     37  C   UNL A   1      42.781  24.917  28.178  1.00  0.00     0.031 A 
ATOM     38  C   UNL A   1      44.131  25.272  28.744  1.00  0.00     0.074 A 
ATOM     39  C   UNL A   1      41.764  25.796  28.268  1.00  0.00     0.049 A 
ATOM     40  N   UNL A   1      44.504  26.358  29.375  1.00  0.00    -0.248 NA
ATOM     41  C   UNL A   1      45.196  24.265  28.608  1.00  0.00     0.031 C 
ATOM     42  C   UNL A   1      40.398  25.566  27.791  1.00  0.00     0.029 A 
ATOM     43  N   UNL A   1      41.717  27.060  28.804  1.00  0.00    -0.354 N 
ATOM     44  C   UNL A   1      45.831  26.152  29.731  1.00  0.00     0.074 A 
ATOM     45  C   UNL A   1      46.187  24.823  29.287  1.00  0.00     0.031 C 
ATOM     46  C   UNL A   1      39.657  26.658  28.035  1.00  0.00     0.029 A 
ATOM     47  C   UNL A   1      40.476  27.645  28.731  1.00  0.00     0.049 A 
ATOM     48  H   UNL A   1      42.499  27.504  29.205  1.00  0.00     0.167 HD
ATOM     49  C   UNL A   1      46.684  26.999  30.358  1.00  0.00     0.031 A 
ATOM     50  C   UNL A   1      40.039  28.834  29.189  1.00  0.00     0.031 A 
ATOM     51  C   UNL A   1      46.335  28.328  30.786  1.00  0.00     0.049 A 
ATOM     52  C   UNL A   1      41.001  29.746  29.898  1.00  0.00     0.074 A 
ATOM     53  C   UNL A   1      47.148  29.285  31.366  1.00  0.00     0.029 A 
ATOM     54  N   UNL A   1      45.070  28.883  30.684  1.00  0.00    -0.354 N 
ATOM     55  N   UNL A   1      42.273  29.565  30.160  1.00  0.00    -0.248 NA
ATOM     56  C   UNL A   1      40.467  31.033  30.370  1.00  0.00     0.031 C 
ATOM     57  C   UNL A   1      46.359  30.396  31.679  1.00  0.00     0.029 A 
ATOM     58  C   UNL A   1      45.070  30.157  31.227  1.00  0.00     0.049 A 
ATOM     59  H   UNL A   1      44.287  28.439  30.285  1.00  0.00     0.167 HD
ATOM     60  C   UNL A   1      42.697  30.723  30.802  1.00  0.00     0.074 A 
ATOM     61  C   UNL A   1      41.551  31.607  30.870  1.00  0.00     0.031 C 
ATOM     62  C   UNL A   1      43.923  31.025  31.293  1.00  0.00     0.031 A 
BRANCH  49  63
ATOM     63  C   UNL A   1      48.080  26.508  30.636  1.00  0.00    -0.014 A 
ATOM     64  C   UNL A   1      49.132  26.737  29.735  1.00  0.00     0.009 A 
ATOM     65  C   UNL A   1      48.356  25.851  31.845  1.00  0.00     0.009 A 
ATOM     66  C   UNL A   1      50.422  26.287  30.022  1.00  0.00     0.001 A 
ATOM     67  C   UNL A   1      49.653  25.429  32.145  1.00  0.00     0.001 A 
ATOM     68  C   UNL A   1      50.683  25.639  31.229  1.00  0.00     0.000 A 
ENDBRANCH  49  63
BRANCH  50  69
ATOM     69  C   UNL A   1      38.617  29.229  29.003  1.00  0.00    -0.014 A 
ATOM     70  C   UNL A   1      38.172  29.750  27.777  1.00  0.00     0.009 A 
ATOM     71  C   UNL A   1      37.698  29.102  30.057  1.00  0.00     0.009 A 
ATOM     72  C   UNL A   1      36.848  30.167  27.624  1.00  0.00     0.001 A 
ATOM     73  C   UNL A   1      36.367  29.487  29.890  1.00  0.00     0.001 A 
ATOM     74  C   UNL A   1      35.945  30.031  28.678  1.00  0.00     0.000 A 
ENDBRANCH  50  69
BRANCH  62  75
ATOM     75  C   UNL A   1      44.101  32.381  31.919  1.00  0.00    -0.014 A 
ATOM     76  C   UNL A   1      43.860  32.592  33.285  1.00  0.00     0.009 A 
ATOM     77  C   UNL A   1      44.559  33.452  31.135  1.00  0.00     0.009 A 
ATOM     78  C   UNL A   1      44.041  33.858  33.847  1.00  0.00     0.001 A 
ATOM     79  C   UNL A   1      44.771  34.708  31.706  1.00  0.00     0.001 A 
ATOM     80  C   UNL A   1      44.502  34.912  33.058  1.00  0.00     0.000 A 
ENDBRANCH  62  75
ENDBRANCH  36  37
ENDBRANCH  28  31
ENDBRANCH  26  27
ENDBRANCH  25  26
ENDBRANCH  24  25
ENDBRANCH  23  24
ENDBRANCH   1  23
TORSDOF 17
ENDMDL
MODEL 2
REMARK VINA RESULT:      -8.6      6.107     12.513
REMARK SMILES CC(C)(C)OC(=O)NC[C@H]1CC[C@@H](C(=O)NCCCCCCNC(=O)c2ccc(-c3c4nc(c(-c5ccccc5)c5ccc([nH]5)c(-c5ccccc5)c5nc(c(-c6ccccc6)c6ccc3[nH]6)C=C5)C=C4)cc2)CC1
REMARK SMILES IDX 18 1 17 2 16 3 14 4 15 5 13 7 10 8 11 9 75 10 12 11 74 12
REMARK SMILES IDX 9 13 8 14 6 15 7 16 5 18 2 19 1 20 3 21 4 22 19 23 20 24
REMARK SMILES IDX 21 25 22 26 23 27 24 28 25 30 26 31 27 32 73 33 28 34 72 35
REMARK SMILES IDX 29 36 30 37 31 38 66 39 32 40 71 41 65 42 67 43 33 44 70 45
REMARK SMILES IDX 64 46 63 47 34 49 56 50 41 51 55 52 42 53 45 54 54 55 68 56
REMARK SMILES IDX 43 57 44 58 53 60 69 61 46 62 35 63 36 64 40 65 37 66 39 67
REMARK SMILES IDX 38 68 57 69 58 70 62 71 59 72 61 73 60 74 47 75 48 76 52 77
REMARK SMILES IDX 49 78 51 79 50 80
REMARK H PARENT 16 6 8 17 23 29 67 48 45 59
REMARK Flexibility Score: inf
ROOT
ATOM      1  C   UNL A   1      35.184  32.790  28.183  1.00  0.00     0.021 C 
ENDROOT
BRANCH   1   2
ATOM      2  C   UNL A   1      34.358  31.587  28.656  1.00  0.00     0.116 C 
BRANCH   2   3
ATOM      3  N   UNL A   1      34.714  30.344  28.017  1.00  0.00    -0.356 N 
ATOM      4  C   UNL A   1      33.998  29.498  27.234  1.00  0.00     0.223 C 
ATOM      5  O   UNL A   1      34.663  28.682  26.581  1.00  0.00    -0.275 OA
ATOM      6  H   UNL A   1      35.643  30.060  28.176  1.00  0.00     0.163 HD
BRANCH   4   7
ATOM      7  C   UNL A   1      32.460  29.475  27.110  1.00  0.00     0.078 C 
ATOM      8  C   UNL A   1      30.799  27.677  25.314  1.00  0.00     0.008 C 
ATOM      9  C   UNL A   1      31.420  27.166  26.626  1.00  0.00     0.006 C 
ATOM     10  C   UNL A   1      31.428  28.982  24.775  1.00  0.00     0.006 C 
ATOM     11  C   UNL A   1      31.743  28.241  27.651  1.00  0.00     0.014 C 
ATOM     12  C   UNL A   1      31.849  30.013  25.819  1.00  0.00     0.014 C 
BRANCH   8  13
ATOM     13  C   UNL A   1      30.796  26.553  24.233  1.00  0.00     0.123 C 
BRANCH  13  14
ATOM     14  N   UNL A   1      31.851  26.771  23.262  1.00  0.00    -0.321 N 
ATOM     15  C   UNL A   1      32.869  25.955  22.881  1.00  0.00     0.407 C 
ATOM     16  O   UNL A   1      33.900  26.448  22.428  1.00  0.00    -0.225 OA
ATOM     17  H   UNL A   1      31.826  27.644  22.809  1.00  0.00     0.167 HD
BRANCH  15  18
ATOM     18  O   UNL A   1      32.609  24.635  22.965  1.00  0.00    -0.444 OA
BRANCH  18  19
ATOM     19  C   UNL A   1      33.368  23.851  23.931  1.00  0.00     0.106 C 
ATOM     20  C   UNL A   1      34.597  23.354  23.160  1.00  0.00     0.056 C 
ATOM     21  C   UNL A   1      32.583  22.632  24.441  1.00  0.00     0.056 C 
ATOM     22  C   UNL A   1      33.853  24.727  25.100  1.00  0.00     0.056 C 
ENDBRANCH  18  19
ENDBRANCH  15  18
ENDBRANCH  13  14
ENDBRANCH   8  13
ENDBRANCH   4   7
ENDBRANCH   2   3
ENDBRANCH   1   2
BRANCH   1  23
ATOM     23  C   UNL A   1      34.364  34.020  27.769  1.00  0.00     0.002 C 
BRANCH  23  24
ATOM     24  C   UNL A   1      34.797  35.368  28.367  1.00  0.00     0.002 C 
BRANCH  24  25
ATOM     25  C   UNL A   1      33.679  36.248  28.926  1.00  0.00     0.021 C 
BRANCH  25  26
ATOM     26  C   UNL A   1      32.603  35.545  29.733  1.00  0.00     0.116 C 
BRANCH  26  27
ATOM     27  N   UNL A   1      32.284  36.263  30.952  1.00  0.00    -0.352 N 
ATOM     28  C   UNL A   1      32.737  36.082  32.236  1.00  0.00     0.251 C 
ATOM     29  H   UNL A   1      31.638  36.998  30.842  1.00  0.00     0.163 HD
ATOM     30  O   UNL A   1      32.147  36.627  33.165  1.00  0.00    -0.269 OA
BRANCH  28  31
ATOM     31  C   UNL A   1      33.921  35.236  32.521  1.00  0.00     0.039 A 
ATOM     32  C   UNL A   1      35.195  35.753  32.264  1.00  0.00     0.014 A 
ATOM     33  C   UNL A   1      33.793  33.922  32.978  1.00  0.00     0.014 A 
ATOM     34  C   UNL A   1      36.332  34.977  32.512  1.00  0.00     0.010 A 
ATOM     35  C   UNL A   1      34.926  33.183  33.314  1.00  0.00     0.010 A 
ATOM     36  C   UNL A   1      36.210  33.696  33.072  1.00  0.00    -0.014 A 
BRANCH  36  37
ATOM     37  C   UNL A   1      37.404  32.873  33.399  1.00  0.00     0.031 A 
ATOM     38  C   UNL A   1      38.165  33.111  34.676  1.00  0.00     0.074 A 
ATOM     39  C   UNL A   1      37.845  31.953  32.517  1.00  0.00     0.049 A 
ATOM     40  N   UNL A   1      39.275  32.555  35.095  1.00  0.00    -0.248 NA
ATOM     41  C   UNL A   1      37.625  34.127  35.595  1.00  0.00     0.031 C 
ATOM     42  C   UNL A   1      37.221  31.646  31.228  1.00  0.00     0.029 A 
ATOM     43  N   UNL A   1      38.930  31.114  32.567  1.00  0.00    -0.354 N 
ATOM     44  C   UNL A   1      39.576  33.170  36.304  1.00  0.00     0.074 A 
ATOM     45  C   UNL A   1      38.559  34.172  36.533  1.00  0.00     0.031 C 
ATOM     46  C   UNL A   1      37.920  30.675  30.621  1.00  0.00     0.029 A 
ATOM     47  C   UNL A   1      39.068  30.324  31.451  1.00  0.00     0.049 A 
ATOM     48  H   UNL A   1      39.552  31.082  33.329  1.00  0.00     0.167 HD
ATOM     49  C   UNL A   1      40.597  32.914  37.157  1.00  0.00     0.031 A 
ATOM     50  C   UNL A   1      40.022  29.432  31.121  1.00  0.00     0.031 A 
ATOM     51  C   UNL A   1      41.600  31.906  36.937  1.00  0.00     0.049 A 
ATOM     52  C   UNL A   1      41.155  29.182  32.076  1.00  0.00     0.074 A 
ATOM     53  C   UNL A   1      42.634  31.525  37.774  1.00  0.00     0.029 A 
ATOM     54  N   UNL A   1      41.698  31.123  35.798  1.00  0.00    -0.354 N 
ATOM     55  N   UNL A   1      41.383  29.720  33.249  1.00  0.00    -0.248 NA
ATOM     56  C   UNL A   1      42.162  28.193  31.663  1.00  0.00     0.031 C 
ATOM     57  C   UNL A   1      43.398  30.559  37.113  1.00  0.00     0.029 A 
ATOM     58  C   UNL A   1      42.798  30.287  35.893  1.00  0.00     0.049 A 
ATOM     59  H   UNL A   1      41.077  31.156  35.034  1.00  0.00     0.167 HD
ATOM     60  C   UNL A   1      42.541  29.117  33.726  1.00  0.00     0.074 A 
ATOM     61  C   UNL A   1      42.956  28.157  32.723  1.00  0.00     0.031 C 
ATOM     62  C   UNL A   1      43.202  29.340  34.887  1.00  0.00     0.031 A 
BRANCH  49  63
ATOM     63  C   UNL A   1      40.695  33.751  38.404  1.00  0.00    -0.014 A 
ATOM     64  C   UNL A   1      41.401  34.964  38.421  1.00  0.00     0.009 A 
ATOM     65  C   UNL A   1      40.025  33.342  39.568  1.00  0.00     0.009 A 
ATOM     66  C   UNL A   1      41.464  35.732  39.587  1.00  0.00     0.001 A 
ATOM     67  C   UNL A   1      40.063  34.126  40.723  1.00  0.00     0.001 A 
ATOM     68  C   UNL A   1      40.790  35.315  40.734  1.00  0.00     0.000 A 
ENDBRANCH  49  63
BRANCH  50  69
ATOM     69  C   UNL A   1      39.955  28.716  29.818  1.00  0.00    -0.014 A 
ATOM     70  C   UNL A   1      40.441  29.314  28.645  1.00  0.00     0.009 A 
ATOM     71  C   UNL A   1      39.387  27.434  29.739  1.00  0.00     0.009 A 
ATOM     72  C   UNL A   1      40.330  28.658  27.417  1.00  0.00     0.001 A 
ATOM     73  C   UNL A   1      39.308  26.766  28.515  1.00  0.00     0.001 A 
ATOM     74  C   UNL A   1      39.767  27.383  27.353  1.00  0.00     0.000 A 
ENDBRANCH  50  69
BRANCH  62  75
ATOM     75  C   UNL A   1      44.428  28.510  35.154  1.00  0.00    -0.014 A 
ATOM     76  C   UNL A   1      44.342  27.261  35.787  1.00  0.00     0.009 A 
ATOM     77  C   UNL A   1      45.683  28.969  34.723  1.00  0.00     0.009 A 
ATOM     78  C   UNL A   1      45.493  26.504  36.015  1.00  0.00     0.001 A 
ATOM     79  C   UNL A   1      46.827  28.196  34.921  1.00  0.00     0.001 A 
ATOM     80  C   UNL A   1      46.733  26.969  35.576  1.00  0.00     0.000 A 
ENDBRANCH  62  75
ENDBRANCH  36  37
ENDBRANCH  28  31
ENDBRANCH  26  27
ENDBRANCH  25  26
ENDBRANCH  24  25
ENDBRANCH  23  24
ENDBRANCH   1  23
TORSDOF 17
ENDMDL
MODEL 3
REMARK VINA RESULT:      -8.5      4.914      8.096
REMARK SMILES CC(C)(C)OC(=O)NC[C@H]1CC[C@@H](C(=O)NCCCCCCNC(=O)c2ccc(-c3c4nc(c(-c5ccccc5)c5ccc([nH]5)c(-c5ccccc5)c5nc(c(-c6ccccc6)c6ccc3[nH]6)C=C5)C=C4)cc2)CC1
REMARK SMILES IDX 18 1 17 2 16 3 14 4 15 5 13 7 10 8 11 9 75 10 12 11 74 12
REMARK SMILES IDX 9 13 8 14 6 15 7 16 5 18 2 19 1 20 3 21 4 22 19 23 20 24
REMARK SMILES IDX 21 25 22 26 23 27 24 28 25 30 26 31 27 32 73 33 28 34 72 35
REMARK SMILES IDX 29 36 30 37 31 38 66 39 32 40 71 41 65 42 67 43 33 44 70 45
REMARK SMILES IDX 64 46 63 47 34 49 56 50 41 51 55 52 42 53 45 54 54 55 68 56
REMARK SMILES IDX 43 57 44 58 53 60 69 61 46 62 35 63 36 64 40 65 37 66 39 67
REMARK SMILES IDX 38 68 57 69 58 70 62 71 59 72 61 73 60 74 47 75 48 76 52 77
REMARK SMILES IDX 49 78 51 79 50 80
REMARK H PARENT 16 6 8 17 23 29 67 48 45 59
REMARK Flexibility Score: inf
ROOT
ATOM      1  C   UNL A   1      38.485  21.924  25.975  1.00  0.00     0.021 C 
ENDROOT
BRANCH   1   2
ATOM      2  C   UNL A   1      37.857  20.976  24.945  1.00  0.00     0.116 C 
BRANCH   2   3
ATOM      3  N   UNL A   1      36.498  20.598  25.250  1.00  0.00    -0.356 N 
ATOM      4  C   UNL A   1      35.314  21.207  24.987  1.00  0.00     0.223 C 
ATOM      5  O   UNL A   1      34.310  20.492  25.094  1.00  0.00    -0.275 OA
ATOM      6  H   UNL A   1      36.416  19.745  25.734  1.00  0.00     0.163 HD
BRANCH   4   7
ATOM      7  C   UNL A   1      35.137  22.686  24.584  1.00  0.00     0.078 C 
ATOM      8  C   UNL A   1      32.656  24.396  24.960  1.00  0.00     0.008 C 
ATOM      9  C   UNL A   1      33.610  24.080  26.126  1.00  0.00     0.006 C 
ATOM     10  C   UNL A   1      32.799  23.454  23.744  1.00  0.00     0.006 C 
ATOM     11  C   UNL A   1      35.024  23.701  25.720  1.00  0.00     0.014 C 
ATOM     12  C   UNL A   1      34.215  22.991  23.407  1.00  0.00     0.014 C 
BRANCH   8  13
ATOM     13  C   UNL A   1      31.180  24.466  25.461  1.00  0.00     0.123 C 
BRANCH  13  14
ATOM     14  N   UNL A   1      31.036  25.474  26.494  1.00  0.00    -0.321 N 
ATOM     15  C   UNL A   1      31.170  26.824  26.421  1.00  0.00     0.407 C 
ATOM     16  O   UNL A   1      31.476  27.455  27.430  1.00  0.00    -0.225 OA
ATOM     17  H   UNL A   1      30.806  25.126  27.386  1.00  0.00     0.167 HD
BRANCH  15  18
ATOM     18  O   UNL A   1      30.866  27.367  25.226  1.00  0.00    -0.444 OA
BRANCH  18  19
ATOM     19  C   UNL A   1      31.790  28.346  24.666  1.00  0.00     0.106 C 
ATOM     20  C   UNL A   1      31.257  28.638  23.259  1.00  0.00     0.056 C 
ATOM     21  C   UNL A   1      33.221  27.797  24.545  1.00  0.00     0.056 C 
ATOM     22  C   UNL A   1      31.766  29.657  25.473  1.00  0.00     0.056 C 
ENDBRANCH  18  19
ENDBRANCH  15  18
ENDBRANCH  13  14
ENDBRANCH   8  13
ENDBRANCH   4   7
ENDBRANCH   2   3
ENDBRANCH   1   2
BRANCH   1  23
ATOM     23  C   UNL A   1      39.804  21.434  26.589  1.00  0.00     0.002 C 
BRANCH  23  24
ATOM     24  C   UNL A   1      40.333  20.081  26.089  1.00  0.00     0.002 C 
BRANCH  24  25
ATOM     25  C   UNL A   1      41.853  19.922  26.053  1.00  0.00     0.021 C 
BRANCH  25  26
ATOM     26  C   UNL A   1      42.668  21.077  26.608  1.00  0.00     0.116 C 
BRANCH  26  27
ATOM     27  N   UNL A   1      43.324  21.832  25.558  1.00  0.00    -0.352 N 
ATOM     28  C   UNL A   1      43.391  23.186  25.345  1.00  0.00     0.251 C 
ATOM     29  H   UNL A   1      43.796  21.284  24.889  1.00  0.00     0.163 HD
ATOM     30  O   UNL A   1      43.773  23.607  24.256  1.00  0.00    -0.269 OA
BRANCH  28  31
ATOM     31  C   UNL A   1      43.003  24.151  26.402  1.00  0.00     0.039 A 
ATOM     32  C   UNL A   1      43.562  25.434  26.380  1.00  0.00     0.014 A 
ATOM     33  C   UNL A   1      42.148  23.793  27.448  1.00  0.00     0.014 A 
ATOM     34  C   UNL A   1      43.225  26.364  27.368  1.00  0.00     0.010 A 
ATOM     35  C   UNL A   1      41.740  24.748  28.378  1.00  0.00     0.010 A 
ATOM     36  C   UNL A   1      42.285  26.041  28.358  1.00  0.00    -0.014 A 
BRANCH  36  37
ATOM     37  C   UNL A   1      41.866  27.030  29.386  1.00  0.00     0.031 A 
ATOM     38  C   UNL A   1      42.609  27.130  30.692  1.00  0.00     0.074 A 
ATOM     39  C   UNL A   1      40.776  27.794  29.175  1.00  0.00     0.049 A 
ATOM     40  N   UNL A   1      42.344  27.868  31.741  1.00  0.00    -0.248 NA
ATOM     41  C   UNL A   1      43.792  26.268  30.853  1.00  0.00     0.031 C 
ATOM     42  C   UNL A   1      39.945  27.773  27.969  1.00  0.00     0.029 A 
ATOM     43  N   UNL A   1      40.172  28.732  29.976  1.00  0.00    -0.354 N 
ATOM     44  C   UNL A   1      43.306  27.541  32.689  1.00  0.00     0.074 A 
ATOM     45  C   UNL A   1      44.135  26.506  32.110  1.00  0.00     0.031 C 
ATOM     46  C   UNL A   1      38.955  28.670  28.101  1.00  0.00     0.029 A 
ATOM     47  C   UNL A   1      39.048  29.293  29.417  1.00  0.00     0.049 A 
ATOM     48  H   UNL A   1      40.510  28.979  30.867  1.00  0.00     0.167 HD
ATOM     49  C   UNL A   1      43.495  28.064  33.925  1.00  0.00     0.031 A 
ATOM     50  C   UNL A   1      38.178  30.193  29.914  1.00  0.00     0.031 A 
ATOM     51  C   UNL A   1      42.680  29.104  34.495  1.00  0.00     0.049 A 
ATOM     52  C   UNL A   1      38.399  30.743  31.296  1.00  0.00     0.074 A 
ATOM     53  C   UNL A   1      42.834  29.747  35.711  1.00  0.00     0.029 A 
ATOM     54  N   UNL A   1      41.558  29.649  33.892  1.00  0.00    -0.354 N 
ATOM     55  N   UNL A   1      39.358  30.476  32.149  1.00  0.00    -0.248 NA
ATOM     56  C   UNL A   1      37.419  31.726  31.781  1.00  0.00     0.031 C 
ATOM     57  C   UNL A   1      41.765  30.634  35.873  1.00  0.00     0.029 A 
ATOM     58  C   UNL A   1      40.986  30.594  34.727  1.00  0.00     0.049 A 
ATOM     59  H   UNL A   1      41.218  29.402  33.001  1.00  0.00     0.167 HD
ATOM     60  C   UNL A   1      39.112  31.275  33.259  1.00  0.00     0.074 A 
ATOM     61  C   UNL A   1      37.927  32.053  32.960  1.00  0.00     0.031 C 
ATOM     62  C   UNL A   1      39.805  31.357  34.420  1.00  0.00     0.031 A 
BRANCH  49  63
ATOM     63  C   UNL A   1      44.619  27.507  34.757  1.00  0.00    -0.014 A 
ATOM     64  C   UNL A   1      44.428  26.406  35.607  1.00  0.00     0.009 A 
ATOM     65  C   UNL A   1      45.903  28.064  34.650  1.00  0.00     0.009 A 
ATOM     66  C   UNL A   1      45.490  25.897  36.357  1.00  0.00     0.001 A 
ATOM     67  C   UNL A   1      46.971  27.534  35.377  1.00  0.00     0.001 A 
ATOM     68  C   UNL A   1      46.761  26.457  36.237  1.00  0.00     0.000 A 
ENDBRANCH  49  63
BRANCH  50  69
ATOM     69  C   UNL A   1      37.007  30.625  29.104  1.00  0.00    -0.014 A 
ATOM     70  C   UNL A   1      36.871  31.961  28.695  1.00  0.00     0.009 A 
ATOM     71  C   UNL A   1      36.007  29.704  28.750  1.00  0.00     0.009 A 
ATOM     72  C   UNL A   1      35.744  32.372  27.979  1.00  0.00     0.001 A 
ATOM     73  C   UNL A   1      34.899  30.110  28.005  1.00  0.00     0.001 A 
ATOM     74  C   UNL A   1      34.761  31.446  27.631  1.00  0.00     0.000 A 
ENDBRANCH  50  69
BRANCH  62  75
ATOM     75  C   UNL A   1      39.318  32.343  35.446  1.00  0.00    -0.014 A 
ATOM     76  C   UNL A   1      38.469  31.951  36.492  1.00  0.00     0.009 A 
ATOM     77  C   UNL A   1      39.752  33.678  35.387  1.00  0.00     0.009 A 
ATOM     78  C   UNL A   1      38.037  32.883  37.439  1.00  0.00     0.001 A 
ATOM     79  C   UNL A   1      39.347  34.599  36.352  1.00  0.00     0.001 A 
ATOM     80  C   UNL A   1      38.481  34.204  37.371  1.00  0.00     0.000 A 
ENDBRANCH  62  75
ENDBRANCH  36  37
ENDBRANCH  28  31
ENDBRANCH  26  27
ENDBRANCH  25  26
ENDBRANCH  24  25
ENDBRANCH  23  24
ENDBRANCH   1  23
TORSDOF 17
ENDMDL
