MODEL 1
REMARK VINA RESULT:     -11.0      0.000      0.000
REMARK SMILES O=C(NCCCCCCNC(=O)c1cc(Br)ccc1OCc1ccccc1F)c1ccc(-c2c3nc(c(-c4ccccc4)c4ccc([nH]4)c(-c4ccccc4)c4nc(c(-c5ccccc5)c5ccc2[nH]5)C=C4)C=C3)cc1
REMARK SMILES IDX 7 1 6 2 5 3 4 4 3 5 1 6 2 7 29 9 30 10 76 11 31 12 75 13
REMARK SMILES IDX 32 14 33 15 34 16 69 17 35 18 74 19 68 20 70 21 36 22 73 23
REMARK SMILES IDX 67 24 66 25 37 27 59 28 44 29 58 30 45 31 48 32 57 33 71 34
REMARK SMILES IDX 46 35 47 36 56 38 72 39 49 40 38 41 39 42 43 43 40 44 42 45
REMARK SMILES IDX 41 46 60 47 61 48 65 49 62 50 64 51 63 52 50 53 51 54 55 55
REMARK SMILES IDX 52 56 54 57 53 58 8 59 9 60 10 61 11 62 12 64 13 65 14 66
REMARK SMILES IDX 19 67 15 68 18 69 16 70 17 71 20 72 21 73 22 74 23 75 27 76
REMARK SMILES IDX 24 77 26 78 28 79 25 80
REMARK H PARENT 3 8 70 26 48 37 10 63
REMARK Flexibility Score: inf
ROOT
ATOM      1  C   UNL A   1      37.947  22.468  25.653  1.00  0.00     0.002 C 
ENDROOT
BRANCH   1   2
ATOM      2  C   UNL A   1      37.499  21.442  24.610  1.00  0.00     0.002 C 
BRANCH   2   3
ATOM      3  C   UNL A   1      38.086  20.037  24.711  1.00  0.00     0.021 C 
BRANCH   3   4
ATOM      4  C   UNL A   1      38.803  19.699  26.011  1.00  0.00     0.116 C 
BRANCH   4   5
ATOM      5  N   UNL A   1      40.075  19.026  25.818  1.00  0.00    -0.352 N 
ATOM      6  O   UNL A   1      42.320  18.817  25.698  1.00  0.00    -0.269 OA
ATOM      7  C   UNL A   1      41.352  19.511  25.995  1.00  0.00     0.251 C 
ATOM      8  H   UNL A   1      40.017  18.090  25.519  1.00  0.00     0.163 HD
BRANCH   7   9
ATOM      9  C   UNL A   1      41.566  20.887  26.503  1.00  0.00     0.039 A 
ATOM     10  C   UNL A   1      41.809  21.952  25.634  1.00  0.00     0.014 A 
ATOM     11  C   UNL A   1      41.525  21.111  27.883  1.00  0.00     0.014 A 
ATOM     12  C   UNL A   1      42.162  23.198  26.146  1.00  0.00     0.010 A 
ATOM     13  C   UNL A   1      41.805  22.383  28.394  1.00  0.00     0.010 A 
ATOM     14  C   UNL A   1      42.169  23.427  27.533  1.00  0.00    -0.014 A 
BRANCH  14  15
ATOM     15  C   UNL A   1      42.538  24.771  28.046  1.00  0.00     0.031 A 
ATOM     16  C   UNL A   1      41.493  25.826  28.293  1.00  0.00     0.074 A 
ATOM     17  C   UNL A   1      43.827  25.027  28.338  1.00  0.00     0.049 A 
ATOM     18  N   UNL A   1      41.638  27.020  28.812  1.00  0.00    -0.248 NA
ATOM     19  C   UNL A   1      40.110  25.505  27.907  1.00  0.00     0.031 C 
ATOM     20  C   UNL A   1      44.939  24.096  28.136  1.00  0.00     0.029 A 
ATOM     21  N   UNL A   1      44.415  26.132  28.899  1.00  0.00    -0.354 N 
ATOM     22  C   UNL A   1      40.377  27.602  28.789  1.00  0.00     0.074 A 
ATOM     23  C   UNL A   1      39.479  26.635  28.194  1.00  0.00     0.031 C 
ATOM     24  C   UNL A   1      46.063  24.641  28.625  1.00  0.00     0.029 A 
ATOM     25  C   UNL A   1      45.759  25.975  29.131  1.00  0.00     0.049 A 
ATOM     26  H   UNL A   1      43.922  26.957  29.113  1.00  0.00     0.167 HD
ATOM     27  C   UNL A   1      39.998  28.827  29.226  1.00  0.00     0.031 A 
ATOM     28  C   UNL A   1      46.652  26.808  29.697  1.00  0.00     0.031 A 
ATOM     29  C   UNL A   1      40.878  29.786  29.839  1.00  0.00     0.049 A 
ATOM     30  C   UNL A   1      46.205  28.155  30.179  1.00  0.00     0.074 A 
ATOM     31  C   UNL A   1      40.571  31.035  30.351  1.00  0.00     0.029 A 
ATOM     32  N   UNL A   1      42.240  29.603  30.020  1.00  0.00    -0.354 N 
ATOM     33  N   UNL A   1      45.002  28.672  30.179  1.00  0.00    -0.248 NA
ATOM     34  C   UNL A   1      47.242  29.033  30.738  1.00  0.00     0.031 C 
ATOM     35  C   UNL A   1      41.755  31.623  30.814  1.00  0.00     0.029 A 
ATOM     36  C   UNL A   1      42.791  30.723  30.621  1.00  0.00     0.049 A 
ATOM     37  H   UNL A   1      42.740  28.796  29.762  1.00  0.00     0.167 HD
ATOM     38  C   UNL A   1      45.133  29.932  30.744  1.00  0.00     0.074 A 
ATOM     39  C   UNL A   1      46.530  30.093  31.094  1.00  0.00     0.031 C 
ATOM     40  C   UNL A   1      44.181  30.873  30.953  1.00  0.00     0.031 A 
BRANCH  27  41
ATOM     41  C   UNL A   1      38.559  29.213  29.036  1.00  0.00    -0.014 A 
ATOM     42  C   UNL A   1      37.638  29.136  30.092  1.00  0.00     0.009 A 
ATOM     43  C   UNL A   1      38.131  29.704  27.792  1.00  0.00     0.009 A 
ATOM     44  C   UNL A   1      36.308  29.517  29.897  1.00  0.00     0.001 A 
ATOM     45  C   UNL A   1      36.806  30.101  27.606  1.00  0.00     0.001 A 
ATOM     46  C   UNL A   1      35.894  30.002  28.656  1.00  0.00     0.000 A 
ENDBRANCH  27  41
BRANCH  28  47
ATOM     47  C   UNL A   1      48.063  26.376  29.852  1.00  0.00    -0.014 A 
ATOM     48  C   UNL A   1      48.476  25.717  31.019  1.00  0.00     0.009 A 
ATOM     49  C   UNL A   1      48.994  26.601  28.826  1.00  0.00     0.009 A 
ATOM     50  C   UNL A   1      49.801  25.300  31.160  1.00  0.00     0.001 A 
ATOM     51  C   UNL A   1      50.313  26.163  28.963  1.00  0.00     0.001 A 
ATOM     52  C   UNL A   1      50.716  25.519  30.130  1.00  0.00     0.000 A 
ENDBRANCH  28  47
BRANCH  40  53
ATOM     53  C   UNL A   1      44.624  32.151  31.600  1.00  0.00    -0.014 A 
ATOM     54  C   UNL A   1      45.048  33.242  30.826  1.00  0.00     0.009 A 
ATOM     55  C   UNL A   1      44.603  32.270  32.998  1.00  0.00     0.009 A 
ATOM     56  C   UNL A   1      45.472  34.420  31.443  1.00  0.00     0.001 A 
ATOM     57  C   UNL A   1      45.010  33.456  33.611  1.00  0.00     0.001 A 
ATOM     58  C   UNL A   1      45.452  34.526  32.833  1.00  0.00     0.000 A 
ENDBRANCH  40  53
ENDBRANCH  14  15
ENDBRANCH   7   9
ENDBRANCH   4   5
ENDBRANCH   3   4
ENDBRANCH   2   3
ENDBRANCH   1   2
BRANCH   1  59
ATOM     59  C   UNL A   1      36.937  23.523  26.118  1.00  0.00     0.021 C 
BRANCH  59  60
ATOM     60  C   UNL A   1      35.452  23.212  25.958  1.00  0.00     0.116 C 
BRANCH  60  61
ATOM     61  N   UNL A   1      34.747  22.992  27.203  1.00  0.00    -0.352 N 
ATOM     62  C   UNL A   1      33.392  22.872  27.379  1.00  0.00     0.255 C 
ATOM     63  H   UNL A   1      35.302  22.920  28.013  1.00  0.00     0.163 HD
ATOM     64  O   UNL A   1      32.941  22.254  28.336  1.00  0.00    -0.269 OA
BRANCH  62  65
ATOM     65  C   UNL A   1      32.478  23.418  26.368  1.00  0.00     0.082 A 
ATOM     66  C   UNL A   1      32.300  24.813  26.451  1.00  0.00     0.033 A 
ATOM     67  C   UNL A   1      31.857  22.679  25.352  1.00  0.00     0.132 A 
ATOM     68  C   UNL A   1      31.478  25.469  25.543  1.00  0.00     0.019 A 
ATOM     69  C   UNL A   1      31.032  23.374  24.449  1.00  0.00     0.048 A 
ATOM     70  Br  UNL A   1      31.233  27.337  25.674  1.00  0.00    -0.051 Br
ATOM     71  C   UNL A   1      30.837  24.755  24.540  1.00  0.00     0.019 A 
BRANCH  67  72
ATOM     72  O   UNL A   1      31.913  21.352  25.034  1.00  0.00    -0.488 OA
BRANCH  72  73
ATOM     73  C   UNL A   1      32.330  20.874  23.757  1.00  0.00     0.268 C 
BRANCH  73  74
ATOM     74  C   UNL A   1      32.954  19.504  23.782  1.00  0.00     0.025 A 
ATOM     75  C   UNL A   1      32.444  18.425  23.046  1.00  0.00     0.010 A 
ATOM     76  C   UNL A   1      34.091  19.292  24.569  1.00  0.00     0.129 A 
ATOM     77  C   UNL A   1      33.101  17.191  23.052  1.00  0.00     0.001 A 
ATOM     78  C   UNL A   1      34.749  18.066  24.581  1.00  0.00     0.039 A 
ATOM     79  F   UNL A   1      34.583  20.297  25.309  1.00  0.00    -0.207 F 
ATOM     80  C   UNL A   1      34.259  17.014  23.810  1.00  0.00     0.003 A 
ENDBRANCH  73  74
ENDBRANCH  72  73
ENDBRANCH  67  72
ENDBRANCH  62  65
ENDBRANCH  60  61
ENDBRANCH  59  60
ENDBRANCH   1  59
TORSDOF 16
ENDMDL
MODEL 2
REMARK VINA RESULT:     -11.0      0.760      5.928
REMARK SMILES O=C(NCCCCCCNC(=O)c1cc(Br)ccc1OCc1ccccc1F)c1ccc(-c2c3nc(c(-c4ccccc4)c4ccc([nH]4)c(-c4ccccc4)c4nc(c(-c5ccccc5)c5ccc2[nH]5)C=C4)C=C3)cc1
REMARK SMILES IDX 7 1 6 2 5 3 4 4 3 5 1 6 2 7 29 9 30 10 76 11 31 12 75 13
REMARK SMILES IDX 32 14 33 15 34 16 69 17 35 18 74 19 68 20 70 21 36 22 73 23
REMARK SMILES IDX 67 24 66 25 37 27 59 28 44 29 58 30 45 31 48 32 57 33 71 34
REMARK SMILES IDX 46 35 47 36 56 38 72 39 49 40 38 41 39 42 43 43 40 44 42 45
REMARK SMILES IDX 41 46 60 47 61 48 65 49 62 50 64 51 63 52 50 53 51 54 55 55
REMARK SMILES IDX 52 56 54 57 53 58 8 59 9 60 10 61 11 62 12 64 13 65 14 66
REMARK SMILES IDX 19 67 15 68 18 69 16 70 17 71 20 72 21 73 22 74 23 75 27 76
REMARK SMILES IDX 24 77 26 78 28 79 25 80
REMARK H PARENT 3 8 70 26 48 37 10 63
REMARK Flexibility Score: inf
ROOT
ATOM      1  C   UNL A   1      38.305  22.341  25.616  1.00  0.00     0.002 C 
ENDROOT
BRANCH   1   2
ATOM      2  C   UNL A   1      37.602  21.227  24.837  1.00  0.00     0.002 C 
BRANCH   2   3
ATOM      3  C   UNL A   1      38.257  19.849  24.840  1.00  0.00     0.021 C 
BRANCH   3   4
ATOM      4  C   UNL A   1      39.103  19.508  26.059  1.00  0.00     0.116 C 
BRANCH   4   5
ATOM      5  N   UNL A   1      40.404  18.952  25.730  1.00  0.00    -0.352 N 
ATOM      6  O   UNL A   1      42.642  18.929  25.438  1.00  0.00    -0.269 OA
ATOM      7  C   UNL A   1      41.651  19.524  25.850  1.00  0.00     0.251 C 
ATOM      8  H   UNL A   1      40.392  18.036  25.371  1.00  0.00     0.163 HD
BRANCH   7   9
ATOM      9  C   UNL A   1      41.799  20.877  26.438  1.00  0.00     0.039 A 
ATOM     10  C   UNL A   1      42.069  21.989  25.638  1.00  0.00     0.014 A 
ATOM     11  C   UNL A   1      41.668  21.030  27.822  1.00  0.00     0.014 A 
ATOM     12  C   UNL A   1      42.361  23.214  26.232  1.00  0.00     0.010 A 
ATOM     13  C   UNL A   1      41.885  22.280  28.411  1.00  0.00     0.010 A 
ATOM     14  C   UNL A   1      42.276  23.374  27.626  1.00  0.00    -0.014 A 
BRANCH  14  15
ATOM     15  C   UNL A   1      42.580  24.698  28.226  1.00  0.00     0.031 A 
ATOM     16  C   UNL A   1      43.991  25.089  28.580  1.00  0.00     0.074 A 
ATOM     17  C   UNL A   1      41.578  25.578  28.410  1.00  0.00     0.049 A 
ATOM     18  N   UNL A   1      44.435  26.234  29.036  1.00  0.00    -0.248 NA
ATOM     19  C   UNL A   1      45.035  24.068  28.403  1.00  0.00     0.031 C 
ATOM     20  C   UNL A   1      40.166  25.320  28.119  1.00  0.00     0.029 A 
ATOM     21  N   UNL A   1      41.596  26.876  28.853  1.00  0.00    -0.354 N 
ATOM     22  C   UNL A   1      45.801  26.063  29.228  1.00  0.00     0.074 A 
ATOM     23  C   UNL A   1      46.111  24.701  28.849  1.00  0.00     0.031 C 
ATOM     24  C   UNL A   1      39.463  26.444  28.328  1.00  0.00     0.029 A 
ATOM     25  C   UNL A   1      40.365  27.483  28.811  1.00  0.00     0.049 A 
ATOM     26  H   UNL A   1      42.411  27.327  29.170  1.00  0.00     0.167 HD
ATOM     27  C   UNL A   1      46.715  26.958  29.674  1.00  0.00     0.031 A 
ATOM     28  C   UNL A   1      40.000  28.741  29.119  1.00  0.00     0.031 A 
ATOM     29  C   UNL A   1      46.420  28.320  30.031  1.00  0.00     0.049 A 
ATOM     30  C   UNL A   1      41.032  29.714  29.603  1.00  0.00     0.074 A 
ATOM     31  C   UNL A   1      47.292  29.310  30.452  1.00  0.00     0.029 A 
ATOM     32  N   UNL A   1      45.154  28.884  30.011  1.00  0.00    -0.354 N 
ATOM     33  N   UNL A   1      42.323  29.542  29.745  1.00  0.00    -0.248 NA
ATOM     34  C   UNL A   1      40.554  31.053  29.971  1.00  0.00     0.031 C 
ATOM     35  C   UNL A   1      46.548  30.467  30.719  1.00  0.00     0.029 A 
ATOM     36  C   UNL A   1      45.219  30.204  30.429  1.00  0.00     0.049 A 
ATOM     37  H   UNL A   1      44.332  28.417  29.740  1.00  0.00     0.167 HD
ATOM     38  C   UNL A   1      42.815  30.753  30.210  1.00  0.00     0.074 A 
ATOM     39  C   UNL A   1      41.686  31.656  30.307  1.00  0.00     0.031 C 
ATOM     40  C   UNL A   1      44.088  31.086  30.530  1.00  0.00     0.031 A 
BRANCH  27  41
ATOM     41  C   UNL A   1      48.131  26.482  29.824  1.00  0.00    -0.014 A 
ATOM     42  C   UNL A   1      49.060  26.618  28.781  1.00  0.00     0.009 A 
ATOM     43  C   UNL A   1      48.552  25.929  31.044  1.00  0.00     0.009 A 
ATOM     44  C   UNL A   1      50.377  26.184  28.948  1.00  0.00     0.001 A 
ATOM     45  C   UNL A   1      49.874  25.514  31.214  1.00  0.00     0.001 A 
ATOM     46  C   UNL A   1      50.784  25.636  30.165  1.00  0.00     0.000 A 
ENDBRANCH  27  41
BRANCH  28  47
ATOM     47  C   UNL A   1      38.583  29.154  28.959  1.00  0.00    -0.014 A 
ATOM     48  C   UNL A   1      37.702  29.093  30.048  1.00  0.00     0.009 A 
ATOM     49  C   UNL A   1      38.115  29.628  27.724  1.00  0.00     0.009 A 
ATOM     50  C   UNL A   1      36.372  29.491  29.900  1.00  0.00     0.001 A 
ATOM     51  C   UNL A   1      36.790  30.045  27.586  1.00  0.00     0.001 A 
ATOM     52  C   UNL A   1      35.919  29.971  28.671  1.00  0.00     0.000 A 
ENDBRANCH  28  47
BRANCH  40  53
ATOM     53  C   UNL A   1      44.322  32.490  31.002  1.00  0.00    -0.014 A 
ATOM     54  C   UNL A   1      44.266  32.810  32.368  1.00  0.00     0.009 A 
ATOM     55  C   UNL A   1      44.616  33.499  30.073  1.00  0.00     0.009 A 
ATOM     56  C   UNL A   1      44.470  34.124  32.790  1.00  0.00     0.001 A 
ATOM     57  C   UNL A   1      44.838  34.809  30.502  1.00  0.00     0.001 A 
ATOM     58  C   UNL A   1      44.757  35.121  31.859  1.00  0.00     0.000 A 
ENDBRANCH  40  53
ENDBRANCH  14  15
ENDBRANCH   7   9
ENDBRANCH   4   5
ENDBRANCH   3   4
ENDBRANCH   2   3
ENDBRANCH   1   2
BRANCH   1  59
ATOM     59  C   UNL A   1      37.570  23.672  25.806  1.00  0.00     0.021 C 
BRANCH  59  60
ATOM     60  C   UNL A   1      36.045  23.654  25.807  1.00  0.00     0.116 C 
BRANCH  60  61
ATOM     61  N   UNL A   1      35.454  22.908  26.897  1.00  0.00    -0.352 N 
ATOM     62  C   UNL A   1      34.221  22.307  26.919  1.00  0.00     0.255 C 
ATOM     63  H   UNL A   1      35.997  22.822  27.714  1.00  0.00     0.163 HD
ATOM     64  O   UNL A   1      34.005  21.355  27.659  1.00  0.00    -0.269 OA
BRANCH  62  65
ATOM     65  C   UNL A   1      33.178  22.757  25.988  1.00  0.00     0.082 A 
ATOM     66  C   UNL A   1      32.577  23.978  26.349  1.00  0.00     0.033 A 
ATOM     67  C   UNL A   1      32.813  22.105  24.803  1.00  0.00     0.132 A 
ATOM     68  C   UNL A   1      31.587  24.535  25.548  1.00  0.00     0.019 A 
ATOM     69  C   UNL A   1      31.809  22.696  24.014  1.00  0.00     0.048 A 
ATOM     70  Br  UNL A   1      30.776  26.165  26.050  1.00  0.00    -0.051 Br
ATOM     71  C   UNL A   1      31.196  23.898  24.379  1.00  0.00     0.019 A 
BRANCH  67  72
ATOM     72  O   UNL A   1      33.277  20.961  24.219  1.00  0.00    -0.488 OA
BRANCH  72  73
ATOM     73  C   UNL A   1      32.419  19.918  23.758  1.00  0.00     0.268 C 
BRANCH  73  74
ATOM     74  C   UNL A   1      32.941  18.529  24.014  1.00  0.00     0.025 A 
ATOM     75  C   UNL A   1      33.406  17.693  22.990  1.00  0.00     0.010 A 
ATOM     76  C   UNL A   1      32.966  18.048  25.327  1.00  0.00     0.129 A 
ATOM     77  C   UNL A   1      33.941  16.436  23.291  1.00  0.00     0.001 A 
ATOM     78  C   UNL A   1      33.497  16.799  25.634  1.00  0.00     0.039 A 
ATOM     79  F   UNL A   1      32.498  18.813  26.325  1.00  0.00    -0.207 F 
ATOM     80  C   UNL A   1      33.998  15.994  24.612  1.00  0.00     0.003 A 
ENDBRANCH  73  74
ENDBRANCH  72  73
ENDBRANCH  67  72
ENDBRANCH  62  65
ENDBRANCH  60  61
ENDBRANCH  59  60
ENDBRANCH   1  59
TORSDOF 16
ENDMDL
MODEL 3
REMARK VINA RESULT:     -10.9      4.461      9.201
REMARK SMILES O=C(NCCCCCCNC(=O)c1cc(Br)ccc1OCc1ccccc1F)c1ccc(-c2c3nc(c(-c4ccccc4)c4ccc([nH]4)c(-c4ccccc4)c4nc(c(-c5ccccc5)c5ccc2[nH]5)C=C4)C=C3)cc1
REMARK SMILES IDX 7 1 6 2 5 3 4 4 3 5 1 6 2 7 29 9 30 10 76 11 31 12 75 13
REMARK SMILES IDX 32 14 33 15 34 16 69 17 35 18 74 19 68 20 70 21 36 22 73 23
REMARK SMILES IDX 67 24 66 25 37 27 59 28 44 29 58 30 45 31 48 32 57 33 71 34
REMARK SMILES IDX 46 35 47 36 56 38 72 39 49 40 38 41 39 42 43 43 40 44 42 45
REMARK SMILES IDX 41 46 60 47 61 48 65 49 62 50 64 51 63 52 50 53 51 54 55 55
REMARK SMILES IDX 52 56 54 57 53 58 8 59 9 60 10 61 11 62 12 64 13 65 14 66
REMARK SMILES IDX 19 67 15 68 18 69 16 70 17 71 20 72 21 73 22 74 23 75 27 76
REMARK SMILES IDX 24 77 26 78 28 79 25 80
REMARK H PARENT 3 8 70 26 48 37 10 63
REMARK Flexibility Score: inf
ROOT
ATOM      1  C   UNL A   1      32.311  29.549  26.982  1.00  0.00     0.002 C 
ENDROOT
BRANCH   1   2
ATOM      2  C   UNL A   1      31.675  30.675  26.164  1.00  0.00     0.002 C 
BRANCH   2   3
ATOM      3  C   UNL A   1      31.414  31.998  26.877  1.00  0.00     0.021 C 
BRANCH   3   4
ATOM      4  C   UNL A   1      32.631  32.875  27.136  1.00  0.00     0.116 C 
BRANCH   4   5
ATOM      5  N   UNL A   1      32.301  34.199  27.633  1.00  0.00    -0.352 N 
ATOM      6  O   UNL A   1      32.453  36.021  28.958  1.00  0.00    -0.269 OA
ATOM      7  C   UNL A   1      32.929  34.945  28.605  1.00  0.00     0.251 C 
ATOM      8  H   UNL A   1      31.518  34.623  27.215  1.00  0.00     0.163 HD
BRANCH   7   9
ATOM      9  C   UNL A   1      34.157  34.437  29.262  1.00  0.00     0.039 A 
ATOM     10  C   UNL A   1      35.420  34.656  28.709  1.00  0.00     0.014 A 
ATOM     11  C   UNL A   1      34.036  33.721  30.458  1.00  0.00     0.014 A 
ATOM     12  C   UNL A   1      36.536  34.033  29.262  1.00  0.00     0.010 A 
ATOM     13  C   UNL A   1      35.169  33.159  31.055  1.00  0.00     0.010 A 
ATOM     14  C   UNL A   1      36.423  33.273  30.439  1.00  0.00    -0.014 A 
BRANCH  14  15
ATOM     15  C   UNL A   1      37.636  32.632  31.009  1.00  0.00     0.031 A 
ATOM     16  C   UNL A   1      38.211  33.084  32.325  1.00  0.00     0.074 A 
ATOM     17  C   UNL A   1      38.197  31.597  30.355  1.00  0.00     0.049 A 
ATOM     18  N   UNL A   1      39.216  32.579  32.998  1.00  0.00    -0.248 NA
ATOM     19  C   UNL A   1      37.586  34.250  32.966  1.00  0.00     0.031 C 
ATOM     20  C   UNL A   1      37.742  31.067  29.067  1.00  0.00     0.029 A 
ATOM     21  N   UNL A   1      39.246  30.784  30.699  1.00  0.00    -0.354 N 
ATOM     22  C   UNL A   1      39.360  33.380  34.124  1.00  0.00     0.074 A 
ATOM     23  C   UNL A   1      38.349  34.412  34.038  1.00  0.00     0.031 C 
ATOM     24  C   UNL A   1      38.466  29.980  28.761  1.00  0.00     0.029 A 
ATOM     25  C   UNL A   1      39.461  29.764  29.805  1.00  0.00     0.049 A 
ATOM     26  H   UNL A   1      39.792  30.918  31.507  1.00  0.00     0.167 HD
ATOM     27  C   UNL A   1      40.250  33.267  35.139  1.00  0.00     0.031 A 
ATOM     28  C   UNL A   1      40.356  28.759  29.824  1.00  0.00     0.031 A 
ATOM     29  C   UNL A   1      41.244  32.231  35.244  1.00  0.00     0.049 A 
ATOM     30  C   UNL A   1      41.324  28.652  30.963  1.00  0.00     0.074 A 
ATOM     31  C   UNL A   1      42.160  32.014  36.260  1.00  0.00     0.029 A 
ATOM     32  N   UNL A   1      41.454  31.241  34.298  1.00  0.00    -0.354 N 
ATOM     33  N   UNL A   1      41.422  29.400  32.033  1.00  0.00    -0.248 NA
ATOM     34  C   UNL A   1      42.306  27.562  30.892  1.00  0.00     0.031 C 
ATOM     35  C   UNL A   1      42.947  30.909  35.913  1.00  0.00     0.029 A 
ATOM     36  C   UNL A   1      42.496  30.420  34.697  1.00  0.00     0.049 A 
ATOM     37  H   UNL A   1      40.939  31.136  33.466  1.00  0.00     0.167 HD
ATOM     38  C   UNL A   1      42.471  28.867  32.770  1.00  0.00     0.074 A 
ATOM     39  C   UNL A   1      42.963  27.720  32.033  1.00  0.00     0.031 C 
ATOM     40  C   UNL A   1      42.981  29.291  33.951  1.00  0.00     0.031 A 
BRANCH  27  41
ATOM     41  C   UNL A   1      40.205  34.311  36.217  1.00  0.00    -0.014 A 
ATOM     42  C   UNL A   1      40.963  35.488  36.124  1.00  0.00     0.009 A 
ATOM     43  C   UNL A   1      39.356  34.132  37.320  1.00  0.00     0.009 A 
ATOM     44  C   UNL A   1      40.892  36.453  37.131  1.00  0.00     0.001 A 
ATOM     45  C   UNL A   1      39.273  35.108  38.315  1.00  0.00     0.001 A 
ATOM     46  C   UNL A   1      40.045  36.265  38.223  1.00  0.00     0.000 A 
ENDBRANCH  27  41
BRANCH  28  47
ATOM     47  C   UNL A   1      40.360  27.760  28.726  1.00  0.00    -0.014 A 
ATOM     48  C   UNL A   1      41.055  28.020  27.537  1.00  0.00     0.009 A 
ATOM     49  C   UNL A   1      39.686  26.538  28.873  1.00  0.00     0.009 A 
ATOM     50  C   UNL A   1      41.068  27.076  26.508  1.00  0.00     0.001 A 
ATOM     51  C   UNL A   1      39.720  25.588  27.851  1.00  0.00     0.001 A 
ATOM     52  C   UNL A   1      40.405  25.860  26.669  1.00  0.00     0.000 A 
ENDBRANCH  28  47
BRANCH  40  53
ATOM     53  C   UNL A   1      44.121  28.500  34.518  1.00  0.00    -0.014 A 
ATOM     54  C   UNL A   1      43.889  27.400  35.358  1.00  0.00     0.009 A 
ATOM     55  C   UNL A   1      45.442  28.849  34.196  1.00  0.00     0.009 A 
ATOM     56  C   UNL A   1      44.961  26.683  35.890  1.00  0.00     0.001 A 
ATOM     57  C   UNL A   1      46.511  28.117  34.715  1.00  0.00     0.001 A 
ATOM     58  C   UNL A   1      46.270  27.041  35.568  1.00  0.00     0.000 A 
ENDBRANCH  40  53
ENDBRANCH  14  15
ENDBRANCH   7   9
ENDBRANCH   4   5
ENDBRANCH   3   4
ENDBRANCH   2   3
ENDBRANCH   1   2
BRANCH   1  59
ATOM     59  C   UNL A   1      31.533  28.239  27.148  1.00  0.00     0.021 C 
BRANCH  59  60
ATOM     60  C   UNL A   1      32.019  27.015  26.378  1.00  0.00     0.116 C 
BRANCH  60  61
ATOM     61  N   UNL A   1      31.441  25.762  26.816  1.00  0.00    -0.352 N 
ATOM     62  C   UNL A   1      31.974  24.506  26.668  1.00  0.00     0.255 C 
ATOM     63  H   UNL A   1      30.570  25.817  27.271  1.00  0.00     0.163 HD
ATOM     64  O   UNL A   1      31.666  23.605  27.438  1.00  0.00    -0.269 OA
BRANCH  62  65
ATOM     65  C   UNL A   1      32.983  24.265  25.629  1.00  0.00     0.082 A 
ATOM     66  C   UNL A   1      34.287  24.081  26.129  1.00  0.00     0.033 A 
ATOM     67  C   UNL A   1      32.723  24.158  24.255  1.00  0.00     0.132 A 
ATOM     68  C   UNL A   1      35.340  23.823  25.259  1.00  0.00     0.019 A 
ATOM     69  C   UNL A   1      33.812  23.894  23.403  1.00  0.00     0.048 A 
ATOM     70  Br  UNL A   1      37.087  23.595  25.939  1.00  0.00    -0.051 Br
ATOM     71  C   UNL A   1      35.110  23.731  23.893  1.00  0.00     0.019 A 
BRANCH  67  72
ATOM     72  O   UNL A   1      31.560  24.240  23.545  1.00  0.00    -0.488 OA
BRANCH  72  73
ATOM     73  C   UNL A   1      31.408  25.068  22.393  1.00  0.00     0.268 C 
BRANCH  73  74
ATOM     74  C   UNL A   1      31.202  26.527  22.702  1.00  0.00     0.025 A 
ATOM     75  C   UNL A   1      29.983  27.038  23.170  1.00  0.00     0.010 A 
ATOM     76  C   UNL A   1      32.267  27.415  22.518  1.00  0.00     0.129 A 
ATOM     77  C   UNL A   1      29.865  28.391  23.505  1.00  0.00     0.001 A 
ATOM     78  C   UNL A   1      32.157  28.761  22.849  1.00  0.00     0.039 A 
ATOM     79  F   UNL A   1      33.436  26.960  22.040  1.00  0.00    -0.207 F 
ATOM     80  C   UNL A   1      30.954  29.249  23.356  1.00  0.00     0.003 A 
ENDBRANCH  73  74
ENDBRANCH  72  73
ENDBRANCH  67  72
ENDBRANCH  62  65
ENDBRANCH  60  61
ENDBRANCH  59  60
ENDBRANCH   1  59
TORSDOF 16
ENDMDL
