MODEL 1
REMARK VINA RESULT:     -12.8      0.000      0.000
REMARK SMILES Cc1ccc(-c2cc(Cl)cc3c2O[C@@H](C(F)(F)F)C(C(=O)NCCCCCCNC(=O)c2ccc(-c4c5nc(c(-c6ccccc6)c6ccc([nH]6)c(-c6ccccc6)c6nc(c(-c7ccccc7)c7ccc4[nH]7)C=C6)C=C5)cc2)=C3)cc1
REMARK SMILES IDX 26 1 25 2 24 3 23 4 22 5 20 6 21 7 19 9 6 10 7 11 12 12 8 13
REMARK SMILES IDX 11 14 13 15 9 16 10 17 80 18 14 19 5 20 1 21 2 22 3 23 82 24
REMARK SMILES IDX 4 25 81 26 15 27 16 28 17 29 18 30 27 31 28 32 29 33 30 34
REMARK SMILES IDX 31 36 32 37 33 38 79 39 34 40 78 41 35 42 36 43 37 44 72 45
REMARK SMILES IDX 38 46 77 47 71 48 73 49 39 50 76 51 70 52 69 53 40 55 62 56
REMARK SMILES IDX 47 57 61 58 48 59 51 60 60 61 74 62 49 63 50 64 59 66 75 67
REMARK SMILES IDX 52 68 41 69 42 70 46 71 43 72 45 73 44 74 63 75 64 76 68 77
REMARK SMILES IDX 65 78 67 79 66 80 53 81 54 82 58 83 55 84 57 85 56 86
REMARK H PARENT 22 8 29 35 73 54 51 65
REMARK Flexibility Score: inf
ROOT
ATOM      1  C   UNL A   1      36.877  21.262  24.502  1.00  0.00     0.002 C 
ENDROOT
BRANCH   1   2
ATOM      2  C   UNL A   1      35.511  20.952  25.116  1.00  0.00     0.002 C 
BRANCH   2   3
ATOM      3  C   UNL A   1      34.792  22.034  25.916  1.00  0.00     0.021 C 
BRANCH   3   4
ATOM      4  C   UNL A   1      35.007  23.517  25.622  1.00  0.00     0.116 C 
BRANCH   4   5
ATOM      5  N   UNL A   1      34.088  24.500  26.149  1.00  0.00    -0.352 N 
ATOM      6  C   UNL A   1      32.740  24.681  25.954  1.00  0.00     0.251 C 
ATOM      7  O   UNL A   1      32.150  25.336  26.821  1.00  0.00    -0.270 OA
ATOM      8  H   UNL A   1      34.501  25.157  26.755  1.00  0.00     0.163 HD
BRANCH   6   9
ATOM      9  C   UNL A   1      31.947  24.188  24.728  1.00  0.00     0.067 C 
ATOM     10  C   UNL A   1      31.628  28.072  23.920  1.00  0.00     0.026 A 
ATOM     11  C   UNL A   1      30.415  28.637  23.479  1.00  0.00     0.033 A 
ATOM     12  C   UNL A   1      31.672  26.679  23.897  1.00  0.00     0.135 A 
ATOM     13  C   UNL A   1      29.252  27.859  23.421  1.00  0.00     0.042 A 
ATOM     14  C   UNL A   1      30.488  25.953  24.185  1.00  0.00     0.019 A 
ATOM     15  O   UNL A   1      32.836  25.988  23.489  1.00  0.00    -0.475 OA
ATOM     16  Cl  UNL A   1      27.766  28.588  22.954  1.00  0.00    -0.084 Cl
ATOM     17  C   UNL A   1      29.266  26.539  23.876  1.00  0.00     0.032 A 
ATOM     18  C   UNL A   1      30.642  24.570  24.767  1.00  0.00     0.025 C 
ATOM     19  C   UNL A   1      32.488  24.570  23.365  1.00  0.00     0.314 C 
BRANCH  10  20
ATOM     20  C   UNL A   1      32.226  28.787  25.087  1.00  0.00    -0.015 A 
ATOM     21  C   UNL A   1      34.021  31.461  28.000  1.00  0.00     0.044 C 
ATOM     22  C   UNL A   1      33.375  30.507  27.037  1.00  0.00    -0.051 A 
ATOM     23  C   UNL A   1      34.013  29.319  26.646  1.00  0.00     0.004 A 
ATOM     24  C   UNL A   1      32.125  30.801  26.502  1.00  0.00     0.004 A 
ATOM     25  C   UNL A   1      33.448  28.466  25.676  1.00  0.00     0.009 A 
ATOM     26  C   UNL A   1      31.562  29.950  25.553  1.00  0.00     0.009 A 
ENDBRANCH  10  20
BRANCH  19  27
ATOM     27  C   UNL A   1      33.385  23.513  22.692  1.00  0.00     0.429 C 
ATOM     28  F   UNL A   1      33.122  23.465  21.357  1.00  0.00    -0.167 F 
ATOM     29  F   UNL A   1      34.701  23.783  22.819  1.00  0.00    -0.167 F 
ATOM     30  F   UNL A   1      33.168  22.254  23.143  1.00  0.00    -0.167 F 
ENDBRANCH  19  27
ENDBRANCH   6   9
ENDBRANCH   4   5
ENDBRANCH   3   4
ENDBRANCH   2   3
ENDBRANCH   1   2
BRANCH   1  31
ATOM     31  C   UNL A   1      38.100  21.169  25.411  1.00  0.00     0.021 C 
BRANCH  31  32
ATOM     32  C   UNL A   1      38.641  22.487  25.946  1.00  0.00     0.116 C 
BRANCH  32  33
ATOM     33  N   UNL A   1      40.089  22.528  26.105  1.00  0.00    -0.352 N 
ATOM     34  C   UNL A   1      40.901  23.581  26.501  1.00  0.00     0.251 C 
ATOM     35  H   UNL A   1      40.559  21.688  25.902  1.00  0.00     0.163 HD
ATOM     36  O   UNL A   1      42.107  23.433  26.578  1.00  0.00    -0.269 OA
BRANCH  34  37
ATOM     37  C   UNL A   1      40.278  24.852  26.960  1.00  0.00     0.039 A 
ATOM     38  C   UNL A   1      40.679  26.038  26.336  1.00  0.00     0.014 A 
ATOM     39  C   UNL A   1      39.469  24.902  28.092  1.00  0.00     0.014 A 
ATOM     40  C   UNL A   1      40.494  27.253  26.993  1.00  0.00     0.010 A 
ATOM     41  C   UNL A   1      39.371  26.087  28.793  1.00  0.00     0.010 A 
ATOM     42  C   UNL A   1      39.949  27.247  28.276  1.00  0.00    -0.014 A 
BRANCH  42  43
ATOM     43  C   UNL A   1      40.072  28.372  29.193  1.00  0.00     0.031 A 
ATOM     44  C   UNL A   1      39.003  29.381  29.295  1.00  0.00     0.074 A 
ATOM     45  C   UNL A   1      41.171  28.484  29.973  1.00  0.00     0.049 A 
ATOM     46  N   UNL A   1      39.213  30.631  29.545  1.00  0.00    -0.248 NA
ATOM     47  C   UNL A   1      37.597  29.053  29.093  1.00  0.00     0.031 C 
ATOM     48  C   UNL A   1      41.386  29.435  31.061  1.00  0.00     0.029 A 
ATOM     49  N   UNL A   1      42.425  27.900  29.786  1.00  0.00    -0.354 N 
ATOM     50  C   UNL A   1      37.992  31.189  29.843  1.00  0.00     0.074 A 
ATOM     51  C   UNL A   1      37.012  30.200  29.454  1.00  0.00     0.031 C 
ATOM     52  C   UNL A   1      42.708  29.608  31.220  1.00  0.00     0.029 A 
ATOM     53  C   UNL A   1      43.369  28.870  30.154  1.00  0.00     0.049 A 
ATOM     54  H   UNL A   1      42.611  26.989  29.461  1.00  0.00     0.167 HD
ATOM     55  C   UNL A   1      37.924  32.355  30.543  1.00  0.00     0.031 A 
ATOM     56  C   UNL A   1      44.303  29.377  29.300  1.00  0.00     0.031 A 
ATOM     57  C   UNL A   1      39.242  32.876  30.885  1.00  0.00     0.049 A 
ATOM     58  C   UNL A   1      44.222  30.882  29.158  1.00  0.00     0.074 A 
ATOM     59  C   UNL A   1      39.995  32.832  32.047  1.00  0.00     0.029 A 
ATOM     60  N   UNL A   1      40.102  33.288  29.875  1.00  0.00    -0.354 N 
ATOM     61  N   UNL A   1      43.191  31.591  29.525  1.00  0.00    -0.248 NA
ATOM     62  C   UNL A   1      45.261  31.698  28.536  1.00  0.00     0.031 C 
ATOM     63  C   UNL A   1      41.332  33.170  31.720  1.00  0.00     0.029 A 
ATOM     64  C   UNL A   1      41.384  33.441  30.365  1.00  0.00     0.049 A 
ATOM     65  H   UNL A   1      39.835  33.449  28.941  1.00  0.00     0.167 HD
ATOM     66  C   UNL A   1      43.403  32.910  29.216  1.00  0.00     0.074 A 
ATOM     67  C   UNL A   1      44.718  32.927  28.602  1.00  0.00     0.031 C 
ATOM     68  C   UNL A   1      42.466  33.867  29.487  1.00  0.00     0.031 A 
BRANCH  55  69
ATOM     69  C   UNL A   1      36.644  32.826  31.188  1.00  0.00    -0.014 A 
ATOM     70  C   UNL A   1      35.778  33.684  30.486  1.00  0.00     0.009 A 
ATOM     71  C   UNL A   1      36.263  32.492  32.498  1.00  0.00     0.009 A 
ATOM     72  C   UNL A   1      34.659  34.266  31.093  1.00  0.00     0.001 A 
ATOM     73  C   UNL A   1      35.168  33.102  33.126  1.00  0.00     0.001 A 
ATOM     74  C   UNL A   1      34.372  34.001  32.426  1.00  0.00     0.000 A 
ENDBRANCH  55  69
BRANCH  56  75
ATOM     75  C   UNL A   1      44.708  28.453  28.208  1.00  0.00    -0.014 A 
ATOM     76  C   UNL A   1      45.395  27.271  28.553  1.00  0.00     0.009 A 
ATOM     77  C   UNL A   1      44.121  28.540  26.938  1.00  0.00     0.009 A 
ATOM     78  C   UNL A   1      45.401  26.170  27.692  1.00  0.00     0.001 A 
ATOM     79  C   UNL A   1      44.137  27.436  26.076  1.00  0.00     0.001 A 
ATOM     80  C   UNL A   1      44.745  26.243  26.467  1.00  0.00     0.000 A 
ENDBRANCH  56  75
BRANCH  68  81
ATOM     81  C   UNL A   1      42.479  35.309  29.035  1.00  0.00    -0.014 A 
ATOM     82  C   UNL A   1      43.187  36.337  29.667  1.00  0.00     0.009 A 
ATOM     83  C   UNL A   1      41.836  35.644  27.819  1.00  0.00     0.009 A 
ATOM     84  C   UNL A   1      43.219  37.636  29.134  1.00  0.00     0.001 A 
ATOM     85  C   UNL A   1      41.902  36.922  27.262  1.00  0.00     0.001 A 
ATOM     86  C   UNL A   1      42.587  37.925  27.928  1.00  0.00     0.000 A 
ENDBRANCH  68  81
ENDBRANCH  42  43
ENDBRANCH  34  37
ENDBRANCH  32  33
ENDBRANCH  31  32
ENDBRANCH   1  31
TORSDOF 15
ENDMDL
MODEL 2
REMARK VINA RESULT:     -12.5      3.292      8.693
REMARK SMILES Cc1ccc(-c2cc(Cl)cc3c2O[C@@H](C(F)(F)F)C(C(=O)NCCCCCCNC(=O)c2ccc(-c4c5nc(c(-c6ccccc6)c6ccc([nH]6)c(-c6ccccc6)c6nc(c(-c7ccccc7)c7ccc4[nH]7)C=C6)C=C5)cc2)=C3)cc1
REMARK SMILES IDX 26 1 25 2 24 3 23 4 22 5 20 6 21 7 19 9 6 10 7 11 12 12 8 13
REMARK SMILES IDX 11 14 13 15 9 16 10 17 80 18 14 19 5 20 1 21 2 22 3 23 82 24
REMARK SMILES IDX 4 25 81 26 15 27 16 28 17 29 18 30 27 31 28 32 29 33 30 34
REMARK SMILES IDX 31 36 32 37 33 38 79 39 34 40 78 41 35 42 36 43 37 44 72 45
REMARK SMILES IDX 38 46 77 47 71 48 73 49 39 50 76 51 70 52 69 53 40 55 62 56
REMARK SMILES IDX 47 57 61 58 48 59 51 60 60 61 74 62 49 63 50 64 59 66 75 67
REMARK SMILES IDX 52 68 41 69 42 70 46 71 43 72 45 73 44 74 63 75 64 76 68 77
REMARK SMILES IDX 65 78 67 79 66 80 53 81 54 82 58 83 55 84 57 85 56 86
REMARK H PARENT 22 8 29 35 73 54 51 65
REMARK Flexibility Score: inf
ROOT
ATOM      1  C   UNL A   1      32.097  30.391  26.769  1.00  0.00     0.002 C 
ENDROOT
BRANCH   1   2
ATOM      2  C   UNL A   1      32.066  29.612  25.453  1.00  0.00     0.002 C 
BRANCH   2   3
ATOM      3  C   UNL A   1      33.307  28.838  25.017  1.00  0.00     0.021 C 
BRANCH   3   4
ATOM      4  C   UNL A   1      33.296  27.954  23.771  1.00  0.00     0.116 C 
BRANCH   4   5
ATOM      5  N   UNL A   1      34.038  26.714  23.758  1.00  0.00    -0.352 N 
ATOM      6  C   UNL A   1      33.669  25.438  23.406  1.00  0.00     0.251 C 
ATOM      7  O   UNL A   1      34.592  24.669  23.115  1.00  0.00    -0.270 OA
ATOM      8  H   UNL A   1      34.974  26.799  24.053  1.00  0.00     0.163 HD
BRANCH   6   9
ATOM      9  C   UNL A   1      32.225  24.899  23.411  1.00  0.00     0.067 C 
ATOM     10  C   UNL A   1      33.825  21.878  25.449  1.00  0.00     0.026 A 
ATOM     11  C   UNL A   1      33.476  20.539  25.180  1.00  0.00     0.033 A 
ATOM     12  C   UNL A   1      32.996  22.833  24.862  1.00  0.00     0.135 A 
ATOM     13  C   UNL A   1      32.635  20.230  24.104  1.00  0.00     0.042 A 
ATOM     14  C   UNL A   1      32.439  22.562  23.586  1.00  0.00     0.019 A 
ATOM     15  O   UNL A   1      32.618  24.003  25.558  1.00  0.00    -0.475 OA
ATOM     16  Cl  UNL A   1      32.285  18.585  23.748  1.00  0.00    -0.084 Cl
ATOM     17  C   UNL A   1      32.200  21.237  23.240  1.00  0.00     0.032 A 
ATOM     18  C   UNL A   1      32.103  23.741  22.707  1.00  0.00     0.025 C 
ATOM     19  C   UNL A   1      31.583  24.674  24.765  1.00  0.00     0.314 C 
BRANCH  10  20
ATOM     20  C   UNL A   1      35.300  22.117  25.453  1.00  0.00    -0.015 A 
ATOM     21  C   UNL A   1      39.611  22.230  25.963  1.00  0.00     0.044 C 
ATOM     22  C   UNL A   1      38.127  22.214  25.733  1.00  0.00    -0.051 A 
ATOM     23  C   UNL A   1      37.321  23.309  26.086  1.00  0.00     0.004 A 
ATOM     24  C   UNL A   1      37.522  21.093  25.173  1.00  0.00     0.004 A 
ATOM     25  C   UNL A   1      35.918  23.262  25.953  1.00  0.00     0.009 A 
ATOM     26  C   UNL A   1      36.137  21.054  25.030  1.00  0.00     0.009 A 
ENDBRANCH  10  20
BRANCH  19  27
ATOM     27  C   UNL A   1      30.712  25.835  25.281  1.00  0.00     0.429 C 
ATOM     28  F   UNL A   1      29.575  25.344  25.847  1.00  0.00    -0.167 F 
ATOM     29  F   UNL A   1      31.328  26.574  26.228  1.00  0.00    -0.167 F 
ATOM     30  F   UNL A   1      30.290  26.671  24.304  1.00  0.00    -0.167 F 
ENDBRANCH  19  27
ENDBRANCH   6   9
ENDBRANCH   4   5
ENDBRANCH   3   4
ENDBRANCH   2   3
ENDBRANCH   1   2
BRANCH   1  31
ATOM     31  C   UNL A   1      33.348  30.271  27.635  1.00  0.00     0.021 C 
BRANCH  31  32
ATOM     32  C   UNL A   1      34.251  31.495  27.683  1.00  0.00     0.116 C 
BRANCH  32  33
ATOM     33  N   UNL A   1      34.590  31.946  29.027  1.00  0.00    -0.352 N 
ATOM     34  C   UNL A   1      35.541  31.450  29.908  1.00  0.00     0.251 C 
ATOM     35  H   UNL A   1      34.069  32.712  29.358  1.00  0.00     0.163 HD
ATOM     36  O   UNL A   1      35.688  31.958  31.005  1.00  0.00    -0.269 OA
BRANCH  34  37
ATOM     37  C   UNL A   1      36.471  30.381  29.455  1.00  0.00     0.039 A 
ATOM     38  C   UNL A   1      36.751  29.338  30.345  1.00  0.00     0.014 A 
ATOM     39  C   UNL A   1      37.193  30.495  28.270  1.00  0.00     0.014 A 
ATOM     40  C   UNL A   1      37.912  28.587  30.174  1.00  0.00     0.010 A 
ATOM     41  C   UNL A   1      38.392  29.824  28.149  1.00  0.00     0.010 A 
ATOM     42  C   UNL A   1      38.785  28.925  29.140  1.00  0.00    -0.014 A 
BRANCH  42  43
ATOM     43  C   UNL A   1      40.174  28.489  29.105  1.00  0.00     0.031 A 
ATOM     44  C   UNL A   1      40.541  27.184  28.528  1.00  0.00     0.074 A 
ATOM     45  C   UNL A   1      41.143  29.298  29.592  1.00  0.00     0.049 A 
ATOM     46  N   UNL A   1      41.519  26.455  28.954  1.00  0.00    -0.248 NA
ATOM     47  C   UNL A   1      39.801  26.582  27.424  1.00  0.00     0.031 C 
ATOM     48  C   UNL A   1      42.587  29.106  29.484  1.00  0.00     0.029 A 
ATOM     49  N   UNL A   1      41.011  30.355  30.495  1.00  0.00    -0.354 N 
ATOM     50  C   UNL A   1      41.729  25.477  28.010  1.00  0.00     0.074 A 
ATOM     51  C   UNL A   1      40.581  25.536  27.133  1.00  0.00     0.031 C 
ATOM     52  C   UNL A   1      43.179  29.762  30.495  1.00  0.00     0.029 A 
ATOM     53  C   UNL A   1      42.122  30.283  31.348  1.00  0.00     0.049 A 
ATOM     54  H   UNL A   1      40.285  31.018  30.527  1.00  0.00     0.167 HD
ATOM     55  C   UNL A   1      42.924  24.826  27.953  1.00  0.00     0.031 A 
ATOM     56  C   UNL A   1      42.028  30.099  32.696  1.00  0.00     0.031 A 
ATOM     57  C   UNL A   1      43.857  25.287  28.974  1.00  0.00     0.049 A 
ATOM     58  C   UNL A   1      42.774  28.875  33.181  1.00  0.00     0.074 A 
ATOM     59  C   UNL A   1      44.929  26.163  28.936  1.00  0.00     0.029 A 
ATOM     60  N   UNL A   1      43.568  25.076  30.316  1.00  0.00    -0.354 N 
ATOM     61  N   UNL A   1      43.179  27.913  32.398  1.00  0.00    -0.248 NA
ATOM     62  C   UNL A   1      43.067  28.604  34.587  1.00  0.00     0.031 C 
ATOM     63  C   UNL A   1      45.252  26.523  30.268  1.00  0.00     0.029 A 
ATOM     64  C   UNL A   1      44.391  25.847  31.113  1.00  0.00     0.049 A 
ATOM     65  H   UNL A   1      42.875  24.462  30.651  1.00  0.00     0.167 HD
ATOM     66  C   UNL A   1      43.771  26.927  33.145  1.00  0.00     0.074 A 
ATOM     67  C   UNL A   1      43.682  27.409  34.510  1.00  0.00     0.031 C 
ATOM     68  C   UNL A   1      44.273  25.797  32.564  1.00  0.00     0.031 A 
BRANCH  55  69
ATOM     69  C   UNL A   1      43.331  24.010  26.752  1.00  0.00    -0.014 A 
ATOM     70  C   UNL A   1      43.176  22.611  26.768  1.00  0.00     0.009 A 
ATOM     71  C   UNL A   1      43.912  24.559  25.597  1.00  0.00     0.009 A 
ATOM     72  C   UNL A   1      43.676  21.799  25.743  1.00  0.00     0.001 A 
ATOM     73  C   UNL A   1      44.450  23.750  24.586  1.00  0.00     0.001 A 
ATOM     74  C   UNL A   1      44.344  22.367  24.667  1.00  0.00     0.000 A 
ENDBRANCH  55  69
BRANCH  56  75
ATOM     75  C   UNL A   1      40.771  30.609  33.303  1.00  0.00    -0.014 A 
ATOM     76  C   UNL A   1      40.609  32.003  33.434  1.00  0.00     0.009 A 
ATOM     77  C   UNL A   1      39.636  29.792  33.399  1.00  0.00     0.009 A 
ATOM     78  C   UNL A   1      39.336  32.569  33.550  1.00  0.00     0.001 A 
ATOM     79  C   UNL A   1      38.363  30.363  33.524  1.00  0.00     0.001 A 
ATOM     80  C   UNL A   1      38.211  31.750  33.564  1.00  0.00     0.000 A 
ENDBRANCH  56  75
BRANCH  68  81
ATOM     81  C   UNL A   1      44.773  24.556  33.268  1.00  0.00    -0.014 A 
ATOM     82  C   UNL A   1      46.094  24.350  33.681  1.00  0.00     0.009 A 
ATOM     83  C   UNL A   1      43.832  23.573  33.657  1.00  0.00     0.009 A 
ATOM     84  C   UNL A   1      46.461  23.207  34.408  1.00  0.00     0.001 A 
ATOM     85  C   UNL A   1      44.184  22.456  34.420  1.00  0.00     0.001 A 
ATOM     86  C   UNL A   1      45.506  22.268  34.787  1.00  0.00     0.000 A 
ENDBRANCH  68  81
ENDBRANCH  42  43
ENDBRANCH  34  37
ENDBRANCH  32  33
ENDBRANCH  31  32
ENDBRANCH   1  31
TORSDOF 15
ENDMDL
MODEL 3
REMARK VINA RESULT:     -12.2      1.990      3.331
REMARK SMILES Cc1ccc(-c2cc(Cl)cc3c2O[C@@H](C(F)(F)F)C(C(=O)NCCCCCCNC(=O)c2ccc(-c4c5nc(c(-c6ccccc6)c6ccc([nH]6)c(-c6ccccc6)c6nc(c(-c7ccccc7)c7ccc4[nH]7)C=C6)C=C5)cc2)=C3)cc1
REMARK SMILES IDX 26 1 25 2 24 3 23 4 22 5 20 6 21 7 19 9 6 10 7 11 12 12 8 13
REMARK SMILES IDX 11 14 13 15 9 16 10 17 80 18 14 19 5 20 1 21 2 22 3 23 82 24
REMARK SMILES IDX 4 25 81 26 15 27 16 28 17 29 18 30 27 31 28 32 29 33 30 34
REMARK SMILES IDX 31 36 32 37 33 38 79 39 34 40 78 41 35 42 36 43 37 44 72 45
REMARK SMILES IDX 38 46 77 47 71 48 73 49 39 50 76 51 70 52 69 53 40 55 62 56
REMARK SMILES IDX 47 57 61 58 48 59 51 60 60 61 74 62 49 63 50 64 59 66 75 67
REMARK SMILES IDX 52 68 41 69 42 70 46 71 43 72 45 73 44 74 63 75 64 76 68 77
REMARK SMILES IDX 65 78 67 79 66 80 53 81 54 82 58 83 55 84 57 85 56 86
REMARK H PARENT 22 8 29 35 73 54 51 65
REMARK Flexibility Score: inf
ROOT
ATOM      1  C   UNL A   1      38.225  23.489  26.094  1.00  0.00     0.002 C 
ENDROOT
BRANCH   1   2
ATOM      2  C   UNL A   1      36.784  23.748  25.654  1.00  0.00     0.002 C 
BRANCH   2   3
ATOM      3  C   UNL A   1      35.642  23.077  26.411  1.00  0.00     0.021 C 
BRANCH   3   4
ATOM      4  C   UNL A   1      34.188  23.256  25.979  1.00  0.00     0.116 C 
BRANCH   4   5
ATOM      5  N   UNL A   1      33.484  24.478  26.297  1.00  0.00    -0.352 N 
ATOM      6  C   UNL A   1      32.266  24.960  25.881  1.00  0.00     0.251 C 
ATOM      7  O   UNL A   1      31.747  25.818  26.604  1.00  0.00    -0.270 OA
ATOM      8  H   UNL A   1      33.961  25.069  26.924  1.00  0.00     0.163 HD
BRANCH   6   9
ATOM      9  C   UNL A   1      31.554  24.561  24.574  1.00  0.00     0.067 C 
ATOM     10  C   UNL A   1      31.745  28.458  23.791  1.00  0.00     0.026 A 
ATOM     11  C   UNL A   1      30.652  29.155  23.237  1.00  0.00     0.033 A 
ATOM     12  C   UNL A   1      31.639  27.069  23.754  1.00  0.00     0.135 A 
ATOM     13  C   UNL A   1      29.424  28.509  23.052  1.00  0.00     0.042 A 
ATOM     14  C   UNL A   1      30.360  26.477  23.910  1.00  0.00     0.019 A 
ATOM     15  O   UNL A   1      32.756  26.256  23.456  1.00  0.00    -0.475 OA
ATOM     16  Cl  UNL A   1      28.082  29.399  22.447  1.00  0.00    -0.084 Cl
ATOM     17  C   UNL A   1      29.247  27.194  23.487  1.00  0.00     0.032 A 
ATOM     18  C   UNL A   1      30.301  25.084  24.486  1.00  0.00     0.025 C 
ATOM     19  C   UNL A   1      32.270  24.884  23.278  1.00  0.00     0.314 C 
BRANCH  10  20
ATOM     20  C   UNL A   1      32.294  29.100  25.023  1.00  0.00    -0.015 A 
ATOM     21  C   UNL A   1      33.921  31.604  28.177  1.00  0.00     0.044 C 
ATOM     22  C   UNL A   1      33.335  30.704  27.128  1.00  0.00    -0.051 A 
ATOM     23  C   UNL A   1      34.039  29.590  26.642  1.00  0.00     0.004 A 
ATOM     24  C   UNL A   1      32.074  30.975  26.605  1.00  0.00     0.004 A 
ATOM     25  C   UNL A   1      33.528  28.796  25.596  1.00  0.00     0.009 A 
ATOM     26  C   UNL A   1      31.565  30.181  25.580  1.00  0.00     0.009 A 
ENDBRANCH  10  20
BRANCH  19  27
ATOM     27  C   UNL A   1      33.110  23.737  22.685  1.00  0.00     0.429 C 
ATOM     28  F   UNL A   1      34.430  23.945  22.951  1.00  0.00    -0.167 F 
ATOM     29  F   UNL A   1      32.795  22.532  23.204  1.00  0.00    -0.167 F 
ATOM     30  F   UNL A   1      33.029  23.648  21.336  1.00  0.00    -0.167 F 
ENDBRANCH  19  27
ENDBRANCH   6   9
ENDBRANCH   4   5
ENDBRANCH   3   4
ENDBRANCH   2   3
ENDBRANCH   1   2
BRANCH   1  31
ATOM     31  C   UNL A   1      38.735  22.051  26.042  1.00  0.00     0.021 C 
BRANCH  31  32
ATOM     32  C   UNL A   1      40.011  21.762  26.820  1.00  0.00     0.116 C 
BRANCH  32  33
ATOM     33  N   UNL A   1      40.941  20.865  26.146  1.00  0.00    -0.352 N 
ATOM     34  C   UNL A   1      42.313  20.987  25.975  1.00  0.00     0.251 C 
ATOM     35  H   UNL A   1      40.539  20.056  25.756  1.00  0.00     0.163 HD
ATOM     36  O   UNL A   1      42.938  20.130  25.378  1.00  0.00    -0.269 OA
BRANCH  34  37
ATOM     37  C   UNL A   1      43.036  22.102  26.643  1.00  0.00     0.039 A 
ATOM     38  C   UNL A   1      43.217  22.027  28.029  1.00  0.00     0.014 A 
ATOM     39  C   UNL A   1      43.361  23.273  25.964  1.00  0.00     0.014 A 
ATOM     40  C   UNL A   1      43.463  23.193  28.751  1.00  0.00     0.010 A 
ATOM     41  C   UNL A   1      43.505  24.444  26.679  1.00  0.00     0.010 A 
ATOM     42  C   UNL A   1      43.482  24.411  28.073  1.00  0.00    -0.014 A 
BRANCH  42  43
ATOM     43  C   UNL A   1      43.334  25.693  28.748  1.00  0.00     0.031 A 
ATOM     44  C   UNL A   1      42.062  26.434  28.690  1.00  0.00     0.074 A 
ATOM     45  C   UNL A   1      44.371  26.203  29.452  1.00  0.00     0.049 A 
ATOM     46  N   UNL A   1      41.977  27.723  28.684  1.00  0.00    -0.248 NA
ATOM     47  C   UNL A   1      40.770  25.763  28.606  1.00  0.00     0.031 C 
ATOM     48  C   UNL A   1      44.351  27.374  30.326  1.00  0.00     0.029 A 
ATOM     49  N   UNL A   1      45.727  25.893  29.338  1.00  0.00    -0.354 N 
ATOM     50  C   UNL A   1      40.658  28.038  28.911  1.00  0.00     0.074 A 
ATOM     51  C   UNL A   1      39.934  26.796  28.757  1.00  0.00     0.031 C 
ATOM     52  C   UNL A   1      45.597  27.870  30.400  1.00  0.00     0.029 A 
ATOM     53  C   UNL A   1      46.420  27.105  29.476  1.00  0.00     0.049 A 
ATOM     54  H   UNL A   1      46.119  25.003  29.190  1.00  0.00     0.167 HD
ATOM     55  C   UNL A   1      40.318  29.273  29.373  1.00  0.00     0.031 A 
ATOM     56  C   UNL A   1      47.221  27.631  28.507  1.00  0.00     0.031 A 
ATOM     57  C   UNL A   1      41.479  30.136  29.559  1.00  0.00     0.049 A 
ATOM     58  C   UNL A   1      46.799  29.020  28.077  1.00  0.00     0.074 A 
ATOM     59  C   UNL A   1      42.209  30.494  30.680  1.00  0.00     0.029 A 
ATOM     60  N   UNL A   1      42.231  30.523  28.458  1.00  0.00    -0.354 N 
ATOM     61  N   UNL A   1      45.630  29.536  28.336  1.00  0.00    -0.248 NA
ATOM     62  C   UNL A   1      47.631  29.910  27.271  1.00  0.00     0.031 C 
ATOM     63  C   UNL A   1      43.436  31.055  30.246  1.00  0.00     0.029 A 
ATOM     64  C   UNL A   1      43.439  31.057  28.863  1.00  0.00     0.049 A 
ATOM     65  H   UNL A   1      41.943  30.432  27.520  1.00  0.00     0.167 HD
ATOM     66  C   UNL A   1      45.537  30.781  27.768  1.00  0.00     0.074 A 
ATOM     67  C   UNL A   1      46.819  30.973  27.116  1.00  0.00     0.031 C 
ATOM     68  C   UNL A   1      44.403  31.534  27.881  1.00  0.00     0.031 A 
BRANCH  55  69
ATOM     69  C   UNL A   1      38.958  29.560  29.958  1.00  0.00    -0.014 A 
ATOM     70  C   UNL A   1      38.746  29.422  31.343  1.00  0.00     0.009 A 
ATOM     71  C   UNL A   1      37.840  29.925  29.191  1.00  0.00     0.009 A 
ATOM     72  C   UNL A   1      37.472  29.529  31.912  1.00  0.00     0.001 A 
ATOM     73  C   UNL A   1      36.554  29.994  29.747  1.00  0.00     0.001 A 
ATOM     74  C   UNL A   1      36.369  29.782  31.108  1.00  0.00     0.000 A 
ENDBRANCH  55  69
BRANCH  56  75
ATOM     75  C   UNL A   1      47.839  26.626  27.602  1.00  0.00    -0.014 A 
ATOM     76  C   UNL A   1      47.224  26.379  26.358  1.00  0.00     0.009 A 
ATOM     77  C   UNL A   1      49.166  26.212  27.786  1.00  0.00     0.009 A 
ATOM     78  C   UNL A   1      47.949  25.831  25.297  1.00  0.00     0.001 A 
ATOM     79  C   UNL A   1      49.886  25.656  26.721  1.00  0.00     0.001 A 
ATOM     80  C   UNL A   1      49.289  25.498  25.470  1.00  0.00     0.000 A 
ENDBRANCH  56  75
BRANCH  68  81
ATOM     81  C   UNL A   1      44.090  32.823  27.157  1.00  0.00    -0.014 A 
ATOM     82  C   UNL A   1      44.043  32.967  25.766  1.00  0.00     0.009 A 
ATOM     83  C   UNL A   1      43.692  33.949  27.918  1.00  0.00     0.009 A 
ATOM     84  C   UNL A   1      43.659  34.178  25.169  1.00  0.00     0.001 A 
ATOM     85  C   UNL A   1      43.265  35.141  27.329  1.00  0.00     0.001 A 
ATOM     86  C   UNL A   1      43.259  35.259  25.949  1.00  0.00     0.000 A 
ENDBRANCH  68  81
ENDBRANCH  42  43
ENDBRANCH  34  37
ENDBRANCH  32  33
ENDBRANCH  31  32
ENDBRANCH   1  31
TORSDOF 15
ENDMDL
