MODEL 1
REMARK VINA RESULT:     -10.4      0.000      0.000
REMARK SMILES COc1ccccc1CC(=O)NC[C@H]1CC[C@H](C(=O)NCCCCCCNC(=O)c2ccc(-c3c4nc(c(-c5ccccc5)c5ccc([nH]5)c(-c5ccccc5)c5nc(c(-c6ccccc6)c6ccc3[nH]6)C=C5)C=C4)cc2)O1
REMARK SMILES IDX 22 1 21 2 20 3 18 4 19 5 17 7 14 8 15 9 78 10 16 11 13 12
REMARK SMILES IDX 12 13 10 14 11 15 9 17 8 18 3 19 4 20 5 21 7 22 6 23 2 24
REMARK SMILES IDX 1 25 23 26 24 27 25 28 26 29 27 30 28 31 29 33 30 34 31 35
REMARK SMILES IDX 77 36 32 37 76 38 33 39 34 40 35 41 70 42 36 43 75 44 69 45
REMARK SMILES IDX 71 46 37 47 74 48 68 49 67 50 38 52 60 53 45 54 59 55 46 56
REMARK SMILES IDX 49 57 58 58 72 59 47 60 48 61 57 63 73 64 50 65 39 66 40 67
REMARK SMILES IDX 44 68 41 69 43 70 42 71 61 72 62 73 66 74 63 75 65 76 64 77
REMARK SMILES IDX 51 78 52 79 56 80 53 81 55 82 54 83
REMARK H PARENT 20 6 12 16 27 32 71 51 49 62
REMARK Flexibility Score: inf
ROOT
ATOM      1  C   UNL A   1      40.403  22.493  27.106  1.00  0.00     0.021 C 
ENDROOT
BRANCH   1   2
ATOM      2  C   UNL A   1      39.013  22.831  26.567  1.00  0.00     0.116 C 
BRANCH   2   3
ATOM      3  N   UNL A   1      38.393  21.678  25.953  1.00  0.00    -0.354 N 
ATOM      4  C   UNL A   1      37.167  21.540  25.374  1.00  0.00     0.249 C 
ATOM      5  O   UNL A   1      36.867  20.418  24.952  1.00  0.00    -0.272 OA
ATOM      6  H   UNL A   1      38.944  20.862  25.954  1.00  0.00     0.163 HD
BRANCH   4   7
ATOM      7  C   UNL A   1      36.144  22.699  25.307  1.00  0.00     0.207 C 
ATOM      8  C   UNL A   1      33.873  22.825  24.732  1.00  0.00     0.138 C 
ATOM      9  C   UNL A   1      34.672  22.996  23.448  1.00  0.00     0.037 C 
ATOM     10  O   UNL A   1      34.813  22.428  25.746  1.00  0.00    -0.363 OA
ATOM     11  C   UNL A   1      36.065  23.315  23.921  1.00  0.00     0.045 C 
BRANCH   8  12
ATOM     12  C   UNL A   1      33.109  24.088  25.171  1.00  0.00     0.147 C 
BRANCH  12  13
ATOM     13  N   UNL A   1      31.852  23.759  25.826  1.00  0.00    -0.353 N 
ATOM     14  C   UNL A   1      30.745  24.530  26.013  1.00  0.00     0.224 C 
ATOM     15  O   UNL A   1      29.946  24.185  26.886  1.00  0.00    -0.275 OA
ATOM     16  H   UNL A   1      31.792  22.845  26.185  1.00  0.00     0.163 HD
BRANCH  14  17
ATOM     17  C   UNL A   1      30.450  25.702  25.101  1.00  0.00     0.139 C 
BRANCH  17  18
ATOM     18  C   UNL A   1      31.026  27.036  25.505  1.00  0.00     0.003 A 
ATOM     19  C   UNL A   1      31.224  28.132  24.647  1.00  0.00     0.122 A 
ATOM     20  C   UNL A   1      31.800  29.311  25.149  1.00  0.00     0.047 A 
ATOM     21  C   UNL A   1      32.160  29.433  26.490  1.00  0.00     0.004 A 
ATOM     22  C   UNL A   1      31.396  27.181  26.863  1.00  0.00     0.008 A 
ATOM     23  C   UNL A   1      31.959  28.363  27.350  1.00  0.00     0.001 A 
BRANCH  19  24
ATOM     24  O   UNL A   1      31.045  28.177  23.292  1.00  0.00    -0.496 OA
ATOM     25  C   UNL A   1      29.741  28.411  22.782  1.00  0.00     0.278 C 
ENDBRANCH  19  24
ENDBRANCH  17  18
ENDBRANCH  14  17
ENDBRANCH  12  13
ENDBRANCH   8  12
ENDBRANCH   4   7
ENDBRANCH   2   3
ENDBRANCH   1   2
BRANCH   1  26
ATOM     26  C   UNL A   1      41.254  21.661  26.141  1.00  0.00     0.002 C 
BRANCH  26  27
ATOM     27  C   UNL A   1      42.179  20.640  26.815  1.00  0.00     0.002 C 
BRANCH  27  28
ATOM     28  C   UNL A   1      42.279  19.284  26.108  1.00  0.00     0.021 C 
BRANCH  28  29
ATOM     29  C   UNL A   1      43.662  18.641  26.173  1.00  0.00     0.116 C 
BRANCH  29  30
ATOM     30  N   UNL A   1      44.231  18.453  24.847  1.00  0.00    -0.352 N 
ATOM     31  C   UNL A   1      44.691  19.388  23.955  1.00  0.00     0.251 C 
ATOM     32  H   UNL A   1      44.295  17.518  24.546  1.00  0.00     0.163 HD
ATOM     33  O   UNL A   1      44.917  19.075  22.792  1.00  0.00    -0.269 OA
BRANCH  31  34
ATOM     34  C   UNL A   1      44.907  20.781  24.398  1.00  0.00     0.039 A 
ATOM     35  C   UNL A   1      44.410  21.826  23.615  1.00  0.00     0.014 A 
ATOM     36  C   UNL A   1      45.620  21.055  25.569  1.00  0.00     0.014 A 
ATOM     37  C   UNL A   1      44.580  23.147  24.037  1.00  0.00     0.010 A 
ATOM     38  C   UNL A   1      45.728  22.365  26.023  1.00  0.00     0.010 A 
ATOM     39  C   UNL A   1      45.215  23.424  25.259  1.00  0.00    -0.014 A 
BRANCH  39  40
ATOM     40  C   UNL A   1      45.355  24.816  25.753  1.00  0.00     0.031 A 
ATOM     41  C   UNL A   1      46.690  25.504  25.710  1.00  0.00     0.074 A 
ATOM     42  C   UNL A   1      44.291  25.438  26.298  1.00  0.00     0.049 A 
ATOM     43  N   UNL A   1      47.020  26.694  26.143  1.00  0.00    -0.248 NA
ATOM     44  C   UNL A   1      47.809  24.746  25.126  1.00  0.00     0.031 C 
ATOM     45  C   UNL A   1      42.950  24.865  26.433  1.00  0.00     0.029 A 
ATOM     46  N   UNL A   1      44.174  26.690  26.847  1.00  0.00    -0.354 N 
ATOM     47  C   UNL A   1      48.381  26.821  25.900  1.00  0.00     0.074 A 
ATOM     48  C   UNL A   1      48.827  25.569  25.327  1.00  0.00     0.031 C 
ATOM     49  C   UNL A   1      42.140  25.773  27.002  1.00  0.00     0.029 A 
ATOM     50  C   UNL A   1      42.911  26.973  27.307  1.00  0.00     0.049 A 
ATOM     51  H   UNL A   1      44.923  27.326  26.905  1.00  0.00     0.167 HD
ATOM     52  C   UNL A   1      49.186  27.888  26.116  1.00  0.00     0.031 A 
ATOM     53  C   UNL A   1      42.429  28.075  27.913  1.00  0.00     0.031 A 
ATOM     54  C   UNL A   1      48.740  29.137  26.674  1.00  0.00     0.049 A 
ATOM     55  C   UNL A   1      43.346  29.240  28.158  1.00  0.00     0.074 A 
ATOM     56  C   UNL A   1      49.464  30.299  26.874  1.00  0.00     0.029 A 
ATOM     57  N   UNL A   1      47.453  29.382  27.125  1.00  0.00    -0.354 N 
ATOM     58  N   UNL A   1      44.614  29.370  27.854  1.00  0.00    -0.248 NA
ATOM     59  C   UNL A   1      42.762  30.414  28.823  1.00  0.00     0.031 C 
ATOM     60  C   UNL A   1      48.628  31.232  27.494  1.00  0.00     0.029 A 
ATOM     61  C   UNL A   1      47.369  30.669  27.630  1.00  0.00     0.049 A 
ATOM     62  H   UNL A   1      46.709  28.739  27.092  1.00  0.00     0.167 HD
ATOM     63  C   UNL A   1      44.973  30.647  28.265  1.00  0.00     0.074 A 
ATOM     64  C   UNL A   1      43.786  31.257  28.827  1.00  0.00     0.031 C 
ATOM     65  C   UNL A   1      46.180  31.260  28.185  1.00  0.00     0.031 A 
BRANCH  52  66
ATOM     66  C   UNL A   1      50.638  27.747  25.751  1.00  0.00    -0.014 A 
ATOM     67  C   UNL A   1      51.104  28.099  24.474  1.00  0.00     0.009 A 
ATOM     68  C   UNL A   1      51.557  27.290  26.707  1.00  0.00     0.009 A 
ATOM     69  C   UNL A   1      52.456  27.960  24.151  1.00  0.00     0.001 A 
ATOM     70  C   UNL A   1      52.913  27.180  26.391  1.00  0.00     0.001 A 
ATOM     71  C   UNL A   1      53.359  27.504  25.110  1.00  0.00     0.000 A 
ENDBRANCH  52  66
BRANCH  53  72
ATOM     72  C   UNL A   1      41.001  28.135  28.319  1.00  0.00    -0.014 A 
ATOM     73  C   UNL A   1      40.055  28.774  27.502  1.00  0.00     0.009 A 
ATOM     74  C   UNL A   1      40.575  27.558  29.526  1.00  0.00     0.009 A 
ATOM     75  C   UNL A   1      38.718  28.856  27.897  1.00  0.00     0.001 A 
ATOM     76  C   UNL A   1      39.232  27.616  29.905  1.00  0.00     0.001 A 
ATOM     77  C   UNL A   1      38.307  28.273  29.095  1.00  0.00     0.000 A 
ENDBRANCH  53  72
BRANCH  65  78
ATOM     78  C   UNL A   1      46.270  32.672  28.688  1.00  0.00    -0.014 A 
ATOM     79  C   UNL A   1      46.648  32.950  30.011  1.00  0.00     0.009 A 
ATOM     80  C   UNL A   1      46.025  33.740  27.810  1.00  0.00     0.009 A 
ATOM     81  C   UNL A   1      46.757  34.271  30.449  1.00  0.00     0.001 A 
ATOM     82  C   UNL A   1      46.161  35.059  28.244  1.00  0.00     0.001 A 
ATOM     83  C   UNL A   1      46.519  35.323  29.565  1.00  0.00     0.000 A 
ENDBRANCH  65  78
ENDBRANCH  39  40
ENDBRANCH  31  34
ENDBRANCH  29  30
ENDBRANCH  28  29
ENDBRANCH  27  28
ENDBRANCH  26  27
ENDBRANCH   1  26
TORSDOF 18
ENDMDL
MODEL 2
REMARK VINA RESULT:     -10.0      5.263     10.340
REMARK SMILES COc1ccccc1CC(=O)NC[C@H]1CC[C@H](C(=O)NCCCCCCNC(=O)c2ccc(-c3c4nc(c(-c5ccccc5)c5ccc([nH]5)c(-c5ccccc5)c5nc(c(-c6ccccc6)c6ccc3[nH]6)C=C5)C=C4)cc2)O1
REMARK SMILES IDX 22 1 21 2 20 3 18 4 19 5 17 7 14 8 15 9 78 10 16 11 13 12
REMARK SMILES IDX 12 13 10 14 11 15 9 17 8 18 3 19 4 20 5 21 7 22 6 23 2 24
REMARK SMILES IDX 1 25 23 26 24 27 25 28 26 29 27 30 28 31 29 33 30 34 31 35
REMARK SMILES IDX 77 36 32 37 76 38 33 39 34 40 35 41 70 42 36 43 75 44 69 45
REMARK SMILES IDX 71 46 37 47 74 48 68 49 67 50 38 52 60 53 45 54 59 55 46 56
REMARK SMILES IDX 49 57 58 58 72 59 47 60 48 61 57 63 73 64 50 65 39 66 40 67
REMARK SMILES IDX 44 68 41 69 43 70 42 71 61 72 62 73 66 74 63 75 65 76 64 77
REMARK SMILES IDX 51 78 52 79 56 80 53 81 55 82 54 83
REMARK H PARENT 20 6 12 16 27 32 71 51 49 62
REMARK Flexibility Score: inf
ROOT
ATOM      1  C   UNL A   1      34.535  29.016  26.892  1.00  0.00     0.021 C 
ENDROOT
BRANCH   1   2
ATOM      2  C   UNL A   1      33.081  28.559  27.008  1.00  0.00     0.116 C 
BRANCH   2   3
ATOM      3  N   UNL A   1      32.200  29.411  26.241  1.00  0.00    -0.354 N 
ATOM      4  C   UNL A   1      31.482  29.150  25.113  1.00  0.00     0.249 C 
ATOM      5  O   UNL A   1      30.828  30.081  24.632  1.00  0.00    -0.272 OA
ATOM      6  H   UNL A   1      32.105  30.328  26.588  1.00  0.00     0.163 HD
BRANCH   4   7
ATOM      7  C   UNL A   1      31.529  27.778  24.397  1.00  0.00     0.207 C 
ATOM      8  C   UNL A   1      32.282  25.646  25.028  1.00  0.00     0.138 C 
ATOM      9  C   UNL A   1      33.472  26.387  24.435  1.00  0.00     0.037 C 
ATOM     10  O   UNL A   1      31.232  26.619  25.177  1.00  0.00    -0.363 OA
ATOM     11  C   UNL A   1      32.856  27.543  23.695  1.00  0.00     0.045 C 
BRANCH   8  12
ATOM     12  C   UNL A   1      31.796  24.455  24.183  1.00  0.00     0.147 C 
BRANCH  12  13
ATOM     13  N   UNL A   1      31.598  23.263  24.992  1.00  0.00    -0.353 N 
ATOM     14  C   UNL A   1      31.958  21.974  24.739  1.00  0.00     0.224 C 
ATOM     15  O   UNL A   1      31.390  21.083  25.376  1.00  0.00    -0.275 OA
ATOM     16  H   UNL A   1      31.138  23.409  25.851  1.00  0.00     0.163 HD
BRANCH  14  17
ATOM     17  C   UNL A   1      33.096  21.655  23.792  1.00  0.00     0.139 C 
BRANCH  17  18
ATOM     18  C   UNL A   1      34.477  22.072  24.229  1.00  0.00     0.003 A 
ATOM     19  C   UNL A   1      35.080  21.737  25.455  1.00  0.00     0.122 A 
ATOM     20  C   UNL A   1      36.367  22.218  25.750  1.00  0.00     0.047 A 
ATOM     21  C   UNL A   1      37.077  23.003  24.843  1.00  0.00     0.004 A 
ATOM     22  C   UNL A   1      35.216  22.868  23.322  1.00  0.00     0.008 A 
ATOM     23  C   UNL A   1      36.498  23.331  23.625  1.00  0.00     0.001 A 
BRANCH  19  24
ATOM     24  O   UNL A   1      34.516  21.080  26.513  1.00  0.00    -0.496 OA
ATOM     25  C   UNL A   1      34.064  21.837  27.626  1.00  0.00     0.278 C 
ENDBRANCH  19  24
ENDBRANCH  17  18
ENDBRANCH  14  17
ENDBRANCH  12  13
ENDBRANCH   8  12
ENDBRANCH   4   7
ENDBRANCH   2   3
ENDBRANCH   1   2
BRANCH   1  26
ATOM     26  C   UNL A   1      34.977  29.962  28.014  1.00  0.00     0.002 C 
BRANCH  26  27
ATOM     27  C   UNL A   1      35.017  31.445  27.627  1.00  0.00     0.002 C 
BRANCH  27  28
ATOM     28  C   UNL A   1      33.767  32.251  27.996  1.00  0.00     0.021 C 
BRANCH  28  29
ATOM     29  C   UNL A   1      33.953  33.764  27.940  1.00  0.00     0.116 C 
BRANCH  29  30
ATOM     30  N   UNL A   1      33.552  34.403  29.184  1.00  0.00    -0.352 N 
ATOM     31  C   UNL A   1      34.011  34.194  30.460  1.00  0.00     0.251 C 
ATOM     32  H   UNL A   1      32.847  35.084  29.098  1.00  0.00     0.163 HD
ATOM     33  O   UNL A   1      33.399  34.646  31.420  1.00  0.00    -0.269 OA
BRANCH  31  34
ATOM     34  C   UNL A   1      35.247  33.414  30.676  1.00  0.00     0.039 A 
ATOM     35  C   UNL A   1      36.444  33.871  30.118  1.00  0.00     0.014 A 
ATOM     36  C   UNL A   1      35.220  32.221  31.405  1.00  0.00     0.014 A 
ATOM     37  C   UNL A   1      37.626  33.161  30.340  1.00  0.00     0.010 A 
ATOM     38  C   UNL A   1      36.408  31.553  31.682  1.00  0.00     0.010 A 
ATOM     39  C   UNL A   1      37.621  32.012  31.148  1.00  0.00    -0.014 A 
BRANCH  39  40
ATOM     40  C   UNL A   1      38.875  31.276  31.443  1.00  0.00     0.031 A 
ATOM     41  C   UNL A   1      39.287  30.110  30.588  1.00  0.00     0.074 A 
ATOM     42  C   UNL A   1      39.610  31.618  32.518  1.00  0.00     0.049 A 
ATOM     43  N   UNL A   1      40.317  29.313  30.720  1.00  0.00    -0.248 NA
ATOM     44  C   UNL A   1      38.414  29.781  29.449  1.00  0.00     0.031 C 
ATOM     45  C   UNL A   1      39.298  32.706  33.448  1.00  0.00     0.029 A 
ATOM     46  N   UNL A   1      40.771  31.081  33.015  1.00  0.00    -0.354 N 
ATOM     47  C   UNL A   1      40.207  28.382  29.696  1.00  0.00     0.074 A 
ATOM     48  C   UNL A   1      38.985  28.681  28.980  1.00  0.00     0.031 C 
ATOM     49  C   UNL A   1      40.258  32.772  34.385  1.00  0.00     0.029 A 
ATOM     50  C   UNL A   1      41.228  31.709  34.147  1.00  0.00     0.049 A 
ATOM     51  H   UNL A   1      41.233  30.318  32.598  1.00  0.00     0.167 HD
ATOM     52  C   UNL A   1      41.054  27.378  29.367  1.00  0.00     0.031 A 
ATOM     53  C   UNL A   1      42.306  31.454  34.913  1.00  0.00     0.031 A 
ATOM     54  C   UNL A   1      42.275  27.088  30.072  1.00  0.00     0.049 A 
ATOM     55  C   UNL A   1      43.223  30.323  34.538  1.00  0.00     0.074 A 
ATOM     56  C   UNL A   1      43.232  26.133  29.779  1.00  0.00     0.029 A 
ATOM     57  N   UNL A   1      42.702  27.749  31.212  1.00  0.00    -0.354 N 
ATOM     58  N   UNL A   1      43.143  29.499  33.522  1.00  0.00    -0.248 NA
ATOM     59  C   UNL A   1      44.382  30.094  35.411  1.00  0.00     0.031 C 
ATOM     60  C   UNL A   1      44.214  26.181  30.773  1.00  0.00     0.029 A 
ATOM     61  C   UNL A   1      43.895  27.203  31.653  1.00  0.00     0.049 A 
ATOM     62  H   UNL A   1      42.228  28.495  31.645  1.00  0.00     0.167 HD
ATOM     63  C   UNL A   1      44.254  28.671  33.618  1.00  0.00     0.074 A 
ATOM     64  C   UNL A   1      44.999  29.102  34.783  1.00  0.00     0.031 C 
ATOM     65  C   UNL A   1      44.624  27.645  32.814  1.00  0.00     0.031 A 
BRANCH  52  66
ATOM     66  C   UNL A   1      40.684  26.514  28.193  1.00  0.00    -0.014 A 
ATOM     67  C   UNL A   1      41.209  26.762  26.915  1.00  0.00     0.009 A 
ATOM     68  C   UNL A   1      39.829  25.418  28.375  1.00  0.00     0.009 A 
ATOM     69  C   UNL A   1      40.854  25.950  25.835  1.00  0.00     0.001 A 
ATOM     70  C   UNL A   1      39.498  24.591  27.300  1.00  0.00     0.001 A 
ATOM     71  C   UNL A   1      40.002  24.864  26.029  1.00  0.00     0.000 A 
ENDBRANCH  52  66
BRANCH  53  72
ATOM     72  C   UNL A   1      42.587  32.294  36.105  1.00  0.00    -0.014 A 
ATOM     73  C   UNL A   1      42.068  31.944  37.361  1.00  0.00     0.009 A 
ATOM     74  C   UNL A   1      43.374  33.451  35.996  1.00  0.00     0.009 A 
ATOM     75  C   UNL A   1      42.309  32.749  38.477  1.00  0.00     0.001 A 
ATOM     76  C   UNL A   1      43.637  34.240  37.119  1.00  0.00     0.001 A 
ATOM     77  C   UNL A   1      43.096  33.893  38.355  1.00  0.00     0.000 A 
ENDBRANCH  53  72
BRANCH  65  78
ATOM     78  C   UNL A   1      45.906  26.936  33.146  1.00  0.00    -0.014 A 
ATOM     79  C   UNL A   1      45.918  25.811  33.984  1.00  0.00     0.009 A 
ATOM     80  C   UNL A   1      47.109  27.369  32.567  1.00  0.00     0.009 A 
ATOM     81  C   UNL A   1      47.117  25.147  34.255  1.00  0.00     0.001 A 
ATOM     82  C   UNL A   1      48.301  26.688  32.818  1.00  0.00     0.001 A 
ATOM     83  C   UNL A   1      48.305  25.583  33.668  1.00  0.00     0.000 A 
ENDBRANCH  65  78
ENDBRANCH  39  40
ENDBRANCH  31  34
ENDBRANCH  29  30
ENDBRANCH  28  29
ENDBRANCH  27  28
ENDBRANCH  26  27
ENDBRANCH   1  26
TORSDOF 18
ENDMDL
MODEL 3
REMARK VINA RESULT:      -9.9      3.396      8.927
REMARK SMILES COc1ccccc1CC(=O)NC[C@H]1CC[C@H](C(=O)NCCCCCCNC(=O)c2ccc(-c3c4nc(c(-c5ccccc5)c5ccc([nH]5)c(-c5ccccc5)c5nc(c(-c6ccccc6)c6ccc3[nH]6)C=C5)C=C4)cc2)O1
REMARK SMILES IDX 22 1 21 2 20 3 18 4 19 5 17 7 14 8 15 9 78 10 16 11 13 12
REMARK SMILES IDX 12 13 10 14 11 15 9 17 8 18 3 19 4 20 5 21 7 22 6 23 2 24
REMARK SMILES IDX 1 25 23 26 24 27 25 28 26 29 27 30 28 31 29 33 30 34 31 35
REMARK SMILES IDX 77 36 32 37 76 38 33 39 34 40 35 41 70 42 36 43 75 44 69 45
REMARK SMILES IDX 71 46 37 47 74 48 68 49 67 50 38 52 60 53 45 54 59 55 46 56
REMARK SMILES IDX 49 57 58 58 72 59 47 60 48 61 57 63 73 64 50 65 39 66 40 67
REMARK SMILES IDX 44 68 41 69 43 70 42 71 61 72 62 73 66 74 63 75 65 76 64 77
REMARK SMILES IDX 51 78 52 79 56 80 53 81 55 82 54 83
REMARK H PARENT 20 6 12 16 27 32 71 51 49 62
REMARK Flexibility Score: inf
ROOT
ATOM      1  C   UNL A   1      36.547  30.584  28.810  1.00  0.00     0.021 C 
ENDROOT
BRANCH   1   2
ATOM      2  C   UNL A   1      35.947  30.060  27.504  1.00  0.00     0.116 C 
BRANCH   2   3
ATOM      3  N   UNL A   1      34.657  30.656  27.243  1.00  0.00    -0.354 N 
ATOM      4  C   UNL A   1      33.426  30.081  27.131  1.00  0.00     0.249 C 
ATOM      5  O   UNL A   1      32.478  30.826  26.864  1.00  0.00    -0.272 OA
ATOM      6  H   UNL A   1      34.667  31.634  27.126  1.00  0.00     0.163 HD
BRANCH   4   7
ATOM      7  C   UNL A   1      33.210  28.553  27.248  1.00  0.00     0.207 C 
ATOM      8  C   UNL A   1      32.481  26.900  25.750  1.00  0.00     0.138 C 
ATOM      9  C   UNL A   1      31.242  27.476  26.422  1.00  0.00     0.037 C 
ATOM     10  O   UNL A   1      33.580  27.748  26.128  1.00  0.00    -0.363 OA
ATOM     11  C   UNL A   1      31.780  28.203  27.625  1.00  0.00     0.045 C 
BRANCH   8  12
ATOM     12  C   UNL A   1      32.777  25.437  26.126  1.00  0.00     0.147 C 
BRANCH  12  13
ATOM     13  N   UNL A   1      31.665  24.826  26.839  1.00  0.00    -0.353 N 
ATOM     14  C   UNL A   1      31.277  23.522  26.884  1.00  0.00     0.224 C 
ATOM     15  O   UNL A   1      30.124  23.277  27.248  1.00  0.00    -0.275 OA
ATOM     16  H   UNL A   1      31.113  25.446  27.367  1.00  0.00     0.163 HD
BRANCH  14  17
ATOM     17  C   UNL A   1      32.263  22.406  26.608  1.00  0.00     0.139 C 
BRANCH  17  18
ATOM     18  C   UNL A   1      32.234  21.804  25.226  1.00  0.00     0.003 A 
ATOM     19  C   UNL A   1      32.573  20.477  24.908  1.00  0.00     0.122 A 
ATOM     20  C   UNL A   1      32.531  20.051  23.569  1.00  0.00     0.047 A 
ATOM     21  C   UNL A   1      32.135  20.909  22.544  1.00  0.00     0.004 A 
ATOM     22  C   UNL A   1      31.833  22.657  24.170  1.00  0.00     0.008 A 
ATOM     23  C   UNL A   1      31.787  22.217  22.846  1.00  0.00     0.001 A 
BRANCH  19  24
ATOM     24  O   UNL A   1      33.088  19.522  25.740  1.00  0.00    -0.496 OA
ATOM     25  C   UNL A   1      32.528  18.218  25.714  1.00  0.00     0.278 C 
ENDBRANCH  19  24
ENDBRANCH  17  18
ENDBRANCH  14  17
ENDBRANCH  12  13
ENDBRANCH   8  12
ENDBRANCH   4   7
ENDBRANCH   2   3
ENDBRANCH   1   2
BRANCH   1  26
ATOM     26  C   UNL A   1      36.416  29.609  29.984  1.00  0.00     0.002 C 
BRANCH  26  27
ATOM     27  C   UNL A   1      36.436  30.264  31.371  1.00  0.00     0.002 C 
BRANCH  27  28
ATOM     28  C   UNL A   1      35.606  31.546  31.499  1.00  0.00     0.021 C 
BRANCH  28  29
ATOM     29  C   UNL A   1      35.540  32.115  32.913  1.00  0.00     0.116 C 
BRANCH  29  30
ATOM     30  N   UNL A   1      35.887  33.528  32.942  1.00  0.00    -0.352 N 
ATOM     31  C   UNL A   1      37.074  34.141  32.633  1.00  0.00     0.251 C 
ATOM     32  H   UNL A   1      35.163  34.132  33.225  1.00  0.00     0.163 HD
ATOM     33  O   UNL A   1      37.264  35.313  32.938  1.00  0.00    -0.269 OA
BRANCH  31  34
ATOM     34  C   UNL A   1      38.132  33.382  31.934  1.00  0.00     0.039 A 
ATOM     35  C   UNL A   1      38.238  33.488  30.545  1.00  0.00     0.014 A 
ATOM     36  C   UNL A   1      39.000  32.549  32.646  1.00  0.00     0.014 A 
ATOM     37  C   UNL A   1      39.252  32.801  29.875  1.00  0.00     0.010 A 
ATOM     38  C   UNL A   1      40.051  31.920  31.986  1.00  0.00     0.010 A 
ATOM     39  C   UNL A   1      40.183  32.035  30.594  1.00  0.00    -0.014 A 
BRANCH  39  40
ATOM     40  C   UNL A   1      41.302  31.343  29.907  1.00  0.00     0.031 A 
ATOM     41  C   UNL A   1      42.599  32.062  29.661  1.00  0.00     0.074 A 
ATOM     42  C   UNL A   1      41.129  30.088  29.451  1.00  0.00     0.049 A 
ATOM     43  N   UNL A   1      43.668  31.644  29.032  1.00  0.00    -0.248 NA
ATOM     44  C   UNL A   1      42.700  33.442  30.165  1.00  0.00     0.031 C 
ATOM     45  C   UNL A   1      39.905  29.295  29.593  1.00  0.00     0.029 A 
ATOM     46  N   UNL A   1      41.983  29.259  28.768  1.00  0.00    -0.354 N 
ATOM     47  C   UNL A   1      44.558  32.709  29.051  1.00  0.00     0.074 A 
ATOM     48  C   UNL A   1      43.888  33.810  29.708  1.00  0.00     0.031 C 
ATOM     49  C   UNL A   1      40.098  28.087  29.039  1.00  0.00     0.029 A 
ATOM     50  C   UNL A   1      41.440  28.034  28.468  1.00  0.00     0.049 A 
ATOM     51  H   UNL A   1      42.899  29.519  28.516  1.00  0.00     0.167 HD
ATOM     52  C   UNL A   1      45.827  32.764  28.581  1.00  0.00     0.031 A 
ATOM     53  C   UNL A   1      41.961  26.986  27.803  1.00  0.00     0.031 A 
ATOM     54  C   UNL A   1      46.498  31.666  27.937  1.00  0.00     0.049 A 
ATOM     55  C   UNL A   1      43.365  27.077  27.274  1.00  0.00     0.074 A 
ATOM     56  C   UNL A   1      47.803  31.601  27.483  1.00  0.00     0.029 A 
ATOM     57  N   UNL A   1      45.913  30.442  27.656  1.00  0.00    -0.354 N 
ATOM     58  N   UNL A   1      44.220  28.067  27.366  1.00  0.00    -0.248 NA
ATOM     59  C   UNL A   1      43.880  25.902  26.557  1.00  0.00     0.031 C 
ATOM     60  C   UNL A   1      47.992  30.355  26.878  1.00  0.00     0.029 A 
ATOM     61  C   UNL A   1      46.822  29.625  27.006  1.00  0.00     0.049 A 
ATOM     62  H   UNL A   1      44.989  30.191  27.883  1.00  0.00     0.167 HD
ATOM     63  C   UNL A   1      45.379  27.625  26.744  1.00  0.00     0.074 A 
ATOM     64  C   UNL A   1      45.125  26.273  26.291  1.00  0.00     0.031 C 
ATOM     65  C   UNL A   1      46.552  28.282  26.563  1.00  0.00     0.031 A 
BRANCH  52  66
ATOM     66  C   UNL A   1      46.571  34.061  28.740  1.00  0.00    -0.014 A 
ATOM     67  C   UNL A   1      46.514  35.058  27.753  1.00  0.00     0.009 A 
ATOM     68  C   UNL A   1      47.308  34.304  29.909  1.00  0.00     0.009 A 
ATOM     69  C   UNL A   1      47.213  36.256  27.917  1.00  0.00     0.001 A 
ATOM     70  C   UNL A   1      47.982  35.515  30.083  1.00  0.00     0.001 A 
ATOM     71  C   UNL A   1      47.942  36.485  29.083  1.00  0.00     0.000 A 
ENDBRANCH  52  66
BRANCH  53  72
ATOM     72  C   UNL A   1      41.157  25.752  27.610  1.00  0.00    -0.014 A 
ATOM     73  C   UNL A   1      41.443  24.593  28.348  1.00  0.00     0.009 A 
ATOM     74  C   UNL A   1      40.100  25.724  26.686  1.00  0.00     0.009 A 
ATOM     75  C   UNL A   1      40.705  23.425  28.147  1.00  0.00     0.001 A 
ATOM     76  C   UNL A   1      39.345  24.562  26.507  1.00  0.00     0.001 A 
ATOM     77  C   UNL A   1      39.655  23.412  27.231  1.00  0.00     0.000 A 
ENDBRANCH  53  72
BRANCH  65  78
ATOM     78  C   UNL A   1      47.659  27.537  25.872  1.00  0.00    -0.014 A 
ATOM     79  C   UNL A   1      47.786  27.555  24.475  1.00  0.00     0.009 A 
ATOM     80  C   UNL A   1      48.619  26.854  26.636  1.00  0.00     0.009 A 
ATOM     81  C   UNL A   1      48.841  26.882  23.855  1.00  0.00     0.001 A 
ATOM     82  C   UNL A   1      49.687  26.206  26.015  1.00  0.00     0.001 A 
ATOM     83  C   UNL A   1      49.792  26.214  24.625  1.00  0.00     0.000 A 
ENDBRANCH  65  78
ENDBRANCH  39  40
ENDBRANCH  31  34
ENDBRANCH  29  30
ENDBRANCH  28  29
ENDBRANCH  27  28
ENDBRANCH  26  27
ENDBRANCH   1  26
TORSDOF 18
ENDMDL
