MODEL 1
REMARK VINA RESULT:     -11.4      0.000      0.000
REMARK SMILES CC(C)C(=O)Nc1ccc2c([C@H](C(=O)NCCCCCCNC(=O)c3ccc(-c4c5nc(c(-c6ccccc6)c6ccc([nH]6)c(-c6ccccc6)c6nc(c(-c7ccccc7)c7ccc4[nH]7)C=C6)C=C5)cc3)[NH+]3CC[NH+](CC(=O)N(C)C)CC3)c[nH]c2c1
REMARK SMILES IDX 18 1 17 2 16 3 15 4 13 5 14 6 12 8 11 9 7 10 8 11 88 12 9 13
REMARK SMILES IDX 87 14 10 15 86 16 85 17 6 19 4 20 5 21 2 23 1 24 3 25 73 26
REMARK SMILES IDX 74 27 84 28 75 30 83 31 76 32 77 34 78 35 79 36 80 37 81 38
REMARK SMILES IDX 82 39 19 40 20 41 21 42 22 43 23 44 24 46 25 47 26 48 72 49
REMARK SMILES IDX 27 50 71 51 28 52 29 53 30 54 65 55 31 56 70 57 64 58 66 59
REMARK SMILES IDX 32 60 69 61 63 62 62 63 33 65 55 66 40 67 54 68 41 69 44 70
REMARK SMILES IDX 53 71 67 72 42 73 43 74 52 76 68 77 45 78 34 79 35 80 39 81
REMARK SMILES IDX 36 82 38 83 37 84 56 85 57 86 61 87 58 88 60 89 59 90 46 91
REMARK SMILES IDX 47 92 51 93 48 94 50 95 49 96
REMARK H PARENT 15 7 86 18 6 22 73 29 76 33 22 45 66 64 44 75
REMARK Flexibility Score: inf
ROOT
ATOM      1  C   UNL A   1      32.111  29.231  26.977  1.00  0.00     0.002 C 
ENDROOT
BRANCH   1   2
ATOM      2  C   UNL A   1      32.739  28.232  26.001  1.00  0.00     0.021 C 
BRANCH   2   3
ATOM      3  C   UNL A   1      32.730  26.780  26.478  1.00  0.00     0.116 C 
BRANCH   3   4
ATOM      4  N   UNL A   1      33.951  26.082  26.115  1.00  0.00    -0.351 N 
ATOM      5  C   UNL A   1      34.204  25.171  25.123  1.00  0.00     0.283 C 
ATOM      6  O   UNL A   1      35.373  24.797  25.002  1.00  0.00    -0.268 OA
ATOM      7  H   UNL A   1      34.729  26.298  26.680  1.00  0.00     0.163 HD
BRANCH   5   8
ATOM      8  C   UNL A   1      33.043  24.656  24.256  1.00  0.00     0.308 C 
BRANCH   8   9
ATOM      9  C   UNL A   1      32.509  25.675  23.278  1.00  0.00     0.044 A 
ATOM     10  C   UNL A   1      28.932  27.844  23.139  1.00  0.00     0.043 A 
ATOM     11  C   UNL A   1      28.902  26.697  23.922  1.00  0.00     0.027 A 
ATOM     12  C   UNL A   1      29.997  28.084  22.264  1.00  0.00     0.052 A 
ATOM     13  C   UNL A   1      30.021  25.874  24.024  1.00  0.00     0.013 A 
ATOM     14  C   UNL A   1      31.121  27.255  22.386  1.00  0.00     0.048 A 
ATOM     15  C   UNL A   1      31.174  26.196  23.289  1.00  0.00     0.009 A 
ATOM     16  N   UNL A   1      32.336  27.295  21.746  1.00  0.00    -0.361 N 
ATOM     17  C   UNL A   1      33.187  26.373  22.294  1.00  0.00     0.094 A 
ATOM     18  H   UNL A   1      32.562  27.899  21.003  1.00  0.00     0.166 HD
BRANCH  10  19
ATOM     19  N   UNL A   1      27.901  28.782  23.194  1.00  0.00    -0.326 N 
ATOM     20  C   UNL A   1      27.955  30.138  23.351  1.00  0.00     0.226 C 
ATOM     21  O   UNL A   1      26.884  30.728  23.541  1.00  0.00    -0.274 OA
ATOM     22  H   UNL A   1      26.994  28.410  23.105  1.00  0.00     0.169 HD
BRANCH  20  23
ATOM     23  C   UNL A   1      29.244  30.964  23.180  1.00  0.00     0.072 C 
ATOM     24  C   UNL A   1      29.108  32.239  22.358  1.00  0.00     0.018 C 
ATOM     25  C   UNL A   1      30.020  31.182  24.478  1.00  0.00     0.018 C 
ENDBRANCH  20  23
ENDBRANCH  10  19
ENDBRANCH   8   9
BRANCH   8  26
ATOM     26  N   UNL A   1      33.310  23.348  23.630  1.00  0.00    -0.312 N 
ATOM     27  C   UNL A   1      34.455  22.581  24.134  1.00  0.00     0.325 C 
ATOM     28  C   UNL A   1      32.114  22.524  23.447  1.00  0.00     0.325 C 
ATOM     29  H   UNL A   1      33.624  23.634  22.704  1.00  0.00     0.349 HD
ATOM     30  C   UNL A   1      34.163  21.482  25.183  1.00  0.00     0.325 C 
ATOM     31  C   UNL A   1      31.834  21.457  24.531  1.00  0.00     0.325 C 
ATOM     32  N   UNL A   1      32.976  20.646  24.947  1.00  0.00    -0.318 N 
ATOM     33  H   UNL A   1      32.709  20.246  25.847  1.00  0.00     0.348 HD
BRANCH  32  34
ATOM     34  C   UNL A   1      33.225  19.423  24.163  1.00  0.00     0.364 C 
BRANCH  34  35
ATOM     35  C   UNL A   1      32.963  18.108  24.905  1.00  0.00     0.277 C 
ATOM     36  O   UNL A   1      32.295  18.122  25.945  1.00  0.00    -0.268 OA
ATOM     37  N   UNL A   1      33.517  16.927  24.425  1.00  0.00    -0.344 N 
ATOM     38  C   UNL A   1      34.057  16.706  23.093  1.00  0.00     0.146 C 
ATOM     39  C   UNL A   1      33.527  15.780  25.320  1.00  0.00     0.146 C 
ENDBRANCH  34  35
ENDBRANCH  32  34
ENDBRANCH   8  26
ENDBRANCH   5   8
ENDBRANCH   3   4
ENDBRANCH   2   3
ENDBRANCH   1   2
BRANCH   1  40
ATOM     40  C   UNL A   1      32.956  30.473  27.270  1.00  0.00     0.002 C 
BRANCH  40  41
ATOM     41  C   UNL A   1      32.177  31.786  27.324  1.00  0.00     0.021 C 
BRANCH  41  42
ATOM     42  C   UNL A   1      33.019  33.022  27.047  1.00  0.00     0.116 C 
BRANCH  42  43
ATOM     43  N   UNL A   1      32.629  34.146  27.882  1.00  0.00    -0.352 N 
ATOM     44  C   UNL A   1      33.203  34.589  29.049  1.00  0.00     0.251 C 
ATOM     45  H   UNL A   1      31.849  34.660  27.569  1.00  0.00     0.163 HD
ATOM     46  O   UNL A   1      32.645  35.428  29.741  1.00  0.00    -0.269 OA
BRANCH  44  47
ATOM     47  C   UNL A   1      34.500  34.020  29.469  1.00  0.00     0.039 A 
ATOM     48  C   UNL A   1      34.534  33.135  30.548  1.00  0.00     0.014 A 
ATOM     49  C   UNL A   1      35.672  34.345  28.780  1.00  0.00     0.014 A 
ATOM     50  C   UNL A   1      35.742  32.533  30.905  1.00  0.00     0.010 A 
ATOM     51  C   UNL A   1      36.855  33.681  29.082  1.00  0.00     0.010 A 
ATOM     52  C   UNL A   1      36.905  32.778  30.155  1.00  0.00    -0.014 A 
BRANCH  52  53
ATOM     53  C   UNL A   1      38.193  32.120  30.487  1.00  0.00     0.031 A 
ATOM     54  C   UNL A   1      39.162  32.801  31.414  1.00  0.00     0.074 A 
ATOM     55  C   UNL A   1      38.517  30.949  29.909  1.00  0.00     0.049 A 
ATOM     56  N   UNL A   1      40.366  32.429  31.769  1.00  0.00    -0.248 NA
ATOM     57  C   UNL A   1      38.733  34.082  31.999  1.00  0.00     0.031 C 
ATOM     58  C   UNL A   1      37.678  30.202  28.970  1.00  0.00     0.029 A 
ATOM     59  N   UNL A   1      39.650  30.182  30.023  1.00  0.00    -0.354 N 
ATOM     60  C   UNL A   1      40.841  33.438  32.598  1.00  0.00     0.074 A 
ATOM     61  C   UNL A   1      39.822  34.462  32.648  1.00  0.00     0.031 C 
ATOM     62  C   UNL A   1      38.313  29.073  28.616  1.00  0.00     0.029 A 
ATOM     63  C   UNL A   1      39.620  29.037  29.264  1.00  0.00     0.049 A 
ATOM     64  H   UNL A   1      40.413  30.430  30.594  1.00  0.00     0.167 HD
ATOM     65  C   UNL A   1      42.013  33.497  33.275  1.00  0.00     0.031 A 
ATOM     66  C   UNL A   1      40.545  28.073  29.102  1.00  0.00     0.031 A 
ATOM     67  C   UNL A   1      43.023  32.475  33.229  1.00  0.00     0.049 A 
ATOM     68  C   UNL A   1      41.851  28.177  29.839  1.00  0.00     0.074 A 
ATOM     69  C   UNL A   1      44.221  32.417  33.918  1.00  0.00     0.029 A 
ATOM     70  N   UNL A   1      42.953  31.331  32.448  1.00  0.00    -0.354 N 
ATOM     71  N   UNL A   1      42.260  29.106  30.670  1.00  0.00    -0.248 NA
ATOM     72  C   UNL A   1      42.819  27.091  29.625  1.00  0.00     0.031 C 
ATOM     73  C   UNL A   1      44.905  31.268  33.505  1.00  0.00     0.029 A 
ATOM     74  C   UNL A   1      44.101  30.576  32.615  1.00  0.00     0.049 A 
ATOM     75  H   UNL A   1      42.199  31.093  31.862  1.00  0.00     0.167 HD
ATOM     76  C   UNL A   1      43.517  28.701  31.103  1.00  0.00     0.074 A 
ATOM     77  C   UNL A   1      43.794  27.435  30.454  1.00  0.00     0.031 C 
ATOM     78  C   UNL A   1      44.363  29.318  31.963  1.00  0.00     0.031 A 
BRANCH  65  79
ATOM     79  C   UNL A   1      42.265  34.720  34.115  1.00  0.00    -0.014 A 
ATOM     80  C   UNL A   1      42.846  35.876  33.568  1.00  0.00     0.009 A 
ATOM     81  C   UNL A   1      41.895  34.725  35.468  1.00  0.00     0.009 A 
ATOM     82  C   UNL A   1      43.089  36.994  34.368  1.00  0.00     0.001 A 
ATOM     83  C   UNL A   1      42.107  35.856  36.258  1.00  0.00     0.001 A 
ATOM     84  C   UNL A   1      42.714  36.986  35.711  1.00  0.00     0.000 A 
ENDBRANCH  65  79
BRANCH  66  85
ATOM     85  C   UNL A   1      40.267  26.915  28.210  1.00  0.00    -0.014 A 
ATOM     86  C   UNL A   1      39.535  25.814  28.681  1.00  0.00     0.009 A 
ATOM     87  C   UNL A   1      40.740  26.898  26.889  1.00  0.00     0.009 A 
ATOM     88  C   UNL A   1      39.310  24.708  27.857  1.00  0.00     0.001 A 
ATOM     89  C   UNL A   1      40.486  25.807  26.056  1.00  0.00     0.001 A 
ATOM     90  C   UNL A   1      39.781  24.708  26.545  1.00  0.00     0.000 A 
ENDBRANCH  66  85
BRANCH  78  91
ATOM     91  C   UNL A   1      45.650  28.614  32.291  1.00  0.00    -0.014 A 
ATOM     92  C   UNL A   1      45.735  27.691  33.345  1.00  0.00     0.009 A 
ATOM     93  C   UNL A   1      46.786  28.848  31.499  1.00  0.00     0.009 A 
ATOM     94  C   UNL A   1      46.941  27.043  33.619  1.00  0.00     0.001 A 
ATOM     95  C   UNL A   1      47.981  28.174  31.754  1.00  0.00     0.001 A 
ATOM     96  C   UNL A   1      48.060  27.280  32.821  1.00  0.00     0.000 A 
ENDBRANCH  78  91
ENDBRANCH  52  53
ENDBRANCH  44  47
ENDBRANCH  42  43
ENDBRANCH  41  42
ENDBRANCH  40  41
ENDBRANCH   1  40
TORSDOF 19
ENDMDL
MODEL 2
REMARK VINA RESULT:     -11.4      1.060      5.632
REMARK SMILES CC(C)C(=O)Nc1ccc2c([C@H](C(=O)NCCCCCCNC(=O)c3ccc(-c4c5nc(c(-c6ccccc6)c6ccc([nH]6)c(-c6ccccc6)c6nc(c(-c7ccccc7)c7ccc4[nH]7)C=C6)C=C5)cc3)[NH+]3CC[NH+](CC(=O)N(C)C)CC3)c[nH]c2c1
REMARK SMILES IDX 18 1 17 2 16 3 15 4 13 5 14 6 12 8 11 9 7 10 8 11 88 12 9 13
REMARK SMILES IDX 87 14 10 15 86 16 85 17 6 19 4 20 5 21 2 23 1 24 3 25 73 26
REMARK SMILES IDX 74 27 84 28 75 30 83 31 76 32 77 34 78 35 79 36 80 37 81 38
REMARK SMILES IDX 82 39 19 40 20 41 21 42 22 43 23 44 24 46 25 47 26 48 72 49
REMARK SMILES IDX 27 50 71 51 28 52 29 53 30 54 65 55 31 56 70 57 64 58 66 59
REMARK SMILES IDX 32 60 69 61 63 62 62 63 33 65 55 66 40 67 54 68 41 69 44 70
REMARK SMILES IDX 53 71 67 72 42 73 43 74 52 76 68 77 45 78 34 79 35 80 39 81
REMARK SMILES IDX 36 82 38 83 37 84 56 85 57 86 61 87 58 88 60 89 59 90 46 91
REMARK SMILES IDX 47 92 51 93 48 94 50 95 49 96
REMARK H PARENT 15 7 86 18 6 22 73 29 76 33 22 45 66 64 44 75
REMARK Flexibility Score: inf
ROOT
ATOM      1  C   UNL A   1      33.857  28.965  27.436  1.00  0.00     0.002 C 
ENDROOT
BRANCH   1   2
ATOM      2  C   UNL A   1      33.647  28.416  26.023  1.00  0.00     0.021 C 
BRANCH   2   3
ATOM      3  C   UNL A   1      33.874  26.912  25.880  1.00  0.00     0.116 C 
BRANCH   3   4
ATOM      4  N   UNL A   1      34.168  26.533  24.509  1.00  0.00    -0.351 N 
ATOM      5  C   UNL A   1      33.494  25.716  23.639  1.00  0.00     0.283 C 
ATOM      6  O   UNL A   1      33.944  25.639  22.493  1.00  0.00    -0.268 OA
ATOM      7  H   UNL A   1      34.991  26.930  24.143  1.00  0.00     0.163 HD
BRANCH   5   8
ATOM      8  C   UNL A   1      32.263  24.938  24.132  1.00  0.00     0.308 C 
BRANCH   8   9
ATOM      9  C   UNL A   1      30.977  25.729  24.084  1.00  0.00     0.044 A 
ATOM     10  C   UNL A   1      29.931  29.292  22.153  1.00  0.00     0.043 A 
ATOM     11  C   UNL A   1      31.294  29.092  22.335  1.00  0.00     0.027 A 
ATOM     12  C   UNL A   1      28.997  28.485  22.812  1.00  0.00     0.052 A 
ATOM     13  C   UNL A   1      31.767  27.958  22.992  1.00  0.00     0.013 A 
ATOM     14  C   UNL A   1      29.486  27.342  23.458  1.00  0.00     0.048 A 
ATOM     15  C   UNL A   1      30.843  27.034  23.508  1.00  0.00     0.009 A 
ATOM     16  N   UNL A   1      28.822  26.326  24.102  1.00  0.00    -0.361 N 
ATOM     17  C   UNL A   1      29.702  25.338  24.454  1.00  0.00     0.094 A 
ATOM     18  H   UNL A   1      27.856  26.310  24.284  1.00  0.00     0.166 HD
BRANCH  10  19
ATOM     19  N   UNL A   1      29.455  30.305  21.320  1.00  0.00    -0.326 N 
ATOM     20  C   UNL A   1      28.789  31.456  21.631  1.00  0.00     0.226 C 
ATOM     21  O   UNL A   1      28.320  32.110  20.690  1.00  0.00    -0.274 OA
ATOM     22  H   UNL A   1      29.625  30.170  20.360  1.00  0.00     0.169 HD
BRANCH  20  23
ATOM     23  C   UNL A   1      28.705  32.032  23.057  1.00  0.00     0.072 C 
ATOM     24  C   UNL A   1      28.966  33.528  23.182  1.00  0.00     0.018 C 
ATOM     25  C   UNL A   1      27.470  31.585  23.837  1.00  0.00     0.018 C 
ENDBRANCH  20  23
ENDBRANCH  10  19
ENDBRANCH   8   9
BRANCH   8  26
ATOM     26  N   UNL A   1      32.133  23.598  23.531  1.00  0.00    -0.312 N 
ATOM     27  C   UNL A   1      33.370  22.905  23.156  1.00  0.00     0.325 C 
ATOM     28  C   UNL A   1      31.185  22.726  24.228  1.00  0.00     0.325 C 
ATOM     29  H   UNL A   1      31.722  23.828  22.627  1.00  0.00     0.349 HD
ATOM     30  C   UNL A   1      33.936  21.875  24.161  1.00  0.00     0.325 C 
ATOM     31  C   UNL A   1      31.781  21.731  25.250  1.00  0.00     0.325 C 
ATOM     32  N   UNL A   1      32.961  20.987  24.813  1.00  0.00    -0.318 N 
ATOM     33  H   UNL A   1      33.395  20.643  25.669  1.00  0.00     0.348 HD
BRANCH  32  34
ATOM     34  C   UNL A   1      32.705  19.720  24.104  1.00  0.00     0.364 C 
BRANCH  34  35
ATOM     35  C   UNL A   1      32.873  18.454  24.951  1.00  0.00     0.277 C 
ATOM     36  O   UNL A   1      32.474  18.450  26.122  1.00  0.00    -0.268 OA
ATOM     37  N   UNL A   1      33.510  17.344  24.408  1.00  0.00    -0.344 N 
ATOM     38  C   UNL A   1      33.756  17.095  22.996  1.00  0.00     0.146 C 
ATOM     39  C   UNL A   1      33.940  16.303  25.329  1.00  0.00     0.146 C 
ENDBRANCH  34  35
ENDBRANCH  32  34
ENDBRANCH   8  26
ENDBRANCH   5   8
ENDBRANCH   3   4
ENDBRANCH   2   3
ENDBRANCH   1   2
BRANCH   1  40
ATOM     40  C   UNL A   1      34.263  30.440  27.507  1.00  0.00     0.002 C 
BRANCH  40  41
ATOM     41  C   UNL A   1      33.102  31.422  27.651  1.00  0.00     0.021 C 
BRANCH  41  42
ATOM     42  C   UNL A   1      33.373  32.798  27.060  1.00  0.00     0.116 C 
BRANCH  42  43
ATOM     43  N   UNL A   1      32.859  33.864  27.903  1.00  0.00    -0.352 N 
ATOM     44  C   UNL A   1      33.340  34.313  29.109  1.00  0.00     0.251 C 
ATOM     45  H   UNL A   1      32.060  34.329  27.564  1.00  0.00     0.163 HD
ATOM     46  O   UNL A   1      32.687  35.088  29.793  1.00  0.00    -0.269 OA
BRANCH  44  47
ATOM     47  C   UNL A   1      34.653  33.827  29.581  1.00  0.00     0.039 A 
ATOM     48  C   UNL A   1      34.702  32.954  30.669  1.00  0.00     0.014 A 
ATOM     49  C   UNL A   1      35.827  34.219  28.932  1.00  0.00     0.014 A 
ATOM     50  C   UNL A   1      35.931  32.430  31.075  1.00  0.00     0.010 A 
ATOM     51  C   UNL A   1      37.037  33.631  29.282  1.00  0.00     0.010 A 
ATOM     52  C   UNL A   1      37.103  32.741  30.365  1.00  0.00    -0.014 A 
BRANCH  52  53
ATOM     53  C   UNL A   1      38.415  32.165  30.749  1.00  0.00     0.031 A 
ATOM     54  C   UNL A   1      38.880  30.879  30.124  1.00  0.00     0.074 A 
ATOM     55  C   UNL A   1      39.157  32.761  31.702  1.00  0.00     0.049 A 
ATOM     56  N   UNL A   1      39.954  30.176  30.378  1.00  0.00    -0.248 NA
ATOM     57  C   UNL A   1      38.007  30.289  29.095  1.00  0.00     0.031 C 
ATOM     58  C   UNL A   1      38.804  33.995  32.407  1.00  0.00     0.029 A 
ATOM     59  N   UNL A   1      40.363  32.400  32.248  1.00  0.00    -0.354 N 
ATOM     60  C   UNL A   1      39.874  29.057  29.558  1.00  0.00     0.074 A 
ATOM     61  C   UNL A   1      38.622  29.145  28.841  1.00  0.00     0.031 C 
ATOM     62  C   UNL A   1      39.786  34.303  33.271  1.00  0.00     0.029 A 
ATOM     63  C   UNL A   1      40.812  33.266  33.215  1.00  0.00     0.049 A 
ATOM     64  H   UNL A   1      40.860  31.595  31.973  1.00  0.00     0.167 HD
ATOM     65  C   UNL A   1      40.774  28.058  29.399  1.00  0.00     0.031 A 
ATOM     66  C   UNL A   1      41.920  33.225  33.979  1.00  0.00     0.031 A 
ATOM     67  C   UNL A   1      42.022  27.976  30.108  1.00  0.00     0.049 A 
ATOM     68  C   UNL A   1      42.888  32.087  33.806  1.00  0.00     0.074 A 
ATOM     69  C   UNL A   1      43.024  27.030  29.981  1.00  0.00     0.029 A 
ATOM     70  N   UNL A   1      42.438  28.873  31.079  1.00  0.00    -0.354 N 
ATOM     71  N   UNL A   1      42.829  31.070  32.981  1.00  0.00    -0.248 NA
ATOM     72  C   UNL A   1      44.082  32.100  34.664  1.00  0.00     0.031 C 
ATOM     73  C   UNL A   1      44.018  27.321  30.921  1.00  0.00     0.029 A 
ATOM     74  C   UNL A   1      43.669  28.488  31.581  1.00  0.00     0.049 A 
ATOM     75  H   UNL A   1      41.932  29.667  31.368  1.00  0.00     0.167 HD
ATOM     76  C   UNL A   1      43.992  30.340  33.196  1.00  0.00     0.074 A 
ATOM     77  C   UNL A   1      44.743  31.041  34.218  1.00  0.00     0.031 C 
ATOM     78  C   UNL A   1      44.404  29.195  32.598  1.00  0.00     0.031 A 
BRANCH  65  79
ATOM     79  C   UNL A   1      40.427  26.964  28.425  1.00  0.00    -0.014 A 
ATOM     80  C   UNL A   1      39.626  25.874  28.804  1.00  0.00     0.009 A 
ATOM     81  C   UNL A   1      40.889  27.036  27.102  1.00  0.00     0.009 A 
ATOM     82  C   UNL A   1      39.330  24.859  27.890  1.00  0.00     0.001 A 
ATOM     83  C   UNL A   1      40.563  26.039  26.181  1.00  0.00     0.001 A 
ATOM     84  C   UNL A   1      39.794  24.946  26.579  1.00  0.00     0.000 A 
ENDBRANCH  65  79
BRANCH  66  85
ATOM     85  C   UNL A   1      42.183  34.302  34.970  1.00  0.00    -0.014 A 
ATOM     86  C   UNL A   1      42.907  35.447  34.603  1.00  0.00     0.009 A 
ATOM     87  C   UNL A   1      41.724  34.187  36.292  1.00  0.00     0.009 A 
ATOM     88  C   UNL A   1      43.191  36.439  35.545  1.00  0.00     0.001 A 
ATOM     89  C   UNL A   1      41.980  35.195  37.224  1.00  0.00     0.001 A 
ATOM     90  C   UNL A   1      42.723  36.315  36.852  1.00  0.00     0.000 A 
ENDBRANCH  66  85
BRANCH  78  91
ATOM     91  C   UNL A   1      45.747  28.651  32.998  1.00  0.00    -0.014 A 
ATOM     92  C   UNL A   1      45.884  27.740  34.056  1.00  0.00     0.009 A 
ATOM     93  C   UNL A   1      46.888  29.026  32.271  1.00  0.00     0.009 A 
ATOM     94  C   UNL A   1      47.143  27.242  34.399  1.00  0.00     0.001 A 
ATOM     95  C   UNL A   1      48.140  28.501  32.594  1.00  0.00     0.001 A 
ATOM     96  C   UNL A   1      48.268  27.617  33.664  1.00  0.00     0.000 A 
ENDBRANCH  78  91
ENDBRANCH  52  53
ENDBRANCH  44  47
ENDBRANCH  42  43
ENDBRANCH  41  42
ENDBRANCH  40  41
ENDBRANCH   1  40
TORSDOF 19
ENDMDL
MODEL 3
REMARK VINA RESULT:     -11.4      2.926      9.727
REMARK SMILES CC(C)C(=O)Nc1ccc2c([C@H](C(=O)NCCCCCCNC(=O)c3ccc(-c4c5nc(c(-c6ccccc6)c6ccc([nH]6)c(-c6ccccc6)c6nc(c(-c7ccccc7)c7ccc4[nH]7)C=C6)C=C5)cc3)[NH+]3CC[NH+](CC(=O)N(C)C)CC3)c[nH]c2c1
REMARK SMILES IDX 18 1 17 2 16 3 15 4 13 5 14 6 12 8 11 9 7 10 8 11 88 12 9 13
REMARK SMILES IDX 87 14 10 15 86 16 85 17 6 19 4 20 5 21 2 23 1 24 3 25 73 26
REMARK SMILES IDX 74 27 84 28 75 30 83 31 76 32 77 34 78 35 79 36 80 37 81 38
REMARK SMILES IDX 82 39 19 40 20 41 21 42 22 43 23 44 24 46 25 47 26 48 72 49
REMARK SMILES IDX 27 50 71 51 28 52 29 53 30 54 65 55 31 56 70 57 64 58 66 59
REMARK SMILES IDX 32 60 69 61 63 62 62 63 33 65 55 66 40 67 54 68 41 69 44 70
REMARK SMILES IDX 53 71 67 72 42 73 43 74 52 76 68 77 45 78 34 79 35 80 39 81
REMARK SMILES IDX 36 82 38 83 37 84 56 85 57 86 61 87 58 88 60 89 59 90 46 91
REMARK SMILES IDX 47 92 51 93 48 94 50 95 49 96
REMARK H PARENT 15 7 86 18 6 22 73 29 76 33 22 45 66 64 44 75
REMARK Flexibility Score: inf
ROOT
ATOM      1  C   UNL A   1      37.169  21.695  25.362  1.00  0.00     0.002 C 
ENDROOT
BRANCH   1   2
ATOM      2  C   UNL A   1      36.954  22.274  23.961  1.00  0.00     0.021 C 
BRANCH   2   3
ATOM      3  C   UNL A   1      35.988  23.456  23.899  1.00  0.00     0.116 C 
BRANCH   3   4
ATOM      4  N   UNL A   1      35.174  23.557  25.098  1.00  0.00    -0.351 N 
ATOM      5  C   UNL A   1      33.816  23.642  25.257  1.00  0.00     0.283 C 
ATOM      6  O   UNL A   1      33.394  23.639  26.416  1.00  0.00    -0.268 OA
ATOM      7  H   UNL A   1      35.686  23.567  25.940  1.00  0.00     0.163 HD
BRANCH   5   8
ATOM      8  C   UNL A   1      32.916  23.764  24.015  1.00  0.00     0.308 C 
BRANCH   8   9
ATOM      9  C   UNL A   1      32.642  22.448  23.326  1.00  0.00     0.044 A 
ATOM     10  C   UNL A   1      32.524  18.505  24.722  1.00  0.00     0.043 A 
ATOM     11  C   UNL A   1      33.227  19.398  25.522  1.00  0.00     0.027 A 
ATOM     12  C   UNL A   1      32.132  18.861  23.427  1.00  0.00     0.052 A 
ATOM     13  C   UNL A   1      33.363  20.733  25.149  1.00  0.00     0.013 A 
ATOM     14  C   UNL A   1      32.265  20.210  23.071  1.00  0.00     0.048 A 
ATOM     15  C   UNL A   1      32.816  21.160  23.927  1.00  0.00     0.009 A 
ATOM     16  N   UNL A   1      31.890  20.873  21.927  1.00  0.00    -0.361 N 
ATOM     17  C   UNL A   1      32.082  22.220  22.081  1.00  0.00     0.094 A 
ATOM     18  H   UNL A   1      31.536  20.443  21.117  1.00  0.00     0.166 HD
BRANCH  10  19
ATOM     19  N   UNL A   1      32.201  17.226  25.180  1.00  0.00    -0.326 N 
ATOM     20  C   UNL A   1      32.820  16.030  24.954  1.00  0.00     0.226 C 
ATOM     21  O   UNL A   1      32.233  15.009  25.334  1.00  0.00    -0.274 OA
ATOM     22  H   UNL A   1      31.403  17.179  25.755  1.00  0.00     0.169 HD
BRANCH  20  23
ATOM     23  C   UNL A   1      34.241  15.904  24.374  1.00  0.00     0.072 C 
ATOM     24  C   UNL A   1      34.467  16.575  23.025  1.00  0.00     0.018 C 
ATOM     25  C   UNL A   1      35.352  16.214  25.377  1.00  0.00     0.018 C 
ENDBRANCH  20  23
ENDBRANCH  10  19
ENDBRANCH   8   9
BRANCH   8  26
ATOM     26  N   UNL A   1      31.692  24.553  24.249  1.00  0.00    -0.312 N 
ATOM     27  C   UNL A   1      31.803  25.724  25.125  1.00  0.00     0.325 C 
ATOM     28  C   UNL A   1      30.924  24.826  23.033  1.00  0.00     0.325 C 
ATOM     29  H   UNL A   1      31.145  23.903  24.812  1.00  0.00     0.349 HD
ATOM     30  C   UNL A   1      31.987  27.101  24.445  1.00  0.00     0.325 C 
ATOM     31  C   UNL A   1      31.156  26.199  22.360  1.00  0.00     0.325 C 
ATOM     32  N   UNL A   1      31.170  27.359  23.250  1.00  0.00    -0.318 N 
ATOM     33  H   UNL A   1      31.636  28.097  22.723  1.00  0.00     0.348 HD
BRANCH  32  34
ATOM     34  C   UNL A   1      29.864  27.990  23.516  1.00  0.00     0.364 C 
BRANCH  34  35
ATOM     35  C   UNL A   1      29.434  29.052  22.498  1.00  0.00     0.277 C 
ATOM     36  O   UNL A   1      30.267  29.502  21.703  1.00  0.00    -0.268 OA
ATOM     37  N   UNL A   1      28.127  29.526  22.512  1.00  0.00    -0.344 N 
ATOM     38  C   UNL A   1      26.989  28.899  23.164  1.00  0.00     0.146 C 
ATOM     39  C   UNL A   1      27.852  30.747  21.770  1.00  0.00     0.146 C 
ENDBRANCH  34  35
ENDBRANCH  32  34
ENDBRANCH   8  26
ENDBRANCH   5   8
ENDBRANCH   3   4
ENDBRANCH   2   3
ENDBRANCH   1   2
BRANCH   1  40
ATOM     40  C   UNL A   1      38.631  21.450  25.747  1.00  0.00     0.002 C 
BRANCH  40  41
ATOM     41  C   UNL A   1      39.161  20.056  25.416  1.00  0.00     0.021 C 
BRANCH  41  42
ATOM     42  C   UNL A   1      40.068  19.464  26.483  1.00  0.00     0.116 C 
BRANCH  42  43
ATOM     43  N   UNL A   1      41.344  19.033  25.936  1.00  0.00    -0.352 N 
ATOM     44  C   UNL A   1      42.485  19.770  25.734  1.00  0.00     0.251 C 
ATOM     45  H   UNL A   1      41.398  18.084  25.677  1.00  0.00     0.163 HD
ATOM     46  O   UNL A   1      43.416  19.315  25.085  1.00  0.00    -0.269 OA
BRANCH  44  47
ATOM     47  C   UNL A   1      42.564  21.134  26.296  1.00  0.00     0.039 A 
ATOM     48  C   UNL A   1      42.487  21.304  27.679  1.00  0.00     0.014 A 
ATOM     49  C   UNL A   1      42.736  22.237  25.454  1.00  0.00     0.014 A 
ATOM     50  C   UNL A   1      42.637  22.580  28.225  1.00  0.00     0.010 A 
ATOM     51  C   UNL A   1      42.971  23.492  26.003  1.00  0.00     0.010 A 
ATOM     52  C   UNL A   1      42.910  23.678  27.393  1.00  0.00    -0.014 A 
BRANCH  52  53
ATOM     53  C   UNL A   1      43.114  25.039  27.949  1.00  0.00     0.031 A 
ATOM     54  C   UNL A   1      44.489  25.472  28.379  1.00  0.00     0.074 A 
ATOM     55  C   UNL A   1      42.060  25.856  28.129  1.00  0.00     0.049 A 
ATOM     56  N   UNL A   1      44.862  26.585  28.956  1.00  0.00    -0.248 NA
ATOM     57  C   UNL A   1      45.586  24.515  28.155  1.00  0.00     0.031 C 
ATOM     58  C   UNL A   1      40.672  25.543  27.782  1.00  0.00     0.029 A 
ATOM     59  N   UNL A   1      41.993  27.121  28.657  1.00  0.00    -0.354 N 
ATOM     60  C   UNL A   1      46.227  26.453  29.180  1.00  0.00     0.074 A 
ATOM     61  C   UNL A   1      46.605  25.133  28.730  1.00  0.00     0.031 C 
ATOM     62  C   UNL A   1      39.897  26.599  28.080  1.00  0.00     0.029 A 
ATOM     63  C   UNL A   1      40.722  27.642  28.681  1.00  0.00     0.049 A 
ATOM     64  H   UNL A   1      42.781  27.609  28.988  1.00  0.00     0.167 HD
ATOM     65  C   UNL A   1      47.093  27.359  29.694  1.00  0.00     0.031 A 
ATOM     66  C   UNL A   1      40.271  28.822  29.144  1.00  0.00     0.031 A 
ATOM     67  C   UNL A   1      46.716  28.675  30.135  1.00  0.00     0.049 A 
ATOM     68  C   UNL A   1      41.247  29.799  29.741  1.00  0.00     0.074 A 
ATOM     69  C   UNL A   1      47.527  29.684  30.624  1.00  0.00     0.029 A 
ATOM     70  N   UNL A   1      45.418  29.162  30.143  1.00  0.00    -0.354 N 
ATOM     71  N   UNL A   1      42.545  29.684  29.887  1.00  0.00    -0.248 NA
ATOM     72  C   UNL A   1      40.695  31.073  30.224  1.00  0.00     0.031 C 
ATOM     73  C   UNL A   1      46.710  30.760  30.986  1.00  0.00     0.029 A 
ATOM     74  C   UNL A   1      45.401  30.448  30.656  1.00  0.00     0.049 A 
ATOM     75  H   UNL A   1      44.627  28.667  29.831  1.00  0.00     0.167 HD
ATOM     76  C   UNL A   1      42.970  30.883  30.448  1.00  0.00     0.074 A 
ATOM     77  C   UNL A   1      41.793  31.714  30.600  1.00  0.00     0.031 C 
ATOM     78  C   UNL A   1      44.222  31.263  30.801  1.00  0.00     0.031 A 
BRANCH  65  79
ATOM     79  C   UNL A   1      48.535  26.945  29.817  1.00  0.00    -0.014 A 
ATOM     80  C   UNL A   1      49.528  27.500  28.994  1.00  0.00     0.009 A 
ATOM     81  C   UNL A   1      48.909  26.002  30.786  1.00  0.00     0.009 A 
ATOM     82  C   UNL A   1      50.858  27.089  29.110  1.00  0.00     0.001 A 
ATOM     83  C   UNL A   1      50.244  25.618  30.924  1.00  0.00     0.001 A 
ATOM     84  C   UNL A   1      51.215  26.153  30.079  1.00  0.00     0.000 A 
ENDBRANCH  65  79
BRANCH  66  85
ATOM     85  C   UNL A   1      38.824  29.156  29.054  1.00  0.00    -0.014 A 
ATOM     86  C   UNL A   1      38.288  29.687  27.870  1.00  0.00     0.009 A 
ATOM     87  C   UNL A   1      37.972  28.957  30.152  1.00  0.00     0.009 A 
ATOM     88  C   UNL A   1      36.938  30.039  27.799  1.00  0.00     0.001 A 
ATOM     89  C   UNL A   1      36.616  29.279  30.068  1.00  0.00     0.001 A 
ATOM     90  C   UNL A   1      36.103  29.830  28.895  1.00  0.00     0.000 A 
ENDBRANCH  66  85
BRANCH  78  91
ATOM     91  C   UNL A   1      44.395  32.654  31.345  1.00  0.00    -0.014 A 
ATOM     92  C   UNL A   1      44.339  32.917  32.722  1.00  0.00     0.009 A 
ATOM     93  C   UNL A   1      44.662  33.712  30.461  1.00  0.00     0.009 A 
ATOM     94  C   UNL A   1      44.515  34.217  33.199  1.00  0.00     0.001 A 
ATOM     95  C   UNL A   1      44.871  35.005  30.943  1.00  0.00     0.001 A 
ATOM     96  C   UNL A   1      44.786  35.258  32.311  1.00  0.00     0.000 A 
ENDBRANCH  78  91
ENDBRANCH  52  53
ENDBRANCH  44  47
ENDBRANCH  42  43
ENDBRANCH  41  42
ENDBRANCH  40  41
ENDBRANCH   1  40
TORSDOF 19
ENDMDL
