MODEL 1
REMARK VINA RESULT:      -9.3      0.000      0.000
REMARK SMILES O=C(CCCN1C(=O)C(=O)/C(=C(/[O-])c2ccccc2)[C@@H]1/C=C/c1ccccc1)NCCCCCCNC(=O)c1ccc(-c2c3nc(c(-c4ccccc4)c4ccc([nH]4)c(-c4ccccc4)c4nc(c(-c5ccccc5)c5ccc2[nH]5)C=C4)C=C3)cc1
REMARK SMILES IDX 31 1 30 2 29 3 1 4 2 5 3 7 4 8 5 9 6 10 7 11 20 12 8 13 9 14
REMARK SMILES IDX 11 15 10 16 12 17 13 18 21 19 22 20 23 21 24 22 28 23 25 24
REMARK SMILES IDX 27 25 26 26 14 27 15 28 19 29 16 30 18 31 17 32 32 33 33 34
REMARK SMILES IDX 34 35 35 36 36 37 37 38 38 40 39 41 40 42 86 43 41 44 85 45
REMARK SMILES IDX 42 46 43 47 44 48 79 49 45 50 84 51 78 52 80 53 46 54 83 55
REMARK SMILES IDX 77 56 76 57 47 59 69 60 54 61 68 62 55 63 58 64 67 65 81 66
REMARK SMILES IDX 56 67 57 68 66 70 82 71 59 72 48 73 49 74 53 75 50 76 52 77
REMARK SMILES IDX 51 78 70 79 71 80 75 81 72 82 74 83 73 84 60 85 61 86 65 87
REMARK SMILES IDX 62 88 64 89 63 90
REMARK H PARENT 29 6 36 39 80 58 58 69
REMARK Flexibility Score: inf
ROOT
ATOM      1  C   UNL A   1      42.491  23.378  27.528  1.00  0.00     0.021 C 
ENDROOT
BRANCH   1   2
ATOM      2  C   UNL A   1      41.450  23.980  26.583  1.00  0.00     0.116 C 
BRANCH   2   3
ATOM      3  N   UNL A   1      41.067  25.314  26.985  1.00  0.00    -0.356 N 
ATOM      4  O   UNL A   1      41.538  26.363  25.001  1.00  0.00    -0.275 OA
ATOM      5  C   UNL A   1      41.143  26.407  26.162  1.00  0.00     0.220 C 
ATOM      6  H   UNL A   1      40.732  25.444  27.902  1.00  0.00     0.163 HD
BRANCH   5   7
ATOM      7  C   UNL A   1      40.631  27.685  26.800  1.00  0.00     0.102 C 
BRANCH   7   8
ATOM      8  C   UNL A   1      40.212  27.513  28.261  1.00  0.00     0.031 C 
BRANCH   8   9
ATOM      9  C   UNL A   1      38.748  27.761  28.652  1.00  0.00     0.121 C 
BRANCH   9  10
ATOM     10  N   UNL A   1      38.433  28.935  29.472  1.00  0.00    -0.325 N 
ATOM     11  C   UNL A   1      38.758  29.067  30.801  1.00  0.00     0.295 C 
ATOM     12  C   UNL A   1      37.489  29.962  29.029  1.00  0.00     0.143 C 
ATOM     13  O   UNL A   1      39.474  28.379  31.499  1.00  0.00    -0.265 OA
ATOM     14  C   UNL A   1      37.971  30.231  31.358  1.00  0.00     0.248 C 
ATOM     15  C   UNL A   1      37.274  30.874  30.217  1.00  0.00     0.024 C 
ATOM     16  O   UNL A   1      37.889  30.461  32.544  1.00  0.00    -0.283 OA
ATOM     17  C   UNL A   1      36.600  32.038  30.307  1.00  0.00    -0.092 C 
ATOM     18  O   UNL A   1      35.909  32.603  29.254  1.00  0.00    -0.872 OA
BRANCH  12  19
ATOM     19  C   UNL A   1      36.207  29.325  28.547  1.00  0.00     0.003 C 
ATOM     20  C   UNL A   1      35.488  29.819  27.523  1.00  0.00     0.006 C 
BRANCH  20  21
ATOM     21  C   UNL A   1      34.236  29.234  27.043  1.00  0.00    -0.026 A 
ATOM     22  C   UNL A   1      33.021  29.898  27.246  1.00  0.00     0.008 A 
ATOM     23  C   UNL A   1      34.237  27.968  26.449  1.00  0.00     0.008 A 
ATOM     24  C   UNL A   1      31.817  29.291  26.876  1.00  0.00     0.001 A 
ATOM     25  C   UNL A   1      33.034  27.361  26.085  1.00  0.00     0.001 A 
ATOM     26  C   UNL A   1      31.824  28.020  26.303  1.00  0.00     0.000 A 
ENDBRANCH  20  21
ENDBRANCH  12  19
BRANCH  17  27
ATOM     27  C   UNL A   1      36.494  32.835  31.547  1.00  0.00    -0.033 A 
ATOM     28  C   UNL A   1      37.450  33.821  31.828  1.00  0.00     0.007 A 
ATOM     29  C   UNL A   1      35.434  32.649  32.447  1.00  0.00     0.007 A 
ATOM     30  C   UNL A   1      37.324  34.633  32.960  1.00  0.00     0.001 A 
ATOM     31  C   UNL A   1      35.302  33.470  33.571  1.00  0.00     0.001 A 
ATOM     32  C   UNL A   1      36.243  34.464  33.824  1.00  0.00     0.000 A 
ENDBRANCH  17  27
ENDBRANCH   9  10
ENDBRANCH   8   9
ENDBRANCH   7   8
ENDBRANCH   5   7
ENDBRANCH   2   3
ENDBRANCH   1   2
BRANCH   1  33
ATOM     33  C   UNL A   1      43.294  24.396  28.350  1.00  0.00     0.002 C 
BRANCH  33  34
ATOM     34  C   UNL A   1      44.816  24.317  28.218  1.00  0.00     0.002 C 
BRANCH  34  35
ATOM     35  C   UNL A   1      45.335  23.931  26.833  1.00  0.00     0.021 C 
BRANCH  35  36
ATOM     36  C   UNL A   1      46.837  24.113  26.623  1.00  0.00     0.116 C 
BRANCH  36  37
ATOM     37  N   UNL A   1      47.154  24.888  25.433  1.00  0.00    -0.352 N 
ATOM     38  C   UNL A   1      46.859  26.199  25.144  1.00  0.00     0.251 C 
ATOM     39  H   UNL A   1      47.651  24.405  24.735  1.00  0.00     0.163 HD
ATOM     40  O   UNL A   1      47.081  26.650  24.025  1.00  0.00    -0.269 OA
BRANCH  38  41
ATOM     41  C   UNL A   1      46.241  27.066  26.174  1.00  0.00     0.039 A 
ATOM     42  C   UNL A   1      44.872  27.337  26.093  1.00  0.00     0.014 A 
ATOM     43  C   UNL A   1      47.002  27.612  27.211  1.00  0.00     0.014 A 
ATOM     44  C   UNL A   1      44.253  28.093  27.092  1.00  0.00     0.010 A 
ATOM     45  C   UNL A   1      46.372  28.309  28.241  1.00  0.00     0.010 A 
ATOM     46  C   UNL A   1      44.992  28.552  28.195  1.00  0.00    -0.014 A 
BRANCH  46  47
ATOM     47  C   UNL A   1      44.335  29.273  29.316  1.00  0.00     0.031 A 
ATOM     48  C   UNL A   1      43.958  28.542  30.575  1.00  0.00     0.074 A 
ATOM     49  C   UNL A   1      44.017  30.575  29.178  1.00  0.00     0.049 A 
ATOM     50  N   UNL A   1      43.320  28.986  31.630  1.00  0.00    -0.248 NA
ATOM     51  C   UNL A   1      44.330  27.120  30.653  1.00  0.00     0.031 C 
ATOM     52  C   UNL A   1      44.299  31.397  28.000  1.00  0.00     0.029 A 
ATOM     53  N   UNL A   1      43.382  31.436  30.039  1.00  0.00    -0.354 N 
ATOM     54  C   UNL A   1      43.202  27.899  32.485  1.00  0.00     0.074 A 
ATOM     55  C   UNL A   1      43.793  26.763  31.811  1.00  0.00     0.031 C 
ATOM     56  C   UNL A   1      43.864  32.648  28.223  1.00  0.00     0.029 A 
ATOM     57  C   UNL A   1      43.237  32.707  29.538  1.00  0.00     0.049 A 
ATOM     58  H   UNL A   1      43.060  31.168  30.929  1.00  0.00     0.167 HD
ATOM     59  C   UNL A   1      42.666  27.851  33.728  1.00  0.00     0.031 A 
ATOM     60  C   UNL A   1      42.657  33.798  30.073  1.00  0.00     0.031 A 
ATOM     61  C   UNL A   1      42.082  28.978  34.406  1.00  0.00     0.049 A 
ATOM     62  C   UNL A   1      42.042  33.711  31.442  1.00  0.00     0.074 A 
ATOM     63  C   UNL A   1      41.553  29.035  35.684  1.00  0.00     0.029 A 
ATOM     64  N   UNL A   1      41.950  30.245  33.861  1.00  0.00    -0.354 N 
ATOM     65  N   UNL A   1      41.985  32.688  32.259  1.00  0.00    -0.248 NA
ATOM     66  C   UNL A   1      41.420  34.936  31.966  1.00  0.00     0.031 C 
ATOM     67  C   UNL A   1      41.059  30.326  35.895  1.00  0.00     0.029 A 
ATOM     68  C   UNL A   1      41.328  31.086  34.770  1.00  0.00     0.049 A 
ATOM     69  H   UNL A   1      42.251  30.508  32.962  1.00  0.00     0.167 HD
ATOM     70  C   UNL A   1      41.346  33.151  33.401  1.00  0.00     0.074 A 
ATOM     71  C   UNL A   1      41.047  34.550  33.178  1.00  0.00     0.031 C 
ATOM     72  C   UNL A   1      41.038  32.476  34.535  1.00  0.00     0.031 A 
BRANCH  59  73
ATOM     73  C   UNL A   1      42.683  26.526  34.437  1.00  0.00    -0.014 A 
ATOM     74  C   UNL A   1      41.510  25.975  34.977  1.00  0.00     0.009 A 
ATOM     75  C   UNL A   1      43.881  25.800  34.535  1.00  0.00     0.009 A 
ATOM     76  C   UNL A   1      41.541  24.743  35.631  1.00  0.00     0.001 A 
ATOM     77  C   UNL A   1      43.904  24.554  35.165  1.00  0.00     0.001 A 
ATOM     78  C   UNL A   1      42.737  24.031  35.720  1.00  0.00     0.000 A 
ENDBRANCH  59  73
BRANCH  60  79
ATOM     79  C   UNL A   1      42.643  35.079  29.322  1.00  0.00    -0.014 A 
ATOM     80  C   UNL A   1      41.542  35.419  28.520  1.00  0.00     0.009 A 
ATOM     81  C   UNL A   1      43.729  35.964  29.394  1.00  0.00     0.009 A 
ATOM     82  C   UNL A   1      41.539  36.607  27.786  1.00  0.00     0.001 A 
ATOM     83  C   UNL A   1      43.712  37.165  28.679  1.00  0.00     0.001 A 
ATOM     84  C   UNL A   1      42.622  37.480  27.870  1.00  0.00     0.000 A 
ENDBRANCH  60  79
BRANCH  72  85
ATOM     85  C   UNL A   1      40.374  33.252  35.638  1.00  0.00    -0.014 A 
ATOM     86  C   UNL A   1      38.982  33.224  35.813  1.00  0.00     0.009 A 
ATOM     87  C   UNL A   1      41.160  33.988  36.538  1.00  0.00     0.009 A 
ATOM     88  C   UNL A   1      38.387  33.945  36.851  1.00  0.00     0.001 A 
ATOM     89  C   UNL A   1      40.565  34.686  37.590  1.00  0.00     0.001 A 
ATOM     90  C   UNL A   1      39.179  34.670  37.742  1.00  0.00     0.000 A 
ENDBRANCH  72  85
ENDBRANCH  46  47
ENDBRANCH  38  41
ENDBRANCH  36  37
ENDBRANCH  35  36
ENDBRANCH  34  35
ENDBRANCH  33  34
ENDBRANCH   1  33
TORSDOF 19
ENDMDL
MODEL 2
REMARK VINA RESULT:      -8.6      3.391      7.040
REMARK SMILES O=C(CCCN1C(=O)C(=O)/C(=C(/[O-])c2ccccc2)[C@@H]1/C=C/c1ccccc1)NCCCCCCNC(=O)c1ccc(-c2c3nc(c(-c4ccccc4)c4ccc([nH]4)c(-c4ccccc4)c4nc(c(-c5ccccc5)c5ccc2[nH]5)C=C4)C=C3)cc1
REMARK SMILES IDX 31 1 30 2 29 3 1 4 2 5 3 7 4 8 5 9 6 10 7 11 20 12 8 13 9 14
REMARK SMILES IDX 11 15 10 16 12 17 13 18 21 19 22 20 23 21 24 22 28 23 25 24
REMARK SMILES IDX 27 25 26 26 14 27 15 28 19 29 16 30 18 31 17 32 32 33 33 34
REMARK SMILES IDX 34 35 35 36 36 37 37 38 38 40 39 41 40 42 86 43 41 44 85 45
REMARK SMILES IDX 42 46 43 47 44 48 79 49 45 50 84 51 78 52 80 53 46 54 83 55
REMARK SMILES IDX 77 56 76 57 47 59 69 60 54 61 68 62 55 63 58 64 67 65 81 66
REMARK SMILES IDX 56 67 57 68 66 70 82 71 59 72 48 73 49 74 53 75 50 76 52 77
REMARK SMILES IDX 51 78 70 79 71 80 75 81 72 82 74 83 73 84 60 85 61 86 65 87
REMARK SMILES IDX 62 88 64 89 63 90
REMARK H PARENT 29 6 36 39 80 58 58 69
REMARK Flexibility Score: inf
ROOT
ATOM      1  C   UNL A   1      49.881  27.356  24.040  1.00  0.00     0.021 C 
ENDROOT
BRANCH   1   2
ATOM      2  C   UNL A   1      48.665  26.797  23.301  1.00  0.00     0.116 C 
BRANCH   2   3
ATOM      3  N   UNL A   1      47.484  26.798  24.133  1.00  0.00    -0.356 N 
ATOM      4  O   UNL A   1      46.789  28.930  23.650  1.00  0.00    -0.275 OA
ATOM      5  C   UNL A   1      46.635  27.869  24.247  1.00  0.00     0.220 C 
ATOM      6  H   UNL A   1      47.276  25.984  24.647  1.00  0.00     0.163 HD
BRANCH   5   7
ATOM      7  C   UNL A   1      45.437  27.602  25.139  1.00  0.00     0.102 C 
BRANCH   7   8
ATOM      8  C   UNL A   1      45.810  27.323  26.596  1.00  0.00     0.031 C 
BRANCH   8   9
ATOM      9  C   UNL A   1      46.305  25.923  26.984  1.00  0.00     0.121 C 
BRANCH   9  10
ATOM     10  N   UNL A   1      45.387  24.789  26.828  1.00  0.00    -0.325 N 
ATOM     11  C   UNL A   1      45.130  24.154  25.637  1.00  0.00     0.295 C 
ATOM     12  C   UNL A   1      44.438  24.408  27.874  1.00  0.00     0.143 C 
ATOM     13  O   UNL A   1      45.687  24.259  24.563  1.00  0.00    -0.265 OA
ATOM     14  C   UNL A   1      43.900  23.296  25.824  1.00  0.00     0.248 C 
ATOM     15  C   UNL A   1      43.541  23.353  27.262  1.00  0.00     0.024 C 
ATOM     16  O   UNL A   1      43.311  22.781  24.899  1.00  0.00    -0.283 OA
ATOM     17  C   UNL A   1      42.589  22.587  27.830  1.00  0.00    -0.092 C 
ATOM     18  O   UNL A   1      42.224  22.684  29.158  1.00  0.00    -0.872 OA
BRANCH  12  19
ATOM     19  C   UNL A   1      43.669  25.616  28.354  1.00  0.00     0.003 C 
ATOM     20  C   UNL A   1      42.469  25.962  27.854  1.00  0.00     0.006 C 
BRANCH  20  21
ATOM     21  C   UNL A   1      41.708  27.134  28.288  1.00  0.00    -0.026 A 
ATOM     22  C   UNL A   1      40.486  26.979  28.952  1.00  0.00     0.008 A 
ATOM     23  C   UNL A   1      42.160  28.418  27.969  1.00  0.00     0.008 A 
ATOM     24  C   UNL A   1      39.715  28.099  29.277  1.00  0.00     0.001 A 
ATOM     25  C   UNL A   1      41.385  29.535  28.288  1.00  0.00     0.001 A 
ATOM     26  C   UNL A   1      40.161  29.375  28.937  1.00  0.00     0.000 A 
ENDBRANCH  20  21
ENDBRANCH  12  19
BRANCH  17  27
ATOM     27  C   UNL A   1      41.801  21.574  27.098  1.00  0.00    -0.033 A 
ATOM     28  C   UNL A   1      42.336  20.298  26.877  1.00  0.00     0.007 A 
ATOM     29  C   UNL A   1      40.504  21.849  26.638  1.00  0.00     0.007 A 
ATOM     30  C   UNL A   1      41.576  19.305  26.251  1.00  0.00     0.001 A 
ATOM     31  C   UNL A   1      39.740  20.853  26.024  1.00  0.00     0.001 A 
ATOM     32  C   UNL A   1      40.274  19.581  25.835  1.00  0.00     0.000 A 
ENDBRANCH  17  27
ENDBRANCH   9  10
ENDBRANCH   8   9
ENDBRANCH   7   8
ENDBRANCH   5   7
ENDBRANCH   2   3
ENDBRANCH   1   2
BRANCH   1  33
ATOM     33  C   UNL A   1      50.693  26.323  24.836  1.00  0.00     0.002 C 
BRANCH  33  34
ATOM     34  C   UNL A   1      52.101  26.753  25.255  1.00  0.00     0.002 C 
BRANCH  34  35
ATOM     35  C   UNL A   1      52.445  26.525  26.727  1.00  0.00     0.021 C 
BRANCH  35  36
ATOM     36  C   UNL A   1      52.722  27.790  27.537  1.00  0.00     0.116 C 
BRANCH  36  37
ATOM     37  N   UNL A   1      52.875  28.974  26.706  1.00  0.00    -0.352 N 
ATOM     38  C   UNL A   1      51.971  29.975  26.442  1.00  0.00     0.251 C 
ATOM     39  H   UNL A   1      53.752  29.073  26.271  1.00  0.00     0.163 HD
ATOM     40  O   UNL A   1      52.224  30.829  25.598  1.00  0.00    -0.269 OA
BRANCH  38  41
ATOM     41  C   UNL A   1      50.671  30.009  27.152  1.00  0.00     0.039 A 
ATOM     42  C   UNL A   1      50.604  30.627  28.404  1.00  0.00     0.014 A 
ATOM     43  C   UNL A   1      49.527  29.434  26.593  1.00  0.00     0.014 A 
ATOM     44  C   UNL A   1      49.374  30.736  29.060  1.00  0.00     0.010 A 
ATOM     45  C   UNL A   1      48.291  29.600  27.216  1.00  0.00     0.010 A 
ATOM     46  C   UNL A   1      48.201  30.256  28.453  1.00  0.00    -0.014 A 
BRANCH  46  47
ATOM     47  C   UNL A   1      46.872  30.448  29.088  1.00  0.00     0.031 A 
ATOM     48  C   UNL A   1      46.265  29.359  29.930  1.00  0.00     0.074 A 
ATOM     49  C   UNL A   1      46.178  31.580  28.856  1.00  0.00     0.049 A 
ATOM     50  N   UNL A   1      45.090  29.319  30.507  1.00  0.00    -0.248 NA
ATOM     51  C   UNL A   1      47.077  28.148  30.133  1.00  0.00     0.031 C 
ATOM     52  C   UNL A   1      46.637  32.704  28.037  1.00  0.00     0.029 A 
ATOM     53  N   UNL A   1      44.934  31.969  29.288  1.00  0.00    -0.354 N 
ATOM     54  C   UNL A   1      45.017  28.078  31.127  1.00  0.00     0.074 A 
ATOM     55  C   UNL A   1      46.246  27.378  30.819  1.00  0.00     0.031 C 
ATOM     56  C   UNL A   1      45.699  33.666  28.048  1.00  0.00     0.029 A 
ATOM     57  C   UNL A   1      44.559  33.212  28.838  1.00  0.00     0.049 A 
ATOM     58  H   UNL A   1      44.364  31.411  29.864  1.00  0.00     0.167 HD
ATOM     59  C   UNL A   1      44.025  27.572  31.898  1.00  0.00     0.031 A 
ATOM     60  C   UNL A   1      43.423  33.908  29.031  1.00  0.00     0.031 A 
ATOM     61  C   UNL A   1      42.804  28.266  32.212  1.00  0.00     0.049 A 
ATOM     62  C   UNL A   1      42.325  33.311  29.866  1.00  0.00     0.074 A 
ATOM     63  C   UNL A   1      41.761  27.850  33.021  1.00  0.00     0.029 A 
ATOM     64  N   UNL A   1      42.463  29.519  31.731  1.00  0.00    -0.354 N 
ATOM     65  N   UNL A   1      42.294  32.158  30.488  1.00  0.00    -0.248 NA
ATOM     66  C   UNL A   1      41.109  34.119  30.033  1.00  0.00     0.031 C 
ATOM     67  C   UNL A   1      40.767  28.833  32.993  1.00  0.00     0.029 A 
ATOM     68  C   UNL A   1      41.215  29.884  32.210  1.00  0.00     0.049 A 
ATOM     69  H   UNL A   1      43.023  30.068  31.137  1.00  0.00     0.167 HD
ATOM     70  C   UNL A   1      41.069  32.114  31.140  1.00  0.00     0.074 A 
ATOM     71  C   UNL A   1      40.392  33.360  30.851  1.00  0.00     0.031 C 
ATOM     72  C   UNL A   1      40.553  31.128  31.914  1.00  0.00     0.031 A 
BRANCH  59  73
ATOM     73  C   UNL A   1      44.222  26.190  32.456  1.00  0.00    -0.014 A 
ATOM     74  C   UNL A   1      44.069  25.052  31.647  1.00  0.00     0.009 A 
ATOM     75  C   UNL A   1      44.600  26.023  33.797  1.00  0.00     0.009 A 
ATOM     76  C   UNL A   1      44.257  23.776  32.178  1.00  0.00     0.001 A 
ATOM     77  C   UNL A   1      44.815  24.746  34.319  1.00  0.00     0.001 A 
ATOM     78  C   UNL A   1      44.634  23.624  33.512  1.00  0.00     0.000 A 
ENDBRANCH  59  73
BRANCH  60  79
ATOM     79  C   UNL A   1      43.267  35.260  28.437  1.00  0.00    -0.014 A 
ATOM     80  C   UNL A   1      43.516  36.406  29.209  1.00  0.00     0.009 A 
ATOM     81  C   UNL A   1      42.863  35.415  27.102  1.00  0.00     0.009 A 
ATOM     82  C   UNL A   1      43.340  37.680  28.664  1.00  0.00     0.001 A 
ATOM     83  C   UNL A   1      42.714  36.691  26.552  1.00  0.00     0.001 A 
ATOM     84  C   UNL A   1      42.943  37.821  27.335  1.00  0.00     0.000 A 
ENDBRANCH  60  79
BRANCH  72  85
ATOM     85  C   UNL A   1      39.205  31.372  32.532  1.00  0.00    -0.014 A 
ATOM     86  C   UNL A   1      39.078  32.020  33.770  1.00  0.00     0.009 A 
ATOM     87  C   UNL A   1      38.046  30.984  31.842  1.00  0.00     0.009 A 
ATOM     88  C   UNL A   1      37.814  32.245  34.321  1.00  0.00     0.001 A 
ATOM     89  C   UNL A   1      36.784  31.235  32.383  1.00  0.00     0.001 A 
ATOM     90  C   UNL A   1      36.669  31.858  33.624  1.00  0.00     0.000 A 
ENDBRANCH  72  85
ENDBRANCH  46  47
ENDBRANCH  38  41
ENDBRANCH  36  37
ENDBRANCH  35  36
ENDBRANCH  34  35
ENDBRANCH  33  34
ENDBRANCH   1  33
TORSDOF 19
ENDMDL
MODEL 3
REMARK VINA RESULT:      -8.5      4.485     11.212
REMARK SMILES O=C(CCCN1C(=O)C(=O)/C(=C(/[O-])c2ccccc2)[C@@H]1/C=C/c1ccccc1)NCCCCCCNC(=O)c1ccc(-c2c3nc(c(-c4ccccc4)c4ccc([nH]4)c(-c4ccccc4)c4nc(c(-c5ccccc5)c5ccc2[nH]5)C=C4)C=C3)cc1
REMARK SMILES IDX 31 1 30 2 29 3 1 4 2 5 3 7 4 8 5 9 6 10 7 11 20 12 8 13 9 14
REMARK SMILES IDX 11 15 10 16 12 17 13 18 21 19 22 20 23 21 24 22 28 23 25 24
REMARK SMILES IDX 27 25 26 26 14 27 15 28 19 29 16 30 18 31 17 32 32 33 33 34
REMARK SMILES IDX 34 35 35 36 36 37 37 38 38 40 39 41 40 42 86 43 41 44 85 45
REMARK SMILES IDX 42 46 43 47 44 48 79 49 45 50 84 51 78 52 80 53 46 54 83 55
REMARK SMILES IDX 77 56 76 57 47 59 69 60 54 61 68 62 55 63 58 64 67 65 81 66
REMARK SMILES IDX 56 67 57 68 66 70 82 71 59 72 48 73 49 74 53 75 50 76 52 77
REMARK SMILES IDX 51 78 70 79 71 80 75 81 72 82 74 83 73 84 60 85 61 86 65 87
REMARK SMILES IDX 62 88 64 89 63 90
REMARK H PARENT 29 6 36 39 80 58 58 69
REMARK Flexibility Score: inf
ROOT
ATOM      1  C   UNL A   1      38.816  34.673  29.580  1.00  0.00     0.021 C 
ENDROOT
BRANCH   1   2
ATOM      2  C   UNL A   1      40.321  34.437  29.699  1.00  0.00     0.116 C 
BRANCH   2   3
ATOM      3  N   UNL A   1      41.076  35.347  28.868  1.00  0.00    -0.356 N 
ATOM      4  O   UNL A   1      42.930  35.497  30.210  1.00  0.00    -0.275 OA
ATOM      5  C   UNL A   1      42.325  35.811  29.190  1.00  0.00     0.220 C 
ATOM      6  H   UNL A   1      40.670  35.650  28.024  1.00  0.00     0.163 HD
BRANCH   5   7
ATOM      7  C   UNL A   1      42.930  36.711  28.129  1.00  0.00     0.102 C 
BRANCH   7   8
ATOM      8  C   UNL A   1      41.992  37.828  27.667  1.00  0.00     0.031 C 
BRANCH   8   9
ATOM      9  C   UNL A   1      42.199  39.249  28.211  1.00  0.00     0.121 C 
BRANCH   9  10
ATOM     10  N   UNL A   1      42.632  40.296  27.280  1.00  0.00    -0.325 N 
ATOM     11  C   UNL A   1      41.960  40.646  26.133  1.00  0.00     0.295 C 
ATOM     12  C   UNL A   1      43.974  40.876  27.333  1.00  0.00     0.143 C 
ATOM     13  O   UNL A   1      40.855  40.320  25.749  1.00  0.00    -0.265 OA
ATOM     14  C   UNL A   1      42.887  41.493  25.292  1.00  0.00     0.248 C 
ATOM     15  C   UNL A   1      44.104  41.747  26.102  1.00  0.00     0.024 C 
ATOM     16  O   UNL A   1      42.652  41.776  24.138  1.00  0.00    -0.283 OA
ATOM     17  C   UNL A   1      45.085  42.595  25.738  1.00  0.00    -0.092 C 
ATOM     18  O   UNL A   1      46.240  42.786  26.471  1.00  0.00    -0.872 OA
BRANCH  12  19
ATOM     19  C   UNL A   1      45.018  39.785  27.384  1.00  0.00     0.003 C 
ATOM     20  C   UNL A   1      45.673  39.350  26.293  1.00  0.00     0.006 C 
BRANCH  20  21
ATOM     21  C   UNL A   1      46.676  38.286  26.309  1.00  0.00    -0.026 A 
ATOM     22  C   UNL A   1      47.698  38.262  25.354  1.00  0.00     0.008 A 
ATOM     23  C   UNL A   1      46.572  37.241  27.232  1.00  0.00     0.008 A 
ATOM     24  C   UNL A   1      48.596  37.191  25.311  1.00  0.00     0.001 A 
ATOM     25  C   UNL A   1      47.467  36.169  27.184  1.00  0.00     0.001 A 
ATOM     26  C   UNL A   1      48.474  36.142  26.221  1.00  0.00     0.000 A 
ENDBRANCH  20  21
ENDBRANCH  12  19
BRANCH  17  27
ATOM     27  C   UNL A   1      45.061  43.401  24.500  1.00  0.00    -0.033 A 
ATOM     28  C   UNL A   1      44.539  44.702  24.523  1.00  0.00     0.007 A 
ATOM     29  C   UNL A   1      45.579  42.905  23.294  1.00  0.00     0.007 A 
ATOM     30  C   UNL A   1      44.575  45.504  23.378  1.00  0.00     0.001 A 
ATOM     31  C   UNL A   1      45.626  43.712  22.153  1.00  0.00     0.001 A 
ATOM     32  C   UNL A   1      45.129  45.012  22.197  1.00  0.00     0.000 A 
ENDBRANCH  17  27
ENDBRANCH   9  10
ENDBRANCH   8   9
ENDBRANCH   7   8
ENDBRANCH   5   7
ENDBRANCH   2   3
ENDBRANCH   1   2
BRANCH   1  33
ATOM     33  C   UNL A   1      37.969  33.407  29.389  1.00  0.00     0.002 C 
BRANCH  33  34
ATOM     34  C   UNL A   1      36.866  33.173  30.424  1.00  0.00     0.002 C 
BRANCH  34  35
ATOM     35  C   UNL A   1      35.437  33.354  29.912  1.00  0.00     0.021 C 
BRANCH  35  36
ATOM     36  C   UNL A   1      35.265  33.243  28.399  1.00  0.00     0.116 C 
BRANCH  36  37
ATOM     37  N   UNL A   1      34.311  32.216  28.010  1.00  0.00    -0.352 N 
ATOM     38  C   UNL A   1      34.503  30.865  27.850  1.00  0.00     0.251 C 
ATOM     39  H   UNL A   1      33.396  32.534  27.837  1.00  0.00     0.163 HD
ATOM     40  O   UNL A   1      33.613  30.165  27.376  1.00  0.00    -0.269 OA
BRANCH  38  41
ATOM     41  C   UNL A   1      35.799  30.250  28.220  1.00  0.00     0.039 A 
ATOM     42  C   UNL A   1      36.831  30.235  27.277  1.00  0.00     0.014 A 
ATOM     43  C   UNL A   1      35.998  29.688  29.484  1.00  0.00     0.014 A 
ATOM     44  C   UNL A   1      38.085  29.726  27.627  1.00  0.00     0.010 A 
ATOM     45  C   UNL A   1      37.266  29.241  29.853  1.00  0.00     0.010 A 
ATOM     46  C   UNL A   1      38.323  29.260  28.930  1.00  0.00    -0.014 A 
BRANCH  46  47
ATOM     47  C   UNL A   1      39.674  28.805  29.351  1.00  0.00     0.031 A 
ATOM     48  C   UNL A   1      40.205  27.474  28.897  1.00  0.00     0.074 A 
ATOM     49  C   UNL A   1      40.401  29.564  30.195  1.00  0.00     0.049 A 
ATOM     50  N   UNL A   1      41.329  26.881  29.215  1.00  0.00    -0.248 NA
ATOM     51  C   UNL A   1      39.353  26.697  27.982  1.00  0.00     0.031 C 
ATOM     52  C   UNL A   1      39.993  30.862  30.734  1.00  0.00     0.029 A 
ATOM     53  N   UNL A   1      41.637  29.346  30.752  1.00  0.00    -0.354 N 
ATOM     54  C   UNL A   1      41.312  25.660  28.553  1.00  0.00     0.074 A 
ATOM     55  C   UNL A   1      40.048  25.576  27.852  1.00  0.00     0.031 C 
ATOM     56  C   UNL A   1      40.973  31.338  31.521  1.00  0.00     0.029 A 
ATOM     57  C   UNL A   1      42.056  30.363  31.575  1.00  0.00     0.049 A 
ATOM     58  H   UNL A   1      42.172  28.539  30.578  1.00  0.00     0.167 HD
ATOM     59  C   UNL A   1      42.268  24.701  28.516  1.00  0.00     0.031 A 
ATOM     60  C   UNL A   1      43.183  30.494  32.301  1.00  0.00     0.031 A 
ATOM     61  C   UNL A   1      43.528  24.781  29.205  1.00  0.00     0.049 A 
ATOM     62  C   UNL A   1      44.215  29.402  32.266  1.00  0.00     0.074 A 
ATOM     63  C   UNL A   1      44.577  23.878  29.192  1.00  0.00     0.029 A 
ATOM     64  N   UNL A   1      43.910  25.825  30.033  1.00  0.00    -0.354 N 
ATOM     65  N   UNL A   1      44.205  28.277  31.593  1.00  0.00    -0.248 NA
ATOM     66  C   UNL A   1      45.419  29.605  33.085  1.00  0.00     0.031 C 
ATOM     67  C   UNL A   1      45.575  24.354  30.048  1.00  0.00     0.029 A 
ATOM     68  C   UNL A   1      45.170  25.578  30.552  1.00  0.00     0.049 A 
ATOM     69  H   UNL A   1      43.366  26.622  30.224  1.00  0.00     0.167 HD
ATOM     70  C   UNL A   1      45.410  27.652  31.887  1.00  0.00     0.074 A 
ATOM     71  C   UNL A   1      46.131  28.527  32.786  1.00  0.00     0.031 C 
ATOM     72  C   UNL A   1      45.876  26.458  31.446  1.00  0.00     0.031 A 
BRANCH  59  73
ATOM     73  C   UNL A   1      41.981  23.472  27.698  1.00  0.00    -0.014 A 
ATOM     74  C   UNL A   1      42.466  23.343  26.387  1.00  0.00     0.009 A 
ATOM     75  C   UNL A   1      41.249  22.414  28.258  1.00  0.00     0.009 A 
ATOM     76  C   UNL A   1      42.194  22.196  25.641  1.00  0.00     0.001 A 
ATOM     77  C   UNL A   1      41.002  21.255  27.519  1.00  0.00     0.001 A 
ATOM     78  C   UNL A   1      41.466  21.151  26.209  1.00  0.00     0.000 A 
ENDBRANCH  59  73
BRANCH  60  79
ATOM     79  C   UNL A   1      43.408  31.717  33.113  1.00  0.00    -0.014 A 
ATOM     80  C   UNL A   1      42.970  31.774  34.445  1.00  0.00     0.009 A 
ATOM     81  C   UNL A   1      44.052  32.835  32.561  1.00  0.00     0.009 A 
ATOM     82  C   UNL A   1      43.150  32.934  35.202  1.00  0.00     0.001 A 
ATOM     83  C   UNL A   1      44.256  33.985  33.329  1.00  0.00     0.001 A 
ATOM     84  C   UNL A   1      43.797  34.036  34.644  1.00  0.00     0.000 A 
ENDBRANCH  60  79
BRANCH  72  85
ATOM     85  C   UNL A   1      47.248  26.046  31.901  1.00  0.00    -0.014 A 
ATOM     86  C   UNL A   1      47.444  25.401  33.132  1.00  0.00     0.009 A 
ATOM     87  C   UNL A   1      48.352  26.270  31.065  1.00  0.00     0.009 A 
ATOM     88  C   UNL A   1      48.727  25.018  33.531  1.00  0.00     0.001 A 
ATOM     89  C   UNL A   1      49.629  25.862  31.454  1.00  0.00     0.001 A 
ATOM     90  C   UNL A   1      49.817  25.243  32.689  1.00  0.00     0.000 A 
ENDBRANCH  72  85
ENDBRANCH  46  47
ENDBRANCH  38  41
ENDBRANCH  36  37
ENDBRANCH  35  36
ENDBRANCH  34  35
ENDBRANCH  33  34
ENDBRANCH   1  33
TORSDOF 19
ENDMDL
