MODEL 1
REMARK VINA RESULT:     -11.0      0.000      0.000
REMARK SMILES COc1ccc(-c2nc(NCC(=O)NCCCCCCNC(=O)c3ccc(-c4c5nc(c(-c6ccccc6)c6ccc([nH]6)c(-c6ccccc6)c6nc(c(-c7ccccc7)c7ccc4[nH]7)C=C6)C=C5)cc3)sc2-c2ccc(OC)cc2)cc1
REMARK SMILES IDX 16 1 15 2 14 3 12 4 13 5 11 7 10 8 9 10 7 11 8 12 73 13
REMARK SMILES IDX 72 14 6 15 3 16 4 17 83 18 5 19 82 20 2 21 1 22 74 23 75 24
REMARK SMILES IDX 81 25 76 26 80 27 77 28 78 29 79 30 17 31 18 32 19 33 20 34
REMARK SMILES IDX 21 35 22 36 23 38 24 39 25 40 71 41 26 42 70 43 27 44 28 45
REMARK SMILES IDX 29 46 64 47 30 48 69 49 63 50 65 51 31 52 68 53 62 54 61 55
REMARK SMILES IDX 32 57 54 58 39 59 53 60 40 61 43 62 52 63 66 64 41 65 42 66
REMARK SMILES IDX 51 68 67 69 44 70 33 71 34 72 38 73 35 74 37 75 36 76 55 77
REMARK SMILES IDX 56 78 60 79 57 80 59 81 58 82 45 83 46 84 50 85 47 86 49 87
REMARK SMILES IDX 48 88
REMARK H PARENT 14 6 10 9 21 37 65 56 43 67
REMARK Flexibility Score: inf
ROOT
ATOM      1  C   UNL A   1      35.750  22.079  24.149  1.00  0.00     0.021 C 
ENDROOT
BRANCH   1   2
ATOM      2  C   UNL A   1      34.706  21.812  25.234  1.00  0.00     0.116 C 
BRANCH   2   3
ATOM      3  N   UNL A   1      33.823  20.729  24.853  1.00  0.00    -0.355 N 
ATOM      4  C   UNL A   1      32.469  20.630  25.021  1.00  0.00     0.239 C 
ATOM      5  O   UNL A   1      31.917  19.572  24.714  1.00  0.00    -0.273 OA
ATOM      6  H   UNL A   1      34.255  19.960  24.415  1.00  0.00     0.163 HD
BRANCH   4   7
ATOM      7  C   UNL A   1      31.667  21.838  25.523  1.00  0.00     0.215 C 
BRANCH   7   8
ATOM      8  N   UNL A   1      31.359  22.769  24.450  1.00  0.00    -0.352 N 
ATOM      9  H   UNL A   1      31.012  22.389  23.610  1.00  0.00     0.163 HD
BRANCH   8  10
ATOM     10  C   UNL A   1      31.509  24.109  24.507  1.00  0.00     0.184 A 
ATOM     11  C   UNL A   1      30.974  26.235  24.166  1.00  0.00     0.091 A 
ATOM     12  N   UNL A   1      30.679  24.911  23.882  1.00  0.00    -0.220 NA
ATOM     13  C   UNL A   1      31.988  26.434  25.091  1.00  0.00     0.064 A 
ATOM     14  S   UNL A   1      32.727  24.925  25.418  1.00  0.00    -0.096 S 
BRANCH  11  15
ATOM     15  C   UNL A   1      30.218  27.321  23.562  1.00  0.00     0.002 A 
ATOM     16  C   UNL A   1      28.736  29.322  22.272  1.00  0.00     0.118 A 
ATOM     17  C   UNL A   1      28.089  28.361  23.047  1.00  0.00     0.047 A 
ATOM     18  C   UNL A   1      30.130  29.316  22.181  1.00  0.00     0.047 A 
ATOM     19  C   UNL A   1      28.823  27.360  23.683  1.00  0.00     0.014 A 
ATOM     20  C   UNL A   1      30.871  28.319  22.830  1.00  0.00     0.014 A 
BRANCH  16  21
ATOM     21  O   UNL A   1      27.922  30.254  21.690  1.00  0.00    -0.497 OA
ATOM     22  C   UNL A   1      28.048  31.570  22.219  1.00  0.00     0.278 C 
ENDBRANCH  16  21
ENDBRANCH  11  15
BRANCH  13  23
ATOM     23  C   UNL A   1      32.433  27.646  25.785  1.00  0.00    -0.006 A 
ATOM     24  C   UNL A   1      31.563  28.415  26.566  1.00  0.00     0.013 A 
ATOM     25  C   UNL A   1      33.772  28.053  25.677  1.00  0.00     0.013 A 
ATOM     26  C   UNL A   1      32.033  29.551  27.234  1.00  0.00     0.047 A 
ATOM     27  C   UNL A   1      34.241  29.185  26.352  1.00  0.00     0.047 A 
ATOM     28  C   UNL A   1      33.373  29.933  27.142  1.00  0.00     0.118 A 
BRANCH  28  29
ATOM     29  O   UNL A   1      33.706  31.050  27.859  1.00  0.00    -0.497 OA
ATOM     30  C   UNL A   1      33.042  32.257  27.500  1.00  0.00     0.278 C 
ENDBRANCH  28  29
ENDBRANCH  13  23
ENDBRANCH   8  10
ENDBRANCH   7   8
ENDBRANCH   4   7
ENDBRANCH   2   3
ENDBRANCH   1   2
BRANCH   1  31
ATOM     31  C   UNL A   1      37.166  21.639  24.543  1.00  0.00     0.002 C 
BRANCH  31  32
ATOM     32  C   UNL A   1      37.276  20.200  25.067  1.00  0.00     0.002 C 
BRANCH  32  33
ATOM     33  C   UNL A   1      38.647  19.544  24.882  1.00  0.00     0.021 C 
BRANCH  33  34
ATOM     34  C   UNL A   1      39.588  19.693  26.072  1.00  0.00     0.116 C 
BRANCH  34  35
ATOM     35  N   UNL A   1      40.846  18.992  25.866  1.00  0.00    -0.352 N 
ATOM     36  C   UNL A   1      42.127  19.480  25.897  1.00  0.00     0.251 C 
ATOM     37  H   UNL A   1      40.766  18.030  25.677  1.00  0.00     0.163 HD
ATOM     38  O   UNL A   1      43.063  18.778  25.513  1.00  0.00    -0.269 OA
BRANCH  36  39
ATOM     39  C   UNL A   1      42.389  20.851  26.378  1.00  0.00     0.039 A 
ATOM     40  C   UNL A   1      42.164  21.150  27.725  1.00  0.00     0.014 A 
ATOM     41  C   UNL A   1      42.825  21.850  25.502  1.00  0.00     0.014 A 
ATOM     42  C   UNL A   1      42.416  22.439  28.202  1.00  0.00     0.010 A 
ATOM     43  C   UNL A   1      43.138  23.115  25.991  1.00  0.00     0.010 A 
ATOM     44  C   UNL A   1      42.926  23.425  27.343  1.00  0.00    -0.014 A 
BRANCH  44  45
ATOM     45  C   UNL A   1      43.209  24.797  27.832  1.00  0.00     0.031 A 
ATOM     46  C   UNL A   1      44.631  25.236  28.056  1.00  0.00     0.074 A 
ATOM     47  C   UNL A   1      42.193  25.631  28.119  1.00  0.00     0.049 A 
ATOM     48  N   UNL A   1      45.081  26.367  28.539  1.00  0.00    -0.248 NA
ATOM     49  C   UNL A   1      45.685  24.266  27.716  1.00  0.00     0.031 C 
ATOM     50  C   UNL A   1      40.769  25.322  27.966  1.00  0.00     0.029 A 
ATOM     51  N   UNL A   1      42.203  26.916  28.602  1.00  0.00    -0.354 N 
ATOM     52  C   UNL A   1      46.464  26.239  28.572  1.00  0.00     0.074 A 
ATOM     53  C   UNL A   1      46.777  24.903  28.112  1.00  0.00     0.031 C 
ATOM     54  C   UNL A   1      40.046  26.396  28.320  1.00  0.00     0.029 A 
ATOM     55  C   UNL A   1      40.949  27.456  28.759  1.00  0.00     0.049 A 
ATOM     56  H   UNL A   1      43.030  27.404  28.816  1.00  0.00     0.167 HD
ATOM     57  C   UNL A   1      47.393  27.156  28.930  1.00  0.00     0.031 A 
ATOM     58  C   UNL A   1      40.572  28.668  29.206  1.00  0.00     0.031 A 
ATOM     59  C   UNL A   1      47.087  28.489  29.374  1.00  0.00     0.049 A 
ATOM     60  C   UNL A   1      41.622  29.662  29.613  1.00  0.00     0.074 A 
ATOM     61  C   UNL A   1      47.960  29.502  29.733  1.00  0.00     0.029 A 
ATOM     62  N   UNL A   1      45.805  28.997  29.510  1.00  0.00    -0.354 N 
ATOM     63  N   UNL A   1      42.927  29.537  29.604  1.00  0.00    -0.248 NA
ATOM     64  C   UNL A   1      41.146  30.973  30.079  1.00  0.00     0.031 C 
ATOM     65  C   UNL A   1      47.203  30.613  30.122  1.00  0.00     0.029 A 
ATOM     66  C   UNL A   1      45.862  30.306  29.956  1.00  0.00     0.049 A 
ATOM     67  H   UNL A   1      44.977  28.501  29.317  1.00  0.00     0.167 HD
ATOM     68  C   UNL A   1      43.428  30.763  30.024  1.00  0.00     0.074 A 
ATOM     69  C   UNL A   1      42.286  31.619  30.272  1.00  0.00     0.031 C 
ATOM     70  C   UNL A   1      44.717  31.147  30.186  1.00  0.00     0.031 A 
BRANCH  57  71
ATOM     71  C   UNL A   1      48.836  26.741  28.854  1.00  0.00    -0.014 A 
ATOM     72  C   UNL A   1      49.475  26.136  29.948  1.00  0.00     0.009 A 
ATOM     73  C   UNL A   1      49.559  26.929  27.666  1.00  0.00     0.009 A 
ATOM     74  C   UNL A   1      50.819  25.766  29.867  1.00  0.00     0.001 A 
ATOM     75  C   UNL A   1      50.895  26.531  27.578  1.00  0.00     0.001 A 
ATOM     76  C   UNL A   1      51.526  25.960  28.682  1.00  0.00     0.000 A 
ENDBRANCH  57  71
BRANCH  58  77
ATOM     77  C   UNL A   1      39.131  29.027  29.269  1.00  0.00    -0.014 A 
ATOM     78  C   UNL A   1      38.502  29.630  28.170  1.00  0.00     0.009 A 
ATOM     79  C   UNL A   1      38.384  28.792  30.433  1.00  0.00     0.009 A 
ATOM     80  C   UNL A   1      37.163  30.021  28.245  1.00  0.00     0.001 A 
ATOM     81  C   UNL A   1      37.038  29.159  30.497  1.00  0.00     0.001 A 
ATOM     82  C   UNL A   1      36.432  29.783  29.407  1.00  0.00     0.000 A 
ENDBRANCH  58  77
BRANCH  70  83
ATOM     83  C   UNL A   1      44.962  32.570  30.600  1.00  0.00    -0.014 A 
ATOM     84  C   UNL A   1      45.085  33.597  29.651  1.00  0.00     0.009 A 
ATOM     85  C   UNL A   1      45.038  32.889  31.964  1.00  0.00     0.009 A 
ATOM     86  C   UNL A   1      45.317  34.911  30.063  1.00  0.00     0.001 A 
ATOM     87  C   UNL A   1      45.242  34.207  32.373  1.00  0.00     0.001 A 
ATOM     88  C   UNL A   1      45.391  35.216  31.423  1.00  0.00     0.000 A 
ENDBRANCH  70  83
ENDBRANCH  44  45
ENDBRANCH  36  39
ENDBRANCH  34  35
ENDBRANCH  33  34
ENDBRANCH  32  33
ENDBRANCH  31  32
ENDBRANCH   1  31
TORSDOF 19
ENDMDL
MODEL 2
REMARK VINA RESULT:     -10.9      0.605      5.611
REMARK SMILES COc1ccc(-c2nc(NCC(=O)NCCCCCCNC(=O)c3ccc(-c4c5nc(c(-c6ccccc6)c6ccc([nH]6)c(-c6ccccc6)c6nc(c(-c7ccccc7)c7ccc4[nH]7)C=C6)C=C5)cc3)sc2-c2ccc(OC)cc2)cc1
REMARK SMILES IDX 16 1 15 2 14 3 12 4 13 5 11 7 10 8 9 10 7 11 8 12 73 13
REMARK SMILES IDX 72 14 6 15 3 16 4 17 83 18 5 19 82 20 2 21 1 22 74 23 75 24
REMARK SMILES IDX 81 25 76 26 80 27 77 28 78 29 79 30 17 31 18 32 19 33 20 34
REMARK SMILES IDX 21 35 22 36 23 38 24 39 25 40 71 41 26 42 70 43 27 44 28 45
REMARK SMILES IDX 29 46 64 47 30 48 69 49 63 50 65 51 31 52 68 53 62 54 61 55
REMARK SMILES IDX 32 57 54 58 39 59 53 60 40 61 43 62 52 63 66 64 41 65 42 66
REMARK SMILES IDX 51 68 67 69 44 70 33 71 34 72 38 73 35 74 37 75 36 76 55 77
REMARK SMILES IDX 56 78 60 79 57 80 59 81 58 82 45 83 46 84 50 85 47 86 49 87
REMARK SMILES IDX 48 88
REMARK H PARENT 14 6 10 9 21 37 65 56 43 67
REMARK Flexibility Score: inf
ROOT
ATOM      1  C   UNL A   1      35.604  22.419  24.770  1.00  0.00     0.021 C 
ENDROOT
BRANCH   1   2
ATOM      2  C   UNL A   1      34.566  21.985  25.805  1.00  0.00     0.116 C 
BRANCH   2   3
ATOM      3  N   UNL A   1      33.792  20.857  25.327  1.00  0.00    -0.355 N 
ATOM      4  C   UNL A   1      32.435  20.740  25.208  1.00  0.00     0.239 C 
ATOM      5  O   UNL A   1      31.968  19.651  24.870  1.00  0.00    -0.273 OA
ATOM      6  H   UNL A   1      34.314  20.069  25.051  1.00  0.00     0.163 HD
BRANCH   4   7
ATOM      7  C   UNL A   1      31.536  21.963  25.436  1.00  0.00     0.215 C 
BRANCH   7   8
ATOM      8  N   UNL A   1      31.578  22.883  24.311  1.00  0.00    -0.352 N 
ATOM      9  H   UNL A   1      31.514  22.495  23.408  1.00  0.00     0.163 HD
BRANCH   8  10
ATOM     10  C   UNL A   1      31.696  24.225  24.399  1.00  0.00     0.184 A 
ATOM     11  C   UNL A   1      31.119  26.345  24.095  1.00  0.00     0.091 A 
ATOM     12  N   UNL A   1      30.859  25.022  23.777  1.00  0.00    -0.220 NA
ATOM     13  C   UNL A   1      32.113  26.546  25.041  1.00  0.00     0.064 A 
ATOM     14  S   UNL A   1      32.880  25.047  25.349  1.00  0.00    -0.096 S 
BRANCH  11  15
ATOM     15  C   UNL A   1      30.349  27.428  23.501  1.00  0.00     0.002 A 
ATOM     16  C   UNL A   1      28.839  29.420  22.232  1.00  0.00     0.118 A 
ATOM     17  C   UNL A   1      28.207  28.456  23.016  1.00  0.00     0.047 A 
ATOM     18  C   UNL A   1      30.231  29.421  22.122  1.00  0.00     0.047 A 
ATOM     19  C   UNL A   1      28.955  27.459  23.642  1.00  0.00     0.014 A 
ATOM     20  C   UNL A   1      30.986  28.429  22.761  1.00  0.00     0.014 A 
BRANCH  16  21
ATOM     21  O   UNL A   1      28.011  30.348  21.662  1.00  0.00    -0.497 OA
ATOM     22  C   UNL A   1      28.310  31.700  21.995  1.00  0.00     0.278 C 
ENDBRANCH  16  21
ENDBRANCH  11  15
BRANCH  13  23
ATOM     23  C   UNL A   1      32.519  27.753  25.769  1.00  0.00    -0.006 A 
ATOM     24  C   UNL A   1      31.609  28.511  26.513  1.00  0.00     0.013 A 
ATOM     25  C   UNL A   1      33.860  28.165  25.731  1.00  0.00     0.013 A 
ATOM     26  C   UNL A   1      32.040  29.641  27.214  1.00  0.00     0.047 A 
ATOM     27  C   UNL A   1      34.291  29.291  26.440  1.00  0.00     0.047 A 
ATOM     28  C   UNL A   1      33.383  30.028  27.193  1.00  0.00     0.118 A 
BRANCH  28  29
ATOM     29  O   UNL A   1      33.675  31.138  27.937  1.00  0.00    -0.497 OA
ATOM     30  C   UNL A   1      33.060  32.356  27.531  1.00  0.00     0.278 C 
ENDBRANCH  28  29
ENDBRANCH  13  23
ENDBRANCH   8  10
ENDBRANCH   7   8
ENDBRANCH   4   7
ENDBRANCH   2   3
ENDBRANCH   1   2
BRANCH   1  31
ATOM     31  C   UNL A   1      37.002  21.843  25.029  1.00  0.00     0.002 C 
BRANCH  31  32
ATOM     32  C   UNL A   1      37.116  20.321  24.870  1.00  0.00     0.002 C 
BRANCH  32  33
ATOM     33  C   UNL A   1      38.545  19.784  24.748  1.00  0.00     0.021 C 
BRANCH  33  34
ATOM     34  C   UNL A   1      39.376  19.897  26.021  1.00  0.00     0.116 C 
BRANCH  34  35
ATOM     35  N   UNL A   1      40.541  19.027  25.993  1.00  0.00    -0.352 N 
ATOM     36  C   UNL A   1      41.868  19.349  26.107  1.00  0.00     0.251 C 
ATOM     37  H   UNL A   1      40.349  18.069  25.874  1.00  0.00     0.163 HD
ATOM     38  O   UNL A   1      42.731  18.502  25.871  1.00  0.00    -0.269 OA
BRANCH  36  39
ATOM     39  C   UNL A   1      42.271  20.714  26.500  1.00  0.00     0.039 A 
ATOM     40  C   UNL A   1      42.328  21.038  27.859  1.00  0.00     0.014 A 
ATOM     41  C   UNL A   1      42.562  21.684  25.535  1.00  0.00     0.014 A 
ATOM     42  C   UNL A   1      42.716  22.321  28.251  1.00  0.00     0.010 A 
ATOM     43  C   UNL A   1      43.013  22.941  25.929  1.00  0.00     0.010 A 
ATOM     44  C   UNL A   1      43.083  23.276  27.289  1.00  0.00    -0.014 A 
BRANCH  44  45
ATOM     45  C   UNL A   1      43.508  24.641  27.686  1.00  0.00     0.031 A 
ATOM     46  C   UNL A   1      42.474  25.677  28.036  1.00  0.00     0.074 A 
ATOM     47  C   UNL A   1      44.814  24.965  27.687  1.00  0.00     0.049 A 
ATOM     48  N   UNL A   1      42.639  26.939  28.344  1.00  0.00    -0.248 NA
ATOM     49  C   UNL A   1      41.067  25.243  28.015  1.00  0.00     0.031 C 
ATOM     50  C   UNL A   1      45.915  24.060  27.347  1.00  0.00     0.029 A 
ATOM     51  N   UNL A   1      45.438  26.150  27.984  1.00  0.00    -0.354 N 
ATOM     52  C   UNL A   1      41.362  27.450  28.538  1.00  0.00     0.074 A 
ATOM     53  C   UNL A   1      40.430  26.377  28.262  1.00  0.00     0.031 C 
ATOM     54  C   UNL A   1      47.079  24.715  27.483  1.00  0.00     0.029 A 
ATOM     55  C   UNL A   1      46.808  26.092  27.883  1.00  0.00     0.049 A 
ATOM     56  H   UNL A   1      44.952  26.965  28.245  1.00  0.00     0.167 HD
ATOM     57  C   UNL A   1      40.995  28.692  28.933  1.00  0.00     0.031 A 
ATOM     58  C   UNL A   1      47.738  27.043  28.090  1.00  0.00     0.031 A 
ATOM     59  C   UNL A   1      41.918  29.755  29.222  1.00  0.00     0.049 A 
ATOM     60  C   UNL A   1      47.303  28.419  28.511  1.00  0.00     0.074 A 
ATOM     61  C   UNL A   1      41.646  31.042  29.656  1.00  0.00     0.029 A 
ATOM     62  N   UNL A   1      43.295  29.652  29.115  1.00  0.00    -0.354 N 
ATOM     63  N   UNL A   1      46.093  28.874  28.726  1.00  0.00    -0.248 NA
ATOM     64  C   UNL A   1      48.368  29.408  28.735  1.00  0.00     0.031 C 
ATOM     65  C   UNL A   1      42.859  31.728  29.776  1.00  0.00     0.029 A 
ATOM     66  C   UNL A   1      43.887  30.853  29.466  1.00  0.00     0.049 A 
ATOM     67  H   UNL A   1      43.782  28.844  28.833  1.00  0.00     0.167 HD
ATOM     68  C   UNL A   1      46.253  30.189  29.145  1.00  0.00     0.074 A 
ATOM     69  C   UNL A   1      47.677  30.454  29.163  1.00  0.00     0.031 C 
ATOM     70  C   UNL A   1      45.306  31.095  29.489  1.00  0.00     0.031 A 
BRANCH  57  71
ATOM     71  C   UNL A   1      39.523  28.962  29.075  1.00  0.00    -0.014 A 
ATOM     72  C   UNL A   1      38.854  28.713  30.284  1.00  0.00     0.009 A 
ATOM     73  C   UNL A   1      38.800  29.497  27.998  1.00  0.00     0.009 A 
ATOM     74  C   UNL A   1      37.484  28.958  30.399  1.00  0.00     0.001 A 
ATOM     75  C   UNL A   1      37.436  29.768  28.124  1.00  0.00     0.001 A 
ATOM     76  C   UNL A   1      36.778  29.488  29.320  1.00  0.00     0.000 A 
ENDBRANCH  57  71
BRANCH  58  77
ATOM     77  C   UNL A   1      49.181  26.726  27.929  1.00  0.00    -0.014 A 
ATOM     78  C   UNL A   1      49.812  26.906  26.689  1.00  0.00     0.009 A 
ATOM     79  C   UNL A   1      49.929  26.222  29.004  1.00  0.00     0.009 A 
ATOM     80  C   UNL A   1      51.153  26.556  26.518  1.00  0.00     0.001 A 
ATOM     81  C   UNL A   1      51.277  25.898  28.839  1.00  0.00     0.001 A 
ATOM     82  C   UNL A   1      51.885  26.055  27.594  1.00  0.00     0.000 A 
ENDBRANCH  58  77
BRANCH  70  83
ATOM     83  C   UNL A   1      45.782  32.437  29.967  1.00  0.00    -0.014 A 
ATOM     84  C   UNL A   1      45.910  33.524  29.088  1.00  0.00     0.009 A 
ATOM     85  C   UNL A   1      46.076  32.621  31.327  1.00  0.00     0.009 A 
ATOM     86  C   UNL A   1      46.358  34.760  29.558  1.00  0.00     0.001 A 
ATOM     87  C   UNL A   1      46.497  33.865  31.798  1.00  0.00     0.001 A 
ATOM     88  C   UNL A   1      46.647  34.931  30.912  1.00  0.00     0.000 A 
ENDBRANCH  70  83
ENDBRANCH  44  45
ENDBRANCH  36  39
ENDBRANCH  34  35
ENDBRANCH  33  34
ENDBRANCH  32  33
ENDBRANCH  31  32
ENDBRANCH   1  31
TORSDOF 19
ENDMDL
MODEL 3
REMARK VINA RESULT:     -10.7      0.795      6.274
REMARK SMILES COc1ccc(-c2nc(NCC(=O)NCCCCCCNC(=O)c3ccc(-c4c5nc(c(-c6ccccc6)c6ccc([nH]6)c(-c6ccccc6)c6nc(c(-c7ccccc7)c7ccc4[nH]7)C=C6)C=C5)cc3)sc2-c2ccc(OC)cc2)cc1
REMARK SMILES IDX 16 1 15 2 14 3 12 4 13 5 11 7 10 8 9 10 7 11 8 12 73 13
REMARK SMILES IDX 72 14 6 15 3 16 4 17 83 18 5 19 82 20 2 21 1 22 74 23 75 24
REMARK SMILES IDX 81 25 76 26 80 27 77 28 78 29 79 30 17 31 18 32 19 33 20 34
REMARK SMILES IDX 21 35 22 36 23 38 24 39 25 40 71 41 26 42 70 43 27 44 28 45
REMARK SMILES IDX 29 46 64 47 30 48 69 49 63 50 65 51 31 52 68 53 62 54 61 55
REMARK SMILES IDX 32 57 54 58 39 59 53 60 40 61 43 62 52 63 66 64 41 65 42 66
REMARK SMILES IDX 51 68 67 69 44 70 33 71 34 72 38 73 35 74 37 75 36 76 55 77
REMARK SMILES IDX 56 78 60 79 57 80 59 81 58 82 45 83 46 84 50 85 47 86 49 87
REMARK SMILES IDX 48 88
REMARK H PARENT 14 6 10 9 21 37 65 56 43 67
REMARK Flexibility Score: inf
ROOT
ATOM      1  C   UNL A   1      35.542  22.900  24.030  1.00  0.00     0.021 C 
ENDROOT
BRANCH   1   2
ATOM      2  C   UNL A   1      34.666  22.605  25.248  1.00  0.00     0.116 C 
BRANCH   2   3
ATOM      3  N   UNL A   1      33.759  21.507  24.985  1.00  0.00    -0.355 N 
ATOM      4  C   UNL A   1      32.438  21.391  25.318  1.00  0.00     0.239 C 
ATOM      5  O   UNL A   1      31.867  20.323  25.087  1.00  0.00    -0.273 OA
ATOM      6  H   UNL A   1      34.145  20.741  24.501  1.00  0.00     0.163 HD
BRANCH   4   7
ATOM      7  C   UNL A   1      31.686  22.590  25.909  1.00  0.00     0.215 C 
BRANCH   7   8
ATOM      8  N   UNL A   1      30.929  23.308  24.896  1.00  0.00    -0.352 N 
ATOM      9  H   UNL A   1      30.458  22.769  24.220  1.00  0.00     0.163 HD
BRANCH   8  10
ATOM     10  C   UNL A   1      30.817  24.650  24.805  1.00  0.00     0.184 A 
ATOM     11  C   UNL A   1      31.401  26.769  25.108  1.00  0.00     0.091 A 
ATOM     12  N   UNL A   1      31.654  25.445  25.430  1.00  0.00    -0.220 NA
ATOM     13  C   UNL A   1      30.413  26.972  24.156  1.00  0.00     0.064 A 
ATOM     14  S   UNL A   1      29.641  25.475  23.847  1.00  0.00    -0.096 S 
BRANCH  11  15
ATOM     15  C   UNL A   1      32.171  27.849  25.704  1.00  0.00     0.002 A 
ATOM     16  C   UNL A   1      33.677  29.992  26.706  1.00  0.00     0.118 A 
ATOM     17  C   UNL A   1      32.303  30.130  26.516  1.00  0.00     0.047 A 
ATOM     18  C   UNL A   1      34.293  28.767  26.443  1.00  0.00     0.047 A 
ATOM     19  C   UNL A   1      31.553  29.069  26.010  1.00  0.00     0.014 A 
ATOM     20  C   UNL A   1      33.540  27.694  25.948  1.00  0.00     0.014 A 
BRANCH  16  21
ATOM     21  O   UNL A   1      34.315  31.095  27.203  1.00  0.00    -0.497 OA
ATOM     22  C   UNL A   1      33.477  31.999  27.915  1.00  0.00     0.278 C 
ENDBRANCH  16  21
ENDBRANCH  11  15
BRANCH  13  23
ATOM     23  C   UNL A   1      30.016  28.178  23.424  1.00  0.00    -0.006 A 
ATOM     24  C   UNL A   1      30.887  28.833  22.547  1.00  0.00     0.013 A 
ATOM     25  C   UNL A   1      28.723  28.697  23.594  1.00  0.00     0.013 A 
ATOM     26  C   UNL A   1      30.462  29.967  21.847  1.00  0.00     0.047 A 
ATOM     27  C   UNL A   1      28.297  29.826  22.887  1.00  0.00     0.047 A 
ATOM     28  C   UNL A   1      29.164  30.460  22.002  1.00  0.00     0.118 A 
BRANCH  28  29
ATOM     29  O   UNL A   1      28.870  31.561  21.245  1.00  0.00    -0.497 OA
ATOM     30  C   UNL A   1      27.880  31.393  20.236  1.00  0.00     0.278 C 
ENDBRANCH  28  29
ENDBRANCH  13  23
ENDBRANCH   8  10
ENDBRANCH   7   8
ENDBRANCH   4   7
ENDBRANCH   2   3
ENDBRANCH   1   2
BRANCH   1  31
ATOM     31  C   UNL A   1      36.767  21.983  23.923  1.00  0.00     0.002 C 
BRANCH  31  32
ATOM     32  C   UNL A   1      36.857  20.892  24.998  1.00  0.00     0.002 C 
BRANCH  32  33
ATOM     33  C   UNL A   1      38.087  19.985  24.904  1.00  0.00     0.021 C 
BRANCH  33  34
ATOM     34  C   UNL A   1      39.092  20.159  26.038  1.00  0.00     0.116 C 
BRANCH  34  35
ATOM     35  N   UNL A   1      40.236  19.272  25.896  1.00  0.00    -0.352 N 
ATOM     36  C   UNL A   1      41.573  19.561  25.975  1.00  0.00     0.251 C 
ATOM     37  H   UNL A   1      40.019  18.329  25.716  1.00  0.00     0.163 HD
ATOM     38  O   UNL A   1      42.407  18.719  25.641  1.00  0.00    -0.269 OA
BRANCH  36  39
ATOM     39  C   UNL A   1      42.021  20.886  26.449  1.00  0.00     0.039 A 
ATOM     40  C   UNL A   1      42.307  21.880  25.507  1.00  0.00     0.014 A 
ATOM     41  C   UNL A   1      42.192  21.144  27.812  1.00  0.00     0.014 A 
ATOM     42  C   UNL A   1      42.722  23.143  25.934  1.00  0.00     0.010 A 
ATOM     43  C   UNL A   1      42.542  22.422  28.239  1.00  0.00     0.010 A 
ATOM     44  C   UNL A   1      42.822  23.430  27.305  1.00  0.00    -0.014 A 
BRANCH  44  45
ATOM     45  C   UNL A   1      43.252  24.768  27.780  1.00  0.00     0.031 A 
ATOM     46  C   UNL A   1      42.222  25.802  28.146  1.00  0.00     0.074 A 
ATOM     47  C   UNL A   1      44.562  25.072  27.837  1.00  0.00     0.049 A 
ATOM     48  N   UNL A   1      42.395  27.045  28.518  1.00  0.00    -0.248 NA
ATOM     49  C   UNL A   1      40.811  25.392  28.059  1.00  0.00     0.031 C 
ATOM     50  C   UNL A   1      45.661  24.167  27.489  1.00  0.00     0.029 A 
ATOM     51  N   UNL A   1      45.193  26.232  28.210  1.00  0.00    -0.354 N 
ATOM     52  C   UNL A   1      41.119  27.566  28.696  1.00  0.00     0.074 A 
ATOM     53  C   UNL A   1      40.182  26.523  28.339  1.00  0.00     0.031 C 
ATOM     54  C   UNL A   1      46.829  24.797  27.694  1.00  0.00     0.029 A 
ATOM     55  C   UNL A   1      46.564  26.157  28.150  1.00  0.00     0.049 A 
ATOM     56  H   UNL A   1      44.709  27.041  28.494  1.00  0.00     0.167 HD
ATOM     57  C   UNL A   1      40.757  28.794  29.137  1.00  0.00     0.031 A 
ATOM     58  C   UNL A   1      47.500  27.083  28.432  1.00  0.00     0.031 A 
ATOM     59  C   UNL A   1      41.685  29.829  29.506  1.00  0.00     0.049 A 
ATOM     60  C   UNL A   1      47.071  28.444  28.904  1.00  0.00     0.074 A 
ATOM     61  C   UNL A   1      41.417  31.097  29.991  1.00  0.00     0.029 A 
ATOM     62  N   UNL A   1      43.063  29.709  29.438  1.00  0.00    -0.354 N 
ATOM     63  N   UNL A   1      45.861  28.908  29.101  1.00  0.00    -0.248 NA
ATOM     64  C   UNL A   1      48.142  29.404  29.208  1.00  0.00     0.031 C 
ATOM     65  C   UNL A   1      42.635  31.758  30.183  1.00  0.00     0.029 A 
ATOM     66  C   UNL A   1      43.660  30.883  29.864  1.00  0.00     0.049 A 
ATOM     67  H   UNL A   1      43.547  28.907  29.133  1.00  0.00     0.167 HD
ATOM     68  C   UNL A   1      46.025  30.199  29.588  1.00  0.00     0.074 A 
ATOM     69  C   UNL A   1      47.452  30.440  29.663  1.00  0.00     0.031 C 
ATOM     70  C   UNL A   1      45.081  31.102  29.944  1.00  0.00     0.031 A 
BRANCH  57  71
ATOM     71  C   UNL A   1      39.285  29.080  29.245  1.00  0.00    -0.014 A 
ATOM     72  C   UNL A   1      38.584  28.833  30.437  1.00  0.00     0.009 A 
ATOM     73  C   UNL A   1      38.594  29.628  28.153  1.00  0.00     0.009 A 
ATOM     74  C   UNL A   1      37.215  29.093  30.519  1.00  0.00     0.001 A 
ATOM     75  C   UNL A   1      37.231  29.914  28.248  1.00  0.00     0.001 A 
ATOM     76  C   UNL A   1      36.541  29.636  29.427  1.00  0.00     0.000 A 
ENDBRANCH  57  71
BRANCH  58  77
ATOM     77  C   UNL A   1      48.943  26.752  28.302  1.00  0.00    -0.014 A 
ATOM     78  C   UNL A   1      49.603  26.928  27.076  1.00  0.00     0.009 A 
ATOM     79  C   UNL A   1      49.662  26.237  29.392  1.00  0.00     0.009 A 
ATOM     80  C   UNL A   1      50.944  26.565  26.934  1.00  0.00     0.001 A 
ATOM     81  C   UNL A   1      51.010  25.900  29.255  1.00  0.00     0.001 A 
ATOM     82  C   UNL A   1      51.647  26.054  28.025  1.00  0.00     0.000 A 
ENDBRANCH  58  77
BRANCH  70  83
ATOM     83  C   UNL A   1      45.559  32.412  30.500  1.00  0.00    -0.014 A 
ATOM     84  C   UNL A   1      45.740  33.535  29.677  1.00  0.00     0.009 A 
ATOM     85  C   UNL A   1      45.803  32.530  31.877  1.00  0.00     0.009 A 
ATOM     86  C   UNL A   1      46.189  34.740  30.219  1.00  0.00     0.001 A 
ATOM     87  C   UNL A   1      46.225  33.744  32.420  1.00  0.00     0.001 A 
ATOM     88  C   UNL A   1      46.427  34.845  31.590  1.00  0.00     0.000 A 
ENDBRANCH  70  83
ENDBRANCH  44  45
ENDBRANCH  36  39
ENDBRANCH  34  35
ENDBRANCH  33  34
ENDBRANCH  32  33
ENDBRANCH  31  32
ENDBRANCH   1  31
TORSDOF 19
ENDMDL
