MODEL 1
REMARK VINA RESULT:     -10.9      0.000      0.000
REMARK SMILES Cc1ccc([C@H]2CC(c3cccs3)=NN2C(=O)CCC(=O)NCCCCCCNC(=O)c2ccc(-c3c4nc(c(-c5ccccc5)c5ccc([nH]5)c(-c5ccccc5)c5nc(c(-c6ccccc6)c6ccc3[nH]6)C=C5)C=C4)cc2)o1
REMARK SMILES IDX 24 1 23 2 22 3 20 4 21 5 19 7 18 8 16 9 17 10 15 11 6 12
REMARK SMILES IDX 7 13 8 14 14 15 5 16 1 17 2 18 3 19 80 20 4 21 9 22 10 23
REMARK SMILES IDX 13 24 11 25 12 26 25 27 26 28 27 29 28 30 29 31 30 32 31 34
REMARK SMILES IDX 32 35 33 36 79 37 34 38 78 39 35 40 36 41 37 42 72 43 38 44
REMARK SMILES IDX 77 45 71 46 73 47 39 48 76 49 70 50 69 51 40 53 62 54 47 55
REMARK SMILES IDX 61 56 48 57 51 58 60 59 74 60 49 61 50 62 59 64 75 65 52 66
REMARK SMILES IDX 41 67 42 68 46 69 43 70 45 71 44 72 63 73 64 74 68 75 65 76
REMARK SMILES IDX 67 77 66 78 53 79 54 80 58 81 55 82 57 83 56 84
REMARK H PARENT 22 6 29 33 73 52 51 63
REMARK Flexibility Score: inf
ROOT
ATOM      1  C   UNL A   1      30.702  27.517  23.404  1.00  0.00     0.021 C 
ENDROOT
BRANCH   1   2
ATOM      2  C   UNL A   1      30.485  26.017  23.596  1.00  0.00     0.116 C 
BRANCH   2   3
ATOM      3  N   UNL A   1      29.641  25.584  24.693  1.00  0.00    -0.356 N 
ATOM      4  C   UNL A   1      29.974  25.159  25.940  1.00  0.00     0.220 C 
ATOM      5  O   UNL A   1      29.132  25.255  26.833  1.00  0.00    -0.275 OA
ATOM      6  H   UNL A   1      28.675  25.602  24.505  1.00  0.00     0.163 HD
BRANCH   4   7
ATOM      7  C   UNL A   1      31.318  24.524  26.202  1.00  0.00     0.110 C 
BRANCH   7   8
ATOM      8  C   UNL A   1      31.206  22.998  26.126  1.00  0.00     0.112 C 
BRANCH   8   9
ATOM      9  C   UNL A   1      32.370  22.384  26.869  1.00  0.00     0.243 C 
ATOM     10  O   UNL A   1      32.494  22.591  28.079  1.00  0.00    -0.273 OA
BRANCH   9  11
ATOM     11  N   UNL A   1      33.319  21.727  26.103  1.00  0.00    -0.222 N 
ATOM     12  C   UNL A   1      34.027  22.281  24.949  1.00  0.00     0.183 C 
ATOM     13  C   UNL A   1      34.161  21.084  24.008  1.00  0.00     0.095 C 
ATOM     14  C   UNL A   1      33.812  19.980  24.954  1.00  0.00     0.081 C 
ATOM     15  N   UNL A   1      33.303  20.359  26.080  1.00  0.00    -0.173 NA
BRANCH  12  16
ATOM     16  C   UNL A   1      35.349  22.830  25.358  1.00  0.00     0.129 A 
ATOM     17  C   UNL A   1      38.726  21.812  25.902  1.00  0.00     0.087 C 
ATOM     18  C   UNL A   1      37.489  22.608  25.791  1.00  0.00     0.101 A 
ATOM     19  C   UNL A   1      37.211  23.951  25.904  1.00  0.00     0.045 A 
ATOM     20  O   UNL A   1      36.357  21.917  25.484  1.00  0.00    -0.464 OA
ATOM     21  C   UNL A   1      35.828  24.095  25.631  1.00  0.00     0.048 A 
ENDBRANCH  12  16
BRANCH  14  22
ATOM     22  C   UNL A   1      33.922  18.587  24.638  1.00  0.00     0.050 A 
ATOM     23  C   UNL A   1      35.056  17.804  24.561  1.00  0.00     0.022 A 
ATOM     24  S   UNL A   1      32.493  17.665  24.477  1.00  0.00    -0.142 S 
ATOM     25  C   UNL A   1      34.738  16.423  24.398  1.00  0.00     0.012 A 
ATOM     26  C   UNL A   1      33.379  16.206  24.365  1.00  0.00     0.065 A 
ENDBRANCH  14  22
ENDBRANCH   9  11
ENDBRANCH   8   9
ENDBRANCH   7   8
ENDBRANCH   4   7
ENDBRANCH   2   3
ENDBRANCH   1   2
BRANCH   1  27
ATOM     27  C   UNL A   1      31.058  28.401  24.604  1.00  0.00     0.002 C 
BRANCH  27  28
ATOM     28  C   UNL A   1      32.274  28.027  25.455  1.00  0.00     0.002 C 
BRANCH  28  29
ATOM     29  C   UNL A   1      32.359  28.732  26.804  1.00  0.00     0.021 C 
BRANCH  29  30
ATOM     30  C   UNL A   1      33.774  29.145  27.187  1.00  0.00     0.116 C 
BRANCH  30  31
ATOM     31  N   UNL A   1      33.855  30.399  27.933  1.00  0.00    -0.352 N 
ATOM     32  C   UNL A   1      34.945  30.862  28.638  1.00  0.00     0.251 C 
ATOM     33  H   UNL A   1      33.053  30.968  27.933  1.00  0.00     0.163 HD
ATOM     34  O   UNL A   1      34.915  31.890  29.301  1.00  0.00    -0.269 OA
BRANCH  32  35
ATOM     35  C   UNL A   1      36.154  30.020  28.603  1.00  0.00     0.039 A 
ATOM     36  C   UNL A   1      36.990  30.087  27.489  1.00  0.00     0.014 A 
ATOM     37  C   UNL A   1      36.551  29.368  29.774  1.00  0.00     0.014 A 
ATOM     38  C   UNL A   1      38.286  29.585  27.588  1.00  0.00     0.010 A 
ATOM     39  C   UNL A   1      37.868  28.952  29.896  1.00  0.00     0.010 A 
ATOM     40  C   UNL A   1      38.750  29.073  28.811  1.00  0.00    -0.014 A 
BRANCH  40  41
ATOM     41  C   UNL A   1      40.168  28.686  28.989  1.00  0.00     0.031 A 
ATOM     42  C   UNL A   1      41.142  29.675  29.558  1.00  0.00     0.074 A 
ATOM     43  C   UNL A   1      40.584  27.475  28.565  1.00  0.00     0.049 A 
ATOM     44  N   UNL A   1      42.430  29.550  29.744  1.00  0.00    -0.248 NA
ATOM     45  C   UNL A   1      40.602  30.992  29.934  1.00  0.00     0.031 C 
ATOM     46  C   UNL A   1      39.741  26.458  27.930  1.00  0.00     0.029 A 
ATOM     47  N   UNL A   1      41.828  26.897  28.599  1.00  0.00    -0.354 N 
ATOM     48  C   UNL A   1      42.854  30.775  30.244  1.00  0.00     0.074 A 
ATOM     49  C   UNL A   1      41.701  31.646  30.273  1.00  0.00     0.031 C 
ATOM     50  C   UNL A   1      40.484  25.370  27.669  1.00  0.00     0.029 A 
ATOM     51  C   UNL A   1      41.858  25.622  28.087  1.00  0.00     0.049 A 
ATOM     52  H   UNL A   1      42.624  27.352  28.957  1.00  0.00     0.167 HD
ATOM     53  C   UNL A   1      44.087  31.132  30.670  1.00  0.00     0.031 A 
ATOM     54  C   UNL A   1      42.881  24.754  27.974  1.00  0.00     0.031 A 
ATOM     55  C   UNL A   1      45.226  30.257  30.649  1.00  0.00     0.049 A 
ATOM     56  C   UNL A   1      44.236  25.164  28.481  1.00  0.00     0.074 A 
ATOM     57  C   UNL A   1      46.513  30.502  31.090  1.00  0.00     0.029 A 
ATOM     58  N   UNL A   1      45.206  28.959  30.162  1.00  0.00    -0.354 N 
ATOM     59  N   UNL A   1      44.606  26.303  29.016  1.00  0.00    -0.248 NA
ATOM     60  C   UNL A   1      45.310  24.167  28.382  1.00  0.00     0.031 C 
ATOM     61  C   UNL A   1      47.281  29.358  30.843  1.00  0.00     0.029 A 
ATOM     62  C   UNL A   1      46.459  28.389  30.288  1.00  0.00     0.049 A 
ATOM     63  H   UNL A   1      44.415  28.510  29.783  1.00  0.00     0.167 HD
ATOM     64  C   UNL A   1      45.947  26.150  29.342  1.00  0.00     0.074 A 
ATOM     65  C   UNL A   1      46.318  24.802  28.961  1.00  0.00     0.031 C 
ATOM     66  C   UNL A   1      46.797  27.044  29.904  1.00  0.00     0.031 A 
BRANCH  53  67
ATOM     67  C   UNL A   1      44.246  32.529  31.201  1.00  0.00    -0.014 A 
ATOM     68  C   UNL A   1      43.958  32.827  32.544  1.00  0.00     0.009 A 
ATOM     69  C   UNL A   1      44.678  33.559  30.354  1.00  0.00     0.009 A 
ATOM     70  C   UNL A   1      44.056  34.137  33.016  1.00  0.00     0.001 A 
ATOM     71  C   UNL A   1      44.803  34.864  30.836  1.00  0.00     0.001 A 
ATOM     72  C   UNL A   1      44.480  35.154  32.162  1.00  0.00     0.000 A 
ENDBRANCH  53  67
BRANCH  54  73
ATOM     73  C   UNL A   1      42.661  23.403  27.395  1.00  0.00    -0.014 A 
ATOM     74  C   UNL A   1      42.914  23.161  26.036  1.00  0.00     0.009 A 
ATOM     75  C   UNL A   1      42.190  22.349  28.194  1.00  0.00     0.009 A 
ATOM     76  C   UNL A   1      42.670  21.901  25.481  1.00  0.00     0.001 A 
ATOM     77  C   UNL A   1      41.974  21.083  27.642  1.00  0.00     0.001 A 
ATOM     78  C   UNL A   1      42.204  20.863  26.285  1.00  0.00     0.000 A 
ENDBRANCH  54  73
BRANCH  66  79
ATOM     79  C   UNL A   1      48.198  26.576  30.166  1.00  0.00    -0.014 A 
ATOM     80  C   UNL A   1      48.567  26.053  31.415  1.00  0.00     0.009 A 
ATOM     81  C   UNL A   1      49.147  26.618  29.133  1.00  0.00     0.009 A 
ATOM     82  C   UNL A   1      49.872  25.608  31.632  1.00  0.00     0.001 A 
ATOM     83  C   UNL A   1      50.443  26.150  29.347  1.00  0.00     0.001 A 
ATOM     84  C   UNL A   1      50.806  25.653  30.598  1.00  0.00     0.000 A 
ENDBRANCH  66  79
ENDBRANCH  40  41
ENDBRANCH  32  35
ENDBRANCH  30  31
ENDBRANCH  29  30
ENDBRANCH  28  29
ENDBRANCH  27  28
ENDBRANCH   1  27
TORSDOF 18
ENDMDL
MODEL 2
REMARK VINA RESULT:     -10.9      2.810      8.642
REMARK SMILES Cc1ccc([C@H]2CC(c3cccs3)=NN2C(=O)CCC(=O)NCCCCCCNC(=O)c2ccc(-c3c4nc(c(-c5ccccc5)c5ccc([nH]5)c(-c5ccccc5)c5nc(c(-c6ccccc6)c6ccc3[nH]6)C=C5)C=C4)cc2)o1
REMARK SMILES IDX 24 1 23 2 22 3 20 4 21 5 19 7 18 8 16 9 17 10 15 11 6 12
REMARK SMILES IDX 7 13 8 14 14 15 5 16 1 17 2 18 3 19 80 20 4 21 9 22 10 23
REMARK SMILES IDX 13 24 11 25 12 26 25 27 26 28 27 29 28 30 29 31 30 32 31 34
REMARK SMILES IDX 32 35 33 36 79 37 34 38 78 39 35 40 36 41 37 42 72 43 38 44
REMARK SMILES IDX 77 45 71 46 73 47 39 48 76 49 70 50 69 51 40 53 62 54 47 55
REMARK SMILES IDX 61 56 48 57 51 58 60 59 74 60 49 61 50 62 59 64 75 65 52 66
REMARK SMILES IDX 41 67 42 68 46 69 43 70 45 71 44 72 63 73 64 74 68 75 65 76
REMARK SMILES IDX 67 77 66 78 53 79 54 80 58 81 55 82 57 83 56 84
REMARK H PARENT 22 6 29 33 73 52 51 63
REMARK Flexibility Score: inf
ROOT
ATOM      1  C   UNL A   1      33.780  21.313  24.925  1.00  0.00     0.021 C 
ENDROOT
BRANCH   1   2
ATOM      2  C   UNL A   1      32.330  21.030  25.313  1.00  0.00     0.116 C 
BRANCH   2   3
ATOM      3  N   UNL A   1      31.773  21.747  26.444  1.00  0.00    -0.356 N 
ATOM      4  C   UNL A   1      31.086  22.918  26.487  1.00  0.00     0.220 C 
ATOM      5  O   UNL A   1      30.346  23.126  27.449  1.00  0.00    -0.275 OA
ATOM      6  H   UNL A   1      31.914  21.317  27.318  1.00  0.00     0.163 HD
BRANCH   4   7
ATOM      7  C   UNL A   1      31.280  23.963  25.414  1.00  0.00     0.110 C 
BRANCH   7   8
ATOM      8  C   UNL A   1      30.175  25.021  25.503  1.00  0.00     0.112 C 
BRANCH   8   9
ATOM      9  C   UNL A   1      30.116  25.777  24.196  1.00  0.00     0.243 C 
ATOM     10  O   UNL A   1      29.899  25.161  23.149  1.00  0.00    -0.273 OA
BRANCH   9  11
ATOM     11  N   UNL A   1      30.451  27.120  24.239  1.00  0.00    -0.222 N 
ATOM     12  C   UNL A   1      30.660  27.993  23.084  1.00  0.00     0.183 C 
ATOM     13  C   UNL A   1      31.797  28.911  23.535  1.00  0.00     0.095 C 
ATOM     14  C   UNL A   1      31.789  28.620  25.001  1.00  0.00     0.081 C 
ATOM     15  N   UNL A   1      31.081  27.598  25.357  1.00  0.00    -0.173 NA
BRANCH  12  16
ATOM     16  C   UNL A   1      29.417  28.747  22.763  1.00  0.00     0.129 A 
ATOM     17  C   UNL A   1      28.239  31.392  20.676  1.00  0.00     0.087 C 
ATOM     18  C   UNL A   1      28.322  30.298  21.662  1.00  0.00     0.101 A 
ATOM     19  C   UNL A   1      27.387  29.631  22.422  1.00  0.00     0.045 A 
ATOM     20  O   UNL A   1      29.562  29.782  21.883  1.00  0.00    -0.464 OA
ATOM     21  C   UNL A   1      28.094  28.634  23.138  1.00  0.00     0.048 A 
ENDBRANCH  12  16
BRANCH  14  22
ATOM     22  C   UNL A   1      32.573  29.331  25.965  1.00  0.00     0.050 A 
ATOM     23  C   UNL A   1      33.842  29.046  26.429  1.00  0.00     0.022 A 
ATOM     24  S   UNL A   1      31.998  30.829  26.550  1.00  0.00    -0.142 S 
ATOM     25  C   UNL A   1      34.355  30.092  27.251  1.00  0.00     0.012 A 
ATOM     26  C   UNL A   1      33.465  31.135  27.376  1.00  0.00     0.065 A 
ENDBRANCH  14  22
ENDBRANCH   9  11
ENDBRANCH   8   9
ENDBRANCH   7   8
ENDBRANCH   4   7
ENDBRANCH   2   3
ENDBRANCH   1   2
BRANCH   1  27
ATOM     27  C   UNL A   1      34.095  22.343  23.835  1.00  0.00     0.002 C 
BRANCH  27  28
ATOM     28  C   UNL A   1      35.505  22.936  23.771  1.00  0.00     0.002 C 
BRANCH  28  29
ATOM     29  C   UNL A   1      36.595  22.080  24.406  1.00  0.00     0.021 C 
BRANCH  29  30
ATOM     30  C   UNL A   1      37.553  22.872  25.286  1.00  0.00     0.116 C 
BRANCH  30  31
ATOM     31  N   UNL A   1      38.769  22.150  25.655  1.00  0.00    -0.352 N 
ATOM     32  C   UNL A   1      39.852  22.665  26.335  1.00  0.00     0.251 C 
ATOM     33  H   UNL A   1      38.821  21.204  25.390  1.00  0.00     0.163 HD
ATOM     34  O   UNL A   1      40.869  22.018  26.545  1.00  0.00    -0.269 OA
BRANCH  32  35
ATOM     35  C   UNL A   1      39.751  24.073  26.758  1.00  0.00     0.039 A 
ATOM     36  C   UNL A   1      39.290  24.359  28.043  1.00  0.00     0.014 A 
ATOM     37  C   UNL A   1      40.339  25.057  25.959  1.00  0.00     0.014 A 
ATOM     38  C   UNL A   1      39.520  25.626  28.574  1.00  0.00     0.010 A 
ATOM     39  C   UNL A   1      40.645  26.286  26.523  1.00  0.00     0.010 A 
ATOM     40  C   UNL A   1      40.254  26.574  27.841  1.00  0.00    -0.014 A 
BRANCH  40  41
ATOM     41  C   UNL A   1      40.653  27.865  28.444  1.00  0.00     0.031 A 
ATOM     42  C   UNL A   1      42.074  28.077  28.874  1.00  0.00     0.074 A 
ATOM     43  C   UNL A   1      39.717  28.809  28.672  1.00  0.00     0.049 A 
ATOM     44  N   UNL A   1      42.612  29.111  29.468  1.00  0.00    -0.248 NA
ATOM     45  C   UNL A   1      43.008  26.963  28.638  1.00  0.00     0.031 C 
ATOM     46  C   UNL A   1      38.289  28.687  28.362  1.00  0.00     0.029 A 
ATOM     47  N   UNL A   1      39.827  30.060  29.226  1.00  0.00    -0.354 N 
ATOM     48  C   UNL A   1      43.939  28.765  29.687  1.00  0.00     0.074 A 
ATOM     49  C   UNL A   1      44.109  27.407  29.222  1.00  0.00     0.031 C 
ATOM     50  C   UNL A   1      37.666  29.828  28.696  1.00  0.00     0.029 A 
ATOM     51  C   UNL A   1      38.639  30.749  29.272  1.00  0.00     0.049 A 
ATOM     52  H   UNL A   1      40.677  30.429  29.558  1.00  0.00     0.167 HD
ATOM     53  C   UNL A   1      44.935  29.523  30.202  1.00  0.00     0.031 A 
ATOM     54  C   UNL A   1      38.370  31.989  29.723  1.00  0.00     0.031 A 
ATOM     55  C   UNL A   1      44.761  30.875  30.652  1.00  0.00     0.049 A 
ATOM     56  C   UNL A   1      39.500  32.821  30.265  1.00  0.00     0.074 A 
ATOM     57  C   UNL A   1      45.708  31.748  31.156  1.00  0.00     0.029 A 
ATOM     58  N   UNL A   1      43.551  31.553  30.642  1.00  0.00    -0.354 N 
ATOM     59  N   UNL A   1      40.765  32.505  30.402  1.00  0.00    -0.248 NA
ATOM     60  C   UNL A   1      39.168  34.185  30.700  1.00  0.00     0.031 C 
ATOM     61  C   UNL A   1      45.063  32.947  31.479  1.00  0.00     0.029 A 
ATOM     62  C   UNL A   1      43.725  32.833  31.135  1.00  0.00     0.049 A 
ATOM     63  H   UNL A   1      42.695  31.178  30.330  1.00  0.00     0.167 HD
ATOM     64  C   UNL A   1      41.385  33.637  30.914  1.00  0.00     0.074 A 
ATOM     65  C   UNL A   1      40.359  34.653  31.044  1.00  0.00     0.031 C 
ATOM     66  C   UNL A   1      42.685  33.822  31.248  1.00  0.00     0.031 A 
BRANCH  53  67
ATOM     67  C   UNL A   1      46.296  28.890  30.289  1.00  0.00    -0.014 A 
ATOM     68  C   UNL A   1      47.199  28.976  29.217  1.00  0.00     0.009 A 
ATOM     69  C   UNL A   1      46.677  28.197  31.445  1.00  0.00     0.009 A 
ATOM     70  C   UNL A   1      48.441  28.339  29.283  1.00  0.00     0.001 A 
ATOM     71  C   UNL A   1      47.931  27.586  31.522  1.00  0.00     0.001 A 
ATOM     72  C   UNL A   1      48.806  27.647  30.437  1.00  0.00     0.000 A 
ENDBRANCH  53  67
BRANCH  54  73
ATOM     73  C   UNL A   1      36.989  32.534  29.649  1.00  0.00    -0.014 A 
ATOM     74  C   UNL A   1      36.627  33.418  28.622  1.00  0.00     0.009 A 
ATOM     75  C   UNL A   1      36.027  32.180  30.608  1.00  0.00     0.009 A 
ATOM     76  C   UNL A   1      35.340  33.962  28.573  1.00  0.00     0.001 A 
ATOM     77  C   UNL A   1      34.733  32.703  30.541  1.00  0.00     0.001 A 
ATOM     78  C   UNL A   1      34.393  33.601  29.530  1.00  0.00     0.000 A 
ENDBRANCH  54  73
BRANCH  66  79
ATOM     79  C   UNL A   1      43.070  35.181  31.756  1.00  0.00    -0.014 A 
ATOM     80  C   UNL A   1      42.950  35.508  33.115  1.00  0.00     0.009 A 
ATOM     81  C   UNL A   1      43.603  36.127  30.867  1.00  0.00     0.009 A 
ATOM     82  C   UNL A   1      43.329  36.772  33.569  1.00  0.00     0.001 A 
ATOM     83  C   UNL A   1      44.004  37.380  31.329  1.00  0.00     0.001 A 
ATOM     84  C   UNL A   1      43.860  37.704  32.677  1.00  0.00     0.000 A 
ENDBRANCH  66  79
ENDBRANCH  40  41
ENDBRANCH  32  35
ENDBRANCH  30  31
ENDBRANCH  29  30
ENDBRANCH  28  29
ENDBRANCH  27  28
ENDBRANCH   1  27
TORSDOF 18
ENDMDL
MODEL 3
REMARK VINA RESULT:     -10.8      2.405      6.678
REMARK SMILES Cc1ccc([C@H]2CC(c3cccs3)=NN2C(=O)CCC(=O)NCCCCCCNC(=O)c2ccc(-c3c4nc(c(-c5ccccc5)c5ccc([nH]5)c(-c5ccccc5)c5nc(c(-c6ccccc6)c6ccc3[nH]6)C=C5)C=C4)cc2)o1
REMARK SMILES IDX 24 1 23 2 22 3 20 4 21 5 19 7 18 8 16 9 17 10 15 11 6 12
REMARK SMILES IDX 7 13 8 14 14 15 5 16 1 17 2 18 3 19 80 20 4 21 9 22 10 23
REMARK SMILES IDX 13 24 11 25 12 26 25 27 26 28 27 29 28 30 29 31 30 32 31 34
REMARK SMILES IDX 32 35 33 36 79 37 34 38 78 39 35 40 36 41 37 42 72 43 38 44
REMARK SMILES IDX 77 45 71 46 73 47 39 48 76 49 70 50 69 51 40 53 62 54 47 55
REMARK SMILES IDX 61 56 48 57 51 58 60 59 74 60 49 61 50 62 59 64 75 65 52 66
REMARK SMILES IDX 41 67 42 68 46 69 43 70 45 71 44 72 63 73 64 74 68 75 65 76
REMARK SMILES IDX 67 77 66 78 53 79 54 80 58 81 55 82 57 83 56 84
REMARK H PARENT 22 6 29 33 73 52 51 63
REMARK Flexibility Score: inf
ROOT
ATOM      1  C   UNL A   1      30.615  28.161  24.231  1.00  0.00     0.021 C 
ENDROOT
BRANCH   1   2
ATOM      2  C   UNL A   1      30.198  26.736  23.870  1.00  0.00     0.116 C 
BRANCH   2   3
ATOM      3  N   UNL A   1      29.499  25.954  24.871  1.00  0.00    -0.356 N 
ATOM      4  C   UNL A   1      29.980  25.266  25.939  1.00  0.00     0.220 C 
ATOM      5  O   UNL A   1      29.220  25.045  26.882  1.00  0.00    -0.275 OA
ATOM      6  H   UNL A   1      28.522  25.917  24.760  1.00  0.00     0.163 HD
BRANCH   4   7
ATOM      7  C   UNL A   1      31.393  24.732  25.936  1.00  0.00     0.110 C 
BRANCH   7   8
ATOM      8  C   UNL A   1      31.482  23.473  26.806  1.00  0.00     0.112 C 
BRANCH   8   9
ATOM      9  C   UNL A   1      30.943  22.298  26.024  1.00  0.00     0.243 C 
ATOM     10  O   UNL A   1      29.804  21.886  26.258  1.00  0.00    -0.273 OA
BRANCH   9  11
ATOM     11  N   UNL A   1      31.829  21.659  25.172  1.00  0.00    -0.222 N 
ATOM     12  C   UNL A   1      32.128  22.045  23.793  1.00  0.00     0.183 C 
ATOM     13  C   UNL A   1      32.325  20.704  23.085  1.00  0.00     0.095 C 
ATOM     14  C   UNL A   1      32.448  19.807  24.276  1.00  0.00     0.081 C 
ATOM     15  N   UNL A   1      32.120  20.342  25.406  1.00  0.00    -0.173 NA
BRANCH  12  16
ATOM     16  C   UNL A   1      33.346  22.898  23.738  1.00  0.00     0.129 A 
ATOM     17  C   UNL A   1      36.378  23.520  25.515  1.00  0.00     0.087 C 
ATOM     18  C   UNL A   1      35.282  23.565  24.530  1.00  0.00     0.101 A 
ATOM     19  C   UNL A   1      35.099  24.236  23.341  1.00  0.00     0.045 A 
ATOM     20  O   UNL A   1      34.208  22.769  24.790  1.00  0.00    -0.464 OA
ATOM     21  C   UNL A   1      33.848  23.811  22.833  1.00  0.00     0.048 A 
ENDBRANCH  12  16
BRANCH  14  22
ATOM     22  C   UNL A   1      32.801  18.421  24.203  1.00  0.00     0.050 A 
ATOM     23  C   UNL A   1      33.387  17.730  23.162  1.00  0.00     0.022 A 
ATOM     24  S   UNL A   1      32.655  17.460  25.608  1.00  0.00    -0.142 S 
ATOM     25  C   UNL A   1      33.747  16.403  23.539  1.00  0.00     0.012 A 
ATOM     26  C   UNL A   1      33.430  16.135  24.853  1.00  0.00     0.065 A 
ENDBRANCH  14  22
ENDBRANCH   9  11
ENDBRANCH   8   9
ENDBRANCH   7   8
ENDBRANCH   4   7
ENDBRANCH   2   3
ENDBRANCH   1   2
BRANCH   1  27
ATOM     27  C   UNL A   1      31.796  28.398  25.178  1.00  0.00     0.002 C 
BRANCH  27  28
ATOM     28  C   UNL A   1      31.983  29.790  25.784  1.00  0.00     0.002 C 
BRANCH  28  29
ATOM     29  C   UNL A   1      32.689  29.817  27.135  1.00  0.00     0.021 C 
BRANCH  29  30
ATOM     30  C   UNL A   1      33.553  31.054  27.345  1.00  0.00     0.116 C 
BRANCH  30  31
ATOM     31  N   UNL A   1      32.805  32.308  27.406  1.00  0.00    -0.352 N 
ATOM     32  C   UNL A   1      33.175  33.448  28.087  1.00  0.00     0.251 C 
ATOM     33  H   UNL A   1      31.954  32.342  26.913  1.00  0.00     0.163 HD
ATOM     34  O   UNL A   1      32.460  34.440  28.152  1.00  0.00    -0.269 OA
BRANCH  32  35
ATOM     35  C   UNL A   1      34.467  33.400  28.793  1.00  0.00     0.039 A 
ATOM     36  C   UNL A   1      34.540  32.744  30.021  1.00  0.00     0.014 A 
ATOM     37  C   UNL A   1      35.619  33.797  28.109  1.00  0.00     0.014 A 
ATOM     38  C   UNL A   1      35.790  32.385  30.520  1.00  0.00     0.010 A 
ATOM     39  C   UNL A   1      36.854  33.360  28.565  1.00  0.00     0.010 A 
ATOM     40  C   UNL A   1      36.948  32.635  29.763  1.00  0.00    -0.014 A 
BRANCH  40  41
ATOM     41  C   UNL A   1      38.267  32.120  30.192  1.00  0.00     0.031 A 
ATOM     42  C   UNL A   1      38.760  30.806  29.661  1.00  0.00     0.074 A 
ATOM     43  C   UNL A   1      38.978  32.799  31.116  1.00  0.00     0.049 A 
ATOM     44  N   UNL A   1      39.858  30.159  29.950  1.00  0.00    -0.248 NA
ATOM     45  C   UNL A   1      37.884  30.111  28.703  1.00  0.00     0.031 C 
ATOM     46  C   UNL A   1      38.565  34.051  31.757  1.00  0.00     0.029 A 
ATOM     47  N   UNL A   1      40.197  32.526  31.682  1.00  0.00    -0.354 N 
ATOM     48  C   UNL A   1      39.797  28.978  29.223  1.00  0.00     0.074 A 
ATOM     49  C   UNL A   1      38.528  28.969  28.529  1.00  0.00     0.031 C 
ATOM     50  C   UNL A   1      39.531  34.454  32.599  1.00  0.00     0.029 A 
ATOM     51  C   UNL A   1      40.613  33.477  32.582  1.00  0.00     0.049 A 
ATOM     52  H   UNL A   1      40.725  31.724  31.463  1.00  0.00     0.167 HD
ATOM     53  C   UNL A   1      40.727  28.001  29.117  1.00  0.00     0.031 A 
ATOM     54  C   UNL A   1      41.746  33.552  33.307  1.00  0.00     0.031 A 
ATOM     55  C   UNL A   1      41.990  28.022  29.800  1.00  0.00     0.049 A 
ATOM     56  C   UNL A   1      42.777  32.469  33.150  1.00  0.00     0.074 A 
ATOM     57  C   UNL A   1      43.023  27.104  29.738  1.00  0.00     0.029 A 
ATOM     58  N   UNL A   1      42.392  29.024  30.671  1.00  0.00    -0.354 N 
ATOM     59  N   UNL A   1      42.734  31.391  32.404  1.00  0.00    -0.248 NA
ATOM     60  C   UNL A   1      44.017  32.619  33.923  1.00  0.00     0.031 C 
ATOM     61  C   UNL A   1      44.041  27.539  30.594  1.00  0.00     0.029 A 
ATOM     62  C   UNL A   1      43.657  28.747  31.155  1.00  0.00     0.049 A 
ATOM     63  H   UNL A   1      41.856  29.816  30.907  1.00  0.00     0.167 HD
ATOM     64  C   UNL A   1      43.949  30.748  32.597  1.00  0.00     0.074 A 
ATOM     65  C   UNL A   1      44.714  31.568  33.516  1.00  0.00     0.031 C 
ATOM     66  C   UNL A   1      44.395  29.584  32.065  1.00  0.00     0.031 A 
BRANCH  53  67
ATOM     67  C   UNL A   1      40.398  26.841  28.219  1.00  0.00    -0.014 A 
ATOM     68  C   UNL A   1      40.852  26.810  26.889  1.00  0.00     0.009 A 
ATOM     69  C   UNL A   1      39.624  25.776  28.698  1.00  0.00     0.009 A 
ATOM     70  C   UNL A   1      40.497  25.756  26.045  1.00  0.00     0.001 A 
ATOM     71  C   UNL A   1      39.295  24.708  27.861  1.00  0.00     0.001 A 
ATOM     72  C   UNL A   1      39.721  24.706  26.532  1.00  0.00     0.000 A 
ENDBRANCH  53  67
BRANCH  54  73
ATOM     73  C   UNL A   1      41.984  34.707  34.213  1.00  0.00    -0.014 A 
ATOM     74  C   UNL A   1      42.591  35.877  33.731  1.00  0.00     0.009 A 
ATOM     75  C   UNL A   1      41.614  34.644  35.565  1.00  0.00     0.009 A 
ATOM     76  C   UNL A   1      42.851  36.948  34.590  1.00  0.00     0.001 A 
ATOM     77  C   UNL A   1      41.850  35.727  36.416  1.00  0.00     0.001 A 
ATOM     78  C   UNL A   1      42.477  36.874  35.930  1.00  0.00     0.000 A 
ENDBRANCH  54  73
BRANCH  66  79
ATOM     79  C   UNL A   1      45.780  29.151  32.441  1.00  0.00    -0.014 A 
ATOM     80  C   UNL A   1      46.898  29.575  31.707  1.00  0.00     0.009 A 
ATOM     81  C   UNL A   1      45.970  28.346  33.575  1.00  0.00     0.009 A 
ATOM     82  C   UNL A   1      48.180  29.174  32.084  1.00  0.00     0.001 A 
ATOM     83  C   UNL A   1      47.255  27.967  33.963  1.00  0.00     0.001 A 
ATOM     84  C   UNL A   1      48.357  28.375  33.214  1.00  0.00     0.000 A 
ENDBRANCH  66  79
ENDBRANCH  40  41
ENDBRANCH  32  35
ENDBRANCH  30  31
ENDBRANCH  29  30
ENDBRANCH  28  29
ENDBRANCH  27  28
ENDBRANCH   1  27
TORSDOF 18
ENDMDL
