MODEL 1
REMARK VINA RESULT:     -10.9      0.000      0.000
REMARK SMILES CO[C@@H]1C[C@H](C(=O)NCCCCCCNC(=O)c2ccc(-c3c4nc(c(-c5ccccc5)c5ccc([nH]5)c(-c5ccccc5)c5nc(c(-c6ccccc6)c6ccc3[nH]6)C=C5)C=C4)cc2)N(C(=O)c2ncc(Cl)c(Cl)c2Cl)C1
REMARK SMILES IDX 11 1 10 2 9 3 8 4 6 5 7 6 5 8 3 9 4 10 78 11 66 12 2 13 1 14
REMARK SMILES IDX 67 15 68 16 69 17 70 18 76 19 71 20 74 21 77 22 72 23 75 24
REMARK SMILES IDX 73 25 12 26 13 27 14 28 15 29 16 30 17 32 18 33 19 34 65 35
REMARK SMILES IDX 20 36 64 37 21 38 22 39 23 40 58 41 24 42 63 43 57 44 59 45
REMARK SMILES IDX 25 46 62 47 56 48 55 49 26 51 48 52 33 53 47 54 34 55 37 56
REMARK SMILES IDX 46 57 60 58 35 59 36 60 45 62 61 63 38 64 27 65 28 66 32 67
REMARK SMILES IDX 29 68 31 69 30 70 49 71 50 72 54 73 51 74 53 75 52 76 39 77
REMARK SMILES IDX 40 78 44 79 41 80 43 81 42 82
REMARK H PARENT 8 7 15 31 59 50 37 61
REMARK Flexibility Score: inf
ROOT
ATOM      1  C   UNL A   1      38.140  22.558  25.719  1.00  0.00     0.002 C 
ENDROOT
BRANCH   1   2
ATOM      2  C   UNL A   1      37.270  23.814  25.838  1.00  0.00     0.021 C 
BRANCH   2   3
ATOM      3  C   UNL A   1      35.767  23.571  25.670  1.00  0.00     0.116 C 
BRANCH   3   4
ATOM      4  N   UNL A   1      35.208  24.455  24.668  1.00  0.00    -0.354 N 
ATOM      5  C   UNL A   1      34.191  25.350  24.705  1.00  0.00     0.242 C 
ATOM      6  O   UNL A   1      33.858  25.829  23.610  1.00  0.00    -0.273 OA
ATOM      7  H   UNL A   1      35.652  24.394  23.792  1.00  0.00     0.163 HD
BRANCH   5   8
ATOM      8  C   UNL A   1      33.334  25.698  25.947  1.00  0.00     0.177 C 
ATOM      9  C   UNL A   1      32.009  27.749  26.035  1.00  0.00     0.139 C 
ATOM     10  C   UNL A   1      33.390  27.168  26.352  1.00  0.00     0.069 C 
ATOM     11  C   UNL A   1      31.069  26.536  25.989  1.00  0.00     0.152 C 
ATOM     12  N   UNL A   1      31.918  25.353  25.982  1.00  0.00    -0.323 N 
BRANCH   9  13
ATOM     13  O   UNL A   1      31.988  28.447  24.792  1.00  0.00    -0.380 OA
ATOM     14  C   UNL A   1      30.887  28.089  23.963  1.00  0.00     0.195 C 
ENDBRANCH   9  13
BRANCH  12  15
ATOM     15  C   UNL A   1      31.367  24.130  26.351  1.00  0.00     0.274 C 
ATOM     16  O   UNL A   1      30.488  24.021  27.203  1.00  0.00    -0.267 OA
BRANCH  15  17
ATOM     17  C   UNL A   1      31.970  22.887  25.794  1.00  0.00     0.148 A 
ATOM     18  N   UNL A   1      32.717  22.154  26.661  1.00  0.00    -0.248 NA
ATOM     19  C   UNL A   1      31.757  22.544  24.456  1.00  0.00     0.092 A 
ATOM     20  C   UNL A   1      33.272  21.023  26.170  1.00  0.00     0.134 A 
ATOM     21  C   UNL A   1      32.314  21.341  24.001  1.00  0.00     0.082 A 
ATOM     22  Cl  UNL A   1      30.819  23.558  23.404  1.00  0.00    -0.080 Cl
ATOM     23  C   UNL A   1      33.094  20.569  24.870  1.00  0.00     0.079 A 
ATOM     24  Cl  UNL A   1      32.022  20.794  22.377  1.00  0.00    -0.081 Cl
ATOM     25  Cl  UNL A   1      33.843  19.087  24.406  1.00  0.00    -0.081 Cl
ENDBRANCH  15  17
ENDBRANCH  12  15
ENDBRANCH   5   8
ENDBRANCH   3   4
ENDBRANCH   2   3
ENDBRANCH   1   2
BRANCH   1  26
ATOM     26  C   UNL A   1      37.559  21.442  24.843  1.00  0.00     0.002 C 
BRANCH  26  27
ATOM     27  C   UNL A   1      38.269  20.086  24.930  1.00  0.00     0.021 C 
BRANCH  27  28
ATOM     28  C   UNL A   1      39.104  19.863  26.189  1.00  0.00     0.116 C 
BRANCH  28  29
ATOM     29  N   UNL A   1      40.346  19.160  25.909  1.00  0.00    -0.352 N 
ATOM     30  C   UNL A   1      41.639  19.615  25.909  1.00  0.00     0.251 C 
ATOM     31  H   UNL A   1      40.242  18.207  25.685  1.00  0.00     0.163 HD
ATOM     32  O   UNL A   1      42.537  18.911  25.447  1.00  0.00    -0.269 OA
BRANCH  30  33
ATOM     33  C   UNL A   1      41.968  20.952  26.448  1.00  0.00     0.039 A 
ATOM     34  C   UNL A   1      42.322  21.969  25.558  1.00  0.00     0.014 A 
ATOM     35  C   UNL A   1      41.976  21.192  27.825  1.00  0.00     0.014 A 
ATOM     36  C   UNL A   1      42.632  23.242  26.043  1.00  0.00     0.010 A 
ATOM     37  C   UNL A   1      42.223  22.477  28.304  1.00  0.00     0.010 A 
ATOM     38  C   UNL A   1      42.558  23.513  27.419  1.00  0.00    -0.014 A 
BRANCH  38  39
ATOM     39  C   UNL A   1      42.826  24.873  27.948  1.00  0.00     0.031 A 
ATOM     40  C   UNL A   1      44.209  25.259  28.395  1.00  0.00     0.074 A 
ATOM     41  C   UNL A   1      41.806  25.740  28.101  1.00  0.00     0.049 A 
ATOM     42  N   UNL A   1      44.620  26.376  28.939  1.00  0.00    -0.248 NA
ATOM     43  C   UNL A   1      45.262  24.245  28.233  1.00  0.00     0.031 C 
ATOM     44  C   UNL A   1      40.409  25.472  27.757  1.00  0.00     0.029 A 
ATOM     45  N   UNL A   1      41.788  27.017  28.601  1.00  0.00    -0.354 N 
ATOM     46  C   UNL A   1      45.969  26.191  29.210  1.00  0.00     0.074 A 
ATOM     47  C   UNL A   1      46.298  24.840  28.806  1.00  0.00     0.031 C 
ATOM     48  C   UNL A   1      39.671  26.556  28.045  1.00  0.00     0.029 A 
ATOM     49  C   UNL A   1      40.536  27.581  28.622  1.00  0.00     0.049 A 
ATOM     50  H   UNL A   1      42.595  27.485  28.916  1.00  0.00     0.167 HD
ATOM     51  C   UNL A   1      46.858  27.067  29.736  1.00  0.00     0.031 A 
ATOM     52  C   UNL A   1      40.124  28.784  29.064  1.00  0.00     0.031 A 
ATOM     53  C   UNL A   1      46.535  28.415  30.122  1.00  0.00     0.049 A 
ATOM     54  C   UNL A   1      41.130  29.747  29.624  1.00  0.00     0.074 A 
ATOM     55  C   UNL A   1      47.384  29.406  30.586  1.00  0.00     0.029 A 
ATOM     56  N   UNL A   1      45.261  28.959  30.097  1.00  0.00    -0.354 N 
ATOM     57  N   UNL A   1      42.419  29.588  29.793  1.00  0.00    -0.248 NA
ATOM     58  C   UNL A   1      40.624  31.064  30.041  1.00  0.00     0.031 C 
ATOM     59  C   UNL A   1      46.613  30.534  30.888  1.00  0.00     0.029 A 
ATOM     60  C   UNL A   1      45.294  30.262  30.565  1.00  0.00     0.049 A 
ATOM     61  H   UNL A   1      44.452  28.488  29.792  1.00  0.00     0.167 HD
ATOM     62  C   UNL A   1      42.884  30.787  30.318  1.00  0.00     0.074 A 
ATOM     63  C   UNL A   1      41.740  31.669  30.423  1.00  0.00     0.031 C 
ATOM     64  C   UNL A   1      44.146  31.125  30.675  1.00  0.00     0.031 A 
BRANCH  51  65
ATOM     65  C   UNL A   1      48.266  26.580  29.941  1.00  0.00    -0.014 A 
ATOM     66  C   UNL A   1      49.285  26.876  29.020  1.00  0.00     0.009 A 
ATOM     67  C   UNL A   1      48.582  25.826  31.081  1.00  0.00     0.009 A 
ATOM     68  C   UNL A   1      50.578  26.388  29.214  1.00  0.00     0.001 A 
ATOM     69  C   UNL A   1      49.883  25.363  31.288  1.00  0.00     0.001 A 
ATOM     70  C   UNL A   1      50.876  25.634  30.349  1.00  0.00     0.000 A 
ENDBRANCH  51  65
BRANCH  52  71
ATOM     71  C   UNL A   1      38.686  29.144  28.974  1.00  0.00    -0.014 A 
ATOM     72  C   UNL A   1      37.846  28.999  30.087  1.00  0.00     0.009 A 
ATOM     73  C   UNL A   1      38.156  29.664  27.783  1.00  0.00     0.009 A 
ATOM     74  C   UNL A   1      36.497  29.355  30.005  1.00  0.00     0.001 A 
ATOM     75  C   UNL A   1      36.814  30.041  27.711  1.00  0.00     0.001 A 
ATOM     76  C   UNL A   1      35.984  29.882  28.820  1.00  0.00     0.000 A 
ENDBRANCH  52  71
BRANCH  64  77
ATOM     77  C   UNL A   1      44.361  32.517  31.199  1.00  0.00    -0.014 A 
ATOM     78  C   UNL A   1      44.295  32.796  32.573  1.00  0.00     0.009 A 
ATOM     79  C   UNL A   1      44.674  33.555  30.308  1.00  0.00     0.009 A 
ATOM     80  C   UNL A   1      44.510  34.094  33.041  1.00  0.00     0.001 A 
ATOM     81  C   UNL A   1      44.914  34.846  30.781  1.00  0.00     0.001 A 
ATOM     82  C   UNL A   1      44.824  35.116  32.145  1.00  0.00     0.000 A 
ENDBRANCH  64  77
ENDBRANCH  38  39
ENDBRANCH  30  33
ENDBRANCH  28  29
ENDBRANCH  27  28
ENDBRANCH  26  27
ENDBRANCH   1  26
TORSDOF 16
ENDMDL
MODEL 2
REMARK VINA RESULT:     -10.7      0.717      5.837
REMARK SMILES CO[C@@H]1C[C@H](C(=O)NCCCCCCNC(=O)c2ccc(-c3c4nc(c(-c5ccccc5)c5ccc([nH]5)c(-c5ccccc5)c5nc(c(-c6ccccc6)c6ccc3[nH]6)C=C5)C=C4)cc2)N(C(=O)c2ncc(Cl)c(Cl)c2Cl)C1
REMARK SMILES IDX 11 1 10 2 9 3 8 4 6 5 7 6 5 8 3 9 4 10 78 11 66 12 2 13 1 14
REMARK SMILES IDX 67 15 68 16 69 17 70 18 76 19 71 20 74 21 77 22 72 23 75 24
REMARK SMILES IDX 73 25 12 26 13 27 14 28 15 29 16 30 17 32 18 33 19 34 65 35
REMARK SMILES IDX 20 36 64 37 21 38 22 39 23 40 58 41 24 42 63 43 57 44 59 45
REMARK SMILES IDX 25 46 62 47 56 48 55 49 26 51 48 52 33 53 47 54 34 55 37 56
REMARK SMILES IDX 46 57 60 58 35 59 36 60 45 62 61 63 38 64 27 65 28 66 32 67
REMARK SMILES IDX 29 68 31 69 30 70 49 71 50 72 54 73 51 74 53 75 52 76 39 77
REMARK SMILES IDX 40 78 44 79 41 80 43 81 42 82
REMARK H PARENT 8 7 15 31 59 50 37 61
REMARK Flexibility Score: inf
ROOT
ATOM      1  C   UNL A   1      37.333  21.894  24.535  1.00  0.00     0.002 C 
ENDROOT
BRANCH   1   2
ATOM      2  C   UNL A   1      36.113  22.608  23.945  1.00  0.00     0.021 C 
BRANCH   2   3
ATOM      3  C   UNL A   1      35.559  23.749  24.805  1.00  0.00     0.116 C 
BRANCH   3   4
ATOM      4  N   UNL A   1      34.783  24.672  24.003  1.00  0.00    -0.354 N 
ATOM      5  C   UNL A   1      33.772  25.522  24.310  1.00  0.00     0.242 C 
ATOM      6  O   UNL A   1      33.208  26.056  23.344  1.00  0.00    -0.273 OA
ATOM      7  H   UNL A   1      35.037  24.685  23.053  1.00  0.00     0.163 HD
BRANCH   5   8
ATOM      8  C   UNL A   1      33.182  25.756  25.723  1.00  0.00     0.177 C 
ATOM      9  C   UNL A   1      31.956  27.800  26.259  1.00  0.00     0.139 C 
ATOM     10  C   UNL A   1      33.355  27.179  26.244  1.00  0.00     0.069 C 
ATOM     11  C   UNL A   1      30.992  26.606  26.285  1.00  0.00     0.152 C 
ATOM     12  N   UNL A   1      31.790  25.421  26.001  1.00  0.00    -0.323 N 
BRANCH   9  13
ATOM     13  O   UNL A   1      31.713  28.615  25.114  1.00  0.00    -0.380 OA
ATOM     14  C   UNL A   1      32.868  29.321  24.669  1.00  0.00     0.195 C 
ENDBRANCH   9  13
BRANCH  12  15
ATOM     15  C   UNL A   1      31.288  24.173  26.355  1.00  0.00     0.274 C 
ATOM     16  O   UNL A   1      30.436  24.016  27.227  1.00  0.00    -0.267 OA
BRANCH  15  17
ATOM     17  C   UNL A   1      31.914  22.963  25.753  1.00  0.00     0.148 A 
ATOM     18  N   UNL A   1      32.692  22.225  26.587  1.00  0.00    -0.248 NA
ATOM     19  C   UNL A   1      31.689  22.654  24.408  1.00  0.00     0.092 A 
ATOM     20  C   UNL A   1      33.268  21.123  26.054  1.00  0.00     0.134 A 
ATOM     21  C   UNL A   1      32.270  21.480  23.910  1.00  0.00     0.082 A 
ATOM     22  Cl  UNL A   1      30.710  23.674  23.401  1.00  0.00    -0.080 Cl
ATOM     23  C   UNL A   1      33.082  20.703  24.744  1.00  0.00     0.079 A 
ATOM     24  Cl  UNL A   1      31.967  20.974  22.274  1.00  0.00    -0.081 Cl
ATOM     25  Cl  UNL A   1      33.861  19.255  24.225  1.00  0.00    -0.081 Cl
ENDBRANCH  15  17
ENDBRANCH  12  15
ENDBRANCH   5   8
ENDBRANCH   3   4
ENDBRANCH   2   3
ENDBRANCH   1   2
BRANCH   1  26
ATOM     26  C   UNL A   1      37.117  20.417  24.887  1.00  0.00     0.002 C 
BRANCH  26  27
ATOM     27  C   UNL A   1      38.382  19.552  24.947  1.00  0.00     0.021 C 
BRANCH  27  28
ATOM     28  C   UNL A   1      39.363  19.903  26.065  1.00  0.00     0.116 C 
BRANCH  28  29
ATOM     29  N   UNL A   1      40.619  19.181  25.941  1.00  0.00    -0.352 N 
ATOM     30  C   UNL A   1      41.910  19.630  26.046  1.00  0.00     0.251 C 
ATOM     31  H   UNL A   1      40.529  18.219  25.752  1.00  0.00     0.163 HD
ATOM     32  O   UNL A   1      42.842  18.901  25.708  1.00  0.00    -0.269 OA
BRANCH  30  33
ATOM     33  C   UNL A   1      42.197  20.989  26.553  1.00  0.00     0.039 A 
ATOM     34  C   UNL A   1      42.222  21.202  27.934  1.00  0.00     0.014 A 
ATOM     35  C   UNL A   1      42.391  22.060  25.676  1.00  0.00     0.014 A 
ATOM     36  C   UNL A   1      42.497  22.476  28.437  1.00  0.00     0.010 A 
ATOM     37  C   UNL A   1      42.727  23.316  26.177  1.00  0.00     0.010 A 
ATOM     38  C   UNL A   1      42.779  23.538  27.562  1.00  0.00    -0.014 A 
BRANCH  38  39
ATOM     39  C   UNL A   1      43.131  24.884  28.077  1.00  0.00     0.031 A 
ATOM     40  C   UNL A   1      42.058  25.905  28.338  1.00  0.00     0.074 A 
ATOM     41  C   UNL A   1      44.426  25.217  28.237  1.00  0.00     0.049 A 
ATOM     42  N   UNL A   1      42.178  27.148  28.729  1.00  0.00    -0.248 NA
ATOM     43  C   UNL A   1      40.670  25.479  28.101  1.00  0.00     0.031 C 
ATOM     44  C   UNL A   1      45.565  24.338  27.969  1.00  0.00     0.029 A 
ATOM     45  N   UNL A   1      45.001  26.393  28.650  1.00  0.00    -0.354 N 
ATOM     46  C   UNL A   1      40.888  27.661  28.759  1.00  0.00     0.074 A 
ATOM     47  C   UNL A   1      40.004  26.607  28.309  1.00  0.00     0.031 C 
ATOM     48  C   UNL A   1      46.702  25.000  28.235  1.00  0.00     0.029 A 
ATOM     49  C   UNL A   1      46.373  26.358  28.661  1.00  0.00     0.049 A 
ATOM     50  H   UNL A   1      44.479  27.185  28.912  1.00  0.00     0.167 HD
ATOM     51  C   UNL A   1      40.473  28.894  29.137  1.00  0.00     0.031 A 
ATOM     52  C   UNL A   1      47.271  27.312  28.970  1.00  0.00     0.031 A 
ATOM     53  C   UNL A   1      41.349  29.938  29.600  1.00  0.00     0.049 A 
ATOM     54  C   UNL A   1      46.788  28.665  29.407  1.00  0.00     0.074 A 
ATOM     55  C   UNL A   1      41.016  31.191  30.085  1.00  0.00     0.029 A 
ATOM     56  N   UNL A   1      42.732  29.851  29.628  1.00  0.00    -0.354 N 
ATOM     57  N   UNL A   1      45.559  29.107  29.514  1.00  0.00    -0.248 NA
ATOM     58  C   UNL A   1      47.818  29.646  29.781  1.00  0.00     0.031 C 
ATOM     59  C   UNL A   1      42.202  31.881  30.360  1.00  0.00     0.029 A 
ATOM     60  C   UNL A   1      43.270  31.039  30.094  1.00  0.00     0.049 A 
ATOM     61  H   UNL A   1      43.255  29.062  29.357  1.00  0.00     0.167 HD
ATOM     62  C   UNL A   1      45.665  30.410  29.984  1.00  0.00     0.074 A 
ATOM     63  C   UNL A   1      47.078  30.680  30.157  1.00  0.00     0.031 C 
ATOM     64  C   UNL A   1      44.678  31.299  30.251  1.00  0.00     0.031 A 
BRANCH  51  65
ATOM     65  C   UNL A   1      39.000  29.183  29.045  1.00  0.00    -0.014 A 
ATOM     66  C   UNL A   1      38.151  29.023  30.153  1.00  0.00     0.009 A 
ATOM     67  C   UNL A   1      38.455  29.637  27.834  1.00  0.00     0.009 A 
ATOM     68  C   UNL A   1      36.782  29.267  30.037  1.00  0.00     0.001 A 
ATOM     69  C   UNL A   1      37.089  29.909  27.729  1.00  0.00     0.001 A 
ATOM     70  C   UNL A   1      36.253  29.712  28.826  1.00  0.00     0.000 A 
ENDBRANCH  51  65
BRANCH  52  71
ATOM     71  C   UNL A   1      48.722  27.006  28.891  1.00  0.00    -0.014 A 
ATOM     72  C   UNL A   1      49.391  26.441  29.986  1.00  0.00     0.009 A 
ATOM     73  C   UNL A   1      49.436  27.248  27.707  1.00  0.00     0.009 A 
ATOM     74  C   UNL A   1      50.753  26.138  29.902  1.00  0.00     0.001 A 
ATOM     75  C   UNL A   1      50.790  26.921  27.618  1.00  0.00     0.001 A 
ATOM     76  C   UNL A   1      51.449  26.371  28.717  1.00  0.00     0.000 A 
ENDBRANCH  52  71
BRANCH  64  77
ATOM     77  C   UNL A   1      45.091  32.645  30.776  1.00  0.00    -0.014 A 
ATOM     78  C   UNL A   1      45.300  32.859  32.147  1.00  0.00     0.009 A 
ATOM     79  C   UNL A   1      45.313  33.702  29.880  1.00  0.00     0.009 A 
ATOM     80  C   UNL A   1      45.696  34.114  32.613  1.00  0.00     0.001 A 
ATOM     81  C   UNL A   1      45.734  34.949  30.346  1.00  0.00     0.001 A 
ATOM     82  C   UNL A   1      45.918  35.156  31.712  1.00  0.00     0.000 A 
ENDBRANCH  64  77
ENDBRANCH  38  39
ENDBRANCH  30  33
ENDBRANCH  28  29
ENDBRANCH  27  28
ENDBRANCH  26  27
ENDBRANCH   1  26
TORSDOF 16
ENDMDL
MODEL 3
REMARK VINA RESULT:     -10.6      1.578      3.104
REMARK SMILES CO[C@@H]1C[C@H](C(=O)NCCCCCCNC(=O)c2ccc(-c3c4nc(c(-c5ccccc5)c5ccc([nH]5)c(-c5ccccc5)c5nc(c(-c6ccccc6)c6ccc3[nH]6)C=C5)C=C4)cc2)N(C(=O)c2ncc(Cl)c(Cl)c2Cl)C1
REMARK SMILES IDX 11 1 10 2 9 3 8 4 6 5 7 6 5 8 3 9 4 10 78 11 66 12 2 13 1 14
REMARK SMILES IDX 67 15 68 16 69 17 70 18 76 19 71 20 74 21 77 22 72 23 75 24
REMARK SMILES IDX 73 25 12 26 13 27 14 28 15 29 16 30 17 32 18 33 19 34 65 35
REMARK SMILES IDX 20 36 64 37 21 38 22 39 23 40 58 41 24 42 63 43 57 44 59 45
REMARK SMILES IDX 25 46 62 47 56 48 55 49 26 51 48 52 33 53 47 54 34 55 37 56
REMARK SMILES IDX 46 57 60 58 35 59 36 60 45 62 61 63 38 64 27 65 28 66 32 67
REMARK SMILES IDX 29 68 31 69 30 70 49 71 50 72 54 73 51 74 53 75 52 76 39 77
REMARK SMILES IDX 40 78 44 79 41 80 43 81 42 82
REMARK H PARENT 8 7 15 31 59 50 37 61
REMARK Flexibility Score: inf
ROOT
ATOM      1  C   UNL A   1      37.774  22.476  25.574  1.00  0.00     0.002 C 
ENDROOT
BRANCH   1   2
ATOM      2  C   UNL A   1      36.848  23.696  25.535  1.00  0.00     0.021 C 
BRANCH   2   3
ATOM      3  C   UNL A   1      35.399  23.389  25.144  1.00  0.00     0.116 C 
BRANCH   3   4
ATOM      4  N   UNL A   1      35.034  24.081  23.925  1.00  0.00    -0.354 N 
ATOM      5  C   UNL A   1      33.861  24.194  23.254  1.00  0.00     0.242 C 
ATOM      6  O   UNL A   1      33.930  24.729  22.138  1.00  0.00    -0.273 OA
ATOM      7  H   UNL A   1      35.782  24.561  23.501  1.00  0.00     0.163 HD
BRANCH   5   8
ATOM      8  C   UNL A   1      32.504  23.589  23.693  1.00  0.00     0.177 C 
ATOM      9  C   UNL A   1      32.310  21.233  24.308  1.00  0.00     0.139 C 
ATOM     10  C   UNL A   1      32.227  22.201  23.125  1.00  0.00     0.069 C 
ATOM     11  C   UNL A   1      32.082  22.105  25.551  1.00  0.00     0.152 C 
ATOM     12  N   UNL A   1      32.169  23.490  25.109  1.00  0.00    -0.323 N 
BRANCH   9  13
ATOM     13  O   UNL A   1      33.573  20.575  24.382  1.00  0.00    -0.380 OA
ATOM     14  C   UNL A   1      33.501  19.283  24.978  1.00  0.00     0.195 C 
ENDBRANCH   9  13
BRANCH  12  15
ATOM     15  C   UNL A   1      31.611  24.485  25.905  1.00  0.00     0.274 C 
ATOM     16  O   UNL A   1      31.288  24.302  27.076  1.00  0.00    -0.267 OA
BRANCH  15  17
ATOM     17  C   UNL A   1      31.257  25.784  25.267  1.00  0.00     0.148 A 
ATOM     18  N   UNL A   1      30.040  25.832  24.664  1.00  0.00    -0.248 NA
ATOM     19  C   UNL A   1      32.157  26.852  25.309  1.00  0.00     0.092 A 
ATOM     20  C   UNL A   1      29.705  27.005  24.081  1.00  0.00     0.134 A 
ATOM     21  C   UNL A   1      31.750  28.062  24.730  1.00  0.00     0.082 A 
ATOM     22  Cl  UNL A   1      33.710  26.694  26.069  1.00  0.00    -0.080 Cl
ATOM     23  C   UNL A   1      30.505  28.140  24.096  1.00  0.00     0.079 A 
ATOM     24  Cl  UNL A   1      32.771  29.467  24.817  1.00  0.00    -0.081 Cl
ATOM     25  Cl  UNL A   1      29.918  29.571  23.333  1.00  0.00    -0.081 Cl
ENDBRANCH  15  17
ENDBRANCH  12  15
ENDBRANCH   5   8
ENDBRANCH   3   4
ENDBRANCH   2   3
ENDBRANCH   1   2
BRANCH   1  26
ATOM     26  C   UNL A   1      37.394  21.338  24.620  1.00  0.00     0.002 C 
BRANCH  26  27
ATOM     27  C   UNL A   1      38.207  20.046  24.763  1.00  0.00     0.021 C 
BRANCH  27  28
ATOM     28  C   UNL A   1      38.990  19.906  26.067  1.00  0.00     0.116 C 
BRANCH  28  29
ATOM     29  N   UNL A   1      40.219  19.150  25.893  1.00  0.00    -0.352 N 
ATOM     30  C   UNL A   1      41.526  19.556  25.973  1.00  0.00     0.251 C 
ATOM     31  H   UNL A   1      40.094  18.195  25.686  1.00  0.00     0.163 HD
ATOM     32  O   UNL A   1      42.426  18.807  25.594  1.00  0.00    -0.269 OA
BRANCH  30  33
ATOM     33  C   UNL A   1      41.868  20.894  26.501  1.00  0.00     0.039 A 
ATOM     34  C   UNL A   1      42.256  21.893  25.604  1.00  0.00     0.014 A 
ATOM     35  C   UNL A   1      41.856  21.152  27.874  1.00  0.00     0.014 A 
ATOM     36  C   UNL A   1      42.579  23.167  26.078  1.00  0.00     0.010 A 
ATOM     37  C   UNL A   1      42.118  22.439  28.341  1.00  0.00     0.010 A 
ATOM     38  C   UNL A   1      42.486  23.458  27.449  1.00  0.00    -0.014 A 
BRANCH  38  39
ATOM     39  C   UNL A   1      42.768  24.820  27.966  1.00  0.00     0.031 A 
ATOM     40  C   UNL A   1      44.155  25.196  28.406  1.00  0.00     0.074 A 
ATOM     41  C   UNL A   1      41.756  25.697  28.114  1.00  0.00     0.049 A 
ATOM     42  N   UNL A   1      44.578  26.315  28.939  1.00  0.00    -0.248 NA
ATOM     43  C   UNL A   1      45.198  24.171  28.251  1.00  0.00     0.031 C 
ATOM     44  C   UNL A   1      40.356  25.440  27.775  1.00  0.00     0.029 A 
ATOM     45  N   UNL A   1      41.752  26.979  28.603  1.00  0.00    -0.354 N 
ATOM     46  C   UNL A   1      45.927  26.118  29.208  1.00  0.00     0.074 A 
ATOM     47  C   UNL A   1      46.242  24.761  28.816  1.00  0.00     0.031 C 
ATOM     48  C   UNL A   1      39.629  26.532  28.055  1.00  0.00     0.029 A 
ATOM     49  C   UNL A   1      40.505  27.554  28.621  1.00  0.00     0.049 A 
ATOM     50  H   UNL A   1      42.564  27.442  28.911  1.00  0.00     0.167 HD
ATOM     51  C   UNL A   1      46.824  26.991  29.724  1.00  0.00     0.031 A 
ATOM     52  C   UNL A   1      40.105  28.765  29.053  1.00  0.00     0.031 A 
ATOM     53  C   UNL A   1      46.516  28.346  30.099  1.00  0.00     0.049 A 
ATOM     54  C   UNL A   1      41.121  29.724  29.603  1.00  0.00     0.074 A 
ATOM     55  C   UNL A   1      47.374  29.333  30.552  1.00  0.00     0.029 A 
ATOM     56  N   UNL A   1      45.246  28.901  30.072  1.00  0.00    -0.354 N 
ATOM     57  N   UNL A   1      42.410  29.554  29.770  1.00  0.00    -0.248 NA
ATOM     58  C   UNL A   1      40.629  31.049  30.009  1.00  0.00     0.031 C 
ATOM     59  C   UNL A   1      46.615  30.470  30.846  1.00  0.00     0.029 A 
ATOM     60  C   UNL A   1      45.293  30.208  30.528  1.00  0.00     0.049 A 
ATOM     61  H   UNL A   1      44.432  28.436  29.774  1.00  0.00     0.167 HD
ATOM     62  C   UNL A   1      42.887  30.753  30.283  1.00  0.00     0.074 A 
ATOM     63  C   UNL A   1      41.752  31.647  30.383  1.00  0.00     0.031 C 
ATOM     64  C   UNL A   1      44.154  31.083  30.634  1.00  0.00     0.031 A 
BRANCH  51  65
ATOM     65  C   UNL A   1      48.229  26.493  29.931  1.00  0.00    -0.014 A 
ATOM     66  C   UNL A   1      49.214  26.651  28.942  1.00  0.00     0.009 A 
ATOM     67  C   UNL A   1      48.574  25.869  31.139  1.00  0.00     0.009 A 
ATOM     68  C   UNL A   1      50.503  26.152  29.142  1.00  0.00     0.001 A 
ATOM     69  C   UNL A   1      49.872  25.398  31.348  1.00  0.00     0.001 A 
ATOM     70  C   UNL A   1      50.831  25.529  30.345  1.00  0.00     0.000 A 
ENDBRANCH  51  65
BRANCH  52  71
ATOM     71  C   UNL A   1      38.671  29.138  28.964  1.00  0.00    -0.014 A 
ATOM     72  C   UNL A   1      37.825  28.981  30.071  1.00  0.00     0.009 A 
ATOM     73  C   UNL A   1      38.150  29.682  27.779  1.00  0.00     0.009 A 
ATOM     74  C   UNL A   1      36.479  29.349  29.989  1.00  0.00     0.001 A 
ATOM     75  C   UNL A   1      36.811  30.071  27.709  1.00  0.00     0.001 A 
ATOM     76  C   UNL A   1      35.975  29.899  28.811  1.00  0.00     0.000 A 
ENDBRANCH  52  71
BRANCH  64  77
ATOM     77  C   UNL A   1      44.383  32.477  31.145  1.00  0.00    -0.014 A 
ATOM     78  C   UNL A   1      44.665  33.537  30.270  1.00  0.00     0.009 A 
ATOM     79  C   UNL A   1      44.273  32.740  32.520  1.00  0.00     0.009 A 
ATOM     80  C   UNL A   1      44.862  34.828  30.765  1.00  0.00     0.001 A 
ATOM     81  C   UNL A   1      44.445  34.037  33.009  1.00  0.00     0.001 A 
ATOM     82  C   UNL A   1      44.747  35.077  32.132  1.00  0.00     0.000 A 
ENDBRANCH  64  77
ENDBRANCH  38  39
ENDBRANCH  30  33
ENDBRANCH  28  29
ENDBRANCH  27  28
ENDBRANCH  26  27
ENDBRANCH   1  26
TORSDOF 16
ENDMDL
