MODEL 1
REMARK VINA RESULT:     -11.4      0.000      0.000
REMARK SMILES CC[C@@H](C)[C@@H](NC(=O)CCn1ccc2ccc(Br)cc21)C(=O)NCCCCCCNC(=O)c1ccc(-c2c3nc(c(-c4ccccc4)c4ccc([nH]4)c(-c4ccccc4)c4nc(c(-c5ccccc5)c5ccc2[nH]5)C=C4)C=C3)cc1
REMARK SMILES IDX 25 1 24 2 23 3 21 4 22 5 5 7 3 8 4 9 2 10 1 11 6 12 7 13
REMARK SMILES IDX 8 15 9 16 10 17 11 18 12 19 20 20 13 21 14 22 19 23 15 24
REMARK SMILES IDX 17 25 16 26 18 27 26 28 27 29 28 30 29 31 30 32 31 33 32 35
REMARK SMILES IDX 33 36 34 37 80 38 35 39 79 40 36 41 37 42 38 43 73 44 39 45
REMARK SMILES IDX 78 46 72 47 74 48 40 49 77 50 71 51 70 52 41 54 63 55 48 56
REMARK SMILES IDX 62 57 49 58 52 59 61 60 75 61 50 62 51 63 60 65 76 66 53 67
REMARK SMILES IDX 42 68 43 69 47 70 44 71 46 72 45 73 64 74 65 75 69 76 66 77
REMARK SMILES IDX 68 78 67 79 54 80 55 81 59 82 56 83 58 84 57 85
REMARK H PARENT 23 6 6 14 30 34 74 53 52 64
REMARK Flexibility Score: inf
ROOT
ATOM      1  C   UNL A   1      32.422  26.334  26.276  1.00  0.00     0.021 C 
ENDROOT
BRANCH   1   2
ATOM      2  C   UNL A   1      31.171  25.468  25.918  1.00  0.00     0.116 C 
BRANCH   2   3
ATOM      3  N   UNL A   1      30.074  26.048  25.009  1.00  0.00    -0.354 N 
ATOM      4  C   UNL A   1      29.674  26.722  23.889  1.00  0.00     0.242 C 
ATOM      5  O   UNL A   1      28.488  26.398  23.638  1.00  0.00    -0.273 OA
ATOM      6  H   UNL A   1      29.234  25.816  25.465  1.00  0.00     0.163 HD
BRANCH   4   7
ATOM      7  C   UNL A   1      30.313  27.769  22.787  1.00  0.00     0.174 C 
BRANCH   7   8
ATOM      8  C   UNL A   1      29.830  29.283  22.659  1.00  0.00     0.018 C 
ATOM      9  C   UNL A   1      30.143  30.092  23.921  1.00  0.00     0.010 C 
BRANCH   8  10
ATOM     10  C   UNL A   1      28.320  29.464  22.272  1.00  0.00     0.002 C 
ATOM     11  C   UNL A   1      27.553  30.491  23.112  1.00  0.00     0.004 C 
ENDBRANCH   8  10
ENDBRANCH   7   8
BRANCH   7  12
ATOM     12  N   UNL A   1      31.626  27.549  22.140  1.00  0.00    -0.344 N 
ATOM     13  C   UNL A   1      32.470  26.504  22.133  1.00  0.00     0.222 C 
ATOM     14  H   UNL A   1      31.942  28.317  21.611  1.00  0.00     0.164 HD
ATOM     15  O   UNL A   1      33.676  26.683  21.875  1.00  0.00    -0.275 OA
BRANCH  13  16
ATOM     16  C   UNL A   1      31.920  25.142  22.327  1.00  0.00     0.122 C 
BRANCH  16  17
ATOM     17  C   UNL A   1      32.942  24.040  22.109  1.00  0.00     0.132 C 
BRANCH  17  18
ATOM     18  N   UNL A   1      32.950  22.881  22.984  1.00  0.00    -0.347 N 
ATOM     19  C   UNL A   1      32.023  21.890  23.036  1.00  0.00     0.087 A 
ATOM     20  C   UNL A   1      33.963  22.532  23.846  1.00  0.00     0.049 A 
ATOM     21  C   UNL A   1      32.520  20.789  23.683  1.00  0.00     0.028 A 
ATOM     22  C   UNL A   1      33.712  21.225  24.286  1.00  0.00    -0.000 A 
ATOM     23  C   UNL A   1      35.064  23.265  24.289  1.00  0.00     0.042 A 
ATOM     24  C   UNL A   1      34.564  20.631  25.224  1.00  0.00     0.011 A 
ATOM     25  C   UNL A   1      35.894  22.653  25.226  1.00  0.00     0.020 A 
ATOM     26  C   UNL A   1      35.650  21.365  25.696  1.00  0.00     0.016 A 
ATOM     27  Br  UNL A   1      37.378  23.620  25.881  1.00  0.00    -0.051 Br
ENDBRANCH  17  18
ENDBRANCH  16  17
ENDBRANCH  13  16
ENDBRANCH   7  12
ENDBRANCH   4   7
ENDBRANCH   2   3
ENDBRANCH   1   2
BRANCH   1  28
ATOM     28  C   UNL A   1      32.245  27.845  26.546  1.00  0.00     0.002 C 
BRANCH  28  29
ATOM     29  C   UNL A   1      32.844  28.836  25.533  1.00  0.00     0.002 C 
BRANCH  29  30
ATOM     30  C   UNL A   1      33.771  29.959  26.039  1.00  0.00     0.021 C 
BRANCH  30  31
ATOM     31  C   UNL A   1      33.484  30.565  27.416  1.00  0.00     0.116 C 
BRANCH  31  32
ATOM     32  N   UNL A   1      34.263  31.740  27.763  1.00  0.00    -0.352 N 
ATOM     33  C   UNL A   1      35.552  32.005  28.121  1.00  0.00     0.251 C 
ATOM     34  H   UNL A   1      33.717  32.559  27.733  1.00  0.00     0.163 HD
ATOM     35  O   UNL A   1      35.824  33.199  28.312  1.00  0.00    -0.269 OA
BRANCH  33  36
ATOM     36  C   UNL A   1      36.625  31.002  28.342  1.00  0.00     0.039 A 
ATOM     37  C   UNL A   1      36.523  29.636  28.085  1.00  0.00     0.014 A 
ATOM     38  C   UNL A   1      37.849  31.502  28.832  1.00  0.00     0.014 A 
ATOM     39  C   UNL A   1      37.586  28.783  28.395  1.00  0.00     0.010 A 
ATOM     40  C   UNL A   1      38.921  30.660  29.115  1.00  0.00     0.010 A 
ATOM     41  C   UNL A   1      38.775  29.287  28.938  1.00  0.00    -0.014 A 
BRANCH  41  42
ATOM     42  C   UNL A   1      39.858  28.346  29.231  1.00  0.00     0.031 A 
ATOM     43  C   UNL A   1      40.254  28.222  30.667  1.00  0.00     0.074 A 
ATOM     44  C   UNL A   1      40.421  27.531  28.314  1.00  0.00     0.049 A 
ATOM     45  N   UNL A   1      41.417  28.425  31.202  1.00  0.00    -0.248 NA
ATOM     46  C   UNL A   1      39.202  27.881  31.636  1.00  0.00     0.031 C 
ATOM     47  C   UNL A   1      39.985  27.261  26.942  1.00  0.00     0.029 A 
ATOM     48  N   UNL A   1      41.474  26.679  28.476  1.00  0.00    -0.354 N 
ATOM     49  C   UNL A   1      41.283  28.125  32.558  1.00  0.00     0.074 A 
ATOM     50  C   UNL A   1      39.880  27.878  32.783  1.00  0.00     0.031 C 
ATOM     51  C   UNL A   1      40.610  26.152  26.485  1.00  0.00     0.029 A 
ATOM     52  C   UNL A   1      41.600  25.738  27.465  1.00  0.00     0.049 A 
ATOM     53  H   UNL A   1      42.090  26.727  29.242  1.00  0.00     0.167 HD
ATOM     54  C   UNL A   1      42.352  27.968  33.390  1.00  0.00     0.031 A 
ATOM     55  C   UNL A   1      42.416  24.656  27.467  1.00  0.00     0.031 A 
ATOM     56  C   UNL A   1      43.554  28.531  32.843  1.00  0.00     0.049 A 
ATOM     57  C   UNL A   1      43.488  24.893  28.456  1.00  0.00     0.074 A 
ATOM     58  C   UNL A   1      43.964  29.806  32.509  1.00  0.00     0.029 A 
ATOM     59  N   UNL A   1      44.452  27.681  32.246  1.00  0.00    -0.354 N 
ATOM     60  N   UNL A   1      44.412  25.800  28.323  1.00  0.00    -0.248 NA
ATOM     61  C   UNL A   1      43.312  24.373  29.802  1.00  0.00     0.031 C 
ATOM     62  C   UNL A   1      44.766  29.637  31.344  1.00  0.00     0.029 A 
ATOM     63  C   UNL A   1      44.833  28.269  31.069  1.00  0.00     0.049 A 
ATOM     64  H   UNL A   1      44.763  26.815  32.599  1.00  0.00     0.167 HD
ATOM     65  C   UNL A   1      44.636  26.269  29.609  1.00  0.00     0.074 A 
ATOM     66  C   UNL A   1      44.016  25.278  30.484  1.00  0.00     0.031 C 
ATOM     67  C   UNL A   1      45.058  27.549  29.834  1.00  0.00     0.031 A 
BRANCH  54  68
ATOM     68  C   UNL A   1      42.372  27.054  34.589  1.00  0.00    -0.014 A 
ATOM     69  C   UNL A   1      41.892  27.438  35.855  1.00  0.00     0.009 A 
ATOM     70  C   UNL A   1      42.640  25.684  34.408  1.00  0.00     0.009 A 
ATOM     71  C   UNL A   1      41.683  26.512  36.882  1.00  0.00     0.001 A 
ATOM     72  C   UNL A   1      42.392  24.747  35.421  1.00  0.00     0.001 A 
ATOM     73  C   UNL A   1      41.911  25.162  36.658  1.00  0.00     0.000 A 
ENDBRANCH  54  68
BRANCH  55  74
ATOM     74  C   UNL A   1      42.108  23.302  26.957  1.00  0.00    -0.014 A 
ATOM     75  C   UNL A   1      40.996  22.602  27.461  1.00  0.00     0.009 A 
ATOM     76  C   UNL A   1      43.056  22.583  26.213  1.00  0.00     0.009 A 
ATOM     77  C   UNL A   1      40.856  21.225  27.266  1.00  0.00     0.001 A 
ATOM     78  C   UNL A   1      42.916  21.201  26.021  1.00  0.00     0.001 A 
ATOM     79  C   UNL A   1      41.826  20.522  26.561  1.00  0.00     0.000 A 
ENDBRANCH  55  74
BRANCH  67  80
ATOM     80  C   UNL A   1      45.504  28.380  28.651  1.00  0.00    -0.014 A 
ATOM     81  C   UNL A   1      46.879  28.582  28.453  1.00  0.00     0.009 A 
ATOM     82  C   UNL A   1      44.606  29.116  27.856  1.00  0.00     0.009 A 
ATOM     83  C   UNL A   1      47.344  29.495  27.504  1.00  0.00     0.001 A 
ATOM     84  C   UNL A   1      45.071  30.011  26.886  1.00  0.00     0.001 A 
ATOM     85  C   UNL A   1      46.441  30.208  26.719  1.00  0.00     0.000 A 
ENDBRANCH  67  80
ENDBRANCH  41  42
ENDBRANCH  33  36
ENDBRANCH  31  32
ENDBRANCH  30  31
ENDBRANCH  29  30
ENDBRANCH  28  29
ENDBRANCH   1  28
TORSDOF 19
ENDMDL
MODEL 2
REMARK VINA RESULT:     -11.1      2.041      3.724
REMARK SMILES CC[C@@H](C)[C@@H](NC(=O)CCn1ccc2ccc(Br)cc21)C(=O)NCCCCCCNC(=O)c1ccc(-c2c3nc(c(-c4ccccc4)c4ccc([nH]4)c(-c4ccccc4)c4nc(c(-c5ccccc5)c5ccc2[nH]5)C=C4)C=C3)cc1
REMARK SMILES IDX 25 1 24 2 23 3 21 4 22 5 5 7 3 8 4 9 2 10 1 11 6 12 7 13
REMARK SMILES IDX 8 15 9 16 10 17 11 18 12 19 20 20 13 21 14 22 19 23 15 24
REMARK SMILES IDX 17 25 16 26 18 27 26 28 27 29 28 30 29 31 30 32 31 33 32 35
REMARK SMILES IDX 33 36 34 37 80 38 35 39 79 40 36 41 37 42 38 43 73 44 39 45
REMARK SMILES IDX 78 46 72 47 74 48 40 49 77 50 71 51 70 52 41 54 63 55 48 56
REMARK SMILES IDX 62 57 49 58 52 59 61 60 75 61 50 62 51 63 60 65 76 66 53 67
REMARK SMILES IDX 42 68 43 69 47 70 44 71 46 72 45 73 64 74 65 75 69 76 66 77
REMARK SMILES IDX 68 78 67 79 54 80 55 81 59 82 56 83 58 84 57 85
REMARK H PARENT 23 6 6 14 30 34 74 53 52 64
REMARK Flexibility Score: inf
ROOT
ATOM      1  C   UNL A   1      32.811  26.772  25.818  1.00  0.00     0.021 C 
ENDROOT
BRANCH   1   2
ATOM      2  C   UNL A   1      31.561  26.264  26.606  1.00  0.00     0.116 C 
BRANCH   2   3
ATOM      3  N   UNL A   1      31.047  24.830  26.385  1.00  0.00    -0.354 N 
ATOM      4  C   UNL A   1      31.254  23.513  26.080  1.00  0.00     0.242 C 
ATOM      5  O   UNL A   1      30.300  22.847  26.548  1.00  0.00    -0.273 OA
ATOM      6  H   UNL A   1      30.078  24.893  26.544  1.00  0.00     0.163 HD
BRANCH   4   7
ATOM      7  C   UNL A   1      32.395  22.587  25.335  1.00  0.00     0.174 C 
BRANCH   7   8
ATOM      8  C   UNL A   1      32.767  21.117  25.829  1.00  0.00     0.018 C 
ATOM      9  C   UNL A   1      33.709  21.140  27.036  1.00  0.00     0.010 C 
BRANCH   8  10
ATOM     10  C   UNL A   1      33.350  20.175  24.718  1.00  0.00     0.002 C 
ATOM     11  C   UNL A   1      32.630  18.832  24.561  1.00  0.00     0.004 C 
ENDBRANCH   8  10
ENDBRANCH   7   8
BRANCH   7  12
ATOM     12  N   UNL A   1      32.854  22.838  23.950  1.00  0.00    -0.344 N 
ATOM     13  C   UNL A   1      33.790  23.654  23.439  1.00  0.00     0.222 C 
ATOM     14  H   UNL A   1      32.381  22.303  23.271  1.00  0.00     0.164 HD
ATOM     15  O   UNL A   1      33.723  24.003  22.244  1.00  0.00    -0.275 OA
BRANCH  13  16
ATOM     16  C   UNL A   1      34.945  24.032  24.285  1.00  0.00     0.122 C 
BRANCH  16  17
ATOM     17  C   UNL A   1      36.275  23.525  23.756  1.00  0.00     0.132 C 
BRANCH  17  18
ATOM     18  N   UNL A   1      37.033  22.553  24.524  1.00  0.00    -0.347 N 
ATOM     19  C   UNL A   1      37.027  21.204  24.367  1.00  0.00     0.087 A 
ATOM     20  C   UNL A   1      37.976  22.844  25.481  1.00  0.00     0.049 A 
ATOM     21  C   UNL A   1      38.112  20.636  24.980  1.00  0.00     0.028 A 
ATOM     22  C   UNL A   1      38.663  21.657  25.772  1.00  0.00    -0.000 A 
ATOM     23  C   UNL A   1      38.265  24.045  26.128  1.00  0.00     0.042 A 
ATOM     24  C   UNL A   1      39.652  21.650  26.763  1.00  0.00     0.011 A 
ATOM     25  C   UNL A   1      39.250  24.011  27.113  1.00  0.00     0.020 A 
ATOM     26  C   UNL A   1      39.928  22.838  27.436  1.00  0.00     0.016 A 
ATOM     27  Br  UNL A   1      39.652  25.607  28.040  1.00  0.00    -0.051 Br
ENDBRANCH  17  18
ENDBRANCH  16  17
ENDBRANCH  13  16
ENDBRANCH   7  12
ENDBRANCH   4   7
ENDBRANCH   2   3
ENDBRANCH   1   2
BRANCH   1  28
ATOM     28  C   UNL A   1      32.614  27.719  24.615  1.00  0.00     0.002 C 
BRANCH  28  29
ATOM     29  C   UNL A   1      32.974  29.203  24.796  1.00  0.00     0.002 C 
BRANCH  29  30
ATOM     30  C   UNL A   1      32.509  29.940  26.067  1.00  0.00     0.021 C 
BRANCH  30  31
ATOM     31  C   UNL A   1      33.496  30.059  27.233  1.00  0.00     0.116 C 
BRANCH  31  32
ATOM     32  N   UNL A   1      33.853  31.411  27.622  1.00  0.00    -0.352 N 
ATOM     33  C   UNL A   1      34.972  32.054  28.064  1.00  0.00     0.251 C 
ATOM     34  H   UNL A   1      33.087  32.024  27.548  1.00  0.00     0.163 HD
ATOM     35  O   UNL A   1      34.852  33.271  28.262  1.00  0.00    -0.269 OA
BRANCH  33  36
ATOM     36  C   UNL A   1      36.284  31.424  28.366  1.00  0.00     0.039 A 
ATOM     37  C   UNL A   1      37.303  31.997  29.125  1.00  0.00     0.014 A 
ATOM     38  C   UNL A   1      36.480  30.127  27.850  1.00  0.00     0.014 A 
ATOM     39  C   UNL A   1      38.518  31.327  29.285  1.00  0.00     0.010 A 
ATOM     40  C   UNL A   1      37.680  29.444  28.032  1.00  0.00     0.010 A 
ATOM     41  C   UNL A   1      38.721  30.063  28.715  1.00  0.00    -0.014 A 
BRANCH  41  42
ATOM     42  C   UNL A   1      40.012  29.405  28.929  1.00  0.00     0.031 A 
ATOM     43  C   UNL A   1      40.351  29.062  30.344  1.00  0.00     0.074 A 
ATOM     44  C   UNL A   1      40.832  29.006  27.934  1.00  0.00     0.049 A 
ATOM     45  N   UNL A   1      41.378  29.440  31.039  1.00  0.00    -0.248 NA
ATOM     46  C   UNL A   1      39.392  28.237  31.093  1.00  0.00     0.031 C 
ATOM     47  C   UNL A   1      40.564  28.954  26.495  1.00  0.00     0.029 A 
ATOM     48  N   UNL A   1      42.075  28.453  28.036  1.00  0.00    -0.354 N 
ATOM     49  C   UNL A   1      41.265  28.810  32.280  1.00  0.00     0.074 A 
ATOM     50  C   UNL A   1      39.982  28.151  32.285  1.00  0.00     0.031 C 
ATOM     51  C   UNL A   1      41.504  28.190  25.893  1.00  0.00     0.029 A 
ATOM     52  C   UNL A   1      42.518  27.841  26.873  1.00  0.00     0.049 A 
ATOM     53  H   UNL A   1      42.611  28.486  28.861  1.00  0.00     0.167 HD
ATOM     54  C   UNL A   1      42.289  28.757  33.178  1.00  0.00     0.031 A 
ATOM     55  C   UNL A   1      43.609  27.047  26.744  1.00  0.00     0.031 A 
ATOM     56  C   UNL A   1      43.306  29.731  32.901  1.00  0.00     0.049 A 
ATOM     57  C   UNL A   1      44.515  27.327  27.878  1.00  0.00     0.074 A 
ATOM     58  C   UNL A   1      43.351  31.111  32.889  1.00  0.00     0.029 A 
ATOM     59  N   UNL A   1      44.440  29.315  32.249  1.00  0.00    -0.354 N 
ATOM     60  N   UNL A   1      45.146  28.454  28.043  1.00  0.00    -0.248 NA
ATOM     61  C   UNL A   1      44.425  26.482  29.057  1.00  0.00     0.031 C 
ATOM     62  C   UNL A   1      44.226  31.438  31.814  1.00  0.00     0.029 A 
ATOM     63  C   UNL A   1      44.697  30.240  31.272  1.00  0.00     0.049 A 
ATOM     64  H   UNL A   1      44.967  28.507  32.448  1.00  0.00     0.167 HD
ATOM     65  C   UNL A   1      45.158  28.655  29.415  1.00  0.00     0.074 A 
ATOM     66  C   UNL A   1      44.803  27.359  29.988  1.00  0.00     0.031 C 
ATOM     67  C   UNL A   1      45.184  29.912  29.948  1.00  0.00     0.031 A 
BRANCH  54  68
ATOM     68  C   UNL A   1      42.507  27.630  34.156  1.00  0.00    -0.014 A 
ATOM     69  C   UNL A   1      41.902  27.586  35.425  1.00  0.00     0.009 A 
ATOM     70  C   UNL A   1      43.131  26.446  33.716  1.00  0.00     0.009 A 
ATOM     71  C   UNL A   1      41.909  26.430  36.212  1.00  0.00     0.001 A 
ATOM     72  C   UNL A   1      43.104  25.274  34.484  1.00  0.00     0.001 A 
ATOM     73  C   UNL A   1      42.489  25.266  35.731  1.00  0.00     0.000 A 
ENDBRANCH  54  68
BRANCH  55  74
ATOM     74  C   UNL A   1      43.729  25.817  25.933  1.00  0.00    -0.014 A 
ATOM     75  C   UNL A   1      42.710  24.847  25.978  1.00  0.00     0.009 A 
ATOM     76  C   UNL A   1      44.957  25.453  25.358  1.00  0.00     0.009 A 
ATOM     77  C   UNL A   1      42.921  23.549  25.506  1.00  0.00     0.001 A 
ATOM     78  C   UNL A   1      45.169  24.150  24.887  1.00  0.00     0.001 A 
ATOM     79  C   UNL A   1      44.158  23.196  24.977  1.00  0.00     0.000 A 
ENDBRANCH  55  74
BRANCH  67  80
ATOM     80  C   UNL A   1      45.433  31.083  29.023  1.00  0.00    -0.014 A 
ATOM     81  C   UNL A   1      46.697  31.693  29.039  1.00  0.00     0.009 A 
ATOM     82  C   UNL A   1      44.406  31.708  28.291  1.00  0.00     0.009 A 
ATOM     83  C   UNL A   1      46.928  32.891  28.360  1.00  0.00     0.001 A 
ATOM     84  C   UNL A   1      44.644  32.894  27.588  1.00  0.00     0.001 A 
ATOM     85  C   UNL A   1      45.902  33.491  27.633  1.00  0.00     0.000 A 
ENDBRANCH  67  80
ENDBRANCH  41  42
ENDBRANCH  33  36
ENDBRANCH  31  32
ENDBRANCH  30  31
ENDBRANCH  29  30
ENDBRANCH  28  29
ENDBRANCH   1  28
TORSDOF 19
ENDMDL
MODEL 3
REMARK VINA RESULT:     -11.0      1.592      2.058
REMARK SMILES CC[C@@H](C)[C@@H](NC(=O)CCn1ccc2ccc(Br)cc21)C(=O)NCCCCCCNC(=O)c1ccc(-c2c3nc(c(-c4ccccc4)c4ccc([nH]4)c(-c4ccccc4)c4nc(c(-c5ccccc5)c5ccc2[nH]5)C=C4)C=C3)cc1
REMARK SMILES IDX 25 1 24 2 23 3 21 4 22 5 5 7 3 8 4 9 2 10 1 11 6 12 7 13
REMARK SMILES IDX 8 15 9 16 10 17 11 18 12 19 20 20 13 21 14 22 19 23 15 24
REMARK SMILES IDX 17 25 16 26 18 27 26 28 27 29 28 30 29 31 30 32 31 33 32 35
REMARK SMILES IDX 33 36 34 37 80 38 35 39 79 40 36 41 37 42 38 43 73 44 39 45
REMARK SMILES IDX 78 46 72 47 74 48 40 49 77 50 71 51 70 52 41 54 63 55 48 56
REMARK SMILES IDX 62 57 49 58 52 59 61 60 75 61 50 62 51 63 60 65 76 66 53 67
REMARK SMILES IDX 42 68 43 69 47 70 44 71 46 72 45 73 64 74 65 75 69 76 66 77
REMARK SMILES IDX 68 78 67 79 54 80 55 81 59 82 56 83 58 84 57 85
REMARK H PARENT 23 6 6 14 30 34 74 53 52 64
REMARK Flexibility Score: inf
ROOT
ATOM      1  C   UNL A   1      32.900  28.399  26.863  1.00  0.00     0.021 C 
ENDROOT
BRANCH   1   2
ATOM      2  C   UNL A   1      32.144  27.034  26.955  1.00  0.00     0.116 C 
BRANCH   2   3
ATOM      3  N   UNL A   1      30.952  26.756  26.024  1.00  0.00    -0.354 N 
ATOM      4  C   UNL A   1      30.426  26.504  24.787  1.00  0.00     0.242 C 
ATOM      5  O   UNL A   1      29.312  25.946  24.939  1.00  0.00    -0.273 OA
ATOM      6  H   UNL A   1      30.170  26.761  26.622  1.00  0.00     0.163 HD
BRANCH   4   7
ATOM      7  C   UNL A   1      30.858  26.681  23.206  1.00  0.00     0.174 C 
BRANCH   7   8
ATOM      8  C   UNL A   1      30.835  28.091  22.461  1.00  0.00     0.018 C 
ATOM      9  C   UNL A   1      32.046  28.953  22.830  1.00  0.00     0.010 C 
BRANCH   8  10
ATOM     10  C   UNL A   1      29.516  28.918  22.654  1.00  0.00     0.002 C 
ATOM     11  C   UNL A   1      29.373  30.136  21.736  1.00  0.00     0.004 C 
ENDBRANCH   8  10
ENDBRANCH   7   8
BRANCH   7  12
ATOM     12  N   UNL A   1      31.680  25.685  22.483  1.00  0.00    -0.344 N 
ATOM     13  C   UNL A   1      32.980  25.353  22.563  1.00  0.00     0.222 C 
ATOM     14  H   UNL A   1      31.179  25.166  21.813  1.00  0.00     0.164 HD
ATOM     15  O   UNL A   1      33.537  24.797  21.597  1.00  0.00    -0.275 OA
BRANCH  13  16
ATOM     16  C   UNL A   1      33.690  25.558  23.846  1.00  0.00     0.122 C 
BRANCH  16  17
ATOM     17  C   UNL A   1      33.737  24.316  24.717  1.00  0.00     0.132 C 
BRANCH  17  18
ATOM     18  N   UNL A   1      34.888  23.432  24.652  1.00  0.00    -0.347 N 
ATOM     19  C   UNL A   1      36.196  23.794  24.613  1.00  0.00     0.087 A 
ATOM     20  C   UNL A   1      34.852  22.059  24.725  1.00  0.00     0.049 A 
ATOM     21  C   UNL A   1      37.006  22.737  24.933  1.00  0.00     0.028 A 
ATOM     22  C   UNL A   1      36.167  21.611  24.906  1.00  0.00    -0.000 A 
ATOM     23  C   UNL A   1      33.775  21.178  24.624  1.00  0.00     0.042 A 
ATOM     24  C   UNL A   1      36.433  20.238  24.960  1.00  0.00     0.011 A 
ATOM     25  C   UNL A   1      34.067  19.816  24.675  1.00  0.00     0.020 A 
ATOM     26  C   UNL A   1      35.369  19.347  24.830  1.00  0.00     0.016 A 
ATOM     27  Br  UNL A   1      32.645  18.584  24.508  1.00  0.00    -0.051 Br
ENDBRANCH  17  18
ENDBRANCH  16  17
ENDBRANCH  13  16
ENDBRANCH   7  12
ENDBRANCH   4   7
ENDBRANCH   2   3
ENDBRANCH   1   2
BRANCH   1  28
ATOM     28  C   UNL A   1      32.112  29.678  26.503  1.00  0.00     0.002 C 
BRANCH  28  29
ATOM     29  C   UNL A   1      32.576  31.010  27.115  1.00  0.00     0.002 C 
BRANCH  29  30
ATOM     30  C   UNL A   1      34.034  31.149  27.597  1.00  0.00     0.021 C 
BRANCH  30  31
ATOM     31  C   UNL A   1      34.491  32.511  28.126  1.00  0.00     0.116 C 
BRANCH  31  32
ATOM     32  N   UNL A   1      34.535  32.645  29.571  1.00  0.00    -0.352 N 
ATOM     33  C   UNL A   1      35.312  32.173  30.589  1.00  0.00     0.251 C 
ATOM     34  H   UNL A   1      33.815  33.228  29.904  1.00  0.00     0.163 HD
ATOM     35  O   UNL A   1      35.014  32.569  31.724  1.00  0.00    -0.269 OA
BRANCH  33  36
ATOM     36  C   UNL A   1      36.435  31.209  30.459  1.00  0.00     0.039 A 
ATOM     37  C   UNL A   1      36.309  29.822  30.398  1.00  0.00     0.014 A 
ATOM     38  C   UNL A   1      37.726  31.769  30.369  1.00  0.00     0.014 A 
ATOM     39  C   UNL A   1      37.450  29.017  30.339  1.00  0.00     0.010 A 
ATOM     40  C   UNL A   1      38.863  30.971  30.281  1.00  0.00     0.010 A 
ATOM     41  C   UNL A   1      38.729  29.587  30.311  1.00  0.00    -0.014 A 
BRANCH  41  42
ATOM     42  C   UNL A   1      39.886  28.692  30.237  1.00  0.00     0.031 A 
ATOM     43  C   UNL A   1      40.624  28.461  31.516  1.00  0.00     0.074 A 
ATOM     44  C   UNL A   1      40.239  28.001  29.133  1.00  0.00     0.049 A 
ATOM     45  N   UNL A   1      41.874  28.686  31.776  1.00  0.00    -0.248 NA
ATOM     46  C   UNL A   1      39.854  27.968  32.667  1.00  0.00     0.031 C 
ATOM     47  C   UNL A   1      39.492  27.831  27.884  1.00  0.00     0.029 A 
ATOM     48  N   UNL A   1      41.332  27.204  28.948  1.00  0.00    -0.354 N 
ATOM     49  C   UNL A   1      42.087  28.255  33.086  1.00  0.00     0.074 A 
ATOM     50  C   UNL A   1      40.791  27.901  33.613  1.00  0.00     0.031 C 
ATOM     51  C   UNL A   1      40.029  26.810  27.178  1.00  0.00     0.029 A 
ATOM     52  C   UNL A   1      41.243  26.370  27.844  1.00  0.00     0.049 A 
ATOM     53  H   UNL A   1      42.113  27.220  29.546  1.00  0.00     0.167 HD
ATOM     54  C   UNL A   1      43.331  28.089  33.618  1.00  0.00     0.031 A 
ATOM     55  C   UNL A   1      42.075  25.346  27.539  1.00  0.00     0.031 A 
ATOM     56  C   UNL A   1      44.341  28.773  32.861  1.00  0.00     0.049 A 
ATOM     57  C   UNL A   1      43.346  25.557  28.263  1.00  0.00     0.074 A 
ATOM     58  C   UNL A   1      44.609  30.097  32.573  1.00  0.00     0.029 A 
ATOM     59  N   UNL A   1      45.099  28.040  31.982  1.00  0.00    -0.354 N 
ATOM     60  N   UNL A   1      44.175  26.528  28.008  1.00  0.00    -0.248 NA
ATOM     61  C   UNL A   1      43.523  24.906  29.549  1.00  0.00     0.031 C 
ATOM     62  C   UNL A   1      45.108  30.086  31.239  1.00  0.00     0.029 A 
ATOM     63  C   UNL A   1      45.158  28.756  30.816  1.00  0.00     0.049 A 
ATOM     64  H   UNL A   1      45.519  27.166  32.158  1.00  0.00     0.167 HD
ATOM     65  C   UNL A   1      44.687  26.890  29.245  1.00  0.00     0.074 A 
ATOM     66  C   UNL A   1      44.337  25.786  30.135  1.00  0.00     0.031 C 
ATOM     67  C   UNL A   1      45.103  28.167  29.494  1.00  0.00     0.031 A 
BRANCH  54  68
ATOM     68  C   UNL A   1      43.677  27.072  34.676  1.00  0.00    -0.014 A 
ATOM     69  C   UNL A   1      43.637  25.684  34.449  1.00  0.00     0.009 A 
ATOM     70  C   UNL A   1      44.308  27.498  35.861  1.00  0.00     0.009 A 
ATOM     71  C   UNL A   1      44.198  24.769  35.346  1.00  0.00     0.001 A 
ATOM     72  C   UNL A   1      44.907  26.586  36.741  1.00  0.00     0.001 A 
ATOM     73  C   UNL A   1      44.854  25.221  36.481  1.00  0.00     0.000 A 
ENDBRANCH  54  68
BRANCH  55  74
ATOM     74  C   UNL A   1      41.704  24.028  26.979  1.00  0.00    -0.014 A 
ATOM     75  C   UNL A   1      40.636  23.305  27.542  1.00  0.00     0.009 A 
ATOM     76  C   UNL A   1      42.569  23.349  26.107  1.00  0.00     0.009 A 
ATOM     77  C   UNL A   1      40.461  21.944  27.278  1.00  0.00     0.001 A 
ATOM     78  C   UNL A   1      42.395  21.983  25.845  1.00  0.00     0.001 A 
ATOM     79  C   UNL A   1      41.352  21.279  26.444  1.00  0.00     0.000 A 
ENDBRANCH  55  74
BRANCH  67  80
ATOM     80  C   UNL A   1      45.215  29.130  28.332  1.00  0.00    -0.014 A 
ATOM     81  C   UNL A   1      46.487  29.400  27.806  1.00  0.00     0.009 A 
ATOM     82  C   UNL A   1      44.133  29.909  27.883  1.00  0.00     0.009 A 
ATOM     83  C   UNL A   1      46.678  30.421  26.872  1.00  0.00     0.001 A 
ATOM     84  C   UNL A   1      44.319  30.914  26.926  1.00  0.00     0.001 A 
ATOM     85  C   UNL A   1      45.594  31.177  26.431  1.00  0.00     0.000 A 
ENDBRANCH  67  80
ENDBRANCH  41  42
ENDBRANCH  33  36
ENDBRANCH  31  32
ENDBRANCH  30  31
ENDBRANCH  29  30
ENDBRANCH  28  29
ENDBRANCH   1  28
TORSDOF 19
ENDMDL
