MODEL 1
REMARK VINA RESULT:      -9.6      0.000      0.000
REMARK SMILES C[C@@H]1CCC[C@@]1(C[NH3+])C(=O)NCCCCCCNC(=O)c1ccc(-c2c3nc(c(-c4ccccc4)c4ccc([nH]4)c(-c4ccccc4)c4nc(c(-c5ccccc5)c5ccc2[nH]5)C=C4)C=C3)cc1
REMARK SMILES IDX 14 1 13 2 12 3 11 4 9 5 10 6 6 8 1 9 2 10 3 11 4 12 5 13
REMARK SMILES IDX 7 14 8 15 15 19 16 20 17 21 18 22 19 23 20 25 21 26 22 27
REMARK SMILES IDX 68 28 23 29 67 30 24 31 25 32 26 33 61 34 27 35 66 36 60 37
REMARK SMILES IDX 62 38 28 39 65 40 59 41 58 42 29 44 51 45 36 46 50 47 37 48
REMARK SMILES IDX 40 49 49 50 63 51 38 52 39 53 48 55 64 56 41 57 30 58 31 59
REMARK SMILES IDX 35 60 32 61 34 62 33 63 52 64 53 65 57 66 54 67 56 68 55 69
REMARK SMILES IDX 42 70 43 71 47 72 44 73 46 74 45 75
REMARK H PARENT 11 7 8 16 8 17 8 18 18 24 62 43 40 54
REMARK Flexibility Score: inf
ROOT
ATOM      1  C   UNL A   1      37.362  21.880  24.523  1.00  0.00     0.002 C 
ENDROOT
BRANCH   1   2
ATOM      2  C   UNL A   1      37.541  22.844  25.705  1.00  0.00     0.021 C 
BRANCH   2   3
ATOM      3  C   UNL A   1      36.267  23.610  26.069  1.00  0.00     0.116 C 
BRANCH   3   4
ATOM      4  N   UNL A   1      35.418  22.800  26.920  1.00  0.00    -0.355 N 
ATOM      5  C   UNL A   1      34.069  22.628  26.975  1.00  0.00     0.232 C 
ATOM      6  O   UNL A   1      33.664  21.971  27.940  1.00  0.00    -0.274 OA
ATOM      7  H   UNL A   1      35.913  22.273  27.587  1.00  0.00     0.163 HD
BRANCH   5   8
ATOM      8  C   UNL A   1      33.105  23.143  25.863  1.00  0.00     0.100 C 
ATOM      9  C   UNL A   1      33.194  23.501  23.265  1.00  0.00     0.009 C 
ATOM     10  C   UNL A   1      33.726  22.759  24.489  1.00  0.00     0.007 C 
ATOM     11  C   UNL A   1      33.423  21.257  24.381  1.00  0.00     0.005 C 
ATOM     12  C   UNL A   1      32.045  21.072  25.002  1.00  0.00     0.002 C 
ATOM     13  C   UNL A   1      31.806  22.284  25.903  1.00  0.00     0.023 C 
BRANCH   8  14
ATOM     14  C   UNL A   1      32.780  24.640  26.121  1.00  0.00     0.276 C 
BRANCH  14  15
ATOM     15  N   UNL A   1      31.473  24.963  26.699  1.00  0.00    -0.357 N 
ATOM     16  H   UNL A   1      31.025  25.690  26.141  1.00  0.00     0.344 HD
ATOM     17  H   UNL A   1      31.597  25.296  27.654  1.00  0.00     0.344 HD
ATOM     18  H   UNL A   1      30.888  24.128  26.702  1.00  0.00     0.344 HD
ENDBRANCH  14  15
ENDBRANCH   8  14
ENDBRANCH   5   8
ENDBRANCH   3   4
ENDBRANCH   2   3
ENDBRANCH   1   2
BRANCH   1  19
ATOM     19  C   UNL A   1      37.023  20.436  24.909  1.00  0.00     0.002 C 
BRANCH  19  20
ATOM     20  C   UNL A   1      38.215  19.475  24.955  1.00  0.00     0.021 C 
BRANCH  20  21
ATOM     21  C   UNL A   1      39.243  19.777  26.043  1.00  0.00     0.116 C 
BRANCH  21  22
ATOM     22  N   UNL A   1      40.511  19.111  25.795  1.00  0.00    -0.352 N 
ATOM     23  C   UNL A   1      41.786  19.602  25.885  1.00  0.00     0.251 C 
ATOM     24  H   UNL A   1      40.442  18.168  25.521  1.00  0.00     0.163 HD
ATOM     25  O   UNL A   1      42.726  18.940  25.447  1.00  0.00    -0.269 OA
BRANCH  23  26
ATOM     26  C   UNL A   1      42.048  20.925  26.492  1.00  0.00     0.039 A 
ATOM     27  C   UNL A   1      42.319  22.005  25.647  1.00  0.00     0.014 A 
ATOM     28  C   UNL A   1      42.083  21.098  27.880  1.00  0.00     0.014 A 
ATOM     29  C   UNL A   1      42.589  23.262  26.189  1.00  0.00     0.010 A 
ATOM     30  C   UNL A   1      42.297  22.367  28.420  1.00  0.00     0.010 A 
ATOM     31  C   UNL A   1      42.564  23.458  27.580  1.00  0.00    -0.014 A 
BRANCH  31  32
ATOM     32  C   UNL A   1      42.828  24.801  28.152  1.00  0.00     0.031 A 
ATOM     33  C   UNL A   1      44.227  25.216  28.518  1.00  0.00     0.074 A 
ATOM     34  C   UNL A   1      41.802  25.650  28.353  1.00  0.00     0.049 A 
ATOM     35  N   UNL A   1      44.651  26.365  28.983  1.00  0.00    -0.248 NA
ATOM     36  C   UNL A   1      45.285  24.206  28.358  1.00  0.00     0.031 C 
ATOM     37  C   UNL A   1      40.393  25.355  28.082  1.00  0.00     0.029 A 
ATOM     38  N   UNL A   1      41.789  26.940  28.821  1.00  0.00    -0.354 N 
ATOM     39  C   UNL A   1      46.019  26.213  29.176  1.00  0.00     0.074 A 
ATOM     40  C   UNL A   1      46.346  24.848  28.825  1.00  0.00     0.031 C 
ATOM     41  C   UNL A   1      39.657  26.447  28.350  1.00  0.00     0.029 A 
ATOM     42  C   UNL A   1      40.538  27.507  28.831  1.00  0.00     0.049 A 
ATOM     43  H   UNL A   1      42.598  27.413  29.122  1.00  0.00     0.167 HD
ATOM     44  C   UNL A   1      46.926  27.131  29.587  1.00  0.00     0.031 A 
ATOM     45  C   UNL A   1      40.146  28.749  29.171  1.00  0.00     0.031 A 
ATOM     46  C   UNL A   1      46.609  28.492  29.928  1.00  0.00     0.049 A 
ATOM     47  C   UNL A   1      41.174  29.753  29.605  1.00  0.00     0.074 A 
ATOM     48  C   UNL A   1      47.465  29.508  30.318  1.00  0.00     0.029 A 
ATOM     49  N   UNL A   1      45.332  29.029  29.916  1.00  0.00    -0.354 N 
ATOM     50  N   UNL A   1      42.473  29.611  29.722  1.00  0.00    -0.248 NA
ATOM     51  C   UNL A   1      40.682  31.099  29.934  1.00  0.00     0.031 C 
ATOM     52  C   UNL A   1      46.700  30.652  30.572  1.00  0.00     0.029 A 
ATOM     53  C   UNL A   1      45.374  30.359  30.300  1.00  0.00     0.049 A 
ATOM     54  H   UNL A   1      44.515  28.538  29.670  1.00  0.00     0.167 HD
ATOM     55  C   UNL A   1      42.954  30.853  30.112  1.00  0.00     0.074 A 
ATOM     56  C   UNL A   1      41.813  31.740  30.195  1.00  0.00     0.031 C 
ATOM     57  C   UNL A   1      44.230  31.226  30.379  1.00  0.00     0.031 A 
BRANCH  44  58
ATOM     58  C   UNL A   1      48.358  26.687  29.684  1.00  0.00    -0.014 A 
ATOM     59  C   UNL A   1      48.850  26.087  30.854  1.00  0.00     0.009 A 
ATOM     60  C   UNL A   1      49.218  26.837  28.585  1.00  0.00     0.009 A 
ATOM     61  C   UNL A   1      50.183  25.677  30.932  1.00  0.00     0.001 A 
ATOM     62  C   UNL A   1      50.543  26.404  28.658  1.00  0.00     0.001 A 
ATOM     63  C   UNL A   1      51.027  25.833  29.834  1.00  0.00     0.000 A 
ENDBRANCH  44  58
BRANCH  45  64
ATOM     64  C   UNL A   1      38.715  29.132  29.070  1.00  0.00    -0.014 A 
ATOM     65  C   UNL A   1      38.190  29.599  27.855  1.00  0.00     0.009 A 
ATOM     66  C   UNL A   1      37.871  29.046  30.188  1.00  0.00     0.009 A 
ATOM     67  C   UNL A   1      36.856  30.001  27.769  1.00  0.00     0.001 A 
ATOM     68  C   UNL A   1      36.531  29.424  30.092  1.00  0.00     0.001 A 
ATOM     69  C   UNL A   1      36.027  29.911  28.886  1.00  0.00     0.000 A 
ENDBRANCH  45  64
BRANCH  57  70
ATOM     70  C   UNL A   1      44.451  32.663  30.755  1.00  0.00    -0.014 A 
ATOM     71  C   UNL A   1      44.424  33.075  32.097  1.00  0.00     0.009 A 
ATOM     72  C   UNL A   1      44.700  33.612  29.754  1.00  0.00     0.009 A 
ATOM     73  C   UNL A   1      44.601  34.420  32.423  1.00  0.00     0.001 A 
ATOM     74  C   UNL A   1      44.902  34.952  30.086  1.00  0.00     0.001 A 
ATOM     75  C   UNL A   1      44.841  35.357  31.419  1.00  0.00     0.000 A 
ENDBRANCH  57  70
ENDBRANCH  31  32
ENDBRANCH  23  26
ENDBRANCH  21  22
ENDBRANCH  20  21
ENDBRANCH  19  20
ENDBRANCH   1  19
TORSDOF 15
ENDMDL
MODEL 2
REMARK VINA RESULT:      -9.4      3.766      9.012
REMARK SMILES C[C@@H]1CCC[C@@]1(C[NH3+])C(=O)NCCCCCCNC(=O)c1ccc(-c2c3nc(c(-c4ccccc4)c4ccc([nH]4)c(-c4ccccc4)c4nc(c(-c5ccccc5)c5ccc2[nH]5)C=C4)C=C3)cc1
REMARK SMILES IDX 14 1 13 2 12 3 11 4 9 5 10 6 6 8 1 9 2 10 3 11 4 12 5 13
REMARK SMILES IDX 7 14 8 15 15 19 16 20 17 21 18 22 19 23 20 25 21 26 22 27
REMARK SMILES IDX 68 28 23 29 67 30 24 31 25 32 26 33 61 34 27 35 66 36 60 37
REMARK SMILES IDX 62 38 28 39 65 40 59 41 58 42 29 44 51 45 36 46 50 47 37 48
REMARK SMILES IDX 40 49 49 50 63 51 38 52 39 53 48 55 64 56 41 57 30 58 31 59
REMARK SMILES IDX 35 60 32 61 34 62 33 63 52 64 53 65 57 66 54 67 56 68 55 69
REMARK SMILES IDX 42 70 43 71 47 72 44 73 46 74 45 75
REMARK H PARENT 11 7 8 16 8 17 8 18 18 24 62 43 40 54
REMARK Flexibility Score: inf
ROOT
ATOM      1  C   UNL A   1      32.852  30.114  26.971  1.00  0.00     0.002 C 
ENDROOT
BRANCH   1   2
ATOM      2  C   UNL A   1      32.747  28.616  27.290  1.00  0.00     0.021 C 
BRANCH   2   3
ATOM      3  C   UNL A   1      31.657  27.894  26.494  1.00  0.00     0.116 C 
BRANCH   3   4
ATOM      4  N   UNL A   1      31.468  26.550  27.001  1.00  0.00    -0.355 N 
ATOM      5  C   UNL A   1      31.475  25.331  26.398  1.00  0.00     0.232 C 
ATOM      6  O   UNL A   1      31.122  24.389  27.115  1.00  0.00    -0.274 OA
ATOM      7  H   UNL A   1      31.302  26.512  27.971  1.00  0.00     0.163 HD
BRANCH   5   8
ATOM      8  C   UNL A   1      31.975  25.113  24.936  1.00  0.00     0.100 C 
ATOM      9  C   UNL A   1      33.715  26.230  23.320  1.00  0.00     0.009 C 
ATOM     10  C   UNL A   1      33.274  25.951  24.755  1.00  0.00     0.007 C 
ATOM     11  C   UNL A   1      34.331  25.110  25.488  1.00  0.00     0.005 C 
ATOM     12  C   UNL A   1      33.965  23.659  25.207  1.00  0.00     0.002 C 
ATOM     13  C   UNL A   1      32.490  23.650  24.806  1.00  0.00     0.023 C 
BRANCH   8  14
ATOM     14  C   UNL A   1      30.802  25.372  23.952  1.00  0.00     0.276 C 
BRANCH  14  15
ATOM     15  N   UNL A   1      29.453  25.488  24.516  1.00  0.00    -0.357 N 
ATOM     16  H   UNL A   1      28.784  25.652  23.764  1.00  0.00     0.344 HD
ATOM     17  H   UNL A   1      29.426  26.267  25.173  1.00  0.00     0.344 HD
ATOM     18  H   UNL A   1      29.213  24.624  25.002  1.00  0.00     0.344 HD
ENDBRANCH  14  15
ENDBRANCH   8  14
ENDBRANCH   5   8
ENDBRANCH   3   4
ENDBRANCH   2   3
ENDBRANCH   1   2
BRANCH   1  19
ATOM     19  C   UNL A   1      31.561  30.759  26.453  1.00  0.00     0.002 C 
BRANCH  19  20
ATOM     20  C   UNL A   1      31.379  32.237  26.812  1.00  0.00     0.021 C 
BRANCH  20  21
ATOM     21  C   UNL A   1      32.676  32.999  27.073  1.00  0.00     0.116 C 
BRANCH  21  22
ATOM     22  N   UNL A   1      32.464  34.160  27.920  1.00  0.00    -0.352 N 
ATOM     23  C   UNL A   1      33.188  34.599  28.997  1.00  0.00     0.251 C 
ATOM     24  H   UNL A   1      31.684  34.714  27.685  1.00  0.00     0.163 HD
ATOM     25  O   UNL A   1      32.740  35.498  29.708  1.00  0.00    -0.269 OA
BRANCH  23  26
ATOM     26  C   UNL A   1      34.499  33.996  29.325  1.00  0.00     0.039 A 
ATOM     27  C   UNL A   1      34.571  33.100  30.396  1.00  0.00     0.014 A 
ATOM     28  C   UNL A   1      35.659  34.346  28.627  1.00  0.00     0.014 A 
ATOM     29  C   UNL A   1      35.796  32.530  30.743  1.00  0.00     0.010 A 
ATOM     30  C   UNL A   1      36.872  33.731  28.938  1.00  0.00     0.010 A 
ATOM     31  C   UNL A   1      36.955  32.827  30.007  1.00  0.00    -0.014 A 
BRANCH  31  32
ATOM     32  C   UNL A   1      38.251  32.200  30.364  1.00  0.00     0.031 A 
ATOM     33  C   UNL A   1      39.158  32.840  31.379  1.00  0.00     0.074 A 
ATOM     34  C   UNL A   1      38.620  31.051  29.765  1.00  0.00     0.049 A 
ATOM     35  N   UNL A   1      40.302  32.411  31.849  1.00  0.00    -0.248 NA
ATOM     36  C   UNL A   1      38.735  34.139  31.924  1.00  0.00     0.031 C 
ATOM     37  C   UNL A   1      37.853  30.350  28.732  1.00  0.00     0.029 A 
ATOM     38  N   UNL A   1      39.729  30.264  29.947  1.00  0.00    -0.354 N 
ATOM     39  C   UNL A   1      40.737  33.386  32.737  1.00  0.00     0.074 A 
ATOM     40  C   UNL A   1      39.759  34.453  32.704  1.00  0.00     0.031 C 
ATOM     41  C   UNL A   1      38.495  29.217  28.402  1.00  0.00     0.029 A 
ATOM     42  C   UNL A   1      39.725  29.124  29.183  1.00  0.00     0.049 A 
ATOM     43  H   UNL A   1      40.458  30.496  30.567  1.00  0.00     0.167 HD
ATOM     44  C   UNL A   1      41.838  33.388  33.526  1.00  0.00     0.031 A 
ATOM     45  C   UNL A   1      40.605  28.106  29.129  1.00  0.00     0.031 A 
ATOM     46  C   UNL A   1      42.809  32.328  33.570  1.00  0.00     0.049 A 
ATOM     47  C   UNL A   1      41.807  28.124  30.027  1.00  0.00     0.074 A 
ATOM     48  C   UNL A   1      43.937  32.221  34.365  1.00  0.00     0.029 A 
ATOM     49  N   UNL A   1      42.763  31.186  32.787  1.00  0.00    -0.354 N 
ATOM     50  N   UNL A   1      42.170  29.026  30.907  1.00  0.00    -0.248 NA
ATOM     51  C   UNL A   1      42.712  26.968  29.938  1.00  0.00     0.031 C 
ATOM     52  C   UNL A   1      44.592  31.027  34.039  1.00  0.00     0.029 A 
ATOM     53  C   UNL A   1      43.847  30.374  33.071  1.00  0.00     0.049 A 
ATOM     54  H   UNL A   1      42.063  30.983  32.125  1.00  0.00     0.167 HD
ATOM     55  C   UNL A   1      43.328  28.535  31.494  1.00  0.00     0.074 A 
ATOM     56  C   UNL A   1      43.597  27.250  30.885  1.00  0.00     0.031 C 
ATOM     57  C   UNL A   1      44.102  29.100  32.454  1.00  0.00     0.031 A 
BRANCH  44  58
ATOM     58  C   UNL A   1      42.046  34.583  34.414  1.00  0.00    -0.014 A 
ATOM     59  C   UNL A   1      41.526  34.613  35.718  1.00  0.00     0.009 A 
ATOM     60  C   UNL A   1      42.796  35.677  33.957  1.00  0.00     0.009 A 
ATOM     61  C   UNL A   1      41.725  35.728  36.534  1.00  0.00     0.001 A 
ATOM     62  C   UNL A   1      43.015  36.780  34.784  1.00  0.00     0.001 A 
ATOM     63  C   UNL A   1      42.472  36.809  36.068  1.00  0.00     0.000 A 
ENDBRANCH  44  58
BRANCH  45  64
ATOM     64  C   UNL A   1      40.359  26.957  28.222  1.00  0.00    -0.014 A 
ATOM     65  C   UNL A   1      40.864  26.966  26.912  1.00  0.00     0.009 A 
ATOM     66  C   UNL A   1      39.607  25.853  28.653  1.00  0.00     0.009 A 
ATOM     67  C   UNL A   1      40.597  25.907  26.044  1.00  0.00     0.001 A 
ATOM     68  C   UNL A   1      39.364  24.783  27.790  1.00  0.00     0.001 A 
ATOM     69  C   UNL A   1      39.850  24.815  26.483  1.00  0.00     0.000 A 
ENDBRANCH  45  64
BRANCH  57  70
ATOM     70  C   UNL A   1      45.291  28.310  32.917  1.00  0.00    -0.014 A 
ATOM     71  C   UNL A   1      45.187  27.394  33.976  1.00  0.00     0.009 A 
ATOM     72  C   UNL A   1      46.529  28.479  32.280  1.00  0.00     0.009 A 
ATOM     73  C   UNL A   1      46.312  26.692  34.412  1.00  0.00     0.001 A 
ATOM     74  C   UNL A   1      47.645  27.757  32.703  1.00  0.00     0.001 A 
ATOM     75  C   UNL A   1      47.539  26.873  33.775  1.00  0.00     0.000 A 
ENDBRANCH  57  70
ENDBRANCH  31  32
ENDBRANCH  23  26
ENDBRANCH  21  22
ENDBRANCH  20  21
ENDBRANCH  19  20
ENDBRANCH   1  19
TORSDOF 15
ENDMDL
MODEL 3
REMARK VINA RESULT:      -9.2      1.002      6.344
REMARK SMILES C[C@@H]1CCC[C@@]1(C[NH3+])C(=O)NCCCCCCNC(=O)c1ccc(-c2c3nc(c(-c4ccccc4)c4ccc([nH]4)c(-c4ccccc4)c4nc(c(-c5ccccc5)c5ccc2[nH]5)C=C4)C=C3)cc1
REMARK SMILES IDX 14 1 13 2 12 3 11 4 9 5 10 6 6 8 1 9 2 10 3 11 4 12 5 13
REMARK SMILES IDX 7 14 8 15 15 19 16 20 17 21 18 22 19 23 20 25 21 26 22 27
REMARK SMILES IDX 68 28 23 29 67 30 24 31 25 32 26 33 61 34 27 35 66 36 60 37
REMARK SMILES IDX 62 38 28 39 65 40 59 41 58 42 29 44 51 45 36 46 50 47 37 48
REMARK SMILES IDX 40 49 49 50 63 51 38 52 39 53 48 55 64 56 41 57 30 58 31 59
REMARK SMILES IDX 35 60 32 61 34 62 33 63 52 64 53 65 57 66 54 67 56 68 55 69
REMARK SMILES IDX 42 70 43 71 47 72 44 73 46 74 45 75
REMARK H PARENT 11 7 8 16 8 17 8 18 18 24 62 43 40 54
REMARK Flexibility Score: inf
ROOT
ATOM      1  C   UNL A   1      36.622  21.768  25.105  1.00  0.00     0.002 C 
ENDROOT
BRANCH   1   2
ATOM      2  C   UNL A   1      36.513  22.529  23.777  1.00  0.00     0.021 C 
BRANCH   2   3
ATOM      3  C   UNL A   1      35.142  23.169  23.547  1.00  0.00     0.116 C 
BRANCH   3   4
ATOM      4  N   UNL A   1      34.856  24.137  24.588  1.00  0.00    -0.355 N 
ATOM      5  C   UNL A   1      33.828  24.261  25.470  1.00  0.00     0.232 C 
ATOM      6  O   UNL A   1      33.824  25.308  26.126  1.00  0.00    -0.274 OA
ATOM      7  H   UNL A   1      35.539  24.841  24.672  1.00  0.00     0.163 HD
BRANCH   5   8
ATOM      8  C   UNL A   1      32.776  23.134  25.707  1.00  0.00     0.100 C 
ATOM      9  C   UNL A   1      30.353  22.953  26.698  1.00  0.00     0.009 C 
ATOM     10  C   UNL A   1      31.418  23.821  26.032  1.00  0.00     0.007 C 
ATOM     11  C   UNL A   1      30.936  24.300  24.654  1.00  0.00     0.005 C 
ATOM     12  C   UNL A   1      31.360  23.216  23.673  1.00  0.00     0.002 C 
ATOM     13  C   UNL A   1      32.489  22.435  24.345  1.00  0.00     0.023 C 
BRANCH   8  14
ATOM     14  C   UNL A   1      33.341  22.118  26.737  1.00  0.00     0.276 C 
BRANCH  14  15
ATOM     15  N   UNL A   1      34.405  22.578  27.634  1.00  0.00    -0.357 N 
ATOM     16  H   UNL A   1      35.312  22.320  27.245  1.00  0.00     0.344 HD
ATOM     17  H   UNL A   1      34.290  22.142  28.548  1.00  0.00     0.344 HD
ATOM     18  H   UNL A   1      34.352  23.592  27.731  1.00  0.00     0.344 HD
ENDBRANCH  14  15
ENDBRANCH   8  14
ENDBRANCH   5   8
ENDBRANCH   3   4
ENDBRANCH   2   3
ENDBRANCH   1   2
BRANCH   1  19
ATOM     19  C   UNL A   1      36.452  20.248  24.998  1.00  0.00     0.002 C 
BRANCH  19  20
ATOM     20  C   UNL A   1      37.756  19.443  25.001  1.00  0.00     0.021 C 
BRANCH  20  21
ATOM     21  C   UNL A   1      38.922  20.111  25.727  1.00  0.00     0.116 C 
BRANCH  21  22
ATOM     22  N   UNL A   1      40.073  19.231  25.833  1.00  0.00    -0.352 N 
ATOM     23  C   UNL A   1      41.377  19.532  26.126  1.00  0.00     0.251 C 
ATOM     24  H   UNL A   1      39.888  18.278  25.671  1.00  0.00     0.163 HD
ATOM     25  O   UNL A   1      42.248  18.674  25.979  1.00  0.00    -0.269 OA
BRANCH  23  26
ATOM     26  C   UNL A   1      41.756  20.879  26.604  1.00  0.00     0.039 A 
ATOM     27  C   UNL A   1      42.196  21.820  25.667  1.00  0.00     0.014 A 
ATOM     28  C   UNL A   1      41.733  21.206  27.964  1.00  0.00     0.014 A 
ATOM     29  C   UNL A   1      42.578  23.093  26.089  1.00  0.00     0.010 A 
ATOM     30  C   UNL A   1      42.061  22.497  28.377  1.00  0.00     0.010 A 
ATOM     31  C   UNL A   1      42.499  23.450  27.446  1.00  0.00    -0.014 A 
BRANCH  31  32
ATOM     32  C   UNL A   1      42.884  24.813  27.887  1.00  0.00     0.031 A 
ATOM     33  C   UNL A   1      41.836  25.866  28.123  1.00  0.00     0.074 A 
ATOM     34  C   UNL A   1      44.186  25.108  28.067  1.00  0.00     0.049 A 
ATOM     35  N   UNL A   1      41.984  27.093  28.556  1.00  0.00    -0.248 NA
ATOM     36  C   UNL A   1      40.444  25.501  27.819  1.00  0.00     0.031 C 
ATOM     37  C   UNL A   1      45.303  24.191  27.830  1.00  0.00     0.029 A 
ATOM     38  N   UNL A   1      44.787  26.262  28.503  1.00  0.00    -0.354 N 
ATOM     39  C   UNL A   1      40.710  27.646  28.569  1.00  0.00     0.074 A 
ATOM     40  C   UNL A   1      39.807  26.638  28.055  1.00  0.00     0.031 C 
ATOM     41  C   UNL A   1      46.451  24.805  28.163  1.00  0.00     0.029 A 
ATOM     42  C   UNL A   1      46.152  26.161  28.613  1.00  0.00     0.049 A 
ATOM     43  H   UNL A   1      44.288  27.083  28.715  1.00  0.00     0.167 HD
ATOM     44  C   UNL A   1      40.320  28.873  28.991  1.00  0.00     0.031 A 
ATOM     45  C   UNL A   1      47.061  27.054  29.047  1.00  0.00     0.031 A 
ATOM     46  C   UNL A   1      41.210  29.875  29.511  1.00  0.00     0.049 A 
ATOM     47  C   UNL A   1      46.600  28.400  29.526  1.00  0.00     0.074 A 
ATOM     48  C   UNL A   1      40.904  31.134  29.999  1.00  0.00     0.029 A 
ATOM     49  N   UNL A   1      42.584  29.730  29.614  1.00  0.00    -0.354 N 
ATOM     50  N   UNL A   1      45.383  28.884  29.590  1.00  0.00    -0.248 NA
ATOM     51  C   UNL A   1      47.641  29.316  30.013  1.00  0.00     0.031 C 
ATOM     52  C   UNL A   1      42.099  31.763  30.369  1.00  0.00     0.029 A 
ATOM     53  C   UNL A   1      43.142  30.879  30.149  1.00  0.00     0.049 A 
ATOM     54  H   UNL A   1      43.089  28.928  29.347  1.00  0.00     0.167 HD
ATOM     55  C   UNL A   1      45.510  30.148  30.148  1.00  0.00     0.074 A 
ATOM     56  C   UNL A   1      46.917  30.350  30.421  1.00  0.00     0.031 C 
ATOM     57  C   UNL A   1      44.544  31.063  30.411  1.00  0.00     0.031 A 
BRANCH  44  58
ATOM     58  C   UNL A   1      38.854  29.194  28.908  1.00  0.00    -0.014 A 
ATOM     59  C   UNL A   1      38.014  29.025  30.019  1.00  0.00     0.009 A 
ATOM     60  C   UNL A   1      38.312  29.703  27.717  1.00  0.00     0.009 A 
ATOM     61  C   UNL A   1      36.653  29.328  29.930  1.00  0.00     0.001 A 
ATOM     62  C   UNL A   1      36.956  30.028  27.639  1.00  0.00     0.001 A 
ATOM     63  C   UNL A   1      36.126  29.832  28.742  1.00  0.00     0.000 A 
ENDBRANCH  44  58
BRANCH  45  64
ATOM     64  C   UNL A   1      48.499  26.689  29.094  1.00  0.00    -0.014 A 
ATOM     65  C   UNL A   1      49.341  26.982  28.010  1.00  0.00     0.009 A 
ATOM     66  C   UNL A   1      49.036  26.036  30.215  1.00  0.00     0.009 A 
ATOM     67  C   UNL A   1      50.684  26.600  28.033  1.00  0.00     0.001 A 
ATOM     68  C   UNL A   1      50.385  25.679  30.246  1.00  0.00     0.001 A 
ATOM     69  C   UNL A   1      51.206  25.953  29.152  1.00  0.00     0.000 A 
ENDBRANCH  45  64
BRANCH  57  70
ATOM     70  C   UNL A   1      44.984  32.348  31.052  1.00  0.00    -0.014 A 
ATOM     71  C   UNL A   1      45.351  33.459  30.276  1.00  0.00     0.009 A 
ATOM     72  C   UNL A   1      45.023  32.449  32.450  1.00  0.00     0.009 A 
ATOM     73  C   UNL A   1      45.787  34.633  30.890  1.00  0.00     0.001 A 
ATOM     74  C   UNL A   1      45.435  33.634  33.061  1.00  0.00     0.001 A 
ATOM     75  C   UNL A   1      45.827  34.721  32.281  1.00  0.00     0.000 A 
ENDBRANCH  57  70
ENDBRANCH  31  32
ENDBRANCH  23  26
ENDBRANCH  21  22
ENDBRANCH  20  21
ENDBRANCH  19  20
ENDBRANCH   1  19
TORSDOF 15
ENDMDL
