MODEL 1
REMARK VINA RESULT:     -13.0      0.000      0.000
REMARK SMILES Cc1ccc(NC(=O)c2ccccc2NC(=O)[C@H]2CCCC[C@H]2C(=O)NCCCCCCNC(=O)c2ccc(-c3c4nc(c(-c5ccccc5)c5ccc([nH]5)c(-c5ccccc5)c5nc(c(-c6ccccc6)c6ccc3[nH]6)C=C5)C=C4)cc2)cc1
REMARK SMILES IDX 28 1 27 2 26 3 24 4 25 5 23 7 18 8 19 9 20 10 22 11 21 12
REMARK SMILES IDX 16 13 15 14 17 16 14 17 9 18 10 19 11 20 13 21 12 22 7 23
REMARK SMILES IDX 6 24 8 26 5 27 1 28 2 29 3 30 85 31 4 32 84 33 29 34 30 35
REMARK SMILES IDX 31 36 32 37 33 38 34 39 35 41 36 42 37 43 83 44 38 45 82 46
REMARK SMILES IDX 39 47 40 48 41 49 76 50 42 51 81 52 75 53 77 54 43 55 80 56
REMARK SMILES IDX 74 57 73 58 44 60 66 61 51 62 65 63 52 64 55 65 64 66 78 67
REMARK SMILES IDX 53 68 54 69 63 71 79 72 56 73 45 74 46 75 50 76 47 77 49 78
REMARK SMILES IDX 48 79 67 80 68 81 72 82 69 83 71 84 70 85 57 86 58 87 62 88
REMARK SMILES IDX 59 89 61 90 60 91
REMARK H PARENT 26 6 15 15 6 25 33 40 77 59 55 70
REMARK Flexibility Score: inf
ROOT
ATOM      1  C   UNL A   1      33.865  28.885  23.880  1.00  0.00     0.021 C 
ENDROOT
BRANCH   1   2
ATOM      2  C   UNL A   1      33.111  28.278  22.689  1.00  0.00     0.116 C 
BRANCH   2   3
ATOM      3  N   UNL A   1      33.561  26.931  22.390  1.00  0.00    -0.356 N 
ATOM      4  C   UNL A   1      33.099  25.696  22.700  1.00  0.00     0.223 C 
ATOM      5  O   UNL A   1      33.769  24.749  22.265  1.00  0.00    -0.275 OA
ATOM      6  H   UNL A   1      34.378  26.910  21.843  1.00  0.00     0.163 HD
BRANCH   4   7
ATOM      7  C   UNL A   1      31.886  25.384  23.581  1.00  0.00     0.091 C 
ATOM      8  C   UNL A   1      32.224  24.402  24.721  1.00  0.00     0.091 C 
ATOM      9  C   UNL A   1      30.963  23.971  25.493  1.00  0.00     0.014 C 
ATOM     10  C   UNL A   1      30.038  25.136  25.863  1.00  0.00     0.001 C 
ATOM     11  C   UNL A   1      30.954  26.535  23.963  1.00  0.00     0.014 C 
ATOM     12  C   UNL A   1      29.697  26.008  24.657  1.00  0.00     0.001 C 
BRANCH   8  13
ATOM     13  C   UNL A   1      33.218  24.986  25.695  1.00  0.00     0.228 C 
ATOM     14  N   UNL A   1      34.519  24.623  25.771  1.00  0.00    -0.325 N 
ATOM     15  H   UNL A   1      35.037  25.297  26.269  1.00  0.00     0.169 HD
ATOM     16  O   UNL A   1      32.867  25.883  26.471  1.00  0.00    -0.274 OA
BRANCH  14  17
ATOM     17  C   UNL A   1      35.352  23.571  25.350  1.00  0.00     0.054 A 
ATOM     18  C   UNL A   1      35.127  22.268  25.867  1.00  0.00     0.063 A 
ATOM     19  C   UNL A   1      36.002  21.216  25.535  1.00  0.00     0.016 A 
ATOM     20  C   UNL A   1      37.066  21.421  24.663  1.00  0.00     0.001 A 
ATOM     21  C   UNL A   1      36.379  23.731  24.414  1.00  0.00     0.027 A 
ATOM     22  C   UNL A   1      37.241  22.674  24.090  1.00  0.00     0.002 A 
BRANCH  18  23
ATOM     23  C   UNL A   1      34.112  21.903  26.894  1.00  0.00     0.257 C 
ATOM     24  N   UNL A   1      33.073  21.020  26.712  1.00  0.00    -0.322 N 
ATOM     25  H   UNL A   1      32.463  20.984  27.484  1.00  0.00     0.170 HD
ATOM     26  O   UNL A   1      34.161  22.505  27.971  1.00  0.00    -0.269 OA
BRANCH  24  27
ATOM     27  C   UNL A   1      32.688  20.159  25.675  1.00  0.00     0.041 A 
ATOM     28  C   UNL A   1      32.461  17.911  22.019  1.00  0.00     0.044 C 
ATOM     29  C   UNL A   1      32.413  18.678  23.307  1.00  0.00    -0.051 A 
ATOM     30  C   UNL A   1      32.680  18.037  24.524  1.00  0.00     0.005 A 
ATOM     31  C   UNL A   1      32.185  20.056  23.302  1.00  0.00     0.005 A 
ATOM     32  C   UNL A   1      32.810  18.774  25.708  1.00  0.00     0.026 A 
ATOM     33  C   UNL A   1      32.303  20.787  24.483  1.00  0.00     0.026 A 
ENDBRANCH  24  27
ENDBRANCH  18  23
ENDBRANCH  14  17
ENDBRANCH   8  13
ENDBRANCH   4   7
ENDBRANCH   2   3
ENDBRANCH   1   2
BRANCH   1  34
ATOM     34  C   UNL A   1      33.160  28.803  25.239  1.00  0.00     0.002 C 
BRANCH  34  35
ATOM     35  C   UNL A   1      32.204  29.950  25.595  1.00  0.00     0.002 C 
BRANCH  35  36
ATOM     36  C   UNL A   1      32.505  30.699  26.894  1.00  0.00     0.021 C 
BRANCH  36  37
ATOM     37  C   UNL A   1      33.776  30.245  27.603  1.00  0.00     0.116 C 
BRANCH  37  38
ATOM     38  N   UNL A   1      34.338  31.256  28.488  1.00  0.00    -0.352 N 
ATOM     39  C   UNL A   1      35.564  31.285  29.141  1.00  0.00     0.251 C 
ATOM     40  H   UNL A   1      33.761  32.038  28.649  1.00  0.00     0.163 HD
ATOM     41  O   UNL A   1      35.869  32.224  29.838  1.00  0.00    -0.269 OA
BRANCH  39  42
ATOM     42  C   UNL A   1      36.542  30.201  28.872  1.00  0.00     0.039 A 
ATOM     43  C   UNL A   1      36.809  29.297  29.906  1.00  0.00     0.014 A 
ATOM     44  C   UNL A   1      37.297  30.176  27.702  1.00  0.00     0.014 A 
ATOM     45  C   UNL A   1      37.982  28.548  29.869  1.00  0.00     0.010 A 
ATOM     46  C   UNL A   1      38.492  29.483  27.693  1.00  0.00     0.010 A 
ATOM     47  C   UNL A   1      38.871  28.736  28.811  1.00  0.00    -0.014 A 
BRANCH  47  48
ATOM     48  C   UNL A   1      40.265  28.316  28.872  1.00  0.00     0.031 A 
ATOM     49  C   UNL A   1      40.701  27.031  28.296  1.00  0.00     0.074 A 
ATOM     50  C   UNL A   1      41.177  29.123  29.459  1.00  0.00     0.049 A 
ATOM     51  N   UNL A   1      41.687  26.337  28.756  1.00  0.00    -0.248 NA
ATOM     52  C   UNL A   1      40.025  26.408  27.163  1.00  0.00     0.031 C 
ATOM     53  C   UNL A   1      42.630  28.980  29.440  1.00  0.00     0.029 A 
ATOM     54  N   UNL A   1      40.937  30.121  30.403  1.00  0.00    -0.354 N 
ATOM     55  C   UNL A   1      41.952  25.352  27.837  1.00  0.00     0.074 A 
ATOM     56  C   UNL A   1      40.846  25.385  26.905  1.00  0.00     0.031 C 
ATOM     57  C   UNL A   1      43.141  29.641  30.490  1.00  0.00     0.029 A 
ATOM     58  C   UNL A   1      42.026  30.119  31.291  1.00  0.00     0.049 A 
ATOM     59  H   UNL A   1      40.152  30.715  30.440  1.00  0.00     0.167 HD
ATOM     60  C   UNL A   1      43.148  24.703  27.849  1.00  0.00     0.031 A 
ATOM     61  C   UNL A   1      41.857  29.879  32.622  1.00  0.00     0.031 A 
ATOM     62  C   UNL A   1      44.025  25.167  28.915  1.00  0.00     0.049 A 
ATOM     63  C   UNL A   1      42.612  28.669  33.117  1.00  0.00     0.074 A 
ATOM     64  C   UNL A   1      45.074  26.072  28.936  1.00  0.00     0.029 A 
ATOM     65  N   UNL A   1      43.679  24.930  30.239  1.00  0.00    -0.354 N 
ATOM     66  N   UNL A   1      43.072  27.730  32.337  1.00  0.00    -0.248 NA
ATOM     67  C   UNL A   1      42.877  28.398  34.528  1.00  0.00     0.031 C 
ATOM     68  C   UNL A   1      45.316  26.432  30.286  1.00  0.00     0.029 A 
ATOM     69  C   UNL A   1      44.435  25.722  31.083  1.00  0.00     0.049 A 
ATOM     70  H   UNL A   1      42.994  24.289  30.536  1.00  0.00     0.167 HD
ATOM     71  C   UNL A   1      43.679  26.763  33.092  1.00  0.00     0.074 A 
ATOM     72  C   UNL A   1      43.536  27.227  34.460  1.00  0.00     0.031 C 
ATOM     73  C   UNL A   1      44.247  25.659  32.524  1.00  0.00     0.031 A 
BRANCH  60  74
ATOM     74  C   UNL A   1      43.601  23.885  26.671  1.00  0.00    -0.014 A 
ATOM     75  C   UNL A   1      43.292  22.516  26.606  1.00  0.00     0.009 A 
ATOM     76  C   UNL A   1      44.387  24.405  25.629  1.00  0.00     0.009 A 
ATOM     77  C   UNL A   1      43.826  21.687  25.613  1.00  0.00     0.001 A 
ATOM     78  C   UNL A   1      44.957  23.574  24.656  1.00  0.00     0.001 A 
ATOM     79  C   UNL A   1      44.686  22.211  24.656  1.00  0.00     0.000 A 
ENDBRANCH  60  74
BRANCH  61  80
ATOM     80  C   UNL A   1      40.547  30.343  33.156  1.00  0.00    -0.014 A 
ATOM     81  C   UNL A   1      40.298  31.730  33.199  1.00  0.00     0.009 A 
ATOM     82  C   UNL A   1      39.462  29.465  33.270  1.00  0.00     0.009 A 
ATOM     83  C   UNL A   1      38.991  32.223  33.239  1.00  0.00     0.001 A 
ATOM     84  C   UNL A   1      38.153  29.964  33.321  1.00  0.00     0.001 A 
ATOM     85  C   UNL A   1      37.917  31.338  33.271  1.00  0.00     0.000 A 
ENDBRANCH  61  80
BRANCH  73  86
ATOM     86  C   UNL A   1      44.760  24.446  33.256  1.00  0.00    -0.014 A 
ATOM     87  C   UNL A   1      46.058  24.322  33.768  1.00  0.00     0.009 A 
ATOM     88  C   UNL A   1      43.852  23.410  33.576  1.00  0.00     0.009 A 
ATOM     89  C   UNL A   1      46.440  23.203  34.522  1.00  0.00     0.001 A 
ATOM     90  C   UNL A   1      44.216  22.315  34.362  1.00  0.00     0.001 A 
ATOM     91  C   UNL A   1      45.517  22.207  34.826  1.00  0.00     0.000 A 
ENDBRANCH  73  86
ENDBRANCH  47  48
ENDBRANCH  39  42
ENDBRANCH  37  38
ENDBRANCH  36  37
ENDBRANCH  35  36
ENDBRANCH  34  35
ENDBRANCH   1  34
TORSDOF 17
ENDMDL
MODEL 2
REMARK VINA RESULT:     -12.5      2.451      4.236
REMARK SMILES Cc1ccc(NC(=O)c2ccccc2NC(=O)[C@H]2CCCC[C@H]2C(=O)NCCCCCCNC(=O)c2ccc(-c3c4nc(c(-c5ccccc5)c5ccc([nH]5)c(-c5ccccc5)c5nc(c(-c6ccccc6)c6ccc3[nH]6)C=C5)C=C4)cc2)cc1
REMARK SMILES IDX 28 1 27 2 26 3 24 4 25 5 23 7 18 8 19 9 20 10 22 11 21 12
REMARK SMILES IDX 16 13 15 14 17 16 14 17 9 18 10 19 11 20 13 21 12 22 7 23
REMARK SMILES IDX 6 24 8 26 5 27 1 28 2 29 3 30 85 31 4 32 84 33 29 34 30 35
REMARK SMILES IDX 31 36 32 37 33 38 34 39 35 41 36 42 37 43 83 44 38 45 82 46
REMARK SMILES IDX 39 47 40 48 41 49 76 50 42 51 81 52 75 53 77 54 43 55 80 56
REMARK SMILES IDX 74 57 73 58 44 60 66 61 51 62 65 63 52 64 55 65 64 66 78 67
REMARK SMILES IDX 53 68 54 69 63 71 79 72 56 73 45 74 46 75 50 76 47 77 49 78
REMARK SMILES IDX 48 79 67 80 68 81 72 82 69 83 71 84 70 85 57 86 58 87 62 88
REMARK SMILES IDX 59 89 61 90 60 91
REMARK H PARENT 26 6 15 15 6 25 33 40 77 59 55 70
REMARK Flexibility Score: inf
ROOT
ATOM      1  C   UNL A   1      33.989  30.455  27.110  1.00  0.00     0.021 C 
ENDROOT
BRANCH   1   2
ATOM      2  C   UNL A   1      32.456  30.453  27.045  1.00  0.00     0.116 C 
BRANCH   2   3
ATOM      3  N   UNL A   1      31.902  29.140  27.321  1.00  0.00    -0.356 N 
ATOM      4  C   UNL A   1      31.563  28.082  26.547  1.00  0.00     0.223 C 
ATOM      5  O   UNL A   1      31.097  27.105  27.150  1.00  0.00    -0.275 OA
ATOM      6  H   UNL A   1      31.737  28.985  28.279  1.00  0.00     0.163 HD
BRANCH   4   7
ATOM      7  C   UNL A   1      31.642  28.022  25.019  1.00  0.00     0.091 C 
ATOM      8  C   UNL A   1      32.589  26.911  24.521  1.00  0.00     0.091 C 
ATOM      9  C   UNL A   1      32.785  26.973  22.995  1.00  0.00     0.014 C 
ATOM     10  C   UNL A   1      31.478  27.143  22.211  1.00  0.00     0.001 C 
ATOM     11  C   UNL A   1      30.348  28.186  24.221  1.00  0.00     0.014 C 
ATOM     12  C   UNL A   1      30.644  28.313  22.726  1.00  0.00     0.001 C 
BRANCH   8  13
ATOM     13  C   UNL A   1      32.094  25.536  24.896  1.00  0.00     0.228 C 
ATOM     14  N   UNL A   1      32.892  24.462  25.093  1.00  0.00    -0.325 N 
ATOM     15  H   UNL A   1      32.408  23.756  25.580  1.00  0.00     0.169 HD
ATOM     16  O   UNL A   1      30.885  25.344  25.075  1.00  0.00    -0.274 OA
BRANCH  14  17
ATOM     17  C   UNL A   1      34.208  24.054  24.811  1.00  0.00     0.054 A 
ATOM     18  C   UNL A   1      34.482  23.434  23.563  1.00  0.00     0.063 A 
ATOM     19  C   UNL A   1      35.770  22.932  23.292  1.00  0.00     0.016 A 
ATOM     20  C   UNL A   1      36.801  23.078  24.213  1.00  0.00     0.001 A 
ATOM     21  C   UNL A   1      35.281  24.259  25.685  1.00  0.00     0.027 A 
ATOM     22  C   UNL A   1      36.559  23.756  25.400  1.00  0.00     0.002 A 
BRANCH  18  23
ATOM     23  C   UNL A   1      33.475  23.098  22.519  1.00  0.00     0.257 C 
ATOM     24  N   UNL A   1      32.708  21.956  22.486  1.00  0.00    -0.322 N 
ATOM     25  H   UNL A   1      32.168  21.882  21.666  1.00  0.00     0.170 HD
ATOM     26  O   UNL A   1      33.381  23.871  21.561  1.00  0.00    -0.269 OA
BRANCH  24  27
ATOM     27  C   UNL A   1      32.523  20.874  23.358  1.00  0.00     0.041 A 
ATOM     28  C   UNL A   1      32.923  17.206  25.561  1.00  0.00     0.044 C 
ATOM     29  C   UNL A   1      32.657  18.483  24.819  1.00  0.00    -0.051 A 
ATOM     30  C   UNL A   1      32.823  19.720  25.456  1.00  0.00     0.005 A 
ATOM     31  C   UNL A   1      32.323  18.457  23.463  1.00  0.00     0.005 A 
ATOM     32  C   UNL A   1      32.748  20.915  24.730  1.00  0.00     0.026 A 
ATOM     33  C   UNL A   1      32.237  19.648  22.744  1.00  0.00     0.026 A 
ENDBRANCH  24  27
ENDBRANCH  18  23
ENDBRANCH  14  17
ENDBRANCH   8  13
ENDBRANCH   4   7
ENDBRANCH   2   3
ENDBRANCH   1   2
BRANCH   1  34
ATOM     34  C   UNL A   1      34.614  31.188  28.302  1.00  0.00     0.002 C 
BRANCH  34  35
ATOM     35  C   UNL A   1      35.301  32.530  28.009  1.00  0.00     0.002 C 
BRANCH  35  36
ATOM     36  C   UNL A   1      34.382  33.748  27.905  1.00  0.00     0.021 C 
BRANCH  36  37
ATOM     37  C   UNL A   1      34.790  34.923  28.788  1.00  0.00     0.116 C 
BRANCH  37  38
ATOM     38  N   UNL A   1      33.802  35.250  29.807  1.00  0.00    -0.352 N 
ATOM     39  C   UNL A   1      33.739  34.865  31.140  1.00  0.00     0.251 C 
ATOM     40  H   UNL A   1      33.067  35.833  29.505  1.00  0.00     0.163 HD
ATOM     41  O   UNL A   1      32.837  35.247  31.849  1.00  0.00    -0.269 OA
BRANCH  39  42
ATOM     42  C   UNL A   1      34.860  34.077  31.711  1.00  0.00     0.039 A 
ATOM     43  C   UNL A   1      36.019  34.768  32.077  1.00  0.00     0.014 A 
ATOM     44  C   UNL A   1      34.836  32.685  31.726  1.00  0.00     0.014 A 
ATOM     45  C   UNL A   1      37.215  34.069  32.212  1.00  0.00     0.010 A 
ATOM     46  C   UNL A   1      36.032  31.997  31.795  1.00  0.00     0.010 A 
ATOM     47  C   UNL A   1      37.230  32.698  31.955  1.00  0.00    -0.014 A 
BRANCH  47  48
ATOM     48  C   UNL A   1      38.457  31.962  31.684  1.00  0.00     0.031 A 
ATOM     49  C   UNL A   1      38.437  30.695  30.930  1.00  0.00     0.074 A 
ATOM     50  C   UNL A   1      39.637  32.454  32.123  1.00  0.00     0.049 A 
ATOM     51  N   UNL A   1      39.283  29.738  31.114  1.00  0.00    -0.248 NA
ATOM     52  C   UNL A   1      37.424  30.396  29.924  1.00  0.00     0.031 C 
ATOM     53  C   UNL A   1      40.976  31.980  31.783  1.00  0.00     0.029 A 
ATOM     54  N   UNL A   1      39.840  33.352  33.171  1.00  0.00    -0.354 N 
ATOM     55  C   UNL A   1      39.112  28.844  30.086  1.00  0.00     0.074 A 
ATOM     56  C   UNL A   1      37.896  29.252  29.418  1.00  0.00     0.031 C 
ATOM     57  C   UNL A   1      41.826  32.366  32.748  1.00  0.00     0.029 A 
ATOM     58  C   UNL A   1      41.040  32.983  33.803  1.00  0.00     0.049 A 
ATOM     59  H   UNL A   1      39.252  34.101  33.420  1.00  0.00     0.167 HD
ATOM     60  C   UNL A   1      40.084  27.939  29.792  1.00  0.00     0.031 A 
ATOM     61  C   UNL A   1      41.068  32.621  35.117  1.00  0.00     0.031 A 
ATOM     62  C   UNL A   1      41.235  28.047  30.679  1.00  0.00     0.049 A 
ATOM     63  C   UNL A   1      41.572  31.216  35.344  1.00  0.00     0.074 A 
ATOM     64  C   UNL A   1      42.464  28.673  30.546  1.00  0.00     0.029 A 
ATOM     65  N   UNL A   1      41.096  27.730  32.025  1.00  0.00    -0.354 N 
ATOM     66  N   UNL A   1      41.624  30.303  34.413  1.00  0.00    -0.248 NA
ATOM     67  C   UNL A   1      42.020  30.713  36.641  1.00  0.00     0.031 C 
ATOM     68  C   UNL A   1      43.038  28.792  31.837  1.00  0.00     0.029 A 
ATOM     69  C   UNL A   1      42.172  28.210  32.746  1.00  0.00     0.049 A 
ATOM     70  H   UNL A   1      40.339  27.233  32.410  1.00  0.00     0.167 HD
ATOM     71  C   UNL A   1      42.097  29.133  34.944  1.00  0.00     0.074 A 
ATOM     72  C   UNL A   1      42.336  29.440  36.342  1.00  0.00     0.031 C 
ATOM     73  C   UNL A   1      42.249  28.010  34.184  1.00  0.00     0.031 A 
BRANCH  60  74
ATOM     74  C   UNL A   1      40.086  27.195  28.486  1.00  0.00    -0.014 A 
ATOM     75  C   UNL A   1      39.405  25.971  28.373  1.00  0.00     0.009 A 
ATOM     76  C   UNL A   1      40.794  27.630  27.353  1.00  0.00     0.009 A 
ATOM     77  C   UNL A   1      39.511  25.172  27.229  1.00  0.00     0.001 A 
ATOM     78  C   UNL A   1      40.938  26.817  26.221  1.00  0.00     0.001 A 
ATOM     79  C   UNL A   1      40.305  25.580  26.164  1.00  0.00     0.000 A 
ENDBRANCH  60  74
BRANCH  61  80
ATOM     80  C   UNL A   1      40.044  33.305  35.953  1.00  0.00    -0.014 A 
ATOM     81  C   UNL A   1      38.762  32.726  36.044  1.00  0.00     0.009 A 
ATOM     82  C   UNL A   1      40.412  34.266  36.903  1.00  0.00     0.009 A 
ATOM     83  C   UNL A   1      37.918  33.016  37.119  1.00  0.00     0.001 A 
ATOM     84  C   UNL A   1      39.559  34.561  37.974  1.00  0.00     0.001 A 
ATOM     85  C   UNL A   1      38.330  33.913  38.100  1.00  0.00     0.000 A 
ENDBRANCH  61  80
BRANCH  73  86
ATOM     86  C   UNL A   1      42.567  26.627  34.694  1.00  0.00    -0.014 A 
ATOM     87  C   UNL A   1      41.711  25.867  35.502  1.00  0.00     0.009 A 
ATOM     88  C   UNL A   1      43.738  25.985  34.230  1.00  0.00     0.009 A 
ATOM     89  C   UNL A   1      42.031  24.550  35.862  1.00  0.00     0.001 A 
ATOM     90  C   UNL A   1      44.038  24.660  34.551  1.00  0.00     0.001 A 
ATOM     91  C   UNL A   1      43.187  23.945  35.380  1.00  0.00     0.000 A 
ENDBRANCH  73  86
ENDBRANCH  47  48
ENDBRANCH  39  42
ENDBRANCH  37  38
ENDBRANCH  36  37
ENDBRANCH  35  36
ENDBRANCH  34  35
ENDBRANCH   1  34
TORSDOF 17
ENDMDL
MODEL 3
REMARK VINA RESULT:     -12.2      1.347      2.252
REMARK SMILES Cc1ccc(NC(=O)c2ccccc2NC(=O)[C@H]2CCCC[C@H]2C(=O)NCCCCCCNC(=O)c2ccc(-c3c4nc(c(-c5ccccc5)c5ccc([nH]5)c(-c5ccccc5)c5nc(c(-c6ccccc6)c6ccc3[nH]6)C=C5)C=C4)cc2)cc1
REMARK SMILES IDX 28 1 27 2 26 3 24 4 25 5 23 7 18 8 19 9 20 10 22 11 21 12
REMARK SMILES IDX 16 13 15 14 17 16 14 17 9 18 10 19 11 20 13 21 12 22 7 23
REMARK SMILES IDX 6 24 8 26 5 27 1 28 2 29 3 30 85 31 4 32 84 33 29 34 30 35
REMARK SMILES IDX 31 36 32 37 33 38 34 39 35 41 36 42 37 43 83 44 38 45 82 46
REMARK SMILES IDX 39 47 40 48 41 49 76 50 42 51 81 52 75 53 77 54 43 55 80 56
REMARK SMILES IDX 74 57 73 58 44 60 66 61 51 62 65 63 52 64 55 65 64 66 78 67
REMARK SMILES IDX 53 68 54 69 63 71 79 72 56 73 45 74 46 75 50 76 47 77 49 78
REMARK SMILES IDX 48 79 67 80 68 81 72 82 69 83 71 84 70 85 57 86 58 87 62 88
REMARK SMILES IDX 59 89 61 90 60 91
REMARK H PARENT 26 6 15 15 6 25 33 40 77 59 55 70
REMARK Flexibility Score: inf
ROOT
ATOM      1  C   UNL A   1      31.391  26.228  26.611  1.00  0.00     0.021 C 
ENDROOT
BRANCH   1   2
ATOM      2  C   UNL A   1      30.012  25.650  26.265  1.00  0.00     0.116 C 
BRANCH   2   3
ATOM      3  N   UNL A   1      29.981  25.075  24.933  1.00  0.00    -0.356 N 
ATOM      4  C   UNL A   1      30.630  25.350  23.776  1.00  0.00     0.223 C 
ATOM      5  O   UNL A   1      30.332  24.633  22.812  1.00  0.00    -0.275 OA
ATOM      6  H   UNL A   1      29.354  24.322  24.853  1.00  0.00     0.163 HD
BRANCH   4   7
ATOM      7  C   UNL A   1      31.625  26.493  23.552  1.00  0.00     0.091 C 
ATOM      8  C   UNL A   1      33.090  26.010  23.574  1.00  0.00     0.091 C 
ATOM      9  C   UNL A   1      34.078  27.190  23.514  1.00  0.00     0.014 C 
ATOM     10  C   UNL A   1      33.730  28.232  22.445  1.00  0.00     0.001 C 
ATOM     11  C   UNL A   1      31.297  27.540  22.488  1.00  0.00     0.014 C 
ATOM     12  C   UNL A   1      32.284  28.706  22.550  1.00  0.00     0.001 C 
BRANCH   8  13
ATOM     13  C   UNL A   1      33.390  25.062  22.439  1.00  0.00     0.228 C 
ATOM     14  N   UNL A   1      33.785  23.778  22.598  1.00  0.00    -0.325 N 
ATOM     15  H   UNL A   1      33.667  23.274  21.761  1.00  0.00     0.169 HD
ATOM     16  O   UNL A   1      33.246  25.436  21.269  1.00  0.00    -0.274 OA
BRANCH  14  17
ATOM     17  C   UNL A   1      34.315  22.949  23.604  1.00  0.00     0.054 A 
ATOM     18  C   UNL A   1      33.691  21.700  23.863  1.00  0.00     0.063 A 
ATOM     19  C   UNL A   1      34.143  20.893  24.925  1.00  0.00     0.016 A 
ATOM     20  C   UNL A   1      35.230  21.278  25.701  1.00  0.00     0.001 A 
ATOM     21  C   UNL A   1      35.455  23.274  24.347  1.00  0.00     0.027 A 
ATOM     22  C   UNL A   1      35.894  22.459  25.399  1.00  0.00     0.002 A 
BRANCH  18  23
ATOM     23  C   UNL A   1      32.455  21.192  23.207  1.00  0.00     0.257 C 
ATOM     24  N   UNL A   1      32.073  19.872  23.134  1.00  0.00    -0.322 N 
ATOM     25  H   UNL A   1      31.270  19.737  22.581  1.00  0.00     0.170 HD
ATOM     26  O   UNL A   1      31.757  22.017  22.609  1.00  0.00    -0.269 OA
BRANCH  24  27
ATOM     27  C   UNL A   1      32.571  18.677  23.670  1.00  0.00     0.041 A 
ATOM     28  C   UNL A   1      35.086  15.562  25.234  1.00  0.00     0.044 C 
ATOM     29  C   UNL A   1      34.121  16.558  24.660  1.00  0.00    -0.051 A 
ATOM     30  C   UNL A   1      33.228  17.242  25.496  1.00  0.00     0.005 A 
ATOM     31  C   UNL A   1      34.158  16.878  23.301  1.00  0.00     0.005 A 
ATOM     32  C   UNL A   1      32.447  18.294  25.002  1.00  0.00     0.026 A 
ATOM     33  C   UNL A   1      33.372  17.918  22.808  1.00  0.00     0.026 A 
ENDBRANCH  24  27
ENDBRANCH  18  23
ENDBRANCH  14  17
ENDBRANCH   8  13
ENDBRANCH   4   7
ENDBRANCH   2   3
ENDBRANCH   1   2
BRANCH   1  34
ATOM     34  C   UNL A   1      31.407  27.666  27.139  1.00  0.00     0.002 C 
BRANCH  34  35
ATOM     35  C   UNL A   1      32.421  28.629  26.503  1.00  0.00     0.002 C 
BRANCH  35  36
ATOM     36  C   UNL A   1      33.509  29.171  27.430  1.00  0.00     0.021 C 
BRANCH  36  37
ATOM     37  C   UNL A   1      33.970  30.586  27.101  1.00  0.00     0.116 C 
BRANCH  37  38
ATOM     38  N   UNL A   1      34.308  31.374  28.279  1.00  0.00    -0.352 N 
ATOM     39  C   UNL A   1      35.365  31.233  29.169  1.00  0.00     0.251 C 
ATOM     40  H   UNL A   1      33.694  32.118  28.475  1.00  0.00     0.163 HD
ATOM     41  O   UNL A   1      35.493  31.996  30.098  1.00  0.00    -0.269 OA
BRANCH  39  42
ATOM     42  C   UNL A   1      36.401  30.206  28.892  1.00  0.00     0.039 A 
ATOM     43  C   UNL A   1      36.656  29.258  29.888  1.00  0.00     0.014 A 
ATOM     44  C   UNL A   1      37.213  30.277  27.763  1.00  0.00     0.014 A 
ATOM     45  C   UNL A   1      37.861  28.560  29.871  1.00  0.00     0.010 A 
ATOM     46  C   UNL A   1      38.435  29.634  27.777  1.00  0.00     0.010 A 
ATOM     47  C   UNL A   1      38.791  28.842  28.871  1.00  0.00    -0.014 A 
BRANCH  47  48
ATOM     48  C   UNL A   1      40.197  28.476  28.980  1.00  0.00     0.031 A 
ATOM     49  C   UNL A   1      40.704  27.216  28.408  1.00  0.00     0.074 A 
ATOM     50  C   UNL A   1      41.055  29.311  29.609  1.00  0.00     0.049 A 
ATOM     51  N   UNL A   1      41.699  26.555  28.899  1.00  0.00    -0.248 NA
ATOM     52  C   UNL A   1      40.095  26.580  27.245  1.00  0.00     0.031 C 
ATOM     53  C   UNL A   1      42.512  29.224  29.643  1.00  0.00     0.029 A 
ATOM     54  N   UNL A   1      40.740  30.289  30.553  1.00  0.00    -0.354 N 
ATOM     55  C   UNL A   1      42.036  25.591  27.980  1.00  0.00     0.074 A 
ATOM     56  C   UNL A   1      40.966  25.592  27.008  1.00  0.00     0.031 C 
ATOM     57  C   UNL A   1      42.957  29.893  30.718  1.00  0.00     0.029 A 
ATOM     58  C   UNL A   1      41.795  30.318  31.482  1.00  0.00     0.049 A 
ATOM     59  H   UNL A   1      39.932  30.851  30.566  1.00  0.00     0.167 HD
ATOM     60  C   UNL A   1      43.255  24.989  28.031  1.00  0.00     0.031 A 
ATOM     61  C   UNL A   1      41.586  30.057  32.803  1.00  0.00     0.031 A 
ATOM     62  C   UNL A   1      44.073  25.475  29.133  1.00  0.00     0.049 A 
ATOM     63  C   UNL A   1      42.370  28.872  33.314  1.00  0.00     0.074 A 
ATOM     64  C   UNL A   1      45.085  26.419  29.203  1.00  0.00     0.029 A 
ATOM     65  N   UNL A   1      43.688  25.210  30.442  1.00  0.00    -0.354 N 
ATOM     66  N   UNL A   1      42.894  27.960  32.542  1.00  0.00    -0.248 NA
ATOM     67  C   UNL A   1      42.592  28.596  34.731  1.00  0.00     0.031 C 
ATOM     68  C   UNL A   1      45.262  26.773  30.565  1.00  0.00     0.029 A 
ATOM     69  C   UNL A   1      44.381  26.021  31.321  1.00  0.00     0.049 A 
ATOM     70  H   UNL A   1      43.018  24.540  30.706  1.00  0.00     0.167 HD
ATOM     71  C   UNL A   1      43.510  27.009  33.310  1.00  0.00     0.074 A 
ATOM     72  C   UNL A   1      43.299  27.452  34.676  1.00  0.00     0.031 C 
ATOM     73  C   UNL A   1      44.142  25.935  32.753  1.00  0.00     0.031 A 
BRANCH  60  74
ATOM     74  C   UNL A   1      43.784  24.203  26.863  1.00  0.00    -0.014 A 
ATOM     75  C   UNL A   1      44.035  22.827  26.999  1.00  0.00     0.009 A 
ATOM     76  C   UNL A   1      44.107  24.784  25.626  1.00  0.00     0.009 A 
ATOM     77  C   UNL A   1      44.672  22.091  25.993  1.00  0.00     0.001 A 
ATOM     78  C   UNL A   1      44.781  24.064  24.631  1.00  0.00     0.001 A 
ATOM     79  C   UNL A   1      45.076  22.719  24.820  1.00  0.00     0.000 A 
ENDBRANCH  60  74
BRANCH  61  80
ATOM     80  C   UNL A   1      40.240  30.464  33.292  1.00  0.00    -0.014 A 
ATOM     81  C   UNL A   1      39.953  31.841  33.386  1.00  0.00     0.009 A 
ATOM     82  C   UNL A   1      39.174  29.556  33.311  1.00  0.00     0.009 A 
ATOM     83  C   UNL A   1      38.633  32.301  33.384  1.00  0.00     0.001 A 
ATOM     84  C   UNL A   1      37.852  30.021  33.320  1.00  0.00     0.001 A 
ATOM     85  C   UNL A   1      37.583  31.390  33.322  1.00  0.00     0.000 A 
ENDBRANCH  61  80
BRANCH  73  86
ATOM     86  C   UNL A   1      44.675  24.734  33.492  1.00  0.00    -0.014 A 
ATOM     87  C   UNL A   1      43.908  23.615  33.839  1.00  0.00     0.009 A 
ATOM     88  C   UNL A   1      46.065  24.653  33.743  1.00  0.00     0.009 A 
ATOM     89  C   UNL A   1      44.491  22.492  34.444  1.00  0.00     0.001 A 
ATOM     90  C   UNL A   1      46.655  23.519  34.305  1.00  0.00     0.001 A 
ATOM     91  C   UNL A   1      45.863  22.441  34.668  1.00  0.00     0.000 A 
ENDBRANCH  73  86
ENDBRANCH  47  48
ENDBRANCH  39  42
ENDBRANCH  37  38
ENDBRANCH  36  37
ENDBRANCH  35  36
ENDBRANCH  34  35
ENDBRANCH   1  34
TORSDOF 17
ENDMDL
