MODEL 1
REMARK VINA RESULT:     -10.8      0.000      0.000
REMARK SMILES O=C(COc1ccc2c(c1)O/C(=C\c1cccs1)C2=O)NCCCCCCNC(=O)c1ccc(-c2c3nc(c(-c4ccccc4)c4ccc([nH]4)c(-c4ccccc4)c4nc(c(-c5ccccc5)c5ccc2[nH]5)C=C4)C=C3)cc1
REMARK SMILES IDX 24 1 23 2 22 3 21 4 1 5 2 6 3 8 4 9 5 10 6 11 10 12 7 13
REMARK SMILES IDX 9 14 8 15 11 16 19 17 12 18 20 19 13 20 14 21 15 22 18 23
REMARK SMILES IDX 16 24 17 25 25 26 26 27 27 28 28 29 29 30 30 32 31 33 32 34
REMARK SMILES IDX 78 35 33 36 77 37 34 38 35 39 36 40 71 41 37 42 76 43 70 44
REMARK SMILES IDX 72 45 38 46 75 47 69 48 68 49 39 51 61 52 46 53 60 54 47 55
REMARK SMILES IDX 50 56 59 57 73 58 48 59 49 60 58 62 74 63 51 64 40 65 41 66
REMARK SMILES IDX 45 67 42 68 44 69 43 70 62 71 63 72 67 73 64 74 66 75 65 76
REMARK SMILES IDX 52 77 53 78 57 79 54 80 56 81 55 82
REMARK H PARENT 21 7 28 31 72 50 50 61
REMARK Flexibility Score: inf
ROOT
ATOM      1  C   UNL A   1      35.550  33.531  28.404  1.00  0.00     0.002 C 
ENDROOT
BRANCH   1   2
ATOM      2  C   UNL A   1      35.863  32.118  27.894  1.00  0.00     0.021 C 
BRANCH   2   3
ATOM      3  C   UNL A   1      34.725  31.122  28.074  1.00  0.00     0.116 C 
BRANCH   3   4
ATOM      4  N   UNL A   1      34.380  30.457  26.837  1.00  0.00    -0.353 N 
ATOM      5  O   UNL A   1      32.126  30.265  27.252  1.00  0.00    -0.271 OA
ATOM      6  C   UNL A   1      33.080  30.152  26.491  1.00  0.00     0.257 C 
ATOM      7  H   UNL A   1      35.104  30.213  26.216  1.00  0.00     0.163 HD
BRANCH   6   8
ATOM      8  C   UNL A   1      32.928  29.668  25.046  1.00  0.00     0.329 C 
BRANCH   8   9
ATOM      9  O   UNL A   1      31.596  29.328  24.660  1.00  0.00    -0.484 OA
BRANCH   9  10
ATOM     10  C   UNL A   1      31.395  27.982  24.476  1.00  0.00     0.123 A 
ATOM     11  C   UNL A   1      30.169  27.467  24.001  1.00  0.00     0.047 A 
ATOM     12  C   UNL A   1      32.505  27.149  24.644  1.00  0.00     0.094 A 
ATOM     13  C   UNL A   1      30.026  26.114  23.691  1.00  0.00     0.020 A 
ATOM     14  C   UNL A   1      32.344  25.812  24.343  1.00  0.00     0.142 A 
ATOM     15  C   UNL A   1      31.134  25.317  23.865  1.00  0.00     0.069 A 
ATOM     16  O   UNL A   1      33.318  24.845  24.434  1.00  0.00    -0.452 OA
ATOM     17  C   UNL A   1      31.319  23.905  23.575  1.00  0.00     0.232 C 
ATOM     18  C   UNL A   1      32.732  23.673  23.958  1.00  0.00     0.176 C 
ATOM     19  O   UNL A   1      30.505  23.127  23.124  1.00  0.00    -0.285 OA
ATOM     20  C   UNL A   1      33.341  22.490  23.810  1.00  0.00     0.070 C 
BRANCH  20  21
ATOM     21  C   UNL A   1      34.690  22.304  24.209  1.00  0.00     0.031 A 
ATOM     22  C   UNL A   1      35.854  22.601  23.521  1.00  0.00     0.020 A 
ATOM     23  S   UNL A   1      35.046  21.638  25.752  1.00  0.00    -0.144 S 
ATOM     24  C   UNL A   1      37.029  22.245  24.242  1.00  0.00     0.012 A 
ATOM     25  C   UNL A   1      36.729  21.690  25.465  1.00  0.00     0.065 A 
ENDBRANCH  20  21
ENDBRANCH   9  10
ENDBRANCH   8   9
ENDBRANCH   6   8
ENDBRANCH   3   4
ENDBRANCH   2   3
ENDBRANCH   1   2
BRANCH   1  26
ATOM     26  C   UNL A   1      34.404  33.624  29.418  1.00  0.00     0.002 C 
BRANCH  26  27
ATOM     27  C   UNL A   1      33.279  34.590  29.044  1.00  0.00     0.021 C 
BRANCH  27  28
ATOM     28  C   UNL A   1      33.425  35.996  29.616  1.00  0.00     0.116 C 
BRANCH  28  29
ATOM     29  N   UNL A   1      32.522  36.240  30.729  1.00  0.00    -0.352 N 
ATOM     30  C   UNL A   1      32.591  35.784  32.023  1.00  0.00     0.251 C 
ATOM     31  H   UNL A   1      31.748  36.815  30.527  1.00  0.00     0.163 HD
ATOM     32  O   UNL A   1      31.645  35.949  32.788  1.00  0.00    -0.269 OA
BRANCH  30  33
ATOM     33  C   UNL A   1      33.799  35.068  32.488  1.00  0.00     0.039 A 
ATOM     34  C   UNL A   1      33.676  33.744  32.916  1.00  0.00     0.014 A 
ATOM     35  C   UNL A   1      35.046  35.698  32.499  1.00  0.00     0.014 A 
ATOM     36  C   UNL A   1      34.816  33.032  33.292  1.00  0.00     0.010 A 
ATOM     37  C   UNL A   1      36.189  34.962  32.795  1.00  0.00     0.010 A 
ATOM     38  C   UNL A   1      36.087  33.621  33.196  1.00  0.00    -0.014 A 
BRANCH  38  39
ATOM     39  C   UNL A   1      37.318  32.847  33.499  1.00  0.00     0.031 A 
ATOM     40  C   UNL A   1      38.094  33.111  34.759  1.00  0.00     0.074 A 
ATOM     41  C   UNL A   1      37.774  31.948  32.606  1.00  0.00     0.049 A 
ATOM     42  N   UNL A   1      39.209  32.564  35.172  1.00  0.00    -0.248 NA
ATOM     43  C   UNL A   1      37.560  34.142  35.663  1.00  0.00     0.031 C 
ATOM     44  C   UNL A   1      37.140  31.630  31.325  1.00  0.00     0.029 A 
ATOM     45  N   UNL A   1      38.884  31.141  32.637  1.00  0.00    -0.354 N 
ATOM     46  C   UNL A   1      39.516  33.192  36.372  1.00  0.00     0.074 A 
ATOM     47  C   UNL A   1      38.503  34.201  36.591  1.00  0.00     0.031 C 
ATOM     48  C   UNL A   1      37.853  30.675  30.708  1.00  0.00     0.029 A 
ATOM     49  C   UNL A   1      39.018  30.348  31.524  1.00  0.00     0.049 A 
ATOM     50  H   UNL A   1      39.523  31.132  33.385  1.00  0.00     0.167 HD
ATOM     51  C   UNL A   1      40.537  32.941  37.227  1.00  0.00     0.031 A 
ATOM     52  C   UNL A   1      39.974  29.462  31.189  1.00  0.00     0.031 A 
ATOM     53  C   UNL A   1      41.552  31.944  37.003  1.00  0.00     0.049 A 
ATOM     54  C   UNL A   1      41.116  29.221  32.135  1.00  0.00     0.074 A 
ATOM     55  C   UNL A   1      42.599  31.577  37.831  1.00  0.00     0.029 A 
ATOM     56  N   UNL A   1      41.655  31.166  35.859  1.00  0.00    -0.354 N 
ATOM     57  N   UNL A   1      41.351  29.768  33.304  1.00  0.00    -0.248 NA
ATOM     58  C   UNL A   1      42.119  28.229  31.722  1.00  0.00     0.031 C 
ATOM     59  C   UNL A   1      43.375  30.627  37.160  1.00  0.00     0.029 A 
ATOM     60  C   UNL A   1      42.769  30.344  35.945  1.00  0.00     0.049 A 
ATOM     61  H   UNL A   1      41.030  31.191  35.100  1.00  0.00     0.167 HD
ATOM     62  C   UNL A   1      42.513  29.170  33.777  1.00  0.00     0.074 A 
ATOM     63  C   UNL A   1      42.923  28.205  32.776  1.00  0.00     0.031 C 
ATOM     64  C   UNL A   1      43.175  29.397  34.937  1.00  0.00     0.031 A 
BRANCH  51  65
ATOM     65  C   UNL A   1      40.615  33.783  38.473  1.00  0.00    -0.014 A 
ATOM     66  C   UNL A   1      41.387  34.956  38.517  1.00  0.00     0.009 A 
ATOM     67  C   UNL A   1      39.898  33.404  39.619  1.00  0.00     0.009 A 
ATOM     68  C   UNL A   1      41.484  35.698  39.697  1.00  0.00     0.001 A 
ATOM     69  C   UNL A   1      39.966  34.167  40.785  1.00  0.00     0.001 A 
ATOM     70  C   UNL A   1      40.770  35.305  40.828  1.00  0.00     0.000 A 
ENDBRANCH  51  65
BRANCH  52  71
ATOM     71  C   UNL A   1      39.882  28.731  29.898  1.00  0.00    -0.014 A 
ATOM     72  C   UNL A   1      39.317  27.448  29.841  1.00  0.00     0.009 A 
ATOM     73  C   UNL A   1      40.339  29.322  28.709  1.00  0.00     0.009 A 
ATOM     74  C   UNL A   1      39.228  26.765  28.626  1.00  0.00     0.001 A 
ATOM     75  C   UNL A   1      40.220  28.651  27.491  1.00  0.00     0.001 A 
ATOM     76  C   UNL A   1      39.674  27.371  27.451  1.00  0.00     0.000 A 
ENDBRANCH  52  71
BRANCH  64  77
ATOM     77  C   UNL A   1      44.401  28.566  35.205  1.00  0.00    -0.014 A 
ATOM     78  C   UNL A   1      44.318  27.318  35.843  1.00  0.00     0.009 A 
ATOM     79  C   UNL A   1      45.656  29.025  34.774  1.00  0.00     0.009 A 
ATOM     80  C   UNL A   1      45.472  26.566  36.076  1.00  0.00     0.001 A 
ATOM     81  C   UNL A   1      46.803  28.255  34.977  1.00  0.00     0.001 A 
ATOM     82  C   UNL A   1      46.711  27.031  35.638  1.00  0.00     0.000 A 
ENDBRANCH  64  77
ENDBRANCH  38  39
ENDBRANCH  30  33
ENDBRANCH  28  29
ENDBRANCH  27  28
ENDBRANCH  26  27
ENDBRANCH   1  26
TORSDOF 16
ENDMDL
MODEL 2
REMARK VINA RESULT:     -10.4      4.990     10.361
REMARK SMILES O=C(COc1ccc2c(c1)O/C(=C\c1cccs1)C2=O)NCCCCCCNC(=O)c1ccc(-c2c3nc(c(-c4ccccc4)c4ccc([nH]4)c(-c4ccccc4)c4nc(c(-c5ccccc5)c5ccc2[nH]5)C=C4)C=C3)cc1
REMARK SMILES IDX 24 1 23 2 22 3 21 4 1 5 2 6 3 8 4 9 5 10 6 11 10 12 7 13
REMARK SMILES IDX 9 14 8 15 11 16 19 17 12 18 20 19 13 20 14 21 15 22 18 23
REMARK SMILES IDX 16 24 17 25 25 26 26 27 27 28 28 29 29 30 30 32 31 33 32 34
REMARK SMILES IDX 78 35 33 36 77 37 34 38 35 39 36 40 71 41 37 42 76 43 70 44
REMARK SMILES IDX 72 45 38 46 75 47 69 48 68 49 39 51 61 52 46 53 60 54 47 55
REMARK SMILES IDX 50 56 59 57 73 58 48 59 49 60 58 62 74 63 51 64 40 65 41 66
REMARK SMILES IDX 45 67 42 68 44 69 43 70 62 71 63 72 67 73 64 74 66 75 65 76
REMARK SMILES IDX 52 77 53 78 57 79 54 80 56 81 55 82
REMARK H PARENT 21 7 28 31 72 50 50 61
REMARK Flexibility Score: inf
ROOT
ATOM      1  C   UNL A   1      36.764  22.526  25.173  1.00  0.00     0.002 C 
ENDROOT
BRANCH   1   2
ATOM      2  C   UNL A   1      35.836  23.573  24.543  1.00  0.00     0.021 C 
BRANCH   2   3
ATOM      3  C   UNL A   1      35.279  23.176  23.182  1.00  0.00     0.116 C 
BRANCH   3   4
ATOM      4  N   UNL A   1      33.833  23.180  23.161  1.00  0.00    -0.353 N 
ATOM      5  O   UNL A   1      33.544  21.057  23.997  1.00  0.00    -0.271 OA
ATOM      6  C   UNL A   1      33.077  22.136  23.651  1.00  0.00     0.257 C 
ATOM      7  H   UNL A   1      33.370  23.961  22.781  1.00  0.00     0.163 HD
BRANCH   6   8
ATOM      8  C   UNL A   1      31.582  22.453  23.743  1.00  0.00     0.329 C 
BRANCH   8   9
ATOM      9  O   UNL A   1      31.123  22.833  25.041  1.00  0.00    -0.484 OA
BRANCH   9  10
ATOM     10  C   UNL A   1      31.332  24.156  25.341  1.00  0.00     0.123 A 
ATOM     11  C   UNL A   1      32.360  24.572  26.216  1.00  0.00     0.047 A 
ATOM     12  C   UNL A   1      30.574  25.092  24.631  1.00  0.00     0.094 A 
ATOM     13  C   UNL A   1      32.646  25.925  26.403  1.00  0.00     0.020 A 
ATOM     14  C   UNL A   1      30.862  26.426  24.835  1.00  0.00     0.142 A 
ATOM     15  C   UNL A   1      31.884  26.823  25.692  1.00  0.00     0.069 A 
ATOM     16  O   UNL A   1      30.235  27.486  24.224  1.00  0.00    -0.452 OA
ATOM     17  C   UNL A   1      31.978  28.273  25.623  1.00  0.00     0.232 C 
ATOM     18  C   UNL A   1      30.900  28.627  24.668  1.00  0.00     0.176 C 
ATOM     19  O   UNL A   1      32.758  28.995  26.207  1.00  0.00    -0.285 OA
ATOM     20  C   UNL A   1      30.660  29.884  24.278  1.00  0.00     0.070 C 
BRANCH  20  21
ATOM     21  C   UNL A   1      29.605  30.183  23.377  1.00  0.00     0.031 A 
ATOM     22  C   UNL A   1      29.157  29.460  22.285  1.00  0.00     0.020 A 
ATOM     23  S   UNL A   1      28.675  31.612  23.587  1.00  0.00    -0.144 S 
ATOM     24  C   UNL A   1      28.083  30.098  21.602  1.00  0.00     0.012 A 
ATOM     25  C   UNL A   1      27.736  31.290  22.196  1.00  0.00     0.065 A 
ENDBRANCH  20  21
ENDBRANCH   9  10
ENDBRANCH   8   9
ENDBRANCH   6   8
ENDBRANCH   3   4
ENDBRANCH   2   3
ENDBRANCH   1   2
BRANCH   1  26
ATOM     26  C   UNL A   1      37.274  21.441  24.219  1.00  0.00     0.002 C 
BRANCH  26  27
ATOM     27  C   UNL A   1      37.731  20.145  24.889  1.00  0.00     0.021 C 
BRANCH  27  28
ATOM     28  C   UNL A   1      38.770  20.325  25.991  1.00  0.00     0.116 C 
BRANCH  28  29
ATOM     29  N   UNL A   1      39.896  19.416  25.846  1.00  0.00    -0.352 N 
ATOM     30  C   UNL A   1      41.239  19.660  26.008  1.00  0.00     0.251 C 
ATOM     31  H   UNL A   1      39.664  18.493  25.596  1.00  0.00     0.163 HD
ATOM     32  O   UNL A   1      42.065  18.815  25.676  1.00  0.00    -0.269 OA
BRANCH  30  33
ATOM     33  C   UNL A   1      41.691  20.955  26.561  1.00  0.00     0.039 A 
ATOM     34  C   UNL A   1      42.116  21.952  25.681  1.00  0.00     0.014 A 
ATOM     35  C   UNL A   1      41.691  21.186  27.939  1.00  0.00     0.014 A 
ATOM     36  C   UNL A   1      42.480  23.204  26.180  1.00  0.00     0.010 A 
ATOM     37  C   UNL A   1      41.974  22.458  28.426  1.00  0.00     0.010 A 
ATOM     38  C   UNL A   1      42.373  23.481  27.553  1.00  0.00    -0.014 A 
BRANCH  38  39
ATOM     39  C   UNL A   1      42.662  24.836  28.089  1.00  0.00     0.031 A 
ATOM     40  C   UNL A   1      44.049  25.196  28.543  1.00  0.00     0.074 A 
ATOM     41  C   UNL A   1      41.659  25.724  28.226  1.00  0.00     0.049 A 
ATOM     42  N   UNL A   1      44.481  26.312  29.073  1.00  0.00    -0.248 NA
ATOM     43  C   UNL A   1      45.082  24.157  28.407  1.00  0.00     0.031 C 
ATOM     44  C   UNL A   1      40.260  25.485  27.864  1.00  0.00     0.029 A 
ATOM     45  N   UNL A   1      41.662  27.007  28.713  1.00  0.00    -0.354 N 
ATOM     46  C   UNL A   1      45.827  26.106  29.345  1.00  0.00     0.074 A 
ATOM     47  C   UNL A   1      46.126  24.739  28.978  1.00  0.00     0.031 C 
ATOM     48  C   UNL A   1      39.548  26.594  28.114  1.00  0.00     0.029 A 
ATOM     49  C   UNL A   1      40.426  27.604  28.696  1.00  0.00     0.049 A 
ATOM     50  H   UNL A   1      42.473  27.456  29.044  1.00  0.00     0.167 HD
ATOM     51  C   UNL A   1      46.739  26.979  29.838  1.00  0.00     0.031 A 
ATOM     52  C   UNL A   1      40.036  28.825  29.109  1.00  0.00     0.031 A 
ATOM     53  C   UNL A   1      46.438  28.335  30.216  1.00  0.00     0.049 A 
ATOM     54  C   UNL A   1      41.055  29.767  29.684  1.00  0.00     0.074 A 
ATOM     55  C   UNL A   1      47.300  29.314  30.677  1.00  0.00     0.029 A 
ATOM     56  N   UNL A   1      45.171  28.900  30.188  1.00  0.00    -0.354 N 
ATOM     57  N   UNL A   1      42.342  29.583  29.863  1.00  0.00    -0.248 NA
ATOM     58  C   UNL A   1      40.572  31.090  30.100  1.00  0.00     0.031 C 
ATOM     59  C   UNL A   1      46.546  30.448  30.994  1.00  0.00     0.029 A 
ATOM     60  C   UNL A   1      45.223  30.203  30.657  1.00  0.00     0.049 A 
ATOM     61  H   UNL A   1      44.355  28.443  29.879  1.00  0.00     0.167 HD
ATOM     62  C   UNL A   1      42.826  30.774  30.390  1.00  0.00     0.074 A 
ATOM     63  C   UNL A   1      41.697  31.678  30.482  1.00  0.00     0.031 C 
ATOM     64  C   UNL A   1      44.091  31.090  30.758  1.00  0.00     0.031 A 
BRANCH  51  65
ATOM     65  C   UNL A   1      48.146  26.473  30.021  1.00  0.00    -0.014 A 
ATOM     66  C   UNL A   1      49.103  26.584  28.998  1.00  0.00     0.009 A 
ATOM     67  C   UNL A   1      48.524  25.885  31.238  1.00  0.00     0.009 A 
ATOM     68  C   UNL A   1      50.389  26.066  29.169  1.00  0.00     0.001 A 
ATOM     69  C   UNL A   1      49.821  25.402  31.421  1.00  0.00     0.001 A 
ATOM     70  C   UNL A   1      50.748  25.479  30.382  1.00  0.00     0.000 A 
ENDBRANCH  51  65
BRANCH  52  71
ATOM     71  C   UNL A   1      38.609  29.224  28.983  1.00  0.00    -0.014 A 
ATOM     72  C   UNL A   1      38.109  29.713  27.767  1.00  0.00     0.009 A 
ATOM     73  C   UNL A   1      37.734  29.097  30.074  1.00  0.00     0.009 A 
ATOM     74  C   UNL A   1      36.767  30.084  27.651  1.00  0.00     0.001 A 
ATOM     75  C   UNL A   1      36.386  29.439  29.946  1.00  0.00     0.001 A 
ATOM     76  C   UNL A   1      35.906  29.940  28.739  1.00  0.00     0.000 A 
ENDBRANCH  52  71
BRANCH  64  77
ATOM     77  C   UNL A   1      44.333  32.484  31.269  1.00  0.00    -0.014 A 
ATOM     78  C   UNL A   1      44.261  32.788  32.638  1.00  0.00     0.009 A 
ATOM     79  C   UNL A   1      44.679  33.503  30.366  1.00  0.00     0.009 A 
ATOM     80  C   UNL A   1      44.493  34.091  33.086  1.00  0.00     0.001 A 
ATOM     81  C   UNL A   1      44.945  34.796  30.820  1.00  0.00     0.001 A 
ATOM     82  C   UNL A   1      44.841  35.092  32.178  1.00  0.00     0.000 A 
ENDBRANCH  64  77
ENDBRANCH  38  39
ENDBRANCH  30  33
ENDBRANCH  28  29
ENDBRANCH  27  28
ENDBRANCH  26  27
ENDBRANCH   1  26
TORSDOF 16
ENDMDL
MODEL 3
REMARK VINA RESULT:     -10.3      5.159      9.969
REMARK SMILES O=C(COc1ccc2c(c1)O/C(=C\c1cccs1)C2=O)NCCCCCCNC(=O)c1ccc(-c2c3nc(c(-c4ccccc4)c4ccc([nH]4)c(-c4ccccc4)c4nc(c(-c5ccccc5)c5ccc2[nH]5)C=C4)C=C3)cc1
REMARK SMILES IDX 24 1 23 2 22 3 21 4 1 5 2 6 3 8 4 9 5 10 6 11 10 12 7 13
REMARK SMILES IDX 9 14 8 15 11 16 19 17 12 18 20 19 13 20 14 21 15 22 18 23
REMARK SMILES IDX 16 24 17 25 25 26 26 27 27 28 28 29 29 30 30 32 31 33 32 34
REMARK SMILES IDX 78 35 33 36 77 37 34 38 35 39 36 40 71 41 37 42 76 43 70 44
REMARK SMILES IDX 72 45 38 46 75 47 69 48 68 49 39 51 61 52 46 53 60 54 47 55
REMARK SMILES IDX 50 56 59 57 73 58 48 59 49 60 58 62 74 63 51 64 40 65 41 66
REMARK SMILES IDX 45 67 42 68 44 69 43 70 62 71 63 72 67 73 64 74 66 75 65 76
REMARK SMILES IDX 52 77 53 78 57 79 54 80 56 81 55 82
REMARK H PARENT 21 7 28 31 72 50 50 61
REMARK Flexibility Score: inf
ROOT
ATOM      1  C   UNL A   1      38.369  22.487  25.692  1.00  0.00     0.002 C 
ENDROOT
BRANCH   1   2
ATOM      2  C   UNL A   1      37.624  23.809  25.915  1.00  0.00     0.021 C 
BRANCH   2   3
ATOM      3  C   UNL A   1      36.308  23.921  25.158  1.00  0.00     0.116 C 
BRANCH   3   4
ATOM      4  N   UNL A   1      35.167  23.948  26.045  1.00  0.00    -0.353 N 
ATOM      5  O   UNL A   1      34.190  25.839  25.174  1.00  0.00    -0.271 OA
ATOM      6  C   UNL A   1      34.150  24.871  25.926  1.00  0.00     0.257 C 
ATOM      7  H   UNL A   1      35.115  23.278  26.766  1.00  0.00     0.163 HD
BRANCH   6   8
ATOM      8  C   UNL A   1      32.940  24.568  26.815  1.00  0.00     0.329 C 
BRANCH   8   9
ATOM      9  O   UNL A   1      31.685  24.529  26.134  1.00  0.00    -0.484 OA
BRANCH   9  10
ATOM     10  C   UNL A   1      31.619  23.584  25.141  1.00  0.00     0.123 A 
ATOM     11  C   UNL A   1      31.247  23.914  23.818  1.00  0.00     0.047 A 
ATOM     12  C   UNL A   1      32.075  22.301  25.457  1.00  0.00     0.094 A 
ATOM     13  C   UNL A   1      31.316  22.970  22.792  1.00  0.00     0.020 A 
ATOM     14  C   UNL A   1      32.129  21.377  24.434  1.00  0.00     0.142 A 
ATOM     15  C   UNL A   1      31.768  21.716  23.132  1.00  0.00     0.069 A 
ATOM     16  O   UNL A   1      32.557  20.076  24.548  1.00  0.00    -0.452 OA
ATOM     17  C   UNL A   1      32.010  20.554  22.292  1.00  0.00     0.232 C 
ATOM     18  C   UNL A   1      32.514  19.549  23.258  1.00  0.00     0.176 C 
ATOM     19  O   UNL A   1      31.841  20.456  21.095  1.00  0.00    -0.285 OA
ATOM     20  C   UNL A   1      32.905  18.322  22.892  1.00  0.00     0.070 C 
BRANCH  20  21
ATOM     21  C   UNL A   1      33.361  17.382  23.852  1.00  0.00     0.031 A 
ATOM     22  C   UNL A   1      34.620  16.824  24.000  1.00  0.00     0.020 A 
ATOM     23  S   UNL A   1      32.288  16.794  25.057  1.00  0.00    -0.144 S 
ATOM     24  C   UNL A   1      34.688  15.890  25.073  1.00  0.00     0.012 A 
ATOM     25  C   UNL A   1      33.480  15.764  25.718  1.00  0.00     0.065 A 
ENDBRANCH  20  21
ENDBRANCH   9  10
ENDBRANCH   8   9
ENDBRANCH   6   8
ENDBRANCH   3   4
ENDBRANCH   2   3
ENDBRANCH   1   2
BRANCH   1  26
ATOM     26  C   UNL A   1      37.621  21.445  24.853  1.00  0.00     0.002 C 
BRANCH  26  27
ATOM     27  C   UNL A   1      38.221  20.039  24.871  1.00  0.00     0.021 C 
BRANCH  27  28
ATOM     28  C   UNL A   1      38.995  19.689  26.138  1.00  0.00     0.116 C 
BRANCH  28  29
ATOM     29  N   UNL A   1      40.274  19.058  25.852  1.00  0.00    -0.352 N 
ATOM     30  C   UNL A   1      41.539  19.593  25.895  1.00  0.00     0.251 C 
ATOM     31  H   UNL A   1      40.227  18.110  25.588  1.00  0.00     0.163 HD
ATOM     32  O   UNL A   1      42.493  18.960  25.454  1.00  0.00    -0.269 OA
BRANCH  30  33
ATOM     33  C   UNL A   1      41.747  20.946  26.454  1.00  0.00     0.039 A 
ATOM     34  C   UNL A   1      41.655  21.127  27.836  1.00  0.00     0.014 A 
ATOM     35  C   UNL A   1      42.035  22.030  25.620  1.00  0.00     0.014 A 
ATOM     36  C   UNL A   1      41.918  22.383  28.386  1.00  0.00     0.010 A 
ATOM     37  C   UNL A   1      42.378  23.258  26.177  1.00  0.00     0.010 A 
ATOM     38  C   UNL A   1      42.321  23.450  27.566  1.00  0.00    -0.014 A 
BRANCH  38  39
ATOM     39  C   UNL A   1      42.698  24.764  28.145  1.00  0.00     0.031 A 
ATOM     40  C   UNL A   1      41.660  25.831  28.355  1.00  0.00     0.074 A 
ATOM     41  C   UNL A   1      43.991  25.022  28.422  1.00  0.00     0.049 A 
ATOM     42  N   UNL A   1      41.808  27.049  28.810  1.00  0.00    -0.248 NA
ATOM     43  C   UNL A   1      40.277  25.493  27.983  1.00  0.00     0.031 C 
ATOM     44  C   UNL A   1      45.102  24.089  28.223  1.00  0.00     0.029 A 
ATOM     45  N   UNL A   1      44.589  26.149  28.926  1.00  0.00    -0.354 N 
ATOM     46  C   UNL A   1      40.545  27.625  28.765  1.00  0.00     0.074 A 
ATOM     47  C   UNL A   1      39.655  26.644  28.184  1.00  0.00     0.031 C 
ATOM     48  C   UNL A   1      46.241  24.671  28.628  1.00  0.00     0.029 A 
ATOM     49  C   UNL A   1      45.949  26.031  29.071  1.00  0.00     0.049 A 
ATOM     50  H   UNL A   1      44.091  26.964  29.161  1.00  0.00     0.167 HD
ATOM     51  C   UNL A   1      40.154  28.852  29.187  1.00  0.00     0.031 A 
ATOM     52  C   UNL A   1      46.866  26.919  29.503  1.00  0.00     0.031 A 
ATOM     53  C   UNL A   1      41.044  29.833  29.754  1.00  0.00     0.049 A 
ATOM     54  C   UNL A   1      46.417  28.286  29.935  1.00  0.00     0.074 A 
ATOM     55  C   UNL A   1      40.738  31.085  30.259  1.00  0.00     0.029 A 
ATOM     56  N   UNL A   1      42.416  29.676  29.878  1.00  0.00    -0.354 N 
ATOM     57  N   UNL A   1      45.206  28.789  29.960  1.00  0.00    -0.248 NA
ATOM     58  C   UNL A   1      47.461  29.203  30.413  1.00  0.00     0.031 C 
ATOM     59  C   UNL A   1      41.933  31.712  30.625  1.00  0.00     0.029 A 
ATOM     60  C   UNL A   1      42.976  30.823  30.419  1.00  0.00     0.049 A 
ATOM     61  H   UNL A   1      42.919  28.870  29.622  1.00  0.00     0.167 HD
ATOM     62  C   UNL A   1      45.339  30.072  30.478  1.00  0.00     0.074 A 
ATOM     63  C   UNL A   1      46.745  30.260  30.771  1.00  0.00     0.031 C 
ATOM     64  C   UNL A   1      44.380  31.005  30.695  1.00  0.00     0.031 A 
BRANCH  51  65
ATOM     65  C   UNL A   1      38.700  29.206  29.022  1.00  0.00    -0.014 A 
ATOM     66  C   UNL A   1      37.797  29.115  30.095  1.00  0.00     0.009 A 
ATOM     67  C   UNL A   1      38.225  29.645  27.775  1.00  0.00     0.009 A 
ATOM     68  C   UNL A   1      36.442  29.401  29.908  1.00  0.00     0.001 A 
ATOM     69  C   UNL A   1      36.879  29.967  27.602  1.00  0.00     0.001 A 
ATOM     70  C   UNL A   1      35.986  29.831  28.663  1.00  0.00     0.000 A 
ENDBRANCH  51  65
BRANCH  52  71
ATOM     71  C   UNL A   1      48.300  26.531  29.553  1.00  0.00    -0.014 A 
ATOM     72  C   UNL A   1      49.155  26.812  28.476  1.00  0.00     0.009 A 
ATOM     73  C   UNL A   1      48.828  25.897  30.689  1.00  0.00     0.009 A 
ATOM     74  C   UNL A   1      50.503  26.449  28.528  1.00  0.00     0.001 A 
ATOM     75  C   UNL A   1      50.182  25.564  30.752  1.00  0.00     0.001 A 
ATOM     76  C   UNL A   1      51.016  25.832  29.669  1.00  0.00     0.000 A 
ENDBRANCH  52  71
BRANCH  64  77
ATOM     77  C   UNL A   1      44.814  32.309  31.307  1.00  0.00    -0.014 A 
ATOM     78  C   UNL A   1      44.873  32.484  32.699  1.00  0.00     0.009 A 
ATOM     79  C   UNL A   1      45.208  33.368  30.474  1.00  0.00     0.009 A 
ATOM     80  C   UNL A   1      45.283  33.704  33.241  1.00  0.00     0.001 A 
ATOM     81  C   UNL A   1      45.651  34.575  31.019  1.00  0.00     0.001 A 
ATOM     82  C   UNL A   1      45.677  34.746  32.402  1.00  0.00     0.000 A 
ENDBRANCH  64  77
ENDBRANCH  38  39
ENDBRANCH  30  33
ENDBRANCH  28  29
ENDBRANCH  27  28
ENDBRANCH  26  27
ENDBRANCH   1  26
TORSDOF 16
ENDMDL
