MODEL 1
REMARK VINA RESULT:     -11.3      0.000      0.000
REMARK SMILES Cc1nc(-c2ccc(S(=O)(=O)N3CC[NH2+][C@H](C(=O)NCCCCCCNC(=O)c4ccc(-c5c6nc(c(-c7ccccc7)c7ccc([nH]7)c(-c7ccccc7)c7nc(c(-c8ccccc8)c8ccc5[nH]8)C=C7)C=C6)cc4)C3)s2)cs1
REMARK SMILES IDX 22 1 21 2 20 3 19 4 17 5 18 6 16 8 12 9 13 10 77 11 14 12
REMARK SMILES IDX 15 13 9 16 10 17 11 18 8 19 5 20 6 21 78 22 7 23 4 24 1 25
REMARK SMILES IDX 2 26 3 27 80 28 79 29 23 30 24 31 25 32 26 33 27 34 28 36
REMARK SMILES IDX 29 37 30 38 76 39 31 40 75 41 32 42 33 43 34 44 69 45 35 46
REMARK SMILES IDX 74 47 68 48 70 49 36 50 73 51 67 52 66 53 37 55 59 56 44 57
REMARK SMILES IDX 58 58 45 59 48 60 57 61 71 62 46 63 47 64 56 66 72 67 49 68
REMARK SMILES IDX 38 69 39 70 43 71 40 72 42 73 41 74 60 75 61 76 65 77 62 78
REMARK SMILES IDX 64 79 63 80 50 81 51 82 55 83 52 84 54 85 53 86
REMARK H PARENT 19 7 15 14 15 15 26 35 70 54 48 65
REMARK Flexibility Score: inf
ROOT
ATOM      1  C   UNL A   1      36.371  21.566  24.698  1.00  0.00     0.002 C 
ENDROOT
BRANCH   1   2
ATOM      2  C   UNL A   1      35.793  22.977  24.504  1.00  0.00     0.021 C 
BRANCH   2   3
ATOM      3  C   UNL A   1      34.733  23.021  23.398  1.00  0.00     0.116 C 
BRANCH   3   4
ATOM      4  N   UNL A   1      34.687  24.360  22.846  1.00  0.00    -0.351 N 
ATOM      5  C   UNL A   1      33.608  25.174  22.675  1.00  0.00     0.279 C 
ATOM      6  O   UNL A   1      33.604  25.859  21.645  1.00  0.00    -0.268 OA
ATOM      7  H   UNL A   1      35.551  24.732  22.556  1.00  0.00     0.163 HD
BRANCH   5   8
ATOM      8  C   UNL A   1      32.535  25.372  23.780  1.00  0.00     0.287 C 
ATOM      9  N   UNL A   1      30.509  24.731  25.014  1.00  0.00    -0.185 NA
ATOM     10  C   UNL A   1      29.862  26.047  24.891  1.00  0.00     0.164 C 
ATOM     11  C   UNL A   1      31.345  24.422  23.826  1.00  0.00     0.178 C 
ATOM     12  C   UNL A   1      30.852  27.149  24.467  1.00  0.00     0.278 C 
ATOM     13  N   UNL A   1      32.076  26.798  23.728  1.00  0.00    -0.334 N 
ATOM     14  H   UNL A   1      32.831  27.375  24.098  1.00  0.00     0.347 HD
ATOM     15  H   UNL A   1      31.841  26.958  22.749  1.00  0.00     0.347 HD
BRANCH   9  16
ATOM     16  S   UNL A   1      30.958  24.127  26.537  1.00  0.00     0.253 S 
ATOM     17  O   UNL A   1      29.746  23.607  27.144  1.00  0.00    -0.206 OA
ATOM     18  O   UNL A   1      31.748  25.149  27.184  1.00  0.00    -0.206 OA
BRANCH  16  19
ATOM     19  C   UNL A   1      32.061  22.715  26.455  1.00  0.00     0.135 A 
ATOM     20  C   UNL A   1      32.909  20.481  25.784  1.00  0.00     0.055 A 
ATOM     21  C   UNL A   1      33.664  21.045  26.782  1.00  0.00     0.023 A 
ATOM     22  S   UNL A   1      31.667  21.523  25.261  1.00  0.00    -0.121 S 
ATOM     23  C   UNL A   1      33.183  22.321  27.155  1.00  0.00     0.034 A 
BRANCH  20  24
ATOM     24  C   UNL A   1      33.200  19.090  25.319  1.00  0.00     0.091 A 
ATOM     25  C   UNL A   1      32.255  15.598  25.749  1.00  0.00     0.079 C 
ATOM     26  C   UNL A   1      32.865  16.901  25.368  1.00  0.00     0.090 A 
ATOM     27  N   UNL A   1      32.587  18.031  25.972  1.00  0.00    -0.241 NA
ATOM     28  S   UNL A   1      33.990  17.023  24.075  1.00  0.00    -0.127 S 
ATOM     29  C   UNL A   1      34.016  18.733  24.269  1.00  0.00     0.096 A 
ENDBRANCH  20  24
ENDBRANCH  16  19
ENDBRANCH   9  16
ENDBRANCH   5   8
ENDBRANCH   3   4
ENDBRANCH   2   3
ENDBRANCH   1   2
BRANCH   1  30
ATOM     30  C   UNL A   1      37.876  21.538  24.992  1.00  0.00     0.002 C 
BRANCH  30  31
ATOM     31  C   UNL A   1      38.495  20.138  25.005  1.00  0.00     0.021 C 
BRANCH  31  32
ATOM     32  C   UNL A   1      39.327  19.838  26.247  1.00  0.00     0.116 C 
BRANCH  32  33
ATOM     33  N   UNL A   1      40.571  19.170  25.907  1.00  0.00    -0.352 N 
ATOM     34  C   UNL A   1      41.836  19.693  25.838  1.00  0.00     0.251 C 
ATOM     35  H   UNL A   1      40.497  18.212  25.697  1.00  0.00     0.163 HD
ATOM     36  O   UNL A   1      42.746  19.058  25.315  1.00  0.00    -0.269 OA
BRANCH  34  37
ATOM     37  C   UNL A   1      42.099  21.036  26.396  1.00  0.00     0.039 A 
ATOM     38  C   UNL A   1      42.070  21.210  27.781  1.00  0.00     0.014 A 
ATOM     39  C   UNL A   1      42.344  22.122  25.550  1.00  0.00     0.014 A 
ATOM     40  C   UNL A   1      42.318  22.472  28.322  1.00  0.00     0.010 A 
ATOM     41  C   UNL A   1      42.651  23.366  26.092  1.00  0.00     0.010 A 
ATOM     42  C   UNL A   1      42.623  23.555  27.481  1.00  0.00    -0.014 A 
BRANCH  42  43
ATOM     43  C   UNL A   1      42.878  24.904  28.039  1.00  0.00     0.031 A 
ATOM     44  C   UNL A   1      44.270  25.300  28.443  1.00  0.00     0.074 A 
ATOM     45  C   UNL A   1      41.850  25.754  28.227  1.00  0.00     0.049 A 
ATOM     46  N   UNL A   1      44.688  26.416  28.984  1.00  0.00    -0.248 NA
ATOM     47  C   UNL A   1      45.330  24.299  28.233  1.00  0.00     0.031 C 
ATOM     48  C   UNL A   1      40.448  25.474  27.912  1.00  0.00     0.029 A 
ATOM     49  N   UNL A   1      41.831  27.028  28.734  1.00  0.00    -0.354 N 
ATOM     50  C   UNL A   1      46.050  26.244  29.197  1.00  0.00     0.074 A 
ATOM     51  C   UNL A   1      46.381  24.902  28.770  1.00  0.00     0.031 C 
ATOM     52  C   UNL A   1      39.708  26.554  28.210  1.00  0.00     0.029 A 
ATOM     53  C   UNL A   1      40.578  27.588  28.762  1.00  0.00     0.049 A 
ATOM     54  H   UNL A   1      42.638  27.496  29.047  1.00  0.00     0.167 HD
ATOM     55  C   UNL A   1      46.949  27.128  29.687  1.00  0.00     0.031 A 
ATOM     56  C   UNL A   1      40.176  28.802  29.183  1.00  0.00     0.031 A 
ATOM     57  C   UNL A   1      46.626  28.469  30.095  1.00  0.00     0.049 A 
ATOM     58  C   UNL A   1      41.195  29.770  29.712  1.00  0.00     0.074 A 
ATOM     59  C   UNL A   1      47.475  29.461  30.552  1.00  0.00     0.029 A 
ATOM     60  N   UNL A   1      45.347  29.005  30.091  1.00  0.00    -0.354 N 
ATOM     61  N   UNL A   1      42.489  29.615  29.849  1.00  0.00    -0.248 NA
ATOM     62  C   UNL A   1      40.697  31.089  30.131  1.00  0.00     0.031 C 
ATOM     63  C   UNL A   1      46.704  30.588  30.860  1.00  0.00     0.029 A 
ATOM     64  C   UNL A   1      45.382  30.309  30.552  1.00  0.00     0.049 A 
ATOM     65  H   UNL A   1      44.536  28.529  29.803  1.00  0.00     0.167 HD
ATOM     66  C   UNL A   1      42.965  30.822  30.346  1.00  0.00     0.074 A 
ATOM     67  C   UNL A   1      41.822  31.704  30.471  1.00  0.00     0.031 C 
ATOM     68  C   UNL A   1      44.234  31.169  30.670  1.00  0.00     0.031 A 
BRANCH  55  69
ATOM     69  C   UNL A   1      48.373  26.665  29.812  1.00  0.00    -0.014 A 
ATOM     70  C   UNL A   1      48.820  25.989  30.960  1.00  0.00     0.009 A 
ATOM     71  C   UNL A   1      49.275  26.886  28.760  1.00  0.00     0.009 A 
ATOM     72  C   UNL A   1      50.150  25.581  31.067  1.00  0.00     0.001 A 
ATOM     73  C   UNL A   1      50.599  26.452  28.860  1.00  0.00     0.001 A 
ATOM     74  C   UNL A   1      51.037  25.810  30.016  1.00  0.00     0.000 A 
ENDBRANCH  55  69
BRANCH  56  75
ATOM     75  C   UNL A   1      38.743  29.181  29.096  1.00  0.00    -0.014 A 
ATOM     76  C   UNL A   1      38.225  29.726  27.911  1.00  0.00     0.009 A 
ATOM     77  C   UNL A   1      37.888  29.004  30.195  1.00  0.00     0.009 A 
ATOM     78  C   UNL A   1      36.885  30.110  27.837  1.00  0.00     0.001 A 
ATOM     79  C   UNL A   1      36.542  29.366  30.109  1.00  0.00     0.001 A 
ATOM     80  C   UNL A   1      36.044  29.926  28.934  1.00  0.00     0.000 A 
ENDBRANCH  56  75
BRANCH  68  81
ATOM     81  C   UNL A   1      44.452  32.572  31.160  1.00  0.00    -0.014 A 
ATOM     82  C   UNL A   1      44.420  32.876  32.529  1.00  0.00     0.009 A 
ATOM     83  C   UNL A   1      44.723  33.595  30.239  1.00  0.00     0.009 A 
ATOM     84  C   UNL A   1      44.623  34.188  32.963  1.00  0.00     0.001 A 
ATOM     85  C   UNL A   1      44.951  34.900  30.677  1.00  0.00     0.001 A 
ATOM     86  C   UNL A   1      44.891  35.197  32.038  1.00  0.00     0.000 A 
ENDBRANCH  68  81
ENDBRANCH  42  43
ENDBRANCH  34  37
ENDBRANCH  32  33
ENDBRANCH  31  32
ENDBRANCH  30  31
ENDBRANCH   1  30
TORSDOF 16
ENDMDL
MODEL 2
REMARK VINA RESULT:     -11.3      5.020      9.729
REMARK SMILES Cc1nc(-c2ccc(S(=O)(=O)N3CC[NH2+][C@H](C(=O)NCCCCCCNC(=O)c4ccc(-c5c6nc(c(-c7ccccc7)c7ccc([nH]7)c(-c7ccccc7)c7nc(c(-c8ccccc8)c8ccc5[nH]8)C=C7)C=C6)cc4)C3)s2)cs1
REMARK SMILES IDX 22 1 21 2 20 3 19 4 17 5 18 6 16 8 12 9 13 10 77 11 14 12
REMARK SMILES IDX 15 13 9 16 10 17 11 18 8 19 5 20 6 21 78 22 7 23 4 24 1 25
REMARK SMILES IDX 2 26 3 27 80 28 79 29 23 30 24 31 25 32 26 33 27 34 28 36
REMARK SMILES IDX 29 37 30 38 76 39 31 40 75 41 32 42 33 43 34 44 69 45 35 46
REMARK SMILES IDX 74 47 68 48 70 49 36 50 73 51 67 52 66 53 37 55 59 56 44 57
REMARK SMILES IDX 58 58 45 59 48 60 57 61 71 62 46 63 47 64 56 66 72 67 49 68
REMARK SMILES IDX 38 69 39 70 43 71 40 72 42 73 41 74 60 75 61 76 65 77 62 78
REMARK SMILES IDX 64 79 63 80 50 81 51 82 55 83 52 84 54 85 53 86
REMARK H PARENT 19 7 15 14 15 15 26 35 70 54 48 65
REMARK Flexibility Score: inf
ROOT
ATOM      1  C   UNL A   1      34.628  32.539  29.187  1.00  0.00     0.002 C 
ENDROOT
BRANCH   1   2
ATOM      2  C   UNL A   1      35.557  31.748  28.252  1.00  0.00     0.021 C 
BRANCH   2   3
ATOM      3  C   UNL A   1      34.871  30.507  27.669  1.00  0.00     0.116 C 
BRANCH   3   4
ATOM      4  N   UNL A   1      33.436  30.691  27.733  1.00  0.00    -0.351 N 
ATOM      5  C   UNL A   1      32.507  30.495  26.755  1.00  0.00     0.279 C 
ATOM      6  O   UNL A   1      31.575  31.307  26.723  1.00  0.00    -0.268 OA
ATOM      7  H   UNL A   1      33.084  31.000  28.599  1.00  0.00     0.163 HD
BRANCH   5   8
ATOM      8  C   UNL A   1      32.510  29.233  25.851  1.00  0.00     0.287 C 
ATOM      9  N   UNL A   1      32.888  26.845  25.414  1.00  0.00    -0.185 NA
ATOM     10  C   UNL A   1      33.704  27.062  24.209  1.00  0.00     0.164 C 
ATOM     11  C   UNL A   1      33.081  27.933  26.406  1.00  0.00     0.178 C 
ATOM     12  C   UNL A   1      33.568  28.495  23.660  1.00  0.00     0.278 C 
ATOM     13  N   UNL A   1      33.172  29.594  24.556  1.00  0.00    -0.334 N 
ATOM     14  H   UNL A   1      32.526  30.191  24.038  1.00  0.00     0.347 HD
ATOM     15  H   UNL A   1      34.051  30.033  24.828  1.00  0.00     0.347 HD
BRANCH   9  16
ATOM     16  S   UNL A   1      31.388  26.057  25.312  1.00  0.00     0.253 S 
ATOM     17  O   UNL A   1      30.931  26.222  23.943  1.00  0.00    -0.206 OA
ATOM     18  O   UNL A   1      30.594  26.506  26.432  1.00  0.00    -0.206 OA
BRANCH  16  19
ATOM     19  C   UNL A   1      31.490  24.281  25.539  1.00  0.00     0.135 A 
ATOM     20  C   UNL A   1      31.933  21.901  24.986  1.00  0.00     0.055 A 
ATOM     21  C   UNL A   1      31.286  22.044  26.189  1.00  0.00     0.023 A 
ATOM     22  S   UNL A   1      32.301  23.408  24.282  1.00  0.00    -0.121 S 
ATOM     23  C   UNL A   1      31.044  23.400  26.504  1.00  0.00     0.034 A 
BRANCH  20  24
ATOM     24  C   UNL A   1      32.193  20.538  24.432  1.00  0.00     0.091 A 
ATOM     25  C   UNL A   1      32.607  17.034  25.339  1.00  0.00     0.079 C 
ATOM     26  C   UNL A   1      32.505  18.357  24.666  1.00  0.00     0.090 A 
ATOM     27  N   UNL A   1      32.405  19.491  25.317  1.00  0.00    -0.241 NA
ATOM     28  S   UNL A   1      32.499  18.496  22.954  1.00  0.00    -0.127 S 
ATOM     29  C   UNL A   1      32.227  20.190  23.100  1.00  0.00     0.096 A 
ENDBRANCH  20  24
ENDBRANCH  16  19
ENDBRANCH   9  16
ENDBRANCH   5   8
ENDBRANCH   3   4
ENDBRANCH   2   3
ENDBRANCH   1   2
BRANCH   1  30
ATOM     30  C   UNL A   1      34.646  34.055  28.955  1.00  0.00     0.002 C 
BRANCH  30  31
ATOM     31  C   UNL A   1      33.277  34.732  29.065  1.00  0.00     0.021 C 
BRANCH  31  32
ATOM     32  C   UNL A   1      33.309  36.091  29.755  1.00  0.00     0.116 C 
BRANCH  32  33
ATOM     33  N   UNL A   1      32.404  36.134  30.890  1.00  0.00    -0.352 N 
ATOM     34  C   UNL A   1      32.505  35.487  32.094  1.00  0.00     0.251 C 
ATOM     35  H   UNL A   1      31.610  36.704  30.780  1.00  0.00     0.163 HD
ATOM     36  O   UNL A   1      31.548  35.443  32.860  1.00  0.00    -0.269 OA
BRANCH  34  37
ATOM     37  C   UNL A   1      33.778  34.835  32.465  1.00  0.00     0.039 A 
ATOM     38  C   UNL A   1      33.760  33.498  32.869  1.00  0.00     0.014 A 
ATOM     39  C   UNL A   1      34.978  35.552  32.442  1.00  0.00     0.014 A 
ATOM     40  C   UNL A   1      34.954  32.868  33.221  1.00  0.00     0.010 A 
ATOM     41  C   UNL A   1      36.175  34.907  32.734  1.00  0.00     0.010 A 
ATOM     42  C   UNL A   1      36.171  33.565  33.142  1.00  0.00    -0.014 A 
BRANCH  42  43
ATOM     43  C   UNL A   1      37.447  32.915  33.523  1.00  0.00     0.031 A 
ATOM     44  C   UNL A   1      38.105  31.943  32.584  1.00  0.00     0.074 A 
ATOM     45  C   UNL A   1      37.988  33.162  34.732  1.00  0.00     0.049 A 
ATOM     46  N   UNL A   1      39.199  31.244  32.751  1.00  0.00    -0.248 NA
ATOM     47  C   UNL A   1      37.430  31.707  31.297  1.00  0.00     0.031 C 
ATOM     48  C   UNL A   1      37.426  34.054  35.747  1.00  0.00     0.029 A 
ATOM     49  N   UNL A   1      39.133  32.677  35.309  1.00  0.00    -0.354 N 
ATOM     50  C   UNL A   1      39.331  30.473  31.604  1.00  0.00     0.074 A 
ATOM     51  C   UNL A   1      38.185  30.755  30.767  1.00  0.00     0.031 C 
ATOM     52  C   UNL A   1      38.242  34.073  36.814  1.00  0.00     0.029 A 
ATOM     53  C   UNL A   1      39.365  33.173  36.569  1.00  0.00     0.049 A 
ATOM     54  H   UNL A   1      39.732  32.035  34.864  1.00  0.00     0.167 HD
ATOM     55  C   UNL A   1      40.327  29.621  31.265  1.00  0.00     0.031 A 
ATOM     56  C   UNL A   1      40.372  32.930  37.428  1.00  0.00     0.031 A 
ATOM     57  C   UNL A   1      41.477  29.354  32.087  1.00  0.00     0.049 A 
ATOM     58  C   UNL A   1      41.471  31.989  37.025  1.00  0.00     0.074 A 
ATOM     59  C   UNL A   1      42.568  28.550  31.809  1.00  0.00     0.029 A 
ATOM     60  N   UNL A   1      41.683  29.890  33.348  1.00  0.00    -0.354 N 
ATOM     61  N   UNL A   1      41.615  31.315  35.910  1.00  0.00    -0.248 NA
ATOM     62  C   UNL A   1      42.556  31.788  37.996  1.00  0.00     0.031 C 
ATOM     63  C   UNL A   1      43.419  28.571  32.920  1.00  0.00     0.029 A 
ATOM     64  C   UNL A   1      42.877  29.422  33.869  1.00  0.00     0.049 A 
ATOM     65  H   UNL A   1      41.072  30.511  33.805  1.00  0.00     0.167 HD
ATOM     66  C   UNL A   1      42.816  30.629  36.034  1.00  0.00     0.074 A 
ATOM     67  C   UNL A   1      43.369  30.982  37.326  1.00  0.00     0.031 C 
ATOM     68  C   UNL A   1      43.409  29.784  35.156  1.00  0.00     0.031 A 
BRANCH  55  69
ATOM     69  C   UNL A   1      40.207  28.911  29.946  1.00  0.00    -0.014 A 
ATOM     70  C   UNL A   1      40.732  29.472  28.770  1.00  0.00     0.009 A 
ATOM     71  C   UNL A   1      39.581  27.658  29.880  1.00  0.00     0.009 A 
ATOM     72  C   UNL A   1      40.597  28.809  27.549  1.00  0.00     0.001 A 
ATOM     73  C   UNL A   1      39.471  26.984  28.661  1.00  0.00     0.001 A 
ATOM     74  C   UNL A   1      39.969  27.565  27.496  1.00  0.00     0.000 A 
ENDBRANCH  55  69
BRANCH  56  75
ATOM     75  C   UNL A   1      40.403  33.612  38.746  1.00  0.00    -0.014 A 
ATOM     76  C   UNL A   1      39.784  33.027  39.862  1.00  0.00     0.009 A 
ATOM     77  C   UNL A   1      41.046  34.851  38.896  1.00  0.00     0.009 A 
ATOM     78  C   UNL A   1      39.787  33.681  41.096  1.00  0.00     0.001 A 
ATOM     79  C   UNL A   1      41.068  35.490  40.137  1.00  0.00     0.001 A 
ATOM     80  C   UNL A   1      40.433  34.909  41.233  1.00  0.00     0.000 A 
ENDBRANCH  56  75
BRANCH  68  81
ATOM     81  C   UNL A   1      44.737  29.209  35.557  1.00  0.00    -0.014 A 
ATOM     82  C   UNL A   1      45.927  29.928  35.369  1.00  0.00     0.009 A 
ATOM     83  C   UNL A   1      44.792  27.942  36.157  1.00  0.00     0.009 A 
ATOM     84  C   UNL A   1      47.152  29.374  35.747  1.00  0.00     0.001 A 
ATOM     85  C   UNL A   1      46.015  27.401  36.556  1.00  0.00     0.001 A 
ATOM     86  C   UNL A   1      47.194  28.113  36.342  1.00  0.00     0.000 A 
ENDBRANCH  68  81
ENDBRANCH  42  43
ENDBRANCH  34  37
ENDBRANCH  32  33
ENDBRANCH  31  32
ENDBRANCH  30  31
ENDBRANCH   1  30
TORSDOF 16
ENDMDL
MODEL 3
REMARK VINA RESULT:     -11.1      2.686      7.799
REMARK SMILES Cc1nc(-c2ccc(S(=O)(=O)N3CC[NH2+][C@H](C(=O)NCCCCCCNC(=O)c4ccc(-c5c6nc(c(-c7ccccc7)c7ccc([nH]7)c(-c7ccccc7)c7nc(c(-c8ccccc8)c8ccc5[nH]8)C=C7)C=C6)cc4)C3)s2)cs1
REMARK SMILES IDX 22 1 21 2 20 3 19 4 17 5 18 6 16 8 12 9 13 10 77 11 14 12
REMARK SMILES IDX 15 13 9 16 10 17 11 18 8 19 5 20 6 21 78 22 7 23 4 24 1 25
REMARK SMILES IDX 2 26 3 27 80 28 79 29 23 30 24 31 25 32 26 33 27 34 28 36
REMARK SMILES IDX 29 37 30 38 76 39 31 40 75 41 32 42 33 43 34 44 69 45 35 46
REMARK SMILES IDX 74 47 68 48 70 49 36 50 73 51 67 52 66 53 37 55 59 56 44 57
REMARK SMILES IDX 58 58 45 59 48 60 57 61 71 62 46 63 47 64 56 66 72 67 49 68
REMARK SMILES IDX 38 69 39 70 43 71 40 72 42 73 41 74 60 75 61 76 65 77 62 78
REMARK SMILES IDX 64 79 63 80 50 81 51 82 55 83 52 84 54 85 53 86
REMARK H PARENT 19 7 15 14 15 15 26 35 70 54 48 65
REMARK Flexibility Score: inf
ROOT
ATOM      1  C   UNL A   1      35.892  21.166  25.356  1.00  0.00     0.002 C 
ENDROOT
BRANCH   1   2
ATOM      2  C   UNL A   1      35.513  22.518  25.982  1.00  0.00     0.021 C 
BRANCH   2   3
ATOM      3  C   UNL A   1      34.346  23.188  25.248  1.00  0.00     0.116 C 
BRANCH   3   4
ATOM      4  N   UNL A   1      33.129  22.964  26.001  1.00  0.00    -0.351 N 
ATOM      5  C   UNL A   1      32.207  23.876  26.420  1.00  0.00     0.279 C 
ATOM      6  O   UNL A   1      31.714  23.673  27.537  1.00  0.00    -0.268 OA
ATOM      7  H   UNL A   1      32.943  22.028  26.242  1.00  0.00     0.163 HD
BRANCH   5   8
ATOM      8  C   UNL A   1      31.668  24.998  25.492  1.00  0.00     0.287 C 
ATOM      9  N   UNL A   1      30.664  27.199  25.061  1.00  0.00    -0.185 NA
ATOM     10  C   UNL A   1      29.609  26.687  24.172  1.00  0.00     0.164 C 
ATOM     11  C   UNL A   1      31.006  26.217  26.122  1.00  0.00     0.178 C 
ATOM     12  C   UNL A   1      29.898  25.253  23.686  1.00  0.00     0.278 C 
ATOM     13  N   UNL A   1      30.764  24.365  24.478  1.00  0.00    -0.334 N 
ATOM     14  H   UNL A   1      31.352  23.850  23.823  1.00  0.00     0.347 HD
ATOM     15  H   UNL A   1      30.118  23.798  25.026  1.00  0.00     0.347 HD
BRANCH   9  16
ATOM     16  S   UNL A   1      31.862  28.246  24.468  1.00  0.00     0.253 S 
ATOM     17  O   UNL A   1      31.163  29.353  23.839  1.00  0.00    -0.206 OA
ATOM     18  O   UNL A   1      32.809  27.439  23.736  1.00  0.00    -0.206 OA
BRANCH  16  19
ATOM     19  C   UNL A   1      32.850  29.012  25.754  1.00  0.00     0.135 A 
ATOM     20  C   UNL A   1      33.619  30.749  27.353  1.00  0.00     0.055 A 
ATOM     21  C   UNL A   1      34.480  29.680  27.291  1.00  0.00     0.023 A 
ATOM     22  S   UNL A   1      32.248  30.515  26.369  1.00  0.00    -0.121 S 
ATOM     23  C   UNL A   1      34.034  28.690  26.387  1.00  0.00     0.034 A 
BRANCH  20  24
ATOM     24  C   UNL A   1      33.965  31.944  28.181  1.00  0.00     0.091 A 
ATOM     25  C   UNL A   1      33.117  35.435  28.786  1.00  0.00     0.079 C 
ATOM     26  C   UNL A   1      33.696  34.064  28.763  1.00  0.00     0.090 A 
ATOM     27  N   UNL A   1      33.369  33.158  27.875  1.00  0.00    -0.241 NA
ATOM     28  S   UNL A   1      34.850  33.557  29.930  1.00  0.00    -0.127 S 
ATOM     29  C   UNL A   1      34.819  31.971  29.261  1.00  0.00     0.096 A 
ENDBRANCH  20  24
ENDBRANCH  16  19
ENDBRANCH   9  16
ENDBRANCH   5   8
ENDBRANCH   3   4
ENDBRANCH   2   3
ENDBRANCH   1   2
BRANCH   1  30
ATOM     30  C   UNL A   1      37.236  21.170  24.617  1.00  0.00     0.002 C 
BRANCH  30  31
ATOM     31  C   UNL A   1      38.120  19.953  24.898  1.00  0.00     0.021 C 
BRANCH  31  32
ATOM     32  C   UNL A   1      39.112  20.157  26.038  1.00  0.00     0.116 C 
BRANCH  32  33
ATOM     33  N   UNL A   1      40.183  19.175  25.995  1.00  0.00    -0.352 N 
ATOM     34  C   UNL A   1      41.537  19.380  26.012  1.00  0.00     0.251 C 
ATOM     35  H   UNL A   1      39.896  18.235  25.947  1.00  0.00     0.163 HD
ATOM     36  O   UNL A   1      42.309  18.467  25.739  1.00  0.00    -0.269 OA
BRANCH  34  37
ATOM     37  C   UNL A   1      42.066  20.716  26.359  1.00  0.00     0.039 A 
ATOM     38  C   UNL A   1      42.271  21.034  27.703  1.00  0.00     0.014 A 
ATOM     39  C   UNL A   1      42.329  21.658  25.360  1.00  0.00     0.014 A 
ATOM     40  C   UNL A   1      42.771  22.291  28.045  1.00  0.00     0.010 A 
ATOM     41  C   UNL A   1      42.885  22.888  25.697  1.00  0.00     0.010 A 
ATOM     42  C   UNL A   1      43.094  23.220  27.043  1.00  0.00    -0.014 A 
BRANCH  42  43
ATOM     43  C   UNL A   1      43.616  24.564  27.390  1.00  0.00     0.031 A 
ATOM     44  C   UNL A   1      42.681  25.623  27.902  1.00  0.00     0.074 A 
ATOM     45  C   UNL A   1      44.919  24.844  27.199  1.00  0.00     0.049 A 
ATOM     46  N   UNL A   1      42.937  26.866  28.222  1.00  0.00    -0.248 NA
ATOM     47  C   UNL A   1      41.266  25.242  28.052  1.00  0.00     0.031 C 
ATOM     48  C   UNL A   1      45.919  23.914  26.671  1.00  0.00     0.029 A 
ATOM     49  N   UNL A   1      45.623  25.999  27.425  1.00  0.00    -0.354 N 
ATOM     50  C   UNL A   1      41.717  27.419  28.589  1.00  0.00     0.074 A 
ATOM     51  C   UNL A   1      40.713  26.391  28.410  1.00  0.00     0.031 C 
ATOM     52  C   UNL A   1      47.113  24.528  26.638  1.00  0.00     0.029 A 
ATOM     53  C   UNL A   1      46.956  25.899  27.113  1.00  0.00     0.049 A 
ATOM     54  H   UNL A   1      45.211  26.821  27.778  1.00  0.00     0.167 HD
ATOM     55  C   UNL A   1      41.454  28.664  29.052  1.00  0.00     0.031 A 
ATOM     56  C   UNL A   1      47.941  26.812  27.202  1.00  0.00     0.031 A 
ATOM     57  C   UNL A   1      42.453  29.680  29.248  1.00  0.00     0.049 A 
ATOM     58  C   UNL A   1      47.628  28.183  27.730  1.00  0.00     0.074 A 
ATOM     59  C   UNL A   1      42.297  30.954  29.765  1.00  0.00     0.029 A 
ATOM     60  N   UNL A   1      43.795  29.533  28.937  1.00  0.00    -0.354 N 
ATOM     61  N   UNL A   1      46.480  28.671  28.132  1.00  0.00    -0.248 NA
ATOM     62  C   UNL A   1      48.753  29.124  27.829  1.00  0.00     0.031 C 
ATOM     63  C   UNL A   1      43.542  31.593  29.732  1.00  0.00     0.029 A 
ATOM     64  C   UNL A   1      44.478  30.700  29.236  1.00  0.00     0.049 A 
ATOM     65  H   UNL A   1      44.202  28.721  28.560  1.00  0.00     0.167 HD
ATOM     66  C   UNL A   1      46.746  29.966  28.554  1.00  0.00     0.074 A 
ATOM     67  C   UNL A   1      48.168  30.182  28.375  1.00  0.00     0.031 C 
ATOM     68  C   UNL A   1      45.891  30.895  29.049  1.00  0.00     0.031 A 
BRANCH  55  69
ATOM     69  C   UNL A   1      40.023  28.991  29.373  1.00  0.00    -0.014 A 
ATOM     70  C   UNL A   1      39.500  28.778  30.659  1.00  0.00     0.009 A 
ATOM     71  C   UNL A   1      39.193  29.540  28.384  1.00  0.00     0.009 A 
ATOM     72  C   UNL A   1      38.164  29.071  30.935  1.00  0.00     0.001 A 
ATOM     73  C   UNL A   1      37.863  29.857  28.672  1.00  0.00     0.001 A 
ATOM     74  C   UNL A   1      37.348  29.613  29.944  1.00  0.00     0.000 A 
ENDBRANCH  55  69
BRANCH  56  75
ATOM     75  C   UNL A   1      49.327  26.449  26.809  1.00  0.00    -0.014 A 
ATOM     76  C   UNL A   1      49.777  26.685  25.501  1.00  0.00     0.009 A 
ATOM     77  C   UNL A   1      50.203  25.863  27.735  1.00  0.00     0.009 A 
ATOM     78  C   UNL A   1      51.069  26.318  25.121  1.00  0.00     0.001 A 
ATOM     79  C   UNL A   1      51.503  25.519  27.359  1.00  0.00     0.001 A 
ATOM     80  C   UNL A   1      51.932  25.739  26.051  1.00  0.00     0.000 A 
ENDBRANCH  56  75
BRANCH  68  81
ATOM     81  C   UNL A   1      46.480  32.215  29.456  1.00  0.00    -0.014 A 
ATOM     82  C   UNL A   1      46.983  32.418  30.749  1.00  0.00     0.009 A 
ATOM     83  C   UNL A   1      46.560  33.258  28.520  1.00  0.00     0.009 A 
ATOM     84  C   UNL A   1      47.524  33.655  31.108  1.00  0.00     0.001 A 
ATOM     85  C   UNL A   1      47.125  34.483  28.873  1.00  0.00     0.001 A 
ATOM     86  C   UNL A   1      47.597  34.684  30.170  1.00  0.00     0.000 A 
ENDBRANCH  68  81
ENDBRANCH  42  43
ENDBRANCH  34  37
ENDBRANCH  32  33
ENDBRANCH  31  32
ENDBRANCH  30  31
ENDBRANCH   1  30
TORSDOF 16
ENDMDL
