MODEL 1
REMARK VINA RESULT:     -11.6      0.000      0.000
REMARK SMILES CC1(C)[C@H](C(=O)NCCCCCCNC(=O)c2ccc(-c3c4nc(c(-c5ccccc5)c5ccc([nH]5)c(-c5ccccc5)c5nc(c(-c6ccccc6)c6ccc3[nH]6)C=C5)C=C4)cc2)[C@H]1C(=O)Nc1cccc2[nH]ccc12
REMARK SMILES IDX 10 1 9 2 8 3 7 4 5 5 6 6 4 8 1 9 2 10 3 11 65 12 66 13 67 14
REMARK SMILES IDX 68 15 69 17 70 18 77 19 71 20 73 21 76 22 72 23 74 24 75 25
REMARK SMILES IDX 11 27 12 28 13 29 14 30 15 31 16 33 17 34 18 35 64 36 19 37
REMARK SMILES IDX 63 38 20 39 21 40 22 41 57 42 23 43 62 44 56 45 58 46 24 47
REMARK SMILES IDX 61 48 55 49 54 50 25 52 47 53 32 54 46 55 33 56 36 57 45 58
REMARK SMILES IDX 59 59 34 60 35 61 44 63 60 64 37 65 26 66 27 67 31 68 28 69
REMARK SMILES IDX 30 70 29 71 48 72 49 73 53 74 50 75 52 76 51 77 38 78 39 79
REMARK SMILES IDX 43 80 40 81 42 82 41 83
REMARK H PARENT 7 7 68 16 74 26 14 32 58 51 36 62
REMARK Flexibility Score: inf
ROOT
ATOM      1  C   UNL A   1      30.894  29.457  24.540  1.00  0.00     0.002 C 
ENDROOT
BRANCH   1   2
ATOM      2  C   UNL A   1      30.720  29.341  23.023  1.00  0.00     0.021 C 
BRANCH   2   3
ATOM      3  C   UNL A   1      30.604  27.906  22.508  1.00  0.00     0.116 C 
BRANCH   3   4
ATOM      4  N   UNL A   1      31.845  27.451  21.936  1.00  0.00    -0.356 N 
ATOM      5  C   UNL A   1      32.677  26.404  22.190  1.00  0.00     0.224 C 
ATOM      6  O   UNL A   1      33.666  26.331  21.456  1.00  0.00    -0.275 OA
ATOM      7  H   UNL A   1      32.160  28.022  21.198  1.00  0.00     0.163 HD
BRANCH   5   8
ATOM      8  C   UNL A   1      32.533  25.347  23.228  1.00  0.00     0.098 C 
ATOM      9  C   UNL A   1      31.610  23.042  23.679  1.00  0.00     0.013 C 
ATOM     10  C   UNL A   1      32.800  23.835  23.204  1.00  0.00    -0.011 C 
ATOM     11  C   UNL A   1      33.637  22.963  22.311  1.00  0.00     0.013 C 
ATOM     12  C   UNL A   1      33.633  24.806  24.066  1.00  0.00     0.098 C 
BRANCH  12  13
ATOM     13  C   UNL A   1      33.779  24.671  25.548  1.00  0.00     0.228 C 
ATOM     14  O   UNL A   1      33.190  25.503  26.240  1.00  0.00    -0.274 OA
ATOM     15  N   UNL A   1      34.271  23.543  26.159  1.00  0.00    -0.325 N 
ATOM     16  H   UNL A   1      33.750  23.216  26.929  1.00  0.00     0.169 HD
BRANCH  15  17
ATOM     17  C   UNL A   1      35.407  22.794  25.839  1.00  0.00     0.050 A 
ATOM     18  C   UNL A   1      36.643  23.448  25.819  1.00  0.00     0.027 A 
ATOM     19  C   UNL A   1      35.346  21.452  25.398  1.00  0.00     0.023 A 
ATOM     20  C   UNL A   1      37.817  22.738  25.580  1.00  0.00     0.004 A 
ATOM     21  C   UNL A   1      36.543  20.750  25.234  1.00  0.00     0.047 A 
ATOM     22  C   UNL A   1      34.307  20.565  24.984  1.00  0.00     0.030 A 
ATOM     23  C   UNL A   1      37.794  21.360  25.348  1.00  0.00     0.027 A 
ATOM     24  N   UNL A   1      36.214  19.437  24.977  1.00  0.00    -0.361 N 
ATOM     25  C   UNL A   1      34.865  19.322  24.777  1.00  0.00     0.083 A 
ATOM     26  H   UNL A   1      36.856  18.691  24.942  1.00  0.00     0.166 HD
ENDBRANCH  15  17
ENDBRANCH  12  13
ENDBRANCH   5   8
ENDBRANCH   3   4
ENDBRANCH   2   3
ENDBRANCH   1   2
BRANCH   1  27
ATOM     27  C   UNL A   1      32.330  29.267  25.044  1.00  0.00     0.002 C 
BRANCH  27  28
ATOM     28  C   UNL A   1      32.466  28.454  26.335  1.00  0.00     0.021 C 
BRANCH  28  29
ATOM     29  C   UNL A   1      33.687  28.807  27.180  1.00  0.00     0.116 C 
BRANCH  29  30
ATOM     30  N   UNL A   1      33.629  30.177  27.659  1.00  0.00    -0.352 N 
ATOM     31  C   UNL A   1      34.533  30.877  28.416  1.00  0.00     0.251 C 
ATOM     32  H   UNL A   1      32.820  30.677  27.403  1.00  0.00     0.163 HD
ATOM     33  O   UNL A   1      34.210  31.937  28.941  1.00  0.00    -0.269 OA
BRANCH  31  34
ATOM     34  C   UNL A   1      35.902  30.353  28.600  1.00  0.00     0.039 A 
ATOM     35  C   UNL A   1      36.805  30.431  27.537  1.00  0.00     0.014 A 
ATOM     36  C   UNL A   1      36.281  29.749  29.802  1.00  0.00     0.014 A 
ATOM     37  C   UNL A   1      38.103  29.941  27.694  1.00  0.00     0.010 A 
ATOM     38  C   UNL A   1      37.595  29.323  29.981  1.00  0.00     0.010 A 
ATOM     39  C   UNL A   1      38.515  29.402  28.924  1.00  0.00    -0.014 A 
BRANCH  39  40
ATOM     40  C   UNL A   1      39.899  28.904  29.117  1.00  0.00     0.031 A 
ATOM     41  C   UNL A   1      40.955  29.810  29.690  1.00  0.00     0.074 A 
ATOM     42  C   UNL A   1      40.216  27.654  28.730  1.00  0.00     0.049 A 
ATOM     43  N   UNL A   1      42.225  29.567  29.896  1.00  0.00    -0.248 NA
ATOM     44  C   UNL A   1      40.536  31.172  30.054  1.00  0.00     0.031 C 
ATOM     45  C   UNL A   1      39.291  26.693  28.124  1.00  0.00     0.029 A 
ATOM     46  N   UNL A   1      41.410  26.979  28.785  1.00  0.00    -0.354 N 
ATOM     47  C   UNL A   1      42.758  30.749  30.398  1.00  0.00     0.074 A 
ATOM     48  C   UNL A   1      41.686  31.721  30.418  1.00  0.00     0.031 C 
ATOM     49  C   UNL A   1      39.944  25.544  27.891  1.00  0.00     0.029 A 
ATOM     50  C   UNL A   1      41.339  25.699  28.294  1.00  0.00     0.049 A 
ATOM     51  H   UNL A   1      42.236  27.375  29.143  1.00  0.00     0.167 HD
ATOM     52  C   UNL A   1      44.019  30.997  30.823  1.00  0.00     0.031 A 
ATOM     53  C   UNL A   1      42.291  24.755  28.176  1.00  0.00     0.031 A 
ATOM     54  C   UNL A   1      45.081  30.027  30.814  1.00  0.00     0.049 A 
ATOM     55  C   UNL A   1      43.686  25.058  28.652  1.00  0.00     0.074 A 
ATOM     56  C   UNL A   1      46.379  30.165  31.274  1.00  0.00     0.029 A 
ATOM     57  N   UNL A   1      44.966  28.738  30.318  1.00  0.00    -0.354 N 
ATOM     58  N   UNL A   1      44.155  26.158  29.187  1.00  0.00    -0.248 NA
ATOM     59  C   UNL A   1      44.676  23.981  28.520  1.00  0.00     0.031 C 
ATOM     60  C   UNL A   1      47.064  28.974  31.011  1.00  0.00     0.029 A 
ATOM     61  C   UNL A   1      46.176  28.076  30.442  1.00  0.00     0.049 A 
ATOM     62  H   UNL A   1      44.146  28.350  29.936  1.00  0.00     0.167 HD
ATOM     63  C   UNL A   1      45.487  25.897  29.484  1.00  0.00     0.074 A 
ATOM     64  C   UNL A   1      45.744  24.528  29.084  1.00  0.00     0.031 C 
ATOM     65  C   UNL A   1      46.414  26.715  30.039  1.00  0.00     0.031 A 
BRANCH  52  66
ATOM     66  C   UNL A   1      44.320  32.382  31.328  1.00  0.00    -0.014 A 
ATOM     67  C   UNL A   1      44.692  33.413  30.450  1.00  0.00     0.009 A 
ATOM     68  C   UNL A   1      44.194  32.670  32.697  1.00  0.00     0.009 A 
ATOM     69  C   UNL A   1      44.966  34.693  30.936  1.00  0.00     0.001 A 
ATOM     70  C   UNL A   1      44.441  33.958  33.176  1.00  0.00     0.001 A 
ATOM     71  C   UNL A   1      44.835  34.965  32.297  1.00  0.00     0.000 A 
ENDBRANCH  52  66
BRANCH  53  72
ATOM     72  C   UNL A   1      41.959  23.425  27.603  1.00  0.00    -0.014 A 
ATOM     73  C   UNL A   1      42.182  23.160  26.242  1.00  0.00     0.009 A 
ATOM     74  C   UNL A   1      41.408  22.417  28.408  1.00  0.00     0.009 A 
ATOM     75  C   UNL A   1      41.833  21.923  25.696  1.00  0.00     0.001 A 
ATOM     76  C   UNL A   1      41.088  21.171  27.866  1.00  0.00     0.001 A 
ATOM     77  C   UNL A   1      41.290  20.929  26.508  1.00  0.00     0.000 A 
ENDBRANCH  53  72
BRANCH  65  78
ATOM     78  C   UNL A   1      47.779  26.137  30.283  1.00  0.00    -0.014 A 
ATOM     79  C   UNL A   1      48.704  25.977  29.239  1.00  0.00     0.009 A 
ATOM     80  C   UNL A   1      48.155  25.775  31.586  1.00  0.00     0.009 A 
ATOM     81  C   UNL A   1      49.964  25.431  29.491  1.00  0.00     0.001 A 
ATOM     82  C   UNL A   1      49.426  25.259  31.840  1.00  0.00     0.001 A 
ATOM     83  C   UNL A   1      50.325  25.077  30.790  1.00  0.00     0.000 A 
ENDBRANCH  65  78
ENDBRANCH  39  40
ENDBRANCH  31  34
ENDBRANCH  29  30
ENDBRANCH  28  29
ENDBRANCH  27  28
ENDBRANCH   1  27
TORSDOF 15
ENDMDL
MODEL 2
REMARK VINA RESULT:     -11.6      1.858      7.949
REMARK SMILES CC1(C)[C@H](C(=O)NCCCCCCNC(=O)c2ccc(-c3c4nc(c(-c5ccccc5)c5ccc([nH]5)c(-c5ccccc5)c5nc(c(-c6ccccc6)c6ccc3[nH]6)C=C5)C=C4)cc2)[C@H]1C(=O)Nc1cccc2[nH]ccc12
REMARK SMILES IDX 10 1 9 2 8 3 7 4 5 5 6 6 4 8 1 9 2 10 3 11 65 12 66 13 67 14
REMARK SMILES IDX 68 15 69 17 70 18 77 19 71 20 73 21 76 22 72 23 74 24 75 25
REMARK SMILES IDX 11 27 12 28 13 29 14 30 15 31 16 33 17 34 18 35 64 36 19 37
REMARK SMILES IDX 63 38 20 39 21 40 22 41 57 42 23 43 62 44 56 45 58 46 24 47
REMARK SMILES IDX 61 48 55 49 54 50 25 52 47 53 32 54 46 55 33 56 36 57 45 58
REMARK SMILES IDX 59 59 34 60 35 61 44 63 60 64 37 65 26 66 27 67 31 68 28 69
REMARK SMILES IDX 30 70 29 71 48 72 49 73 53 74 50 75 52 76 51 77 38 78 39 79
REMARK SMILES IDX 43 80 40 81 42 82 41 83
REMARK H PARENT 7 7 68 16 74 26 14 32 58 51 36 62
REMARK Flexibility Score: inf
ROOT
ATOM      1  C   UNL A   1      35.799  21.474  25.755  1.00  0.00     0.002 C 
ENDROOT
BRANCH   1   2
ATOM      2  C   UNL A   1      34.325  21.368  26.154  1.00  0.00     0.021 C 
BRANCH   2   3
ATOM      3  C   UNL A   1      34.026  21.802  27.589  1.00  0.00     0.116 C 
BRANCH   3   4
ATOM      4  N   UNL A   1      32.629  22.102  27.768  1.00  0.00    -0.356 N 
ATOM      5  C   UNL A   1      31.750  22.930  27.139  1.00  0.00     0.224 C 
ATOM      6  O   UNL A   1      30.598  22.901  27.578  1.00  0.00    -0.275 OA
ATOM      7  H   UNL A   1      32.219  21.597  28.508  1.00  0.00     0.163 HD
BRANCH   5   8
ATOM      8  C   UNL A   1      32.010  23.846  25.995  1.00  0.00     0.098 C 
ATOM      9  C   UNL A   1      31.025  24.785  23.870  1.00  0.00     0.013 C 
ATOM     10  C   UNL A   1      31.170  24.963  25.358  1.00  0.00    -0.011 C 
ATOM     11  C   UNL A   1      30.015  25.781  25.862  1.00  0.00     0.013 C 
ATOM     12  C   UNL A   1      32.491  25.247  26.104  1.00  0.00     0.098 C 
BRANCH  12  13
ATOM     13  C   UNL A   1      33.653  25.949  25.479  1.00  0.00     0.228 C 
ATOM     14  O   UNL A   1      34.656  25.270  25.256  1.00  0.00    -0.274 OA
ATOM     15  N   UNL A   1      33.561  27.190  24.895  1.00  0.00    -0.325 N 
ATOM     16  H   UNL A   1      33.989  27.276  24.012  1.00  0.00     0.169 HD
BRANCH  15  17
ATOM     17  C   UNL A   1      32.944  28.347  25.381  1.00  0.00     0.050 A 
ATOM     18  C   UNL A   1      33.372  28.854  26.611  1.00  0.00     0.027 A 
ATOM     19  C   UNL A   1      31.821  28.939  24.760  1.00  0.00     0.023 A 
ATOM     20  C   UNL A   1      32.846  30.044  27.109  1.00  0.00     0.004 A 
ATOM     21  C   UNL A   1      31.362  30.167  25.244  1.00  0.00     0.047 A 
ATOM     22  C   UNL A   1      30.917  28.561  23.722  1.00  0.00     0.030 A 
ATOM     23  C   UNL A   1      31.877  30.759  26.400  1.00  0.00     0.027 A 
ATOM     24  N   UNL A   1      30.391  30.611  24.374  1.00  0.00    -0.361 N 
ATOM     25  C   UNL A   1      30.080  29.627  23.476  1.00  0.00     0.083 A 
ATOM     26  H   UNL A   1      29.980  31.507  24.396  1.00  0.00     0.166 HD
ENDBRANCH  15  17
ENDBRANCH  12  13
ENDBRANCH   5   8
ENDBRANCH   3   4
ENDBRANCH   2   3
ENDBRANCH   1   2
BRANCH   1  27
ATOM     27  C   UNL A   1      36.237  20.524  24.634  1.00  0.00     0.002 C 
BRANCH  27  28
ATOM     28  C   UNL A   1      37.402  19.593  24.985  1.00  0.00     0.021 C 
BRANCH  28  29
ATOM     29  C   UNL A   1      38.664  20.310  25.458  1.00  0.00     0.116 C 
BRANCH  29  30
ATOM     30  N   UNL A   1      39.748  19.376  25.709  1.00  0.00    -0.352 N 
ATOM     31  C   UNL A   1      41.039  19.622  26.100  1.00  0.00     0.251 C 
ATOM     32  H   UNL A   1      39.523  18.427  25.580  1.00  0.00     0.163 HD
ATOM     33  O   UNL A   1      41.887  18.739  26.019  1.00  0.00    -0.269 OA
BRANCH  31  34
ATOM     34  C   UNL A   1      41.411  20.954  26.621  1.00  0.00     0.039 A 
ATOM     35  C   UNL A   1      41.953  21.896  25.743  1.00  0.00     0.014 A 
ATOM     36  C   UNL A   1      41.266  21.258  27.978  1.00  0.00     0.014 A 
ATOM     37  C   UNL A   1      42.311  23.158  26.219  1.00  0.00     0.010 A 
ATOM     38  C   UNL A   1      41.559  22.539  28.436  1.00  0.00     0.010 A 
ATOM     39  C   UNL A   1      42.097  23.498  27.565  1.00  0.00    -0.014 A 
BRANCH  39  40
ATOM     40  C   UNL A   1      42.444  24.845  28.079  1.00  0.00     0.031 A 
ATOM     41  C   UNL A   1      43.866  25.170  28.447  1.00  0.00     0.074 A 
ATOM     42  C   UNL A   1      41.472  25.759  28.262  1.00  0.00     0.049 A 
ATOM     43  N   UNL A   1      44.356  26.276  28.948  1.00  0.00    -0.248 NA
ATOM     44  C   UNL A   1      44.863  24.105  28.252  1.00  0.00     0.031 C 
ATOM     45  C   UNL A   1      40.050  25.552  27.980  1.00  0.00     0.029 A 
ATOM     46  N   UNL A   1      41.535  27.046  28.733  1.00  0.00    -0.354 N 
ATOM     47  C   UNL A   1      45.711  26.034  29.142  1.00  0.00     0.074 A 
ATOM     48  C   UNL A   1      45.956  24.663  28.752  1.00  0.00     0.031 C 
ATOM     49  C   UNL A   1      39.379  26.682  28.258  1.00  0.00     0.029 A 
ATOM     50  C   UNL A   1      40.316  27.677  28.771  1.00  0.00     0.049 A 
ATOM     51  H   UNL A   1      42.374  27.475  29.017  1.00  0.00     0.167 HD
ATOM     52  C   UNL A   1      46.669  26.883  29.585  1.00  0.00     0.031 A 
ATOM     53  C   UNL A   1      39.987  28.917  29.176  1.00  0.00     0.031 A 
ATOM     54  C   UNL A   1      46.427  28.250  29.960  1.00  0.00     0.049 A 
ATOM     55  C   UNL A   1      41.069  29.839  29.667  1.00  0.00     0.074 A 
ATOM     56  C   UNL A   1      47.340  29.207  30.370  1.00  0.00     0.029 A 
ATOM     57  N   UNL A   1      45.180  28.854  29.973  1.00  0.00    -0.354 N 
ATOM     58  N   UNL A   1      42.356  29.617  29.779  1.00  0.00    -0.248 NA
ATOM     59  C   UNL A   1      40.653  31.188  30.074  1.00  0.00     0.031 C 
ATOM     60  C   UNL A   1      46.638  30.376  30.678  1.00  0.00     0.029 A 
ATOM     61  C   UNL A   1      45.297  30.166  30.404  1.00  0.00     0.049 A 
ATOM     62  H   UNL A   1      44.337  28.417  29.714  1.00  0.00     0.167 HD
ATOM     63  C   UNL A   1      42.908  30.806  30.239  1.00  0.00     0.074 A 
ATOM     64  C   UNL A   1      41.817  31.750  30.369  1.00  0.00     0.031 C 
ATOM     65  C   UNL A   1      44.201  31.091  30.527  1.00  0.00     0.031 A 
BRANCH  52  66
ATOM     66  C   UNL A   1      48.072  26.349  29.693  1.00  0.00    -0.014 A 
ATOM     67  C   UNL A   1      48.985  26.481  28.635  1.00  0.00     0.009 A 
ATOM     68  C   UNL A   1      48.497  25.738  30.884  1.00  0.00     0.009 A 
ATOM     69  C   UNL A   1      50.283  25.981  28.754  1.00  0.00     0.001 A 
ATOM     70  C   UNL A   1      49.804  25.265  31.010  1.00  0.00     0.001 A 
ATOM     71  C   UNL A   1      50.693  25.379  29.942  1.00  0.00     0.000 A 
ENDBRANCH  52  66
BRANCH  53  72
ATOM     72  C   UNL A   1      38.574  29.373  29.117  1.00  0.00    -0.014 A 
ATOM     73  C   UNL A   1      37.742  29.261  30.242  1.00  0.00     0.009 A 
ATOM     74  C   UNL A   1      38.046  29.913  27.934  1.00  0.00     0.009 A 
ATOM     75  C   UNL A   1      36.403  29.653  30.174  1.00  0.00     0.001 A 
ATOM     76  C   UNL A   1      36.715  30.332  27.878  1.00  0.00     0.001 A 
ATOM     77  C   UNL A   1      35.892  30.191  28.994  1.00  0.00     0.000 A 
ENDBRANCH  53  72
BRANCH  65  78
ATOM     78  C   UNL A   1      44.510  32.493  30.971  1.00  0.00    -0.014 A 
ATOM     79  C   UNL A   1      44.783  33.511  30.045  1.00  0.00     0.009 A 
ATOM     80  C   UNL A   1      44.497  32.803  32.340  1.00  0.00     0.009 A 
ATOM     81  C   UNL A   1      45.074  34.805  30.485  1.00  0.00     0.001 A 
ATOM     82  C   UNL A   1      44.757  34.103  32.775  1.00  0.00     0.001 A 
ATOM     83  C   UNL A   1      45.057  35.100  31.847  1.00  0.00     0.000 A 
ENDBRANCH  65  78
ENDBRANCH  39  40
ENDBRANCH  31  34
ENDBRANCH  29  30
ENDBRANCH  28  29
ENDBRANCH  27  28
ENDBRANCH   1  27
TORSDOF 15
ENDMDL
MODEL 3
REMARK VINA RESULT:     -11.6      2.435      6.702
REMARK SMILES CC1(C)[C@H](C(=O)NCCCCCCNC(=O)c2ccc(-c3c4nc(c(-c5ccccc5)c5ccc([nH]5)c(-c5ccccc5)c5nc(c(-c6ccccc6)c6ccc3[nH]6)C=C5)C=C4)cc2)[C@H]1C(=O)Nc1cccc2[nH]ccc12
REMARK SMILES IDX 10 1 9 2 8 3 7 4 5 5 6 6 4 8 1 9 2 10 3 11 65 12 66 13 67 14
REMARK SMILES IDX 68 15 69 17 70 18 77 19 71 20 73 21 76 22 72 23 74 24 75 25
REMARK SMILES IDX 11 27 12 28 13 29 14 30 15 31 16 33 17 34 18 35 64 36 19 37
REMARK SMILES IDX 63 38 20 39 21 40 22 41 57 42 23 43 62 44 56 45 58 46 24 47
REMARK SMILES IDX 61 48 55 49 54 50 25 52 47 53 32 54 46 55 33 56 36 57 45 58
REMARK SMILES IDX 59 59 34 60 35 61 44 63 60 64 37 65 26 66 27 67 31 68 28 69
REMARK SMILES IDX 30 70 29 71 48 72 49 73 53 74 50 75 52 76 51 77 38 78 39 79
REMARK SMILES IDX 43 80 40 81 42 82 41 83
REMARK H PARENT 7 7 68 16 74 26 14 32 58 51 36 62
REMARK Flexibility Score: inf
ROOT
ATOM      1  C   UNL A   1      32.684  29.590  25.152  1.00  0.00     0.002 C 
ENDROOT
BRANCH   1   2
ATOM      2  C   UNL A   1      32.478  29.013  23.748  1.00  0.00     0.021 C 
BRANCH   2   3
ATOM      3  C   UNL A   1      33.761  28.867  22.931  1.00  0.00     0.116 C 
BRANCH   3   4
ATOM      4  N   UNL A   1      33.609  27.889  21.884  1.00  0.00    -0.356 N 
ATOM      5  C   UNL A   1      33.288  26.566  21.864  1.00  0.00     0.224 C 
ATOM      6  O   UNL A   1      33.238  26.057  20.741  1.00  0.00    -0.275 OA
ATOM      7  H   UNL A   1      33.773  28.258  20.987  1.00  0.00     0.163 HD
BRANCH   5   8
ATOM      8  C   UNL A   1      32.987  25.676  23.018  1.00  0.00     0.098 C 
ATOM      9  C   UNL A   1      31.509  23.790  23.808  1.00  0.00     0.013 C 
ATOM     10  C   UNL A   1      32.801  24.156  23.126  1.00  0.00    -0.011 C 
ATOM     11  C   UNL A   1      33.223  23.013  22.246  1.00  0.00     0.013 C 
ATOM     12  C   UNL A   1      33.987  24.890  23.785  1.00  0.00     0.098 C 
BRANCH  12  13
ATOM     13  C   UNL A   1      34.285  24.822  25.249  1.00  0.00     0.228 C 
ATOM     14  O   UNL A   1      33.995  25.813  25.920  1.00  0.00    -0.274 OA
ATOM     15  N   UNL A   1      34.582  23.651  25.906  1.00  0.00    -0.325 N 
ATOM     16  H   UNL A   1      34.103  23.508  26.754  1.00  0.00     0.169 HD
BRANCH  15  17
ATOM     17  C   UNL A   1      35.468  22.636  25.535  1.00  0.00     0.050 A 
ATOM     18  C   UNL A   1      36.814  22.969  25.357  1.00  0.00     0.027 A 
ATOM     19  C   UNL A   1      35.044  21.330  25.195  1.00  0.00     0.023 A 
ATOM     20  C   UNL A   1      37.755  21.985  25.061  1.00  0.00     0.004 A 
ATOM     21  C   UNL A   1      36.016  20.352  24.971  1.00  0.00     0.047 A 
ATOM     22  C   UNL A   1      33.787  20.704  24.940  1.00  0.00     0.030 A 
ATOM     23  C   UNL A   1      37.382  20.645  24.928  1.00  0.00     0.027 A 
ATOM     24  N   UNL A   1      35.360  19.148  24.837  1.00  0.00    -0.361 N 
ATOM     25  C   UNL A   1      34.009  19.355  24.770  1.00  0.00     0.083 A 
ATOM     26  H   UNL A   1      35.799  18.267  24.795  1.00  0.00     0.166 HD
ENDBRANCH  15  17
ENDBRANCH  12  13
ENDBRANCH   5   8
ENDBRANCH   3   4
ENDBRANCH   2   3
ENDBRANCH   1   2
BRANCH   1  27
ATOM     27  C   UNL A   1      31.405  30.069  25.850  1.00  0.00     0.002 C 
BRANCH  27  28
ATOM     28  C   UNL A   1      31.365  31.563  26.185  1.00  0.00     0.021 C 
BRANCH  28  29
ATOM     29  C   UNL A   1      32.609  32.084  26.900  1.00  0.00     0.116 C 
BRANCH  29  30
ATOM     30  N   UNL A   1      32.432  33.454  27.353  1.00  0.00    -0.352 N 
ATOM     31  C   UNL A   1      33.129  34.157  28.301  1.00  0.00     0.251 C 
ATOM     32  H   UNL A   1      31.704  33.950  26.914  1.00  0.00     0.163 HD
ATOM     33  O   UNL A   1      32.686  35.215  28.735  1.00  0.00    -0.269 OA
BRANCH  31  34
ATOM     34  C   UNL A   1      34.420  33.640  28.802  1.00  0.00     0.039 A 
ATOM     35  C   UNL A   1      34.461  33.026  30.056  1.00  0.00     0.014 A 
ATOM     36  C   UNL A   1      35.592  33.799  28.057  1.00  0.00     0.014 A 
ATOM     37  C   UNL A   1      35.672  32.533  30.545  1.00  0.00     0.010 A 
ATOM     38  C   UNL A   1      36.785  33.245  28.515  1.00  0.00     0.010 A 
ATOM     39  C   UNL A   1      36.840  32.619  29.769  1.00  0.00    -0.014 A 
BRANCH  39  40
ATOM     40  C   UNL A   1      38.128  32.073  30.261  1.00  0.00     0.031 A 
ATOM     41  C   UNL A   1      38.654  30.772  29.719  1.00  0.00     0.074 A 
ATOM     42  C   UNL A   1      38.799  32.722  31.232  1.00  0.00     0.049 A 
ATOM     43  N   UNL A   1      39.739  30.119  30.052  1.00  0.00    -0.248 NA
ATOM     44  C   UNL A   1      37.845  30.106  28.686  1.00  0.00     0.031 C 
ATOM     45  C   UNL A   1      38.372  33.972  31.867  1.00  0.00     0.029 A 
ATOM     46  N   UNL A   1      39.982  32.417  31.856  1.00  0.00    -0.354 N 
ATOM     47  C   UNL A   1      39.732  28.960  29.284  1.00  0.00     0.074 A 
ATOM     48  C   UNL A   1      38.513  28.977  28.505  1.00  0.00     0.031 C 
ATOM     49  C   UNL A   1      39.294  34.340  32.771  1.00  0.00     0.029 A 
ATOM     50  C   UNL A   1      40.354  33.337  32.805  1.00  0.00     0.049 A 
ATOM     51  H   UNL A   1      40.512  31.616  31.644  1.00  0.00     0.167 HD
ATOM     52  C   UNL A   1      40.666  27.982  29.217  1.00  0.00     0.031 A 
ATOM     53  C   UNL A   1      41.428  33.369  33.616  1.00  0.00     0.031 A 
ATOM     54  C   UNL A   1      41.884  27.973  29.982  1.00  0.00     0.049 A 
ATOM     55  C   UNL A   1      42.448  32.267  33.525  1.00  0.00     0.074 A 
ATOM     56  C   UNL A   1      42.918  27.054  29.946  1.00  0.00     0.029 A 
ATOM     57  N   UNL A   1      42.229  28.928  30.924  1.00  0.00    -0.354 N 
ATOM     58  N   UNL A   1      42.460  31.215  32.744  1.00  0.00    -0.248 NA
ATOM     59  C   UNL A   1      43.610  32.369  34.418  1.00  0.00     0.031 C 
ATOM     60  C   UNL A   1      43.868  27.428  30.901  1.00  0.00     0.029 A 
ATOM     61  C   UNL A   1      43.452  28.610  31.491  1.00  0.00     0.049 A 
ATOM     62  H   UNL A   1      41.686  29.716  31.156  1.00  0.00     0.167 HD
ATOM     63  C   UNL A   1      43.643  30.545  33.028  1.00  0.00     0.074 A 
ATOM     64  C   UNL A   1      44.329  31.320  34.042  1.00  0.00     0.031 C 
ATOM     65  C   UNL A   1      44.120  29.393  32.498  1.00  0.00     0.031 A 
BRANCH  52  66
ATOM     66  C   UNL A   1      40.399  26.832  28.284  1.00  0.00    -0.014 A 
ATOM     67  C   UNL A   1      39.609  25.741  28.680  1.00  0.00     0.009 A 
ATOM     68  C   UNL A   1      40.913  26.858  26.978  1.00  0.00     0.009 A 
ATOM     69  C   UNL A   1      39.370  24.683  27.800  1.00  0.00     0.001 A 
ATOM     70  C   UNL A   1      40.649  25.813  26.091  1.00  0.00     0.001 A 
ATOM     71  C   UNL A   1      39.885  24.723  26.506  1.00  0.00     0.000 A 
ENDBRANCH  52  66
BRANCH  53  72
ATOM     72  C   UNL A   1      41.609  34.491  34.573  1.00  0.00    -0.014 A 
ATOM     73  C   UNL A   1      42.299  35.651  34.187  1.00  0.00     0.009 A 
ATOM     74  C   UNL A   1      41.103  34.405  35.879  1.00  0.00     0.009 A 
ATOM     75  C   UNL A   1      42.503  36.689  35.099  1.00  0.00     0.001 A 
ATOM     76  C   UNL A   1      41.282  35.458  36.779  1.00  0.00     0.001 A 
ATOM     77  C   UNL A   1      41.992  36.594  36.392  1.00  0.00     0.000 A 
ENDBRANCH  53  72
BRANCH  65  78
ATOM     78  C   UNL A   1      45.465  28.924  32.976  1.00  0.00    -0.014 A 
ATOM     79  C   UNL A   1      46.650  29.333  32.345  1.00  0.00     0.009 A 
ATOM     80  C   UNL A   1      45.546  28.082  34.097  1.00  0.00     0.009 A 
ATOM     81  C   UNL A   1      47.888  28.878  32.806  1.00  0.00     0.001 A 
ATOM     82  C   UNL A   1      46.786  27.653  34.573  1.00  0.00     0.001 A 
ATOM     83  C   UNL A   1      47.955  28.043  33.920  1.00  0.00     0.000 A 
ENDBRANCH  65  78
ENDBRANCH  39  40
ENDBRANCH  31  34
ENDBRANCH  29  30
ENDBRANCH  28  29
ENDBRANCH  27  28
ENDBRANCH   1  27
TORSDOF 15
ENDMDL
