MODEL 1
REMARK VINA RESULT:     -11.7      0.000      0.000
REMARK SMILES C[C@H](C(=O)NCCCCCCNC(=O)c1ccc(-c2c3nc(c(-c4ccccc4)c4ccc([nH]4)c(-c4ccccc4)c4nc(c(-c5ccccc5)c5ccc2[nH]5)C=C4)C=C3)cc1)N1C(=O)C[C@@H](N2C(=O)/C(=C/c3ccccc3)SC2=S)C1=O
REMARK SMILES IDX 8 1 7 2 6 3 5 4 3 5 4 6 2 8 1 9 63 10 64 11 82 12 65 13
REMARK SMILES IDX 66 14 67 15 83 16 68 17 69 18 80 19 70 20 71 21 79 22 81 23
REMARK SMILES IDX 72 24 73 25 74 26 78 27 75 28 77 29 76 30 9 31 10 32 11 33
REMARK SMILES IDX 12 34 13 35 14 37 15 38 16 39 62 40 17 41 61 42 18 43 19 44
REMARK SMILES IDX 20 45 55 46 21 47 60 48 54 49 56 50 22 51 59 52 53 53 52 54
REMARK SMILES IDX 23 56 45 57 30 58 44 59 31 60 34 61 43 62 57 63 32 64 33 65
REMARK SMILES IDX 42 67 58 68 35 69 24 70 25 71 29 72 26 73 28 74 27 75 46 76
REMARK SMILES IDX 47 77 51 78 48 79 50 80 49 81 36 82 37 83 41 84 38 85 40 86
REMARK SMILES IDX 39 87
REMARK H PARENT 5 7 12 36 56 55 34 66
REMARK Flexibility Score: inf
ROOT
ATOM      1  C   UNL A   1      33.680  29.378  27.263  1.00  0.00     0.002 C 
ENDROOT
BRANCH   1   2
ATOM      2  C   UNL A   1      33.987  28.933  25.830  1.00  0.00     0.021 C 
BRANCH   2   3
ATOM      3  C   UNL A   1      33.120  29.609  24.765  1.00  0.00     0.116 C 
BRANCH   3   4
ATOM      4  N   UNL A   1      33.527  29.219  23.431  1.00  0.00    -0.354 N 
ATOM      5  C   UNL A   1      33.308  28.123  22.664  1.00  0.00     0.243 C 
ATOM      6  O   UNL A   1      33.930  28.105  21.592  1.00  0.00    -0.273 OA
ATOM      7  H   UNL A   1      34.084  29.898  22.985  1.00  0.00     0.163 HD
BRANCH   5   8
ATOM      8  C   UNL A   1      32.311  26.979  22.978  1.00  0.00     0.179 C 
ATOM      9  C   UNL A   1      32.117  26.114  21.726  1.00  0.00     0.042 C 
BRANCH   8  10
ATOM     10  N   UNL A   1      32.491  26.156  24.168  1.00  0.00    -0.268 N 
ATOM     11  C   UNL A   1      31.625  26.179  25.227  1.00  0.00     0.232 C 
ATOM     12  C   UNL A   1      33.468  25.215  24.322  1.00  0.00     0.253 C 
ATOM     13  O   UNL A   1      30.685  26.942  25.387  1.00  0.00    -0.274 OA
ATOM     14  C   UNL A   1      31.980  25.085  26.197  1.00  0.00     0.136 C 
ATOM     15  C   UNL A   1      33.365  24.670  25.736  1.00  0.00     0.191 C 
ATOM     16  O   UNL A   1      34.327  24.896  23.521  1.00  0.00    -0.272 OA
BRANCH  15  17
ATOM     17  N   UNL A   1      33.682  23.247  25.724  1.00  0.00    -0.280 N 
ATOM     18  C   UNL A   1      32.659  22.349  25.474  1.00  0.00     0.266 C 
ATOM     19  C   UNL A   1      34.957  22.722  25.790  1.00  0.00     0.149 C 
ATOM     20  O   UNL A   1      31.475  22.641  25.367  1.00  0.00    -0.268 OA
ATOM     21  C   UNL A   1      33.200  20.981  25.305  1.00  0.00     0.081 C 
ATOM     22  S   UNL A   1      34.891  20.976  25.590  1.00  0.00    -0.054 SA
ATOM     23  S   UNL A   1      36.393  23.536  26.039  1.00  0.00    -0.052 S 
ATOM     24  C   UNL A   1      32.410  19.971  24.923  1.00  0.00     0.029 C 
BRANCH  24  25
ATOM     25  C   UNL A   1      32.823  18.580  24.732  1.00  0.00    -0.024 A 
ATOM     26  C   UNL A   1      33.345  18.172  23.500  1.00  0.00     0.008 A 
ATOM     27  C   UNL A   1      32.646  17.638  25.752  1.00  0.00     0.008 A 
ATOM     28  C   UNL A   1      33.694  16.835  23.296  1.00  0.00     0.001 A 
ATOM     29  C   UNL A   1      32.996  16.304  25.546  1.00  0.00     0.001 A 
ATOM     30  C   UNL A   1      33.520  15.903  24.318  1.00  0.00     0.000 A 
ENDBRANCH  24  25
ENDBRANCH  15  17
ENDBRANCH   8  10
ENDBRANCH   5   8
ENDBRANCH   3   4
ENDBRANCH   2   3
ENDBRANCH   1   2
BRANCH   1  31
ATOM     31  C   UNL A   1      33.958  30.857  27.555  1.00  0.00     0.002 C 
BRANCH  31  32
ATOM     32  C   UNL A   1      32.716  31.738  27.722  1.00  0.00     0.021 C 
BRANCH  32  33
ATOM     33  C   UNL A   1      32.765  33.065  26.966  1.00  0.00     0.116 C 
BRANCH  33  34
ATOM     34  N   UNL A   1      32.537  34.197  27.851  1.00  0.00    -0.352 N 
ATOM     35  C   UNL A   1      33.193  34.559  29.001  1.00  0.00     0.251 C 
ATOM     36  H   UNL A   1      31.803  34.794  27.584  1.00  0.00     0.163 HD
ATOM     37  O   UNL A   1      32.708  35.412  29.738  1.00  0.00    -0.269 OA
BRANCH  35  38
ATOM     38  C   UNL A   1      34.479  33.926  29.361  1.00  0.00     0.039 A 
ATOM     39  C   UNL A   1      35.590  34.141  28.540  1.00  0.00     0.014 A 
ATOM     40  C   UNL A   1      34.580  33.081  30.470  1.00  0.00     0.014 A 
ATOM     41  C   UNL A   1      36.811  33.542  28.853  1.00  0.00     0.010 A 
ATOM     42  C   UNL A   1      35.813  32.536  30.818  1.00  0.00     0.010 A 
ATOM     43  C   UNL A   1      36.937  32.750  30.006  1.00  0.00    -0.014 A 
BRANCH  43  44
ATOM     44  C   UNL A   1      38.232  32.121  30.366  1.00  0.00     0.031 A 
ATOM     45  C   UNL A   1      39.163  32.805  31.328  1.00  0.00     0.074 A 
ATOM     46  C   UNL A   1      38.592  30.959  29.788  1.00  0.00     0.049 A 
ATOM     47  N   UNL A   1      40.351  32.432  31.734  1.00  0.00    -0.248 NA
ATOM     48  C   UNL A   1      38.710  34.087  31.891  1.00  0.00     0.031 C 
ATOM     49  C   UNL A   1      37.793  30.213  28.814  1.00  0.00     0.029 A 
ATOM     50  N   UNL A   1      39.728  30.205  29.935  1.00  0.00    -0.354 N 
ATOM     51  C   UNL A   1      40.793  33.440  32.583  1.00  0.00     0.074 A 
ATOM     52  C   UNL A   1      39.767  34.460  32.598  1.00  0.00     0.031 C 
ATOM     53  C   UNL A   1      38.451  29.093  28.474  1.00  0.00     0.029 A 
ATOM     54  C   UNL A   1      39.730  29.061  29.176  1.00  0.00     0.049 A 
ATOM     55  H   UNL A   1      40.471  30.460  30.529  1.00  0.00     0.167 HD
ATOM     56  C   UNL A   1      41.941  33.505  33.298  1.00  0.00     0.031 A 
ATOM     57  C   UNL A   1      40.659  28.094  29.058  1.00  0.00     0.031 A 
ATOM     58  C   UNL A   1      42.957  32.486  33.293  1.00  0.00     0.049 A 
ATOM     59  C   UNL A   1      41.929  28.193  29.857  1.00  0.00     0.074 A 
ATOM     60  C   UNL A   1      44.129  32.432  34.025  1.00  0.00     0.029 A 
ATOM     61  N   UNL A   1      42.919  31.341  32.512  1.00  0.00    -0.354 N 
ATOM     62  N   UNL A   1      42.304  29.121  30.703  1.00  0.00    -0.248 NA
ATOM     63  C   UNL A   1      42.898  27.100  29.690  1.00  0.00     0.031 C 
ATOM     64  C   UNL A   1      44.823  31.275  33.655  1.00  0.00     0.029 A 
ATOM     65  C   UNL A   1      44.058  30.584  32.730  1.00  0.00     0.049 A 
ATOM     66  H   UNL A   1      42.190  31.102  31.895  1.00  0.00     0.167 HD
ATOM     67  C   UNL A   1      43.537  28.711  31.192  1.00  0.00     0.074 A 
ATOM     68  C   UNL A   1      43.840  27.445  30.558  1.00  0.00     0.031 C 
ATOM     69  C   UNL A   1      44.344  29.328  32.090  1.00  0.00     0.031 A 
BRANCH  56  70
ATOM     70  C   UNL A   1      42.159  34.730  34.141  1.00  0.00    -0.014 A 
ATOM     71  C   UNL A   1      41.734  34.778  35.479  1.00  0.00     0.009 A 
ATOM     72  C   UNL A   1      42.817  35.844  33.599  1.00  0.00     0.009 A 
ATOM     73  C   UNL A   1      41.928  35.931  36.243  1.00  0.00     0.001 A 
ATOM     74  C   UNL A   1      43.036  36.986  34.373  1.00  0.00     0.001 A 
ATOM     75  C   UNL A   1      42.582  37.031  35.690  1.00  0.00     0.000 A 
ENDBRANCH  56  70
BRANCH  57  76
ATOM     76  C   UNL A   1      40.412  26.930  28.170  1.00  0.00    -0.014 A 
ATOM     77  C   UNL A   1      39.722  25.806  28.651  1.00  0.00     0.009 A 
ATOM     78  C   UNL A   1      40.865  26.933  26.842  1.00  0.00     0.009 A 
ATOM     79  C   UNL A   1      39.514  24.699  27.827  1.00  0.00     0.001 A 
ATOM     80  C   UNL A   1      40.631  25.834  26.012  1.00  0.00     0.001 A 
ATOM     81  C   UNL A   1      39.964  24.715  26.507  1.00  0.00     0.000 A 
ENDBRANCH  57  76
BRANCH  69  82
ATOM     82  C   UNL A   1      45.615  28.620  32.463  1.00  0.00    -0.014 A 
ATOM     83  C   UNL A   1      46.815  28.869  31.780  1.00  0.00     0.009 A 
ATOM     84  C   UNL A   1      45.616  27.715  33.535  1.00  0.00     0.009 A 
ATOM     85  C   UNL A   1      47.985  28.197  32.144  1.00  0.00     0.001 A 
ATOM     86  C   UNL A   1      46.792  27.066  33.913  1.00  0.00     0.001 A 
ATOM     87  C   UNL A   1      47.973  27.301  33.211  1.00  0.00     0.000 A 
ENDBRANCH  69  82
ENDBRANCH  43  44
ENDBRANCH  35  38
ENDBRANCH  33  34
ENDBRANCH  32  33
ENDBRANCH  31  32
ENDBRANCH   1  31
TORSDOF 16
ENDMDL
MODEL 2
REMARK VINA RESULT:     -11.5      2.385      3.162
REMARK SMILES C[C@H](C(=O)NCCCCCCNC(=O)c1ccc(-c2c3nc(c(-c4ccccc4)c4ccc([nH]4)c(-c4ccccc4)c4nc(c(-c5ccccc5)c5ccc2[nH]5)C=C4)C=C3)cc1)N1C(=O)C[C@@H](N2C(=O)/C(=C/c3ccccc3)SC2=S)C1=O
REMARK SMILES IDX 8 1 7 2 6 3 5 4 3 5 4 6 2 8 1 9 63 10 64 11 82 12 65 13
REMARK SMILES IDX 66 14 67 15 83 16 68 17 69 18 80 19 70 20 71 21 79 22 81 23
REMARK SMILES IDX 72 24 73 25 74 26 78 27 75 28 77 29 76 30 9 31 10 32 11 33
REMARK SMILES IDX 12 34 13 35 14 37 15 38 16 39 62 40 17 41 61 42 18 43 19 44
REMARK SMILES IDX 20 45 55 46 21 47 60 48 54 49 56 50 22 51 59 52 53 53 52 54
REMARK SMILES IDX 23 56 45 57 30 58 44 59 31 60 34 61 43 62 57 63 32 64 33 65
REMARK SMILES IDX 42 67 58 68 35 69 24 70 25 71 29 72 26 73 28 74 27 75 46 76
REMARK SMILES IDX 47 77 51 78 48 79 50 80 49 81 36 82 37 83 41 84 38 85 40 86
REMARK SMILES IDX 39 87
REMARK H PARENT 5 7 12 36 56 55 34 66
REMARK Flexibility Score: inf
ROOT
ATOM      1  C   UNL A   1      34.493  32.216  28.800  1.00  0.00     0.002 C 
ENDROOT
BRANCH   1   2
ATOM      2  C   UNL A   1      33.836  31.504  27.614  1.00  0.00     0.021 C 
BRANCH   2   3
ATOM      3  C   UNL A   1      34.172  30.014  27.513  1.00  0.00     0.116 C 
BRANCH   3   4
ATOM      4  N   UNL A   1      34.311  29.599  26.133  1.00  0.00    -0.354 N 
ATOM      5  C   UNL A   1      33.499  28.952  25.260  1.00  0.00     0.243 C 
ATOM      6  O   UNL A   1      34.024  28.670  24.173  1.00  0.00    -0.273 OA
ATOM      7  H   UNL A   1      35.182  29.839  25.744  1.00  0.00     0.163 HD
BRANCH   5   8
ATOM      8  C   UNL A   1      32.000  28.628  25.483  1.00  0.00     0.179 C 
ATOM      9  C   UNL A   1      31.149  29.822  25.031  1.00  0.00     0.042 C 
BRANCH   8  10
ATOM     10  N   UNL A   1      31.443  27.369  25.006  1.00  0.00    -0.268 N 
ATOM     11  C   UNL A   1      30.473  27.300  24.043  1.00  0.00     0.232 C 
ATOM     12  C   UNL A   1      31.881  26.132  25.384  1.00  0.00     0.253 C 
ATOM     13  O   UNL A   1      29.866  28.238  23.548  1.00  0.00    -0.274 OA
ATOM     14  C   UNL A   1      30.258  25.867  23.640  1.00  0.00     0.136 C 
ATOM     15  C   UNL A   1      30.966  25.102  24.742  1.00  0.00     0.191 C 
ATOM     16  O   UNL A   1      32.789  25.866  26.149  1.00  0.00    -0.272 OA
BRANCH  15  17
ATOM     17  N   UNL A   1      31.752  23.933  24.365  1.00  0.00    -0.280 N 
ATOM     18  C   UNL A   1      31.569  22.762  25.080  1.00  0.00     0.266 C 
ATOM     19  C   UNL A   1      32.560  23.851  23.249  1.00  0.00     0.149 C 
ATOM     20  O   UNL A   1      30.876  22.648  26.082  1.00  0.00    -0.268 OA
ATOM     21  C   UNL A   1      32.294  21.644  24.436  1.00  0.00     0.081 C 
ATOM     22  S   UNL A   1      33.197  22.220  23.095  1.00  0.00    -0.054 SA
ATOM     23  S   UNL A   1      32.946  25.063  22.167  1.00  0.00    -0.052 S 
ATOM     24  C   UNL A   1      32.154  20.388  24.876  1.00  0.00     0.029 C 
BRANCH  24  25
ATOM     25  C   UNL A   1      32.823  19.205  24.332  1.00  0.00    -0.024 A 
ATOM     26  C   UNL A   1      34.088  18.840  24.805  1.00  0.00     0.008 A 
ATOM     27  C   UNL A   1      32.234  18.468  23.297  1.00  0.00     0.008 A 
ATOM     28  C   UNL A   1      34.751  17.742  24.255  1.00  0.00     0.001 A 
ATOM     29  C   UNL A   1      32.899  17.371  22.749  1.00  0.00     0.001 A 
ATOM     30  C   UNL A   1      34.157  17.010  23.228  1.00  0.00     0.000 A 
ENDBRANCH  24  25
ENDBRANCH  15  17
ENDBRANCH   8  10
ENDBRANCH   5   8
ENDBRANCH   3   4
ENDBRANCH   2   3
ENDBRANCH   1   2
BRANCH   1  31
ATOM     31  C   UNL A   1      34.577  33.742  28.673  1.00  0.00     0.002 C 
BRANCH  31  32
ATOM     32  C   UNL A   1      33.239  34.483  28.755  1.00  0.00     0.021 C 
BRANCH  32  33
ATOM     33  C   UNL A   1      33.333  35.923  29.255  1.00  0.00     0.116 C 
BRANCH  33  34
ATOM     34  N   UNL A   1      32.550  36.126  30.463  1.00  0.00    -0.352 N 
ATOM     35  C   UNL A   1      32.681  35.552  31.702  1.00  0.00     0.251 C 
ATOM     36  H   UNL A   1      31.815  36.774  30.379  1.00  0.00     0.163 HD
ATOM     37  O   UNL A   1      31.782  35.671  32.530  1.00  0.00    -0.269 OA
BRANCH  35  38
ATOM     38  C   UNL A   1      33.897  34.787  32.049  1.00  0.00     0.039 A 
ATOM     39  C   UNL A   1      35.142  35.415  31.944  1.00  0.00     0.014 A 
ATOM     40  C   UNL A   1      33.820  33.442  32.423  1.00  0.00     0.014 A 
ATOM     41  C   UNL A   1      36.305  34.707  32.252  1.00  0.00     0.010 A 
ATOM     42  C   UNL A   1      34.974  32.756  32.792  1.00  0.00     0.010 A 
ATOM     43  C   UNL A   1      36.228  33.378  32.697  1.00  0.00    -0.014 A 
BRANCH  43  44
ATOM     44  C   UNL A   1      37.452  32.616  33.048  1.00  0.00     0.031 A 
ATOM     45  C   UNL A   1      38.174  32.896  34.338  1.00  0.00     0.074 A 
ATOM     46  C   UNL A   1      37.944  31.708  32.184  1.00  0.00     0.049 A 
ATOM     47  N   UNL A   1      39.277  32.364  34.799  1.00  0.00    -0.248 NA
ATOM     48  C   UNL A   1      37.590  33.926  35.213  1.00  0.00     0.031 C 
ATOM     49  C   UNL A   1      37.356  31.368  30.886  1.00  0.00     0.029 A 
ATOM     50  N   UNL A   1      39.054  30.907  32.267  1.00  0.00    -0.354 N 
ATOM     51  C   UNL A   1      39.529  33.005  36.006  1.00  0.00     0.074 A 
ATOM     52  C   UNL A   1      38.490  33.996  36.183  1.00  0.00     0.031 C 
ATOM     53  C   UNL A   1      38.096  30.407  30.309  1.00  0.00     0.029 A 
ATOM     54  C   UNL A   1      39.225  30.089  31.177  1.00  0.00     0.049 A 
ATOM     55  H   UNL A   1      39.669  30.916  33.037  1.00  0.00     0.167 HD
ATOM     56  C   UNL A   1      40.526  32.780  36.896  1.00  0.00     0.031 A 
ATOM     57  C   UNL A   1      40.186  29.187  30.906  1.00  0.00     0.031 A 
ATOM     58  C   UNL A   1      41.552  31.786  36.727  1.00  0.00     0.049 A 
ATOM     59  C   UNL A   1      41.285  28.960  31.906  1.00  0.00     0.074 A 
ATOM     60  C   UNL A   1      42.572  31.443  37.596  1.00  0.00     0.029 A 
ATOM     61  N   UNL A   1      41.688  30.977  35.609  1.00  0.00    -0.354 N 
ATOM     62  N   UNL A   1      41.474  29.531  33.071  1.00  0.00    -0.248 NA
ATOM     63  C   UNL A   1      42.298  27.954  31.555  1.00  0.00     0.031 C 
ATOM     64  C   UNL A   1      43.353  30.455  36.985  1.00  0.00     0.029 A 
ATOM     65  C   UNL A   1      42.789  30.150  35.757  1.00  0.00     0.049 A 
ATOM     66  H   UNL A   1      41.091  30.990  34.826  1.00  0.00     0.167 HD
ATOM     67  C   UNL A   1      42.608  28.933  33.605  1.00  0.00     0.074 A 
ATOM     68  C   UNL A   1      43.056  27.948  32.643  1.00  0.00     0.031 C 
ATOM     69  C   UNL A   1      43.221  29.177  34.789  1.00  0.00     0.031 A 
BRANCH  56  70
ATOM     70  C   UNL A   1      40.553  33.635  38.131  1.00  0.00    -0.014 A 
ATOM     71  C   UNL A   1      41.258  34.850  38.160  1.00  0.00     0.009 A 
ATOM     72  C   UNL A   1      39.847  33.234  39.275  1.00  0.00     0.009 A 
ATOM     73  C   UNL A   1      41.288  35.624  39.323  1.00  0.00     0.001 A 
ATOM     74  C   UNL A   1      39.855  34.024  40.428  1.00  0.00     0.001 A 
ATOM     75  C   UNL A   1      40.583  35.211  40.453  1.00  0.00     0.000 A 
ENDBRANCH  56  70
BRANCH  57  76
ATOM     76  C   UNL A   1      40.137  28.404  29.645  1.00  0.00    -0.014 A 
ATOM     77  C   UNL A   1      40.682  28.930  28.464  1.00  0.00     0.009 A 
ATOM     78  C   UNL A   1      39.544  27.133  29.613  1.00  0.00     0.009 A 
ATOM     79  C   UNL A   1      40.612  28.209  27.271  1.00  0.00     0.001 A 
ATOM     80  C   UNL A   1      39.499  26.403  28.424  1.00  0.00     0.001 A 
ATOM     81  C   UNL A   1      40.025  26.944  27.252  1.00  0.00     0.000 A 
ENDBRANCH  57  76
BRANCH  69  82
ATOM     82  C   UNL A   1      44.421  28.337  35.122  1.00  0.00    -0.014 A 
ATOM     83  C   UNL A   1      45.711  28.721  34.725  1.00  0.00     0.009 A 
ATOM     84  C   UNL A   1      44.259  27.161  35.871  1.00  0.00     0.009 A 
ATOM     85  C   UNL A   1      46.812  27.923  35.045  1.00  0.00     0.001 A 
ATOM     86  C   UNL A   1      45.365  26.381  36.212  1.00  0.00     0.001 A 
ATOM     87  C   UNL A   1      46.639  26.758  35.790  1.00  0.00     0.000 A 
ENDBRANCH  69  82
ENDBRANCH  43  44
ENDBRANCH  35  38
ENDBRANCH  33  34
ENDBRANCH  32  33
ENDBRANCH  31  32
ENDBRANCH   1  31
TORSDOF 16
ENDMDL
MODEL 3
REMARK VINA RESULT:     -11.5      0.525      5.671
REMARK SMILES C[C@H](C(=O)NCCCCCCNC(=O)c1ccc(-c2c3nc(c(-c4ccccc4)c4ccc([nH]4)c(-c4ccccc4)c4nc(c(-c5ccccc5)c5ccc2[nH]5)C=C4)C=C3)cc1)N1C(=O)C[C@@H](N2C(=O)/C(=C/c3ccccc3)SC2=S)C1=O
REMARK SMILES IDX 8 1 7 2 6 3 5 4 3 5 4 6 2 8 1 9 63 10 64 11 82 12 65 13
REMARK SMILES IDX 66 14 67 15 83 16 68 17 69 18 80 19 70 20 71 21 79 22 81 23
REMARK SMILES IDX 72 24 73 25 74 26 78 27 75 28 77 29 76 30 9 31 10 32 11 33
REMARK SMILES IDX 12 34 13 35 14 37 15 38 16 39 62 40 17 41 61 42 18 43 19 44
REMARK SMILES IDX 20 45 55 46 21 47 60 48 54 49 56 50 22 51 59 52 53 53 52 54
REMARK SMILES IDX 23 56 45 57 30 58 44 59 31 60 34 61 43 62 57 63 32 64 33 65
REMARK SMILES IDX 42 67 58 68 35 69 24 70 25 71 29 72 26 73 28 74 27 75 46 76
REMARK SMILES IDX 47 77 51 78 48 79 50 80 49 81 36 82 37 83 41 84 38 85 40 86
REMARK SMILES IDX 39 87
REMARK H PARENT 5 7 12 36 56 55 34 66
REMARK Flexibility Score: inf
ROOT
ATOM      1  C   UNL A   1      33.580  29.395  27.318  1.00  0.00     0.002 C 
ENDROOT
BRANCH   1   2
ATOM      2  C   UNL A   1      33.872  28.898  25.900  1.00  0.00     0.021 C 
BRANCH   2   3
ATOM      3  C   UNL A   1      33.063  29.605  24.809  1.00  0.00     0.116 C 
BRANCH   3   4
ATOM      4  N   UNL A   1      33.513  29.220  23.488  1.00  0.00    -0.354 N 
ATOM      5  C   UNL A   1      33.324  28.122  22.714  1.00  0.00     0.243 C 
ATOM      6  O   UNL A   1      33.978  28.110  21.661  1.00  0.00    -0.273 OA
ATOM      7  H   UNL A   1      34.077  29.903  23.059  1.00  0.00     0.163 HD
BRANCH   5   8
ATOM      8  C   UNL A   1      32.328  26.970  22.999  1.00  0.00     0.179 C 
ATOM      9  C   UNL A   1      32.156  26.122  21.732  1.00  0.00     0.042 C 
BRANCH   8  10
ATOM     10  N   UNL A   1      32.494  26.132  24.179  1.00  0.00    -0.268 N 
ATOM     11  C   UNL A   1      31.622  26.148  25.233  1.00  0.00     0.232 C 
ATOM     12  C   UNL A   1      33.463  25.181  24.328  1.00  0.00     0.253 C 
ATOM     13  O   UNL A   1      30.687  26.917  25.397  1.00  0.00    -0.274 OA
ATOM     14  C   UNL A   1      31.963  25.040  26.192  1.00  0.00     0.136 C 
ATOM     15  C   UNL A   1      33.347  24.620  25.735  1.00  0.00     0.191 C 
ATOM     16  O   UNL A   1      34.324  24.866  23.528  1.00  0.00    -0.272 OA
BRANCH  15  17
ATOM     17  N   UNL A   1      33.654  23.194  25.707  1.00  0.00    -0.280 N 
ATOM     18  C   UNL A   1      32.624  22.308  25.446  1.00  0.00     0.266 C 
ATOM     19  C   UNL A   1      34.924  22.659  25.769  1.00  0.00     0.149 C 
ATOM     20  O   UNL A   1      31.442  22.609  25.341  1.00  0.00    -0.268 OA
ATOM     21  C   UNL A   1      33.155  20.938  25.262  1.00  0.00     0.081 C 
ATOM     22  S   UNL A   1      34.846  20.916  25.549  1.00  0.00    -0.054 SA
ATOM     23  S   UNL A   1      36.366  23.460  26.029  1.00  0.00    -0.052 S 
ATOM     24  C   UNL A   1      32.357  19.937  24.868  1.00  0.00     0.029 C 
BRANCH  24  25
ATOM     25  C   UNL A   1      32.760  18.546  24.662  1.00  0.00    -0.024 A 
ATOM     26  C   UNL A   1      32.705  17.640  25.727  1.00  0.00     0.008 A 
ATOM     27  C   UNL A   1      33.258  18.124  23.424  1.00  0.00     0.008 A 
ATOM     28  C   UNL A   1      33.135  16.323  25.550  1.00  0.00     0.001 A 
ATOM     29  C   UNL A   1      33.686  16.809  23.249  1.00  0.00     0.001 A 
ATOM     30  C   UNL A   1      33.625  15.910  24.312  1.00  0.00     0.000 A 
ENDBRANCH  24  25
ENDBRANCH  15  17
ENDBRANCH   8  10
ENDBRANCH   5   8
ENDBRANCH   3   4
ENDBRANCH   2   3
ENDBRANCH   1   2
BRANCH   1  31
ATOM     31  C   UNL A   1      33.995  30.844  27.597  1.00  0.00     0.002 C 
BRANCH  31  32
ATOM     32  C   UNL A   1      32.844  31.848  27.711  1.00  0.00     0.021 C 
BRANCH  32  33
ATOM     33  C   UNL A   1      33.165  33.253  27.206  1.00  0.00     0.116 C 
BRANCH  33  34
ATOM     34  N   UNL A   1      32.816  34.270  28.186  1.00  0.00    -0.352 N 
ATOM     35  C   UNL A   1      33.370  34.535  29.412  1.00  0.00     0.251 C 
ATOM     36  H   UNL A   1      32.070  34.857  27.929  1.00  0.00     0.163 HD
ATOM     37  O   UNL A   1      32.789  35.279  30.198  1.00  0.00    -0.269 OA
BRANCH  35  38
ATOM     38  C   UNL A   1      34.661  33.929  29.799  1.00  0.00     0.039 A 
ATOM     39  C   UNL A   1      35.801  34.235  29.050  1.00  0.00     0.014 A 
ATOM     40  C   UNL A   1      34.742  33.020  30.858  1.00  0.00     0.014 A 
ATOM     41  C   UNL A   1      37.029  33.662  29.389  1.00  0.00     0.010 A 
ATOM     42  C   UNL A   1      35.977  32.500  31.235  1.00  0.00     0.010 A 
ATOM     43  C   UNL A   1      37.129  32.805  30.496  1.00  0.00    -0.014 A 
BRANCH  43  44
ATOM     44  C   UNL A   1      38.429  32.202  30.882  1.00  0.00     0.031 A 
ATOM     45  C   UNL A   1      38.902  30.937  30.220  1.00  0.00     0.074 A 
ATOM     46  C   UNL A   1      39.161  32.765  31.862  1.00  0.00     0.049 A 
ATOM     47  N   UNL A   1      39.987  30.241  30.450  1.00  0.00    -0.248 NA
ATOM     48  C   UNL A   1      38.030  30.367  29.181  1.00  0.00     0.031 C 
ATOM     49  C   UNL A   1      38.796  33.974  32.605  1.00  0.00     0.029 A 
ATOM     50  N   UNL A   1      40.362  32.390  32.406  1.00  0.00    -0.354 N 
ATOM     51  C   UNL A   1      39.919  29.145  29.598  1.00  0.00     0.074 A 
ATOM     52  C   UNL A   1      38.666  29.244  28.882  1.00  0.00     0.031 C 
ATOM     53  C   UNL A   1      39.769  34.256  33.486  1.00  0.00     0.029 A 
ATOM     54  C   UNL A   1      40.805  33.232  33.396  1.00  0.00     0.049 A 
ATOM     55  H   UNL A   1      40.861  31.592  32.113  1.00  0.00     0.167 HD
ATOM     56  C   UNL A   1      40.823  28.153  29.417  1.00  0.00     0.031 A 
ATOM     57  C   UNL A   1      41.920  33.184  34.147  1.00  0.00     0.031 A 
ATOM     58  C   UNL A   1      42.074  28.060  30.120  1.00  0.00     0.049 A 
ATOM     59  C   UNL A   1      42.905  32.069  33.932  1.00  0.00     0.074 A 
ATOM     60  C   UNL A   1      43.083  27.125  29.967  1.00  0.00     0.029 A 
ATOM     61  N   UNL A   1      42.486  28.936  31.113  1.00  0.00    -0.354 N 
ATOM     62  N   UNL A   1      42.856  31.075  33.079  1.00  0.00    -0.248 NA
ATOM     63  C   UNL A   1      44.107  32.080  34.779  1.00  0.00     0.031 C 
ATOM     64  C   UNL A   1      44.088  27.410  30.899  1.00  0.00     0.029 A 
ATOM     65  C   UNL A   1      43.725  28.551  31.597  1.00  0.00     0.049 A 
ATOM     66  H   UNL A   1      41.973  29.715  31.428  1.00  0.00     0.167 HD
ATOM     67  C   UNL A   1      44.030  30.359  33.265  1.00  0.00     0.074 A 
ATOM     68  C   UNL A   1      44.778  31.040  34.302  1.00  0.00     0.031 C 
ATOM     69  C   UNL A   1      44.454  29.239  32.630  1.00  0.00     0.031 A 
BRANCH  56  70
ATOM     70  C   UNL A   1      40.481  27.083  28.418  1.00  0.00    -0.014 A 
ATOM     71  C   UNL A   1      40.939  27.151  27.092  1.00  0.00     0.009 A 
ATOM     72  C   UNL A   1      39.708  25.980  28.812  1.00  0.00     0.009 A 
ATOM     73  C   UNL A   1      40.596  26.158  26.172  1.00  0.00     0.001 A 
ATOM     74  C   UNL A   1      39.391  24.973  27.898  1.00  0.00     0.001 A 
ATOM     75  C   UNL A   1      39.826  25.069  26.577  1.00  0.00     0.000 A 
ENDBRANCH  56  70
BRANCH  57  76
ATOM     76  C   UNL A   1      42.183  34.242  35.156  1.00  0.00    -0.014 A 
ATOM     77  C   UNL A   1      42.748  35.466  34.767  1.00  0.00     0.009 A 
ATOM     78  C   UNL A   1      41.875  34.034  36.509  1.00  0.00     0.009 A 
ATOM     79  C   UNL A   1      43.023  36.452  35.718  1.00  0.00     0.001 A 
ATOM     80  C   UNL A   1      42.127  35.032  37.453  1.00  0.00     0.001 A 
ATOM     81  C   UNL A   1      42.708  36.236  37.059  1.00  0.00     0.000 A 
ENDBRANCH  57  76
BRANCH  69  82
ATOM     82  C   UNL A   1      45.803  28.703  33.016  1.00  0.00    -0.014 A 
ATOM     83  C   UNL A   1      46.974  29.155  32.389  1.00  0.00     0.009 A 
ATOM     84  C   UNL A   1      45.903  27.755  34.047  1.00  0.00     0.009 A 
ATOM     85  C   UNL A   1      48.217  28.641  32.764  1.00  0.00     0.001 A 
ATOM     86  C   UNL A   1      47.149  27.264  34.438  1.00  0.00     0.001 A 
ATOM     87  C   UNL A   1      48.304  27.700  33.789  1.00  0.00     0.000 A 
ENDBRANCH  69  82
ENDBRANCH  43  44
ENDBRANCH  35  38
ENDBRANCH  33  34
ENDBRANCH  32  33
ENDBRANCH  31  32
ENDBRANCH   1  31
TORSDOF 16
ENDMDL
