MODEL 1
REMARK VINA RESULT:     -10.5      0.000      0.000
REMARK SMILES CC1(C(=O)N2CC[C@H](C(=O)NCCCCCCNC(=O)c3ccc(-c4c5nc(c(-c6ccccc6)c6ccc([nH]6)c(-c6ccccc6)c6nc(c(-c7ccccc7)c7ccc4[nH]7)C=C6)C=C5)cc3)C2)CCCC1
REMARK SMILES IDX 14 1 13 2 12 3 11 4 9 5 10 6 8 8 5 9 6 10 69 11 7 12 3 13
REMARK SMILES IDX 4 14 2 15 1 16 70 17 73 18 71 19 72 20 15 21 16 22 17 23
REMARK SMILES IDX 18 24 19 25 20 27 21 28 22 29 68 30 23 31 67 32 24 33 25 34
REMARK SMILES IDX 26 35 61 36 27 37 66 38 60 39 62 40 28 41 65 42 59 43 58 44
REMARK SMILES IDX 29 46 51 47 36 48 50 49 37 50 40 51 49 52 63 53 38 54 39 55
REMARK SMILES IDX 48 57 64 58 41 59 30 60 31 61 35 62 32 63 34 64 33 65 52 66
REMARK SMILES IDX 53 67 57 68 54 69 56 70 55 71 42 72 43 73 47 74 44 75 46 76
REMARK SMILES IDX 45 77
REMARK H PARENT 11 7 18 26 62 45 40 56
REMARK Flexibility Score: inf
ROOT
ATOM      1  C   UNL A   1      34.926  21.138  25.336  1.00  0.00     0.002 C 
ENDROOT
BRANCH   1   2
ATOM      2  C   UNL A   1      33.658  20.283  25.282  1.00  0.00     0.021 C 
BRANCH   2   3
ATOM      3  C   UNL A   1      32.365  21.079  25.135  1.00  0.00     0.116 C 
BRANCH   3   4
ATOM      4  N   UNL A   1      32.113  21.938  26.273  1.00  0.00    -0.356 N 
ATOM      5  C   UNL A   1      31.861  23.273  26.338  1.00  0.00     0.224 C 
ATOM      6  O   UNL A   1      31.675  23.759  27.457  1.00  0.00    -0.275 OA
ATOM      7  H   UNL A   1      32.126  21.480  27.143  1.00  0.00     0.163 HD
BRANCH   5   8
ATOM      8  C   UNL A   1      31.821  24.167  25.106  1.00  0.00     0.099 C 
ATOM      9  N   UNL A   1      32.249  26.499  25.015  1.00  0.00    -0.341 N 
ATOM     10  C   UNL A   1      30.935  26.306  24.436  1.00  0.00     0.120 C 
ATOM     11  C   UNL A   1      32.933  25.214  25.070  1.00  0.00     0.133 C 
ATOM     12  C   UNL A   1      30.507  24.936  24.934  1.00  0.00     0.037 C 
BRANCH   9  13
ATOM     13  C   UNL A   1      32.973  27.664  25.160  1.00  0.00     0.228 C 
ATOM     14  O   UNL A   1      33.949  27.858  24.429  1.00  0.00    -0.274 OA
BRANCH  13  15
ATOM     15  C   UNL A   1      32.738  28.567  26.405  1.00  0.00     0.047 C 
ATOM     16  C   UNL A   1      31.829  27.991  27.493  1.00  0.00     0.022 C 
ATOM     17  C   UNL A   1      32.202  29.956  25.979  1.00  0.00     0.016 C 
ATOM     18  C   UNL A   1      34.114  28.959  26.980  1.00  0.00     0.016 C 
ATOM     19  C   UNL A   1      32.679  30.930  27.056  1.00  0.00     0.001 C 
ATOM     20  C   UNL A   1      33.937  30.315  27.654  1.00  0.00     0.001 C 
ENDBRANCH  13  15
ENDBRANCH   9  13
ENDBRANCH   5   8
ENDBRANCH   3   4
ENDBRANCH   2   3
ENDBRANCH   1   2
BRANCH   1  21
ATOM     21  C   UNL A   1      35.032  22.216  24.252  1.00  0.00     0.002 C 
BRANCH  21  22
ATOM     22  C   UNL A   1      36.455  22.668  23.909  1.00  0.00     0.021 C 
BRANCH  22  23
ATOM     23  C   UNL A   1      37.229  23.292  25.067  1.00  0.00     0.116 C 
BRANCH  23  24
ATOM     24  N   UNL A   1      38.357  22.475  25.482  1.00  0.00    -0.352 N 
ATOM     25  C   UNL A   1      39.494  22.827  26.164  1.00  0.00     0.251 C 
ATOM     26  H   UNL A   1      38.296  21.523  25.236  1.00  0.00     0.163 HD
ATOM     27  O   UNL A   1      40.430  22.036  26.259  1.00  0.00    -0.269 OA
BRANCH  25  28
ATOM     28  C   UNL A   1      39.609  24.173  26.765  1.00  0.00     0.039 A 
ATOM     29  C   UNL A   1      39.067  24.392  28.033  1.00  0.00     0.014 A 
ATOM     30  C   UNL A   1      40.256  25.208  26.086  1.00  0.00     0.014 A 
ATOM     31  C   UNL A   1      39.253  25.626  28.660  1.00  0.00     0.010 A 
ATOM     32  C   UNL A   1      40.499  26.415  26.738  1.00  0.00     0.010 A 
ATOM     33  C   UNL A   1      40.016  26.629  28.039  1.00  0.00    -0.014 A 
BRANCH  33  34
ATOM     34  C   UNL A   1      40.379  27.873  28.763  1.00  0.00     0.031 A 
ATOM     35  C   UNL A   1      41.695  27.994  29.476  1.00  0.00     0.074 A 
ATOM     36  C   UNL A   1      39.478  28.874  28.834  1.00  0.00     0.049 A 
ATOM     37  N   UNL A   1      42.146  28.982  30.207  1.00  0.00    -0.248 NA
ATOM     38  C   UNL A   1      42.614  26.850  29.374  1.00  0.00     0.031 C 
ATOM     39  C   UNL A   1      38.149  28.863  28.217  1.00  0.00     0.029 A 
ATOM     40  N   UNL A   1      39.540  30.091  29.467  1.00  0.00    -0.354 N 
ATOM     41  C   UNL A   1      43.399  28.580  30.654  1.00  0.00     0.074 A 
ATOM     42  C   UNL A   1      43.613  27.239  30.154  1.00  0.00     0.031 C 
ATOM     43  C   UNL A   1      37.533  30.025  28.483  1.00  0.00     0.029 A 
ATOM     44  C   UNL A   1      38.397  30.842  29.327  1.00  0.00     0.049 A 
ATOM     45  H   UNL A   1      40.327  30.397  29.972  1.00  0.00     0.167 HD
ATOM     46  C   UNL A   1      44.294  29.272  31.399  1.00  0.00     0.031 A 
ATOM     47  C   UNL A   1      38.072  32.045  29.835  1.00  0.00     0.031 A 
ATOM     48  C   UNL A   1      44.074  30.601  31.906  1.00  0.00     0.049 A 
ATOM     49  C   UNL A   1      39.064  32.769  30.699  1.00  0.00     0.074 A 
ATOM     50  C   UNL A   1      44.941  31.402  32.629  1.00  0.00     0.029 A 
ATOM     51  N   UNL A   1      42.899  31.322  31.753  1.00  0.00    -0.354 N 
ATOM     52  N   UNL A   1      40.274  32.405  31.049  1.00  0.00    -0.248 NA
ATOM     53  C   UNL A   1      38.647  34.072  31.236  1.00  0.00     0.031 C 
ATOM     54  C   UNL A   1      44.268  32.580  32.970  1.00  0.00     0.029 A 
ATOM     55  C   UNL A   1      43.005  32.540  32.404  1.00  0.00     0.049 A 
ATOM     56  H   UNL A   1      42.107  31.013  31.256  1.00  0.00     0.167 HD
ATOM     57  C   UNL A   1      40.768  33.440  31.833  1.00  0.00     0.074 A 
ATOM     58  C   UNL A   1      39.738  34.457  31.883  1.00  0.00     0.031 C 
ATOM     59  C   UNL A   1      41.967  33.537  32.459  1.00  0.00     0.031 A 
BRANCH  46  60
ATOM     60  C   UNL A   1      45.596  28.592  31.727  1.00  0.00    -0.014 A 
ATOM     61  C   UNL A   1      45.734  27.800  32.879  1.00  0.00     0.009 A 
ATOM     62  C   UNL A   1      46.684  28.703  30.847  1.00  0.00     0.009 A 
ATOM     63  C   UNL A   1      46.946  27.165  33.160  1.00  0.00     0.001 A 
ATOM     64  C   UNL A   1      47.885  28.042  31.116  1.00  0.00     0.001 A 
ATOM     65  C   UNL A   1      48.017  27.281  32.276  1.00  0.00     0.000 A 
ENDBRANCH  46  60
BRANCH  47  66
ATOM     66  C   UNL A   1      36.737  32.636  29.551  1.00  0.00    -0.014 A 
ATOM     67  C   UNL A   1      36.498  33.321  28.351  1.00  0.00     0.009 A 
ATOM     68  C   UNL A   1      35.695  32.524  30.487  1.00  0.00     0.009 A 
ATOM     69  C   UNL A   1      35.253  33.906  28.105  1.00  0.00     0.001 A 
ATOM     70  C   UNL A   1      34.442  33.081  30.224  1.00  0.00     0.001 A 
ATOM     71  C   UNL A   1      34.225  33.780  29.039  1.00  0.00     0.000 A 
ENDBRANCH  47  66
BRANCH  59  72
ATOM     72  C   UNL A   1      42.230  34.792  33.244  1.00  0.00    -0.014 A 
ATOM     73  C   UNL A   1      42.964  35.854  32.692  1.00  0.00     0.009 A 
ATOM     74  C   UNL A   1      41.708  34.928  34.540  1.00  0.00     0.009 A 
ATOM     75  C   UNL A   1      43.197  37.013  33.435  1.00  0.00     0.001 A 
ATOM     76  C   UNL A   1      41.915  36.101  35.268  1.00  0.00     0.001 A 
ATOM     77  C   UNL A   1      42.667  37.138  34.720  1.00  0.00     0.000 A 
ENDBRANCH  59  72
ENDBRANCH  33  34
ENDBRANCH  25  28
ENDBRANCH  23  24
ENDBRANCH  22  23
ENDBRANCH  21  22
ENDBRANCH   1  21
TORSDOF 15
ENDMDL
MODEL 2
REMARK VINA RESULT:     -10.0      2.272      7.934
REMARK SMILES CC1(C(=O)N2CC[C@H](C(=O)NCCCCCCNC(=O)c3ccc(-c4c5nc(c(-c6ccccc6)c6ccc([nH]6)c(-c6ccccc6)c6nc(c(-c7ccccc7)c7ccc4[nH]7)C=C6)C=C5)cc3)C2)CCCC1
REMARK SMILES IDX 14 1 13 2 12 3 11 4 9 5 10 6 8 8 5 9 6 10 69 11 7 12 3 13
REMARK SMILES IDX 4 14 2 15 1 16 70 17 73 18 71 19 72 20 15 21 16 22 17 23
REMARK SMILES IDX 18 24 19 25 20 27 21 28 22 29 68 30 23 31 67 32 24 33 25 34
REMARK SMILES IDX 26 35 61 36 27 37 66 38 60 39 62 40 28 41 65 42 59 43 58 44
REMARK SMILES IDX 29 46 51 47 36 48 50 49 37 50 40 51 49 52 63 53 38 54 39 55
REMARK SMILES IDX 48 57 64 58 41 59 30 60 31 61 35 62 32 63 34 64 33 65 52 66
REMARK SMILES IDX 53 67 57 68 54 69 56 70 55 71 42 72 43 73 47 74 44 75 46 76
REMARK SMILES IDX 45 77
REMARK H PARENT 11 7 18 26 62 45 40 56
REMARK Flexibility Score: inf
ROOT
ATOM      1  C   UNL A   1      31.789  27.855  24.650  1.00  0.00     0.002 C 
ENDROOT
BRANCH   1   2
ATOM      2  C   UNL A   1      30.807  26.943  25.389  1.00  0.00     0.021 C 
BRANCH   2   3
ATOM      3  C   UNL A   1      31.150  25.458  25.321  1.00  0.00     0.116 C 
BRANCH   3   4
ATOM      4  N   UNL A   1      30.454  24.684  26.327  1.00  0.00    -0.356 N 
ATOM      5  C   UNL A   1      30.623  23.396  26.729  1.00  0.00     0.224 C 
ATOM      6  O   UNL A   1      29.883  22.982  27.626  1.00  0.00    -0.275 OA
ATOM      7  H   UNL A   1      29.741  25.172  26.799  1.00  0.00     0.163 HD
BRANCH   5   8
ATOM      8  C   UNL A   1      31.656  22.466  26.109  1.00  0.00     0.099 C 
ATOM      9  N   UNL A   1      33.788  23.061  25.255  1.00  0.00    -0.341 N 
ATOM     10  C   UNL A   1      33.100  22.373  24.181  1.00  0.00     0.120 C 
ATOM     11  C   UNL A   1      33.094  22.792  26.508  1.00  0.00     0.133 C 
ATOM     12  C   UNL A   1      31.634  22.439  24.577  1.00  0.00     0.037 C 
BRANCH   9  13
ATOM     13  C   UNL A   1      35.070  23.571  25.281  1.00  0.00     0.228 C 
ATOM     14  O   UNL A   1      35.234  24.766  25.548  1.00  0.00    -0.274 OA
BRANCH  13  15
ATOM     15  C   UNL A   1      36.245  22.731  24.706  1.00  0.00     0.047 C 
ATOM     16  C   UNL A   1      36.526  22.901  23.210  1.00  0.00     0.022 C 
ATOM     17  C   UNL A   1      36.045  21.228  25.016  1.00  0.00     0.016 C 
ATOM     18  C   UNL A   1      37.503  23.028  25.546  1.00  0.00     0.016 C 
ATOM     19  C   UNL A   1      37.450  20.632  25.095  1.00  0.00     0.001 C 
ATOM     20  C   UNL A   1      38.372  21.777  25.492  1.00  0.00     0.001 C 
ENDBRANCH  13  15
ENDBRANCH   9  13
ENDBRANCH   5   8
ENDBRANCH   3   4
ENDBRANCH   2   3
ENDBRANCH   1   2
BRANCH   1  21
ATOM     21  C   UNL A   1      33.261  27.675  25.034  1.00  0.00     0.002 C 
BRANCH  21  22
ATOM     22  C   UNL A   1      33.900  28.856  25.772  1.00  0.00     0.021 C 
BRANCH  22  23
ATOM     23  C   UNL A   1      33.577  28.934  27.262  1.00  0.00     0.116 C 
BRANCH  23  24
ATOM     24  N   UNL A   1      33.677  30.290  27.778  1.00  0.00    -0.352 N 
ATOM     25  C   UNL A   1      34.698  30.894  28.467  1.00  0.00     0.251 C 
ATOM     26  H   UNL A   1      32.893  30.861  27.608  1.00  0.00     0.163 HD
ATOM     27  O   UNL A   1      34.527  31.993  28.990  1.00  0.00    -0.269 OA
BRANCH  25  28
ATOM     28  C   UNL A   1      36.002  30.212  28.605  1.00  0.00     0.039 A 
ATOM     29  C   UNL A   1      36.898  30.247  27.533  1.00  0.00     0.014 A 
ATOM     30  C   UNL A   1      36.345  29.551  29.787  1.00  0.00     0.014 A 
ATOM     31  C   UNL A   1      38.173  29.697  27.680  1.00  0.00     0.010 A 
ATOM     32  C   UNL A   1      37.638  29.062  29.955  1.00  0.00     0.010 A 
ATOM     33  C   UNL A   1      38.571  29.148  28.910  1.00  0.00    -0.014 A 
BRANCH  33  34
ATOM     34  C   UNL A   1      39.975  28.727  29.141  1.00  0.00     0.031 A 
ATOM     35  C   UNL A   1      40.983  29.683  29.712  1.00  0.00     0.074 A 
ATOM     36  C   UNL A   1      40.358  27.490  28.764  1.00  0.00     0.049 A 
ATOM     37  N   UNL A   1      42.262  29.502  29.921  1.00  0.00    -0.248 NA
ATOM     38  C   UNL A   1      40.496  31.023  30.075  1.00  0.00     0.031 C 
ATOM     39  C   UNL A   1      39.484  26.481  28.161  1.00  0.00     0.029 A 
ATOM     40  N   UNL A   1      41.584  26.875  28.821  1.00  0.00    -0.354 N 
ATOM     41  C   UNL A   1      42.735  30.703  30.437  1.00  0.00     0.074 A 
ATOM     42  C   UNL A   1      41.615  31.620  30.461  1.00  0.00     0.031 C 
ATOM     43  C   UNL A   1      40.196  25.367  27.926  1.00  0.00     0.029 A 
ATOM     44  C   UNL A   1      41.583  25.598  28.313  1.00  0.00     0.049 A 
ATOM     45  H   UNL A   1      42.387  27.308  29.191  1.00  0.00     0.167 HD
ATOM     46  C   UNL A   1      43.983  31.007  30.865  1.00  0.00     0.031 A 
ATOM     47  C   UNL A   1      42.587  24.716  28.159  1.00  0.00     0.031 A 
ATOM     48  C   UNL A   1      45.099  30.097  30.829  1.00  0.00     0.049 A 
ATOM     49  C   UNL A   1      43.972  25.097  28.597  1.00  0.00     0.074 A 
ATOM     50  C   UNL A   1      46.390  30.299  31.286  1.00  0.00     0.029 A 
ATOM     51  N   UNL A   1      45.059  28.818  30.296  1.00  0.00    -0.354 N 
ATOM     52  N   UNL A   1      44.385  26.211  29.153  1.00  0.00    -0.248 NA
ATOM     53  C   UNL A   1      45.030  24.098  28.390  1.00  0.00     0.031 C 
ATOM     54  C   UNL A   1      47.148  29.167  30.970  1.00  0.00     0.029 A 
ATOM     55  C   UNL A   1      46.313  28.235  30.375  1.00  0.00     0.049 A 
ATOM     56  H   UNL A   1      44.259  28.388  29.917  1.00  0.00     0.167 HD
ATOM     57  C   UNL A   1      45.745  26.040  29.376  1.00  0.00     0.074 A 
ATOM     58  C   UNL A   1      46.081  24.706  28.922  1.00  0.00     0.031 C 
ATOM     59  C   UNL A   1      46.637  26.912  29.906  1.00  0.00     0.031 A 
BRANCH  46  60
ATOM     60  C   UNL A   1      44.214  32.395  31.399  1.00  0.00    -0.014 A 
ATOM     61  C   UNL A   1      44.590  33.448  30.550  1.00  0.00     0.009 A 
ATOM     62  C   UNL A   1      44.004  32.665  32.761  1.00  0.00     0.009 A 
ATOM     63  C   UNL A   1      44.787  34.734  31.060  1.00  0.00     0.001 A 
ATOM     64  C   UNL A   1      44.172  33.957  33.262  1.00  0.00     0.001 A 
ATOM     65  C   UNL A   1      44.571  34.988  32.414  1.00  0.00     0.000 A 
ENDBRANCH  46  60
BRANCH  47  66
ATOM     66  C   UNL A   1      42.323  23.387  27.546  1.00  0.00    -0.014 A 
ATOM     67  C   UNL A   1      42.510  23.184  26.170  1.00  0.00     0.009 A 
ATOM     68  C   UNL A   1      41.872  22.316  28.333  1.00  0.00     0.009 A 
ATOM     69  C   UNL A   1      42.225  21.944  25.592  1.00  0.00     0.001 A 
ATOM     70  C   UNL A   1      41.620  21.068  27.759  1.00  0.00     0.001 A 
ATOM     71  C   UNL A   1      41.787  20.886  26.388  1.00  0.00     0.000 A 
ENDBRANCH  47  66
BRANCH  59  72
ATOM     72  C   UNL A   1      48.061  26.445  30.031  1.00  0.00    -0.014 A 
ATOM     73  C   UNL A   1      48.503  25.758  31.173  1.00  0.00     0.009 A 
ATOM     74  C   UNL A   1      48.964  26.665  28.979  1.00  0.00     0.009 A 
ATOM     75  C   UNL A   1      49.828  25.329  31.271  1.00  0.00     0.001 A 
ATOM     76  C   UNL A   1      50.279  26.206  29.066  1.00  0.00     0.001 A 
ATOM     77  C   UNL A   1      50.713  25.549  30.216  1.00  0.00     0.000 A 
ENDBRANCH  59  72
ENDBRANCH  33  34
ENDBRANCH  25  28
ENDBRANCH  23  24
ENDBRANCH  22  23
ENDBRANCH  21  22
ENDBRANCH   1  21
TORSDOF 15
ENDMDL
MODEL 3
REMARK VINA RESULT:     -10.0      2.172      3.335
REMARK SMILES CC1(C(=O)N2CC[C@H](C(=O)NCCCCCCNC(=O)c3ccc(-c4c5nc(c(-c6ccccc6)c6ccc([nH]6)c(-c6ccccc6)c6nc(c(-c7ccccc7)c7ccc4[nH]7)C=C6)C=C5)cc3)C2)CCCC1
REMARK SMILES IDX 14 1 13 2 12 3 11 4 9 5 10 6 8 8 5 9 6 10 69 11 7 12 3 13
REMARK SMILES IDX 4 14 2 15 1 16 70 17 73 18 71 19 72 20 15 21 16 22 17 23
REMARK SMILES IDX 18 24 19 25 20 27 21 28 22 29 68 30 23 31 67 32 24 33 25 34
REMARK SMILES IDX 26 35 61 36 27 37 66 38 60 39 62 40 28 41 65 42 59 43 58 44
REMARK SMILES IDX 29 46 51 47 36 48 50 49 37 50 40 51 49 52 63 53 38 54 39 55
REMARK SMILES IDX 48 57 64 58 41 59 30 60 31 61 35 62 32 63 34 64 33 65 52 66
REMARK SMILES IDX 53 67 57 68 54 69 56 70 55 71 42 72 43 73 47 74 44 75 46 76
REMARK SMILES IDX 45 77
REMARK H PARENT 11 7 18 26 62 45 40 56
REMARK Flexibility Score: inf
ROOT
ATOM      1  C   UNL A   1      34.910  20.188  25.002  1.00  0.00     0.002 C 
ENDROOT
BRANCH   1   2
ATOM      2  C   UNL A   1      33.680  20.541  25.842  1.00  0.00     0.021 C 
BRANCH   2   3
ATOM      3  C   UNL A   1      33.954  21.509  26.989  1.00  0.00     0.116 C 
BRANCH   3   4
ATOM      4  N   UNL A   1      32.760  22.205  27.420  1.00  0.00    -0.356 N 
ATOM      5  C   UNL A   1      32.009  23.151  26.793  1.00  0.00     0.224 C 
ATOM      6  O   UNL A   1      31.022  23.580  27.396  1.00  0.00    -0.275 OA
ATOM      7  H   UNL A   1      32.438  21.952  28.315  1.00  0.00     0.163 HD
BRANCH   5   8
ATOM      8  C   UNL A   1      32.350  23.695  25.413  1.00  0.00     0.099 C 
ATOM      9  N   UNL A   1      32.382  25.970  24.739  1.00  0.00    -0.341 N 
ATOM     10  C   UNL A   1      31.493  25.288  23.820  1.00  0.00     0.120 C 
ATOM     11  C   UNL A   1      33.181  24.977  25.446  1.00  0.00     0.133 C 
ATOM     12  C   UNL A   1      31.128  24.002  24.542  1.00  0.00     0.037 C 
BRANCH   9  13
ATOM     13  C   UNL A   1      32.772  27.293  24.753  1.00  0.00     0.228 C 
ATOM     14  O   UNL A   1      33.682  27.659  24.002  1.00  0.00    -0.274 OA
BRANCH  13  15
ATOM     15  C   UNL A   1      32.274  28.229  25.891  1.00  0.00     0.047 C 
ATOM     16  C   UNL A   1      31.308  27.607  26.902  1.00  0.00     0.022 C 
ATOM     17  C   UNL A   1      31.638  29.512  25.304  1.00  0.00     0.016 C 
ATOM     18  C   UNL A   1      33.510  28.824  26.597  1.00  0.00     0.016 C 
ATOM     19  C   UNL A   1      31.855  30.600  26.356  1.00  0.00     0.001 C 
ATOM     20  C   UNL A   1      33.090  30.184  27.144  1.00  0.00     0.001 C 
ENDBRANCH  13  15
ENDBRANCH   9  13
ENDBRANCH   5   8
ENDBRANCH   3   4
ENDBRANCH   2   3
ENDBRANCH   1   2
BRANCH   1  21
ATOM     21  C   UNL A   1      36.124  21.099  25.210  1.00  0.00     0.002 C 
BRANCH  21  22
ATOM     22  C   UNL A   1      37.469  20.517  24.766  1.00  0.00     0.021 C 
BRANCH  22  23
ATOM     23  C   UNL A   1      38.648  20.853  25.676  1.00  0.00     0.116 C 
BRANCH  23  24
ATOM     24  N   UNL A   1      39.635  19.785  25.719  1.00  0.00    -0.352 N 
ATOM     25  C   UNL A   1      40.970  19.835  26.028  1.00  0.00     0.251 C 
ATOM     26  H   UNL A   1      39.292  18.890  25.492  1.00  0.00     0.163 HD
ATOM     27  O   UNL A   1      41.689  18.859  25.825  1.00  0.00    -0.269 OA
BRANCH  25  28
ATOM     28  C   UNL A   1      41.556  21.074  26.581  1.00  0.00     0.039 A 
ATOM     29  C   UNL A   1      42.122  22.002  25.704  1.00  0.00     0.014 A 
ATOM     30  C   UNL A   1      41.536  21.326  27.955  1.00  0.00     0.014 A 
ATOM     31  C   UNL A   1      42.589  23.222  26.195  1.00  0.00     0.010 A 
ATOM     32  C   UNL A   1      41.941  22.569  28.436  1.00  0.00     0.010 A 
ATOM     33  C   UNL A   1      42.453  23.536  27.558  1.00  0.00    -0.014 A 
BRANCH  33  34
ATOM     34  C   UNL A   1      42.773  24.895  28.065  1.00  0.00     0.031 A 
ATOM     35  C   UNL A   1      44.172  25.254  28.479  1.00  0.00     0.074 A 
ATOM     36  C   UNL A   1      41.775  25.787  28.219  1.00  0.00     0.049 A 
ATOM     37  N   UNL A   1      44.614  26.370  28.999  1.00  0.00    -0.248 NA
ATOM     38  C   UNL A   1      45.203  24.218  28.305  1.00  0.00     0.031 C 
ATOM     39  C   UNL A   1      40.367  25.547  27.891  1.00  0.00     0.029 A 
ATOM     40  N   UNL A   1      41.788  27.072  28.702  1.00  0.00    -0.354 N 
ATOM     41  C   UNL A   1      45.972  26.173  29.219  1.00  0.00     0.074 A 
ATOM     42  C   UNL A   1      46.269  24.813  28.821  1.00  0.00     0.031 C 
ATOM     43  C   UNL A   1      39.659  26.655  28.160  1.00  0.00     0.029 A 
ATOM     44  C   UNL A   1      40.548  27.664  28.725  1.00  0.00     0.049 A 
ATOM     45  H   UNL A   1      42.608  27.526  29.003  1.00  0.00     0.167 HD
ATOM     46  C   UNL A   1      46.889  27.050  29.693  1.00  0.00     0.031 A 
ATOM     47  C   UNL A   1      40.163  28.875  29.166  1.00  0.00     0.031 A 
ATOM     48  C   UNL A   1      46.590  28.398  30.099  1.00  0.00     0.049 A 
ATOM     49  C   UNL A   1      41.193  29.810  29.733  1.00  0.00     0.074 A 
ATOM     50  C   UNL A   1      47.461  29.376  30.546  1.00  0.00     0.029 A 
ATOM     51  N   UNL A   1      45.320  28.955  30.119  1.00  0.00    -0.354 N 
ATOM     52  N   UNL A   1      42.486  29.634  29.863  1.00  0.00    -0.248 NA
ATOM     53  C   UNL A   1      40.711  31.114  30.212  1.00  0.00     0.031 C 
ATOM     54  C   UNL A   1      46.710  30.503  30.899  1.00  0.00     0.029 A 
ATOM     55  C   UNL A   1      45.380  30.249  30.610  1.00  0.00     0.049 A 
ATOM     56  H   UNL A   1      44.498  28.498  29.828  1.00  0.00     0.167 HD
ATOM     57  C   UNL A   1      42.973  30.808  30.422  1.00  0.00     0.074 A 
ATOM     58  C   UNL A   1      41.842  31.699  30.580  1.00  0.00     0.031 C 
ATOM     59  C   UNL A   1      44.244  31.119  30.777  1.00  0.00     0.031 A 
BRANCH  46  60
ATOM     60  C   UNL A   1      48.310  26.570  29.813  1.00  0.00    -0.014 A 
ATOM     61  C   UNL A   1      48.758  25.902  30.965  1.00  0.00     0.009 A 
ATOM     62  C   UNL A   1      49.201  26.742  28.741  1.00  0.00     0.009 A 
ATOM     63  C   UNL A   1      50.077  25.450  31.054  1.00  0.00     0.001 A 
ATOM     64  C   UNL A   1      50.510  26.262  28.822  1.00  0.00     0.001 A 
ATOM     65  C   UNL A   1      50.949  25.626  29.980  1.00  0.00     0.000 A 
ENDBRANCH  46  60
BRANCH  47  66
ATOM     66  C   UNL A   1      38.731  29.270  29.105  1.00  0.00    -0.014 A 
ATOM     67  C   UNL A   1      38.194  29.837  27.939  1.00  0.00     0.009 A 
ATOM     68  C   UNL A   1      37.893  29.088  30.217  1.00  0.00     0.009 A 
ATOM     69  C   UNL A   1      36.856  30.240  27.898  1.00  0.00     0.001 A 
ATOM     70  C   UNL A   1      36.548  29.461  30.162  1.00  0.00     0.001 A 
ATOM     71  C   UNL A   1      36.034  30.045  29.007  1.00  0.00     0.000 A 
ENDBRANCH  47  66
BRANCH  59  72
ATOM     72  C   UNL A   1      44.478  32.484  31.363  1.00  0.00    -0.014 A 
ATOM     73  C   UNL A   1      44.753  33.590  30.543  1.00  0.00     0.009 A 
ATOM     74  C   UNL A   1      44.388  32.673  32.751  1.00  0.00     0.009 A 
ATOM     75  C   UNL A   1      44.964  34.850  31.105  1.00  0.00     0.001 A 
ATOM     76  C   UNL A   1      44.567  33.941  33.307  1.00  0.00     0.001 A 
ATOM     77  C   UNL A   1      44.866  35.026  32.485  1.00  0.00     0.000 A 
ENDBRANCH  59  72
ENDBRANCH  33  34
ENDBRANCH  25  28
ENDBRANCH  23  24
ENDBRANCH  22  23
ENDBRANCH  21  22
ENDBRANCH   1  21
TORSDOF 15
ENDMDL
