MODEL 1
REMARK VINA RESULT:     -11.0      0.000      0.000
REMARK SMILES O=C(COc1cc(-c2ccncc2)nc(Nc2ccccc2Br)n1)NCCCCCCNC(=O)c1ccc(-c2c3nc(c(-c4ccccc4)c4ccc([nH]4)c(-c4ccccc4)c4nc(c(-c5ccccc5)c5ccc2[nH]5)C=C4)C=C3)cc1
REMARK SMILES IDX 27 1 26 2 25 3 1 4 2 5 3 7 4 8 5 9 6 10 24 11 7 12 15 13
REMARK SMILES IDX 14 14 8 15 9 16 13 17 10 18 12 19 11 20 16 21 17 23 18 24
REMARK SMILES IDX 22 25 19 26 21 27 23 28 20 29 28 30 29 31 30 32 31 33 32 34
REMARK SMILES IDX 33 35 34 37 35 38 36 39 82 40 37 41 81 42 38 43 39 44 40 45
REMARK SMILES IDX 75 46 41 47 80 48 74 49 76 50 42 51 79 52 73 53 72 54 43 56
REMARK SMILES IDX 65 57 50 58 64 59 51 60 54 61 63 62 77 63 52 64 53 65 62 67
REMARK SMILES IDX 78 68 55 69 44 70 45 71 49 72 46 73 48 74 47 75 66 76 67 77
REMARK SMILES IDX 71 78 68 79 70 80 69 81 56 82 57 83 61 84 58 85 60 86 59 87
REMARK H PARENT 25 6 16 22 32 36 76 55 54 66
REMARK Flexibility Score: inf
ROOT
ATOM      1  C   UNL A   1      34.531  23.093  22.798  1.00  0.00     0.021 C 
ENDROOT
BRANCH   1   2
ATOM      2  C   UNL A   1      33.239  23.068  21.993  1.00  0.00     0.116 C 
BRANCH   2   3
ATOM      3  N   UNL A   1      32.529  24.329  22.047  1.00  0.00    -0.353 N 
ATOM      4  O   UNL A   1      33.274  25.146  20.030  1.00  0.00    -0.271 OA
ATOM      5  C   UNL A   1      32.529  25.231  21.001  1.00  0.00     0.258 C 
ATOM      6  H   UNL A   1      32.025  24.552  22.863  1.00  0.00     0.163 HD
BRANCH   5   7
ATOM      7  C   UNL A   1      31.459  26.321  21.128  1.00  0.00     0.331 C 
BRANCH   7   8
ATOM      8  O   UNL A   1      30.784  26.334  22.385  1.00  0.00    -0.467 OA
BRANCH   8   9
ATOM      9  C   UNL A   1      30.730  27.573  22.973  1.00  0.00     0.219 A 
ATOM     10  C   UNL A   1      30.068  28.622  22.396  1.00  0.00     0.097 A 
ATOM     11  N   UNL A   1      31.215  27.628  24.214  1.00  0.00    -0.177 NA
ATOM     12  C   UNL A   1      29.910  29.752  23.164  1.00  0.00     0.080 A 
ATOM     13  C   UNL A   1      31.066  28.781  24.889  1.00  0.00     0.231 A 
ATOM     14  N   UNL A   1      30.408  29.852  24.409  1.00  0.00    -0.212 NA
BRANCH  12  15
ATOM     15  C   UNL A   1      29.152  30.887  22.626  1.00  0.00     0.004 A 
ATOM     16  C   UNL A   1      28.628  30.844  21.324  1.00  0.00     0.030 A 
ATOM     17  C   UNL A   1      29.016  32.076  23.346  1.00  0.00     0.030 A 
ATOM     18  C   UNL A   1      28.036  31.979  20.797  1.00  0.00     0.111 A 
ATOM     19  C   UNL A   1      28.411  33.161  22.730  1.00  0.00     0.111 A 
ATOM     20  N   UNL A   1      27.924  33.140  21.470  1.00  0.00    -0.265 NA
ENDBRANCH  12  15
BRANCH  13  21
ATOM     21  N   UNL A   1      31.543  28.883  26.193  1.00  0.00    -0.323 N 
ATOM     22  H   UNL A   1      30.928  28.580  26.900  1.00  0.00     0.170 HD
BRANCH  21  23
ATOM     23  C   UNL A   1      32.785  29.359  26.628  1.00  0.00     0.055 A 
ATOM     24  C   UNL A   1      32.863  30.681  27.097  1.00  0.00     0.027 A 
ATOM     25  C   UNL A   1      33.950  28.569  26.688  1.00  0.00     0.041 A 
ATOM     26  C   UNL A   1      34.049  31.192  27.631  1.00  0.00     0.002 A 
ATOM     27  C   UNL A   1      35.140  29.084  27.217  1.00  0.00     0.018 A 
ATOM     28  Br  UNL A   1      34.028  26.814  25.951  1.00  0.00    -0.049 Br
ATOM     29  C   UNL A   1      35.185  30.391  27.697  1.00  0.00     0.001 A 
ENDBRANCH  21  23
ENDBRANCH  13  21
ENDBRANCH   8   9
ENDBRANCH   7   8
ENDBRANCH   5   7
ENDBRANCH   2   3
ENDBRANCH   1   2
BRANCH   1  30
ATOM     30  C   UNL A   1      34.375  22.643  24.255  1.00  0.00     0.002 C 
BRANCH  30  31
ATOM     31  C   UNL A   1      35.655  22.147  24.936  1.00  0.00     0.002 C 
BRANCH  31  32
ATOM     32  C   UNL A   1      36.872  23.061  24.792  1.00  0.00     0.021 C 
BRANCH  32  33
ATOM     33  C   UNL A   1      37.616  23.356  26.090  1.00  0.00     0.116 C 
BRANCH  33  34
ATOM     34  N   UNL A   1      38.609  22.342  26.410  1.00  0.00    -0.352 N 
ATOM     35  C   UNL A   1      39.909  22.506  26.822  1.00  0.00     0.251 C 
ATOM     36  H   UNL A   1      38.307  21.409  26.321  1.00  0.00     0.163 HD
ATOM     37  O   UNL A   1      40.662  21.539  26.907  1.00  0.00    -0.269 OA
BRANCH  35  38
ATOM     38  C   UNL A   1      40.411  23.860  27.135  1.00  0.00     0.039 A 
ATOM     39  C   UNL A   1      40.266  24.874  26.185  1.00  0.00     0.014 A 
ATOM     40  C   UNL A   1      41.004  24.132  28.371  1.00  0.00     0.014 A 
ATOM     41  C   UNL A   1      40.652  26.180  26.503  1.00  0.00     0.010 A 
ATOM     42  C   UNL A   1      41.321  25.444  28.710  1.00  0.00     0.010 A 
ATOM     43  C   UNL A   1      41.146  26.483  27.782  1.00  0.00    -0.014 A 
BRANCH  43  44
ATOM     44  C   UNL A   1      41.488  27.873  28.176  1.00  0.00     0.031 A 
ATOM     45  C   UNL A   1      42.923  28.327  28.161  1.00  0.00     0.074 A 
ATOM     46  C   UNL A   1      40.524  28.699  28.631  1.00  0.00     0.049 A 
ATOM     47  N   UNL A   1      43.436  29.458  28.575  1.00  0.00    -0.248 NA
ATOM     48  C   UNL A   1      43.916  27.376  27.632  1.00  0.00     0.031 C 
ATOM     49  C   UNL A   1      39.099  28.374  28.726  1.00  0.00     0.029 A 
ATOM     50  N   UNL A   1      40.603  29.982  29.116  1.00  0.00    -0.354 N 
ATOM     51  C   UNL A   1      44.808  29.341  28.388  1.00  0.00     0.074 A 
ATOM     52  C   UNL A   1      45.054  28.020  27.854  1.00  0.00     0.031 C 
ATOM     53  C   UNL A   1      38.437  29.434  29.220  1.00  0.00     0.029 A 
ATOM     54  C   UNL A   1      39.392  30.493  29.523  1.00  0.00     0.049 A 
ATOM     55  H   UNL A   1      41.446  30.487  29.169  1.00  0.00     0.167 HD
ATOM     56  C   UNL A   1      45.775  30.258  28.626  1.00  0.00     0.031 A 
ATOM     57  C   UNL A   1      39.090  31.676  30.094  1.00  0.00     0.031 A 
ATOM     58  C   UNL A   1      45.529  31.583  29.129  1.00  0.00     0.049 A 
ATOM     59  C   UNL A   1      40.191  32.666  30.363  1.00  0.00     0.074 A 
ATOM     60  C   UNL A   1      46.438  32.607  29.330  1.00  0.00     0.029 A 
ATOM     61  N   UNL A   1      44.288  32.065  29.510  1.00  0.00    -0.354 N 
ATOM     62  N   UNL A   1      41.473  32.569  30.104  1.00  0.00    -0.248 NA
ATOM     63  C   UNL A   1      39.802  33.934  30.999  1.00  0.00     0.031 C 
ATOM     64  C   UNL A   1      45.757  33.691  29.889  1.00  0.00     0.029 A 
ATOM     65  C   UNL A   1      44.413  33.362  29.975  1.00  0.00     0.049 A 
ATOM     66  H   UNL A   1      43.444  31.562  29.458  1.00  0.00     0.167 HD
ATOM     67  C   UNL A   1      42.032  33.776  30.505  1.00  0.00     0.074 A 
ATOM     68  C   UNL A   1      40.952  34.593  31.014  1.00  0.00     0.031 C 
ATOM     69  C   UNL A   1      43.326  34.172  30.456  1.00  0.00     0.031 A 
BRANCH  56  70
ATOM     70  C   UNL A   1      47.200  29.864  28.358  1.00  0.00    -0.014 A 
ATOM     71  C   UNL A   1      47.795  30.082  27.106  1.00  0.00     0.009 A 
ATOM     72  C   UNL A   1      47.983  29.342  29.401  1.00  0.00     0.009 A 
ATOM     73  C   UNL A   1      49.139  29.763  26.898  1.00  0.00     0.001 A 
ATOM     74  C   UNL A   1      49.332  29.052  29.198  1.00  0.00     0.001 A 
ATOM     75  C   UNL A   1      49.908  29.258  27.945  1.00  0.00     0.000 A 
ENDBRANCH  56  70
BRANCH  57  76
ATOM     76  C   UNL A   1      37.686  32.004  30.462  1.00  0.00    -0.014 A 
ATOM     77  C   UNL A   1      37.058  31.348  31.533  1.00  0.00     0.009 A 
ATOM     78  C   UNL A   1      36.948  32.934  29.713  1.00  0.00     0.009 A 
ATOM     79  C   UNL A   1      35.710  31.581  31.816  1.00  0.00     0.001 A 
ATOM     80  C   UNL A   1      35.610  33.191  30.021  1.00  0.00     0.001 A 
ATOM     81  C   UNL A   1      34.988  32.503  31.061  1.00  0.00     0.000 A 
ENDBRANCH  57  76
BRANCH  69  82
ATOM     82  C   UNL A   1      43.642  35.572  30.905  1.00  0.00    -0.014 A 
ATOM     83  C   UNL A   1      43.979  35.857  32.236  1.00  0.00     0.009 A 
ATOM     84  C   UNL A   1      43.659  36.611  29.959  1.00  0.00     0.009 A 
ATOM     85  C   UNL A   1      44.297  37.162  32.617  1.00  0.00     0.001 A 
ATOM     86  C   UNL A   1      44.008  37.906  30.337  1.00  0.00     0.001 A 
ATOM     87  C   UNL A   1      44.318  38.183  31.667  1.00  0.00     0.000 A 
ENDBRANCH  69  82
ENDBRANCH  43  44
ENDBRANCH  35  38
ENDBRANCH  33  34
ENDBRANCH  32  33
ENDBRANCH  31  32
ENDBRANCH  30  31
ENDBRANCH   1  30
TORSDOF 18
ENDMDL
MODEL 2
REMARK VINA RESULT:     -10.9      3.533      6.856
REMARK SMILES O=C(COc1cc(-c2ccncc2)nc(Nc2ccccc2Br)n1)NCCCCCCNC(=O)c1ccc(-c2c3nc(c(-c4ccccc4)c4ccc([nH]4)c(-c4ccccc4)c4nc(c(-c5ccccc5)c5ccc2[nH]5)C=C4)C=C3)cc1
REMARK SMILES IDX 27 1 26 2 25 3 1 4 2 5 3 7 4 8 5 9 6 10 24 11 7 12 15 13
REMARK SMILES IDX 14 14 8 15 9 16 13 17 10 18 12 19 11 20 16 21 17 23 18 24
REMARK SMILES IDX 22 25 19 26 21 27 23 28 20 29 28 30 29 31 30 32 31 33 32 34
REMARK SMILES IDX 33 35 34 37 35 38 36 39 82 40 37 41 81 42 38 43 39 44 40 45
REMARK SMILES IDX 75 46 41 47 80 48 74 49 76 50 42 51 79 52 73 53 72 54 43 56
REMARK SMILES IDX 65 57 50 58 64 59 51 60 54 61 63 62 77 63 52 64 53 65 62 67
REMARK SMILES IDX 78 68 55 69 44 70 45 71 49 72 46 73 48 74 47 75 66 76 67 77
REMARK SMILES IDX 71 78 68 79 70 80 69 81 56 82 57 83 61 84 58 85 60 86 59 87
REMARK H PARENT 25 6 16 22 32 36 76 55 54 66
REMARK Flexibility Score: inf
ROOT
ATOM      1  C   UNL A   1      40.014  22.364  27.044  1.00  0.00     0.021 C 
ENDROOT
BRANCH   1   2
ATOM      2  C   UNL A   1      39.305  23.631  26.584  1.00  0.00     0.116 C 
BRANCH   2   3
ATOM      3  N   UNL A   1      37.890  23.616  26.894  1.00  0.00    -0.353 N 
ATOM      4  O   UNL A   1      37.135  23.675  24.723  1.00  0.00    -0.271 OA
ATOM      5  C   UNL A   1      36.914  23.539  25.921  1.00  0.00     0.258 C 
ATOM      6  H   UNL A   1      37.614  23.664  27.838  1.00  0.00     0.163 HD
BRANCH   5   7
ATOM      7  C   UNL A   1      35.524  23.198  26.470  1.00  0.00     0.331 C 
BRANCH   7   8
ATOM      8  O   UNL A   1      34.461  23.939  25.871  1.00  0.00    -0.467 OA
BRANCH   8   9
ATOM      9  C   UNL A   1      33.703  23.208  24.990  1.00  0.00     0.219 A 
ATOM     10  C   UNL A   1      33.801  21.847  24.904  1.00  0.00     0.097 A 
ATOM     11  N   UNL A   1      32.752  23.899  24.359  1.00  0.00    -0.177 NA
ATOM     12  C   UNL A   1      32.858  21.206  24.135  1.00  0.00     0.080 A 
ATOM     13  C   UNL A   1      31.893  23.211  23.587  1.00  0.00     0.231 A 
ATOM     14  N   UNL A   1      31.902  21.872  23.464  1.00  0.00    -0.212 NA
BRANCH  12  15
ATOM     15  C   UNL A   1      32.870  19.741  24.055  1.00  0.00     0.004 A 
ATOM     16  C   UNL A   1      32.464  19.086  22.881  1.00  0.00     0.030 A 
ATOM     17  C   UNL A   1      33.183  18.955  25.166  1.00  0.00     0.030 A 
ATOM     18  C   UNL A   1      32.357  17.706  22.880  1.00  0.00     0.111 A 
ATOM     19  C   UNL A   1      33.041  17.579  25.069  1.00  0.00     0.111 A 
ATOM     20  N   UNL A   1      32.629  16.939  23.953  1.00  0.00    -0.265 NA
ENDBRANCH  12  15
BRANCH  13  21
ATOM     21  N   UNL A   1      30.875  23.887  22.920  1.00  0.00    -0.323 N 
ATOM     22  H   UNL A   1      30.285  23.331  22.361  1.00  0.00     0.170 HD
BRANCH  21  23
ATOM     23  C   UNL A   1      30.581  25.255  22.943  1.00  0.00     0.055 A 
ATOM     24  C   UNL A   1      29.576  25.704  23.816  1.00  0.00     0.027 A 
ATOM     25  C   UNL A   1      31.282  26.219  22.192  1.00  0.00     0.041 A 
ATOM     26  C   UNL A   1      29.296  27.067  23.958  1.00  0.00     0.002 A 
ATOM     27  C   UNL A   1      30.996  27.583  22.330  1.00  0.00     0.018 A 
ATOM     28  Br  UNL A   1      32.562  25.742  20.864  1.00  0.00    -0.049 Br
ATOM     29  C   UNL A   1      30.010  28.006  23.219  1.00  0.00     0.001 A 
ENDBRANCH  21  23
ENDBRANCH  13  21
ENDBRANCH   8   9
ENDBRANCH   7   8
ENDBRANCH   5   7
ENDBRANCH   2   3
ENDBRANCH   1   2
BRANCH   1  30
ATOM     30  C   UNL A   1      41.050  21.826  26.050  1.00  0.00     0.002 C 
BRANCH  30  31
ATOM     31  C   UNL A   1      42.148  20.942  26.652  1.00  0.00     0.002 C 
BRANCH  31  32
ATOM     32  C   UNL A   1      42.223  19.519  26.096  1.00  0.00     0.021 C 
BRANCH  32  33
ATOM     33  C   UNL A   1      43.597  18.863  26.185  1.00  0.00     0.116 C 
BRANCH  33  34
ATOM     34  N   UNL A   1      44.158  18.559  24.877  1.00  0.00    -0.352 N 
ATOM     35  C   UNL A   1      44.753  19.407  23.973  1.00  0.00     0.251 C 
ATOM     36  H   UNL A   1      44.107  17.615  24.603  1.00  0.00     0.163 HD
ATOM     37  O   UNL A   1      45.041  19.012  22.847  1.00  0.00    -0.269 OA
BRANCH  35  38
ATOM     38  C   UNL A   1      45.017  20.810  24.354  1.00  0.00     0.039 A 
ATOM     39  C   UNL A   1      44.471  21.837  23.581  1.00  0.00     0.014 A 
ATOM     40  C   UNL A   1      45.786  21.110  25.481  1.00  0.00     0.014 A 
ATOM     41  C   UNL A   1      44.635  23.167  23.981  1.00  0.00     0.010 A 
ATOM     42  C   UNL A   1      45.888  22.427  25.916  1.00  0.00     0.010 A 
ATOM     43  C   UNL A   1      45.312  23.470  25.173  1.00  0.00    -0.014 A 
BRANCH  43  44
ATOM     44  C   UNL A   1      45.434  24.866  25.667  1.00  0.00     0.031 A 
ATOM     45  C   UNL A   1      46.771  25.557  25.645  1.00  0.00     0.074 A 
ATOM     46  C   UNL A   1      44.366  25.480  26.215  1.00  0.00     0.049 A 
ATOM     47  N   UNL A   1      47.106  26.725  26.133  1.00  0.00    -0.248 NA
ATOM     48  C   UNL A   1      47.885  24.830  25.013  1.00  0.00     0.031 C 
ATOM     49  C   UNL A   1      43.020  24.913  26.326  1.00  0.00     0.029 A 
ATOM     50  N   UNL A   1      44.250  26.719  26.798  1.00  0.00    -0.354 N 
ATOM     51  C   UNL A   1      48.468  26.856  25.895  1.00  0.00     0.074 A 
ATOM     52  C   UNL A   1      48.908  25.639  25.251  1.00  0.00     0.031 C 
ATOM     53  C   UNL A   1      42.213  25.805  26.922  1.00  0.00     0.029 A 
ATOM     54  C   UNL A   1      42.990  26.986  27.280  1.00  0.00     0.049 A 
ATOM     55  H   UNL A   1      44.999  27.354  26.866  1.00  0.00     0.167 HD
ATOM     56  C   UNL A   1      49.278  27.904  26.178  1.00  0.00     0.031 A 
ATOM     57  C   UNL A   1      42.520  28.056  27.952  1.00  0.00     0.031 A 
ATOM     58  C   UNL A   1      48.837  29.127  26.791  1.00  0.00     0.049 A 
ATOM     59  C   UNL A   1      43.451  29.195  28.266  1.00  0.00     0.074 A 
ATOM     60  C   UNL A   1      49.570  30.273  27.046  1.00  0.00     0.029 A 
ATOM     61  N   UNL A   1      47.550  29.362  27.246  1.00  0.00    -0.354 N 
ATOM     62  N   UNL A   1      44.718  29.336  27.962  1.00  0.00    -0.248 NA
ATOM     63  C   UNL A   1      42.883  30.329  29.012  1.00  0.00     0.031 C 
ATOM     64  C   UNL A   1      48.742  31.182  27.710  1.00  0.00     0.029 A 
ATOM     65  C   UNL A   1      47.477  30.625  27.809  1.00  0.00     0.049 A 
ATOM     66  H   UNL A   1      46.800  28.729  27.180  1.00  0.00     0.167 HD
ATOM     67  C   UNL A   1      45.084  30.588  28.442  1.00  0.00     0.074 A 
ATOM     68  C   UNL A   1      43.906  31.170  29.046  1.00  0.00     0.031 C 
ATOM     69  C   UNL A   1      46.291  31.201  28.386  1.00  0.00     0.031 A 
BRANCH  56  70
ATOM     70  C   UNL A   1      50.737  27.778  25.837  1.00  0.00    -0.014 A 
ATOM     71  C   UNL A   1      51.233  28.190  24.590  1.00  0.00     0.009 A 
ATOM     72  C   UNL A   1      51.639  27.317  26.810  1.00  0.00     0.009 A 
ATOM     73  C   UNL A   1      52.601  28.120  24.318  1.00  0.00     0.001 A 
ATOM     74  C   UNL A   1      53.008  27.275  26.544  1.00  0.00     0.001 A 
ATOM     75  C   UNL A   1      53.487  27.672  25.296  1.00  0.00     0.000 A 
ENDBRANCH  56  70
BRANCH  57  76
ATOM     76  C   UNL A   1      41.097  28.113  28.387  1.00  0.00    -0.014 A 
ATOM     77  C   UNL A   1      40.690  27.490  29.578  1.00  0.00     0.009 A 
ATOM     78  C   UNL A   1      40.129  28.741  27.589  1.00  0.00     0.009 A 
ATOM     79  C   UNL A   1      39.341  27.456  29.936  1.00  0.00     0.001 A 
ATOM     80  C   UNL A   1      38.785  28.736  27.967  1.00  0.00     0.001 A 
ATOM     81  C   UNL A   1      38.389  28.080  29.132  1.00  0.00     0.000 A 
ENDBRANCH  57  76
BRANCH  69  82
ATOM     82  C   UNL A   1      46.388  32.596  28.935  1.00  0.00    -0.014 A 
ATOM     83  C   UNL A   1      46.808  32.840  30.251  1.00  0.00     0.009 A 
ATOM     84  C   UNL A   1      46.109  33.688  28.095  1.00  0.00     0.009 A 
ATOM     85  C   UNL A   1      46.917  34.148  30.724  1.00  0.00     0.001 A 
ATOM     86  C   UNL A   1      46.251  34.994  28.561  1.00  0.00     0.001 A 
ATOM     87  C   UNL A   1      46.645  35.224  29.878  1.00  0.00     0.000 A 
ENDBRANCH  69  82
ENDBRANCH  43  44
ENDBRANCH  35  38
ENDBRANCH  33  34
ENDBRANCH  32  33
ENDBRANCH  31  32
ENDBRANCH  30  31
ENDBRANCH   1  30
TORSDOF 18
ENDMDL
MODEL 3
REMARK VINA RESULT:     -10.8      4.037      8.580
REMARK SMILES O=C(COc1cc(-c2ccncc2)nc(Nc2ccccc2Br)n1)NCCCCCCNC(=O)c1ccc(-c2c3nc(c(-c4ccccc4)c4ccc([nH]4)c(-c4ccccc4)c4nc(c(-c5ccccc5)c5ccc2[nH]5)C=C4)C=C3)cc1
REMARK SMILES IDX 27 1 26 2 25 3 1 4 2 5 3 7 4 8 5 9 6 10 24 11 7 12 15 13
REMARK SMILES IDX 14 14 8 15 9 16 13 17 10 18 12 19 11 20 16 21 17 23 18 24
REMARK SMILES IDX 22 25 19 26 21 27 23 28 20 29 28 30 29 31 30 32 31 33 32 34
REMARK SMILES IDX 33 35 34 37 35 38 36 39 82 40 37 41 81 42 38 43 39 44 40 45
REMARK SMILES IDX 75 46 41 47 80 48 74 49 76 50 42 51 79 52 73 53 72 54 43 56
REMARK SMILES IDX 65 57 50 58 64 59 51 60 54 61 63 62 77 63 52 64 53 65 62 67
REMARK SMILES IDX 78 68 55 69 44 70 45 71 49 72 46 73 48 74 47 75 66 76 67 77
REMARK SMILES IDX 71 78 68 79 70 80 69 81 56 82 57 83 61 84 58 85 60 86 59 87
REMARK H PARENT 25 6 16 22 32 36 76 55 54 66
REMARK Flexibility Score: inf
ROOT
ATOM      1  C   UNL A   1      31.608  27.574  24.359  1.00  0.00     0.021 C 
ENDROOT
BRANCH   1   2
ATOM      2  C   UNL A   1      30.487  26.549  24.254  1.00  0.00     0.116 C 
BRANCH   2   3
ATOM      3  N   UNL A   1      30.707  25.399  25.107  1.00  0.00    -0.353 N 
ATOM      4  O   UNL A   1      30.655  23.813  23.441  1.00  0.00    -0.271 OA
ATOM      5  C   UNL A   1      30.873  24.122  24.608  1.00  0.00     0.258 C 
ATOM      6  H   UNL A   1      30.740  25.534  26.081  1.00  0.00     0.163 HD
BRANCH   5   7
ATOM      7  C   UNL A   1      31.423  23.127  25.636  1.00  0.00     0.331 C 
BRANCH   7   8
ATOM      8  O   UNL A   1      31.230  21.757  25.286  1.00  0.00    -0.467 OA
BRANCH   8   9
ATOM      9  C   UNL A   1      32.394  21.035  25.202  1.00  0.00     0.219 A 
ATOM     10  C   UNL A   1      32.409  19.670  25.292  1.00  0.00     0.097 A 
ATOM     11  N   UNL A   1      33.471  21.742  24.857  1.00  0.00    -0.177 NA
ATOM     12  C   UNL A   1      33.596  19.043  24.996  1.00  0.00     0.080 A 
ATOM     13  C   UNL A   1      34.610  21.066  24.628  1.00  0.00     0.231 A 
ATOM     14  N   UNL A   1      34.709  19.725  24.669  1.00  0.00    -0.212 NA
BRANCH  12  15
ATOM     15  C   UNL A   1      33.660  17.577  25.009  1.00  0.00     0.004 A 
ATOM     16  C   UNL A   1      32.529  16.817  25.348  1.00  0.00     0.030 A 
ATOM     17  C   UNL A   1      34.861  16.901  24.789  1.00  0.00     0.030 A 
ATOM     18  C   UNL A   1      32.655  15.445  25.483  1.00  0.00     0.111 A 
ATOM     19  C   UNL A   1      34.888  15.524  24.953  1.00  0.00     0.111 A 
ATOM     20  N   UNL A   1      33.814  14.783  25.301  1.00  0.00    -0.265 NA
ENDBRANCH  12  15
BRANCH  13  21
ATOM     21  N   UNL A   1      35.758  21.758  24.251  1.00  0.00    -0.323 N 
ATOM     22  H   UNL A   1      35.880  21.891  23.283  1.00  0.00     0.170 HD
BRANCH  21  23
ATOM     23  C   UNL A   1      36.758  22.291  25.072  1.00  0.00     0.055 A 
ATOM     24  C   UNL A   1      37.889  21.501  25.340  1.00  0.00     0.027 A 
ATOM     25  C   UNL A   1      36.732  23.602  25.590  1.00  0.00     0.041 A 
ATOM     26  C   UNL A   1      38.966  22.004  26.075  1.00  0.00     0.002 A 
ATOM     27  C   UNL A   1      37.809  24.102  26.331  1.00  0.00     0.018 A 
ATOM     28  Br  UNL A   1      35.204  24.728  25.431  1.00  0.00    -0.049 Br
ATOM     29  C   UNL A   1      38.929  23.306  26.565  1.00  0.00     0.001 A 
ENDBRANCH  21  23
ENDBRANCH  13  21
ENDBRANCH   8   9
ENDBRANCH   7   8
ENDBRANCH   5   7
ENDBRANCH   2   3
ENDBRANCH   1   2
BRANCH   1  30
ATOM     30  C   UNL A   1      32.360  27.551  25.695  1.00  0.00     0.002 C 
BRANCH  30  31
ATOM     31  C   UNL A   1      33.443  28.622  25.864  1.00  0.00     0.002 C 
BRANCH  31  32
ATOM     32  C   UNL A   1      32.967  30.067  25.709  1.00  0.00     0.021 C 
BRANCH  32  33
ATOM     33  C   UNL A   1      32.009  30.551  26.792  1.00  0.00     0.116 C 
BRANCH  33  34
ATOM     34  N   UNL A   1      31.923  32.002  26.857  1.00  0.00    -0.352 N 
ATOM     35  C   UNL A   1      32.788  32.894  27.446  1.00  0.00     0.251 C 
ATOM     36  H   UNL A   1      31.138  32.400  26.417  1.00  0.00     0.163 HD
ATOM     37  O   UNL A   1      32.489  34.081  27.539  1.00  0.00    -0.269 OA
BRANCH  35  38
ATOM     38  C   UNL A   1      34.071  32.411  27.996  1.00  0.00     0.039 A 
ATOM     39  C   UNL A   1      35.189  33.247  27.946  1.00  0.00     0.014 A 
ATOM     40  C   UNL A   1      34.166  31.143  28.577  1.00  0.00     0.014 A 
ATOM     41  C   UNL A   1      36.385  32.840  28.545  1.00  0.00     0.010 A 
ATOM     42  C   UNL A   1      35.334  30.771  29.234  1.00  0.00     0.010 A 
ATOM     43  C   UNL A   1      36.456  31.615  29.228  1.00  0.00    -0.014 A 
BRANCH  43  44
ATOM     44  C   UNL A   1      37.687  31.191  29.942  1.00  0.00     0.031 A 
ATOM     45  C   UNL A   1      38.673  30.278  29.264  1.00  0.00     0.074 A 
ATOM     46  C   UNL A   1      37.876  31.553  31.227  1.00  0.00     0.049 A 
ATOM     47  N   UNL A   1      39.744  29.708  29.756  1.00  0.00    -0.248 NA
ATOM     48  C   UNL A   1      38.409  29.943  27.855  1.00  0.00     0.031 C 
ATOM     49  C   UNL A   1      36.983  32.410  32.012  1.00  0.00     0.029 A 
ATOM     50  N   UNL A   1      38.880  31.230  32.108  1.00  0.00    -0.354 N 
ATOM     51  C   UNL A   1      40.259  28.925  28.730  1.00  0.00     0.074 A 
ATOM     52  C   UNL A   1      39.369  29.065  27.599  1.00  0.00     0.031 C 
ATOM     53  C   UNL A   1      37.487  32.557  33.248  1.00  0.00     0.029 A 
ATOM     54  C   UNL A   1      38.709  31.769  33.362  1.00  0.00     0.049 A 
ATOM     55  H   UNL A   1      39.648  30.664  31.865  1.00  0.00     0.167 HD
ATOM     56  C   UNL A   1      41.381  28.167  28.726  1.00  0.00     0.031 A 
ATOM     57  C   UNL A   1      39.446  31.630  34.481  1.00  0.00     0.031 A 
ATOM     58  C   UNL A   1      42.283  28.050  29.840  1.00  0.00     0.049 A 
ATOM     59  C   UNL A   1      40.678  30.765  34.449  1.00  0.00     0.074 A 
ATOM     60  C   UNL A   1      43.485  27.367  29.903  1.00  0.00     0.029 A 
ATOM     61  N   UNL A   1      42.082  28.627  31.082  1.00  0.00    -0.354 N 
ATOM     62  N   UNL A   1      41.193  30.097  33.446  1.00  0.00    -0.248 NA
ATOM     63  C   UNL A   1      41.434  30.640  35.705  1.00  0.00     0.031 C 
ATOM     64  C   UNL A   1      43.984  27.481  31.203  1.00  0.00     0.029 A 
ATOM     65  C   UNL A   1      43.124  28.289  31.929  1.00  0.00     0.049 A 
ATOM     66  H   UNL A   1      41.315  29.193  31.328  1.00  0.00     0.167 HD
ATOM     67  C   UNL A   1      42.352  29.511  33.939  1.00  0.00     0.074 A 
ATOM     68  C   UNL A   1      42.471  29.909  35.325  1.00  0.00     0.031 C 
ATOM     69  C   UNL A   1      43.240  28.712  33.299  1.00  0.00     0.031 A 
BRANCH  56  70
ATOM     70  C   UNL A   1      41.701  27.389  27.481  1.00  0.00    -0.014 A 
ATOM     71  C   UNL A   1      42.264  28.012  26.356  1.00  0.00     0.009 A 
ATOM     72  C   UNL A   1      41.512  25.998  27.465  1.00  0.00     0.009 A 
ATOM     73  C   UNL A   1      42.610  27.258  25.232  1.00  0.00     0.001 A 
ATOM     74  C   UNL A   1      41.885  25.244  26.351  1.00  0.00     0.001 A 
ATOM     75  C   UNL A   1      42.429  25.876  25.234  1.00  0.00     0.000 A 
ENDBRANCH  56  70
BRANCH  57  76
ATOM     76  C   UNL A   1      39.049  32.314  35.742  1.00  0.00    -0.014 A 
ATOM     77  C   UNL A   1      38.257  31.652  36.694  1.00  0.00     0.009 A 
ATOM     78  C   UNL A   1      39.411  33.650  35.976  1.00  0.00     0.009 A 
ATOM     79  C   UNL A   1      37.799  32.326  37.829  1.00  0.00     0.001 A 
ATOM     80  C   UNL A   1      38.980  34.310  37.129  1.00  0.00     0.001 A 
ATOM     81  C   UNL A   1      38.163  33.653  38.046  1.00  0.00     0.000 A 
ENDBRANCH  57  76
BRANCH  69  82
ATOM     82  C   UNL A   1      44.453  28.266  34.067  1.00  0.00    -0.014 A 
ATOM     83  C   UNL A   1      45.599  29.069  34.160  1.00  0.00     0.009 A 
ATOM     84  C   UNL A   1      44.420  27.044  34.758  1.00  0.00     0.009 A 
ATOM     85  C   UNL A   1      46.700  28.643  34.904  1.00  0.00     0.001 A 
ATOM     86  C   UNL A   1      45.509  26.635  35.528  1.00  0.00     0.001 A 
ATOM     87  C   UNL A   1      46.651  27.430  35.593  1.00  0.00     0.000 A 
ENDBRANCH  69  82
ENDBRANCH  43  44
ENDBRANCH  35  38
ENDBRANCH  33  34
ENDBRANCH  32  33
ENDBRANCH  31  32
ENDBRANCH  30  31
ENDBRANCH   1  30
TORSDOF 18
ENDMDL
