MODEL 1
REMARK VINA RESULT:     -12.0      0.000      0.000
REMARK SMILES Cc1cc(OC(F)(F)F)cc2c1O[C@H](C(F)(F)F)C(C(=O)NCCCCCCNC(=O)c1ccc(-c3c4nc(c(-c5ccccc5)c5ccc([nH]5)c(-c5ccccc5)c5nc(c(-c6ccccc6)c6ccc3[nH]6)C=C5)C=C4)cc1)=C2
REMARK SMILES IDX 25 1 24 2 23 3 22 4 20 5 21 6 19 8 1 9 2 10 3 11 12 12 4 13
REMARK SMILES IDX 11 14 13 15 10 16 80 17 14 18 5 19 6 20 7 21 8 22 9 23 15 24
REMARK SMILES IDX 16 25 17 26 18 27 26 28 27 29 28 30 29 31 30 32 31 34 32 35
REMARK SMILES IDX 33 36 79 37 34 38 78 39 35 40 36 41 37 42 72 43 38 44 77 45
REMARK SMILES IDX 71 46 73 47 39 48 76 49 70 50 69 51 40 53 62 54 47 55 61 56
REMARK SMILES IDX 48 57 51 58 60 59 74 60 49 61 50 62 59 64 75 65 52 66 41 67
REMARK SMILES IDX 42 68 46 69 43 70 45 71 44 72 63 73 64 74 68 75 65 76 67 77
REMARK SMILES IDX 66 78 53 79 54 80 58 81 55 82 57 83 56 84
REMARK H PARENT 22 7 29 33 73 52 51 63
REMARK Flexibility Score: inf
ROOT
ATOM      1  C   UNL A   1      34.468  20.709  24.788  1.00  0.00     0.002 C 
ENDROOT
BRANCH   1   2
ATOM      2  C   UNL A   1      33.028  20.689  25.312  1.00  0.00     0.021 C 
BRANCH   2   3
ATOM      3  C   UNL A   1      32.231  21.949  24.987  1.00  0.00     0.116 C 
BRANCH   3   4
ATOM      4  N   UNL A   1      31.269  22.263  26.028  1.00  0.00    -0.352 N 
ATOM      5  C   UNL A   1      30.698  23.371  26.555  1.00  0.00     0.251 C 
ATOM      6  O   UNL A   1      29.880  23.156  27.455  1.00  0.00    -0.270 OA
ATOM      7  H   UNL A   1      30.942  21.446  26.472  1.00  0.00     0.163 HD
BRANCH   5   8
ATOM      8  C   UNL A   1      30.982  24.777  26.139  1.00  0.00     0.067 C 
ATOM      9  C   UNL A   1      32.531  29.667  25.615  1.00  0.00     0.048 C 
ATOM     10  C   UNL A   1      31.529  28.774  24.937  1.00  0.00    -0.005 A 
ATOM     11  C   UNL A   1      30.757  29.281  23.879  1.00  0.00     0.054 A 
ATOM     12  C   UNL A   1      31.308  27.461  25.369  1.00  0.00     0.131 A 
ATOM     13  C   UNL A   1      29.793  28.487  23.253  1.00  0.00     0.130 A 
ATOM     14  C   UNL A   1      30.353  26.653  24.748  1.00  0.00     0.021 A 
ATOM     15  O   UNL A   1      32.023  27.027  26.447  1.00  0.00    -0.475 OA
ATOM     16  C   UNL A   1      29.602  27.171  23.690  1.00  0.00     0.058 A 
ATOM     17  C   UNL A   1      30.128  25.299  25.238  1.00  0.00     0.025 C 
ATOM     18  C   UNL A   1      32.148  25.591  26.621  1.00  0.00     0.314 C 
BRANCH  13  19
ATOM     19  O   UNL A   1      28.981  28.865  22.222  1.00  0.00    -0.406 OA
BRANCH  19  20
ATOM     20  C   UNL A   1      27.846  29.656  22.532  1.00  0.00     0.573 C 
ATOM     21  F   UNL A   1      27.483  30.422  21.480  1.00  0.00    -0.132 F 
ATOM     22  F   UNL A   1      26.804  28.885  22.910  1.00  0.00    -0.132 F 
ATOM     23  F   UNL A   1      28.157  30.476  23.560  1.00  0.00    -0.132 F 
ENDBRANCH  19  20
ENDBRANCH  13  19
BRANCH  18  24
ATOM     24  C   UNL A   1      33.490  25.130  26.025  1.00  0.00     0.429 C 
ATOM     25  F   UNL A   1      33.323  24.729  24.739  1.00  0.00    -0.167 F 
ATOM     26  F   UNL A   1      34.414  26.118  25.996  1.00  0.00    -0.167 F 
ATOM     27  F   UNL A   1      34.035  24.097  26.704  1.00  0.00    -0.167 F 
ENDBRANCH  18  24
ENDBRANCH   5   8
ENDBRANCH   3   4
ENDBRANCH   2   3
ENDBRANCH   1   2
BRANCH   1  28
ATOM     28  C   UNL A   1      35.380  21.779  25.405  1.00  0.00     0.002 C 
BRANCH  28  29
ATOM     29  C   UNL A   1      35.931  22.821  24.427  1.00  0.00     0.021 C 
BRANCH  29  30
ATOM     30  C   UNL A   1      37.268  23.432  24.838  1.00  0.00     0.116 C 
BRANCH  30  31
ATOM     31  N   UNL A   1      38.178  22.436  25.376  1.00  0.00    -0.352 N 
ATOM     32  C   UNL A   1      39.279  22.625  26.172  1.00  0.00     0.251 C 
ATOM     33  H   UNL A   1      37.977  21.501  25.140  1.00  0.00     0.163 HD
ATOM     34  O   UNL A   1      40.056  21.705  26.405  1.00  0.00    -0.269 OA
BRANCH  32  35
ATOM     35  C   UNL A   1      39.531  23.965  26.732  1.00  0.00     0.039 A 
ATOM     36  C   UNL A   1      39.115  24.242  28.036  1.00  0.00     0.014 A 
ATOM     37  C   UNL A   1      40.207  24.928  25.976  1.00  0.00     0.014 A 
ATOM     38  C   UNL A   1      39.427  25.476  28.605  1.00  0.00     0.010 A 
ATOM     39  C   UNL A   1      40.556  26.141  26.561  1.00  0.00     0.010 A 
ATOM     40  C   UNL A   1      40.170  26.422  27.881  1.00  0.00    -0.014 A 
BRANCH  40  41
ATOM     41  C   UNL A   1      40.551  27.712  28.500  1.00  0.00     0.031 A 
ATOM     42  C   UNL A   1      41.968  27.951  28.933  1.00  0.00     0.074 A 
ATOM     43  C   UNL A   1      39.614  28.661  28.687  1.00  0.00     0.049 A 
ATOM     44  N   UNL A   1      42.491  29.025  29.465  1.00  0.00    -0.248 NA
ATOM     45  C   UNL A   1      42.918  26.840  28.755  1.00  0.00     0.031 C 
ATOM     46  C   UNL A   1      38.199  28.533  28.331  1.00  0.00     0.029 A 
ATOM     47  N   UNL A   1      39.713  29.924  29.211  1.00  0.00    -0.354 N 
ATOM     48  C   UNL A   1      43.828  28.722  29.680  1.00  0.00     0.074 A 
ATOM     49  C   UNL A   1      44.029  27.352  29.266  1.00  0.00     0.031 C 
ATOM     50  C   UNL A   1      37.572  29.686  28.613  1.00  0.00     0.029 A 
ATOM     51  C   UNL A   1      38.532  30.624  29.187  1.00  0.00     0.049 A 
ATOM     52  H   UNL A   1      40.552  30.294  29.571  1.00  0.00     0.167 HD
ATOM     53  C   UNL A   1      44.806  29.525  30.157  1.00  0.00     0.031 A 
ATOM     54  C   UNL A   1      38.257  31.886  29.569  1.00  0.00     0.031 A 
ATOM     55  C   UNL A   1      44.612  30.891  30.556  1.00  0.00     0.049 A 
ATOM     56  C   UNL A   1      39.356  32.750  30.114  1.00  0.00     0.074 A 
ATOM     57  C   UNL A   1      45.555  31.792  31.015  1.00  0.00     0.029 A 
ATOM     58  N   UNL A   1      43.395  31.551  30.539  1.00  0.00    -0.354 N 
ATOM     59  N   UNL A   1      40.624  32.462  30.271  1.00  0.00    -0.248 NA
ATOM     60  C   UNL A   1      38.991  34.114  30.525  1.00  0.00     0.031 C 
ATOM     61  C   UNL A   1      44.904  32.993  31.305  1.00  0.00     0.029 A 
ATOM     62  C   UNL A   1      43.561  32.847  30.992  1.00  0.00     0.049 A 
ATOM     63  H   UNL A   1      42.541  31.158  30.248  1.00  0.00     0.167 HD
ATOM     64  C   UNL A   1      41.214  33.612  30.778  1.00  0.00     0.074 A 
ATOM     65  C   UNL A   1      40.167  34.604  30.902  1.00  0.00     0.031 C 
ATOM     66  C   UNL A   1      42.510  33.823  31.105  1.00  0.00     0.031 A 
BRANCH  53  67
ATOM     67  C   UNL A   1      46.189  28.955  30.252  1.00  0.00    -0.014 A 
ATOM     68  C   UNL A   1      46.605  28.284  31.411  1.00  0.00     0.009 A 
ATOM     69  C   UNL A   1      47.053  29.015  29.148  1.00  0.00     0.009 A 
ATOM     70  C   UNL A   1      47.868  27.693  31.469  1.00  0.00     0.001 A 
ATOM     71  C   UNL A   1      48.308  28.407  29.202  1.00  0.00     0.001 A 
ATOM     72  C   UNL A   1      48.714  27.749  30.363  1.00  0.00     0.000 A 
ENDBRANCH  53  67
BRANCH  54  73
ATOM     73  C   UNL A   1      36.881  32.416  29.395  1.00  0.00    -0.014 A 
ATOM     74  C   UNL A   1      36.510  33.022  28.185  1.00  0.00     0.009 A 
ATOM     75  C   UNL A   1      35.924  32.277  30.412  1.00  0.00     0.009 A 
ATOM     76  C   UNL A   1      35.206  33.486  28.000  1.00  0.00     0.001 A 
ATOM     77  C   UNL A   1      34.617  32.728  30.215  1.00  0.00     0.001 A 
ATOM     78  C   UNL A   1      34.260  33.333  29.012  1.00  0.00     0.000 A 
ENDBRANCH  54  73
BRANCH  66  79
ATOM     79  C   UNL A   1      42.897  35.179  31.614  1.00  0.00    -0.014 A 
ATOM     80  C   UNL A   1      42.805  35.483  32.979  1.00  0.00     0.009 A 
ATOM     81  C   UNL A   1      43.482  36.107  30.739  1.00  0.00     0.009 A 
ATOM     82  C   UNL A   1      43.298  36.698  33.461  1.00  0.00     0.001 A 
ATOM     83  C   UNL A   1      43.989  37.312  31.228  1.00  0.00     0.001 A 
ATOM     84  C   UNL A   1      43.896  37.606  32.587  1.00  0.00     0.000 A 
ENDBRANCH  66  79
ENDBRANCH  40  41
ENDBRANCH  32  35
ENDBRANCH  30  31
ENDBRANCH  29  30
ENDBRANCH  28  29
ENDBRANCH   1  28
TORSDOF 16
ENDMDL
MODEL 2
REMARK VINA RESULT:     -11.9      2.870      8.197
REMARK SMILES Cc1cc(OC(F)(F)F)cc2c1O[C@H](C(F)(F)F)C(C(=O)NCCCCCCNC(=O)c1ccc(-c3c4nc(c(-c5ccccc5)c5ccc([nH]5)c(-c5ccccc5)c5nc(c(-c6ccccc6)c6ccc3[nH]6)C=C5)C=C4)cc1)=C2
REMARK SMILES IDX 25 1 24 2 23 3 22 4 20 5 21 6 19 8 1 9 2 10 3 11 12 12 4 13
REMARK SMILES IDX 11 14 13 15 10 16 80 17 14 18 5 19 6 20 7 21 8 22 9 23 15 24
REMARK SMILES IDX 16 25 17 26 18 27 26 28 27 29 28 30 29 31 30 32 31 34 32 35
REMARK SMILES IDX 33 36 79 37 34 38 78 39 35 40 36 41 37 42 72 43 38 44 77 45
REMARK SMILES IDX 71 46 73 47 39 48 76 49 70 50 69 51 40 53 62 54 47 55 61 56
REMARK SMILES IDX 48 57 51 58 60 59 74 60 49 61 50 62 59 64 75 65 52 66 41 67
REMARK SMILES IDX 42 68 46 69 43 70 45 71 44 72 63 73 64 74 68 75 65 76 67 77
REMARK SMILES IDX 66 78 53 79 54 80 58 81 55 82 57 83 56 84
REMARK H PARENT 22 7 29 33 73 52 51 63
REMARK Flexibility Score: inf
ROOT
ATOM      1  C   UNL A   1      31.130  27.796  24.365  1.00  0.00     0.002 C 
ENDROOT
BRANCH   1   2
ATOM      2  C   UNL A   1      30.180  26.689  24.833  1.00  0.00     0.021 C 
BRANCH   2   3
ATOM      3  C   UNL A   1      30.250  25.415  23.996  1.00  0.00     0.116 C 
BRANCH   3   4
ATOM      4  N   UNL A   1      31.065  25.594  22.808  1.00  0.00    -0.352 N 
ATOM      5  C   UNL A   1      32.224  25.103  22.312  1.00  0.00     0.251 C 
ATOM      6  O   UNL A   1      32.544  25.543  21.204  1.00  0.00    -0.270 OA
ATOM      7  H   UNL A   1      30.664  26.252  22.195  1.00  0.00     0.163 HD
BRANCH   5   8
ATOM      8  C   UNL A   1      33.106  24.105  22.990  1.00  0.00     0.067 C 
ATOM      9  C   UNL A   1      36.923  21.394  25.150  1.00  0.00     0.048 C 
ATOM     10  C   UNL A   1      35.504  21.118  24.736  1.00  0.00    -0.005 A 
ATOM     11  C   UNL A   1      34.964  19.838  24.933  1.00  0.00     0.054 A 
ATOM     12  C   UNL A   1      34.722  22.095  24.107  1.00  0.00     0.131 A 
ATOM     13  C   UNL A   1      33.661  19.541  24.526  1.00  0.00     0.130 A 
ATOM     14  C   UNL A   1      33.416  21.815  23.701  1.00  0.00     0.021 A 
ATOM     15  O   UNL A   1      35.306  23.304  23.864  1.00  0.00    -0.475 OA
ATOM     16  C   UNL A   1      32.891  20.537  23.916  1.00  0.00     0.058 A 
ATOM     17  C   UNL A   1      32.636  22.844  23.025  1.00  0.00     0.025 C 
ATOM     18  C   UNL A   1      34.418  24.432  23.644  1.00  0.00     0.314 C 
BRANCH  13  19
ATOM     19  O   UNL A   1      33.027  18.338  24.658  1.00  0.00    -0.406 OA
BRANCH  19  20
ATOM     20  C   UNL A   1      33.201  17.383  23.625  1.00  0.00     0.573 C 
ATOM     21  F   UNL A   1      32.391  17.645  22.576  1.00  0.00    -0.132 F 
ATOM     22  F   UNL A   1      34.484  17.348  23.206  1.00  0.00    -0.132 F 
ATOM     23  F   UNL A   1      32.883  16.161  24.106  1.00  0.00    -0.132 F 
ENDBRANCH  19  20
ENDBRANCH  13  19
BRANCH  18  24
ATOM     24  C   UNL A   1      34.254  25.204  24.965  1.00  0.00     0.429 C 
ATOM     25  F   UNL A   1      34.211  26.541  24.730  1.00  0.00    -0.167 F 
ATOM     26  F   UNL A   1      33.103  24.898  25.609  1.00  0.00    -0.167 F 
ATOM     27  F   UNL A   1      35.265  24.977  25.831  1.00  0.00    -0.167 F 
ENDBRANCH  18  24
ENDBRANCH   5   8
ENDBRANCH   3   4
ENDBRANCH   2   3
ENDBRANCH   1   2
BRANCH   1  28
ATOM     28  C   UNL A   1      31.650  28.730  25.467  1.00  0.00     0.002 C 
BRANCH  28  29
ATOM     29  C   UNL A   1      32.163  28.038  26.733  1.00  0.00     0.021 C 
BRANCH  29  30
ATOM     30  C   UNL A   1      33.502  28.560  27.243  1.00  0.00     0.116 C 
BRANCH  30  31
ATOM     31  N   UNL A   1      33.444  29.973  27.574  1.00  0.00    -0.352 N 
ATOM     32  C   UNL A   1      34.401  30.751  28.175  1.00  0.00     0.251 C 
ATOM     33  H   UNL A   1      32.607  30.434  27.336  1.00  0.00     0.163 HD
ATOM     34  O   UNL A   1      34.146  31.890  28.553  1.00  0.00    -0.269 OA
BRANCH  32  35
ATOM     35  C   UNL A   1      35.749  30.190  28.381  1.00  0.00     0.039 A 
ATOM     36  C   UNL A   1      36.664  30.225  27.328  1.00  0.00     0.014 A 
ATOM     37  C   UNL A   1      36.108  29.661  29.625  1.00  0.00     0.014 A 
ATOM     38  C   UNL A   1      37.968  29.777  27.540  1.00  0.00     0.010 A 
ATOM     39  C   UNL A   1      37.421  29.256  29.848  1.00  0.00     0.010 A 
ATOM     40  C   UNL A   1      38.360  29.314  28.806  1.00  0.00    -0.014 A 
BRANCH  40  41
ATOM     41  C   UNL A   1      39.757  28.889  29.051  1.00  0.00     0.031 A 
ATOM     42  C   UNL A   1      40.714  29.810  29.750  1.00  0.00     0.074 A 
ATOM     43  C   UNL A   1      40.166  27.678  28.628  1.00  0.00     0.049 A 
ATOM     44  N   UNL A   1      41.963  29.599  30.076  1.00  0.00    -0.248 NA
ATOM     45  C   UNL A   1      40.208  31.141  30.122  1.00  0.00     0.031 C 
ATOM     46  C   UNL A   1      39.334  26.707  27.914  1.00  0.00     0.029 A 
ATOM     47  N   UNL A   1      41.381  27.053  28.746  1.00  0.00    -0.354 N 
ATOM     48  C   UNL A   1      42.390  30.766  30.694  1.00  0.00     0.074 A 
ATOM     49  C   UNL A   1      41.286  31.698  30.658  1.00  0.00     0.031 C 
ATOM     50  C   UNL A   1      40.053  25.594  27.693  1.00  0.00     0.029 A 
ATOM     51  C   UNL A   1      41.398  25.781  28.228  1.00  0.00     0.049 A 
ATOM     52  H   UNL A   1      42.166  27.476  29.164  1.00  0.00     0.167 HD
ATOM     53  C   UNL A   1      43.588  31.025  31.264  1.00  0.00     0.031 A 
ATOM     54  C   UNL A   1      42.382  24.862  28.202  1.00  0.00     0.031 A 
ATOM     55  C   UNL A   1      44.682  30.096  31.313  1.00  0.00     0.049 A 
ATOM     56  C   UNL A   1      43.710  25.183  28.824  1.00  0.00     0.074 A 
ATOM     57  C   UNL A   1      45.921  30.260  31.905  1.00  0.00     0.029 A 
ATOM     58  N   UNL A   1      44.664  28.830  30.753  1.00  0.00    -0.354 N 
ATOM     59  N   UNL A   1      44.083  26.276  29.442  1.00  0.00    -0.248 NA
ATOM     60  C   UNL A   1      44.748  24.144  28.753  1.00  0.00     0.031 C 
ATOM     61  C   UNL A   1      46.668  29.102  31.677  1.00  0.00     0.029 A 
ATOM     62  C   UNL A   1      45.878  28.205  30.975  1.00  0.00     0.049 A 
ATOM     63  H   UNL A   1      43.904  28.433  30.271  1.00  0.00     0.167 HD
ATOM     64  C   UNL A   1      45.390  26.049  29.853  1.00  0.00     0.074 A 
ATOM     65  C   UNL A   1      45.746  24.716  29.416  1.00  0.00     0.031 C 
ATOM     66  C   UNL A   1      46.216  26.876  30.538  1.00  0.00     0.031 A 
BRANCH  53  67
ATOM     67  C   UNL A   1      43.777  32.366  31.907  1.00  0.00    -0.014 A 
ATOM     68  C   UNL A   1      44.219  33.462  31.152  1.00  0.00     0.009 A 
ATOM     69  C   UNL A   1      43.431  32.556  33.253  1.00  0.00     0.009 A 
ATOM     70  C   UNL A   1      44.325  34.725  31.738  1.00  0.00     0.001 A 
ATOM     71  C   UNL A   1      43.519  33.823  33.832  1.00  0.00     0.001 A 
ATOM     72  C   UNL A   1      43.969  34.905  33.074  1.00  0.00     0.000 A 
ENDBRANCH  53  67
BRANCH  54  73
ATOM     73  C   UNL A   1      42.118  23.529  27.605  1.00  0.00    -0.014 A 
ATOM     74  C   UNL A   1      42.461  23.279  26.267  1.00  0.00     0.009 A 
ATOM     75  C   UNL A   1      41.571  22.493  28.376  1.00  0.00     0.009 A 
ATOM     76  C   UNL A   1      42.254  22.015  25.711  1.00  0.00     0.001 A 
ATOM     77  C   UNL A   1      41.382  21.225  27.820  1.00  0.00     0.001 A 
ATOM     78  C   UNL A   1      41.720  20.988  26.489  1.00  0.00     0.000 A 
ENDBRANCH  54  73
BRANCH  66  79
ATOM     79  C   UNL A   1      47.585  26.377  30.884  1.00  0.00    -0.014 A 
ATOM     80  C   UNL A   1      47.829  25.751  32.114  1.00  0.00     0.009 A 
ATOM     81  C   UNL A   1      48.603  26.414  29.917  1.00  0.00     0.009 A 
ATOM     82  C   UNL A   1      49.071  25.167  32.369  1.00  0.00     0.001 A 
ATOM     83  C   UNL A   1      49.836  25.814  30.169  1.00  0.00     0.001 A 
ATOM     84  C   UNL A   1      50.069  25.191  31.394  1.00  0.00     0.000 A 
ENDBRANCH  66  79
ENDBRANCH  40  41
ENDBRANCH  32  35
ENDBRANCH  30  31
ENDBRANCH  29  30
ENDBRANCH  28  29
ENDBRANCH   1  28
TORSDOF 16
ENDMDL
MODEL 3
REMARK VINA RESULT:     -11.8      2.960      8.201
REMARK SMILES Cc1cc(OC(F)(F)F)cc2c1O[C@H](C(F)(F)F)C(C(=O)NCCCCCCNC(=O)c1ccc(-c3c4nc(c(-c5ccccc5)c5ccc([nH]5)c(-c5ccccc5)c5nc(c(-c6ccccc6)c6ccc3[nH]6)C=C5)C=C4)cc1)=C2
REMARK SMILES IDX 25 1 24 2 23 3 22 4 20 5 21 6 19 8 1 9 2 10 3 11 12 12 4 13
REMARK SMILES IDX 11 14 13 15 10 16 80 17 14 18 5 19 6 20 7 21 8 22 9 23 15 24
REMARK SMILES IDX 16 25 17 26 18 27 26 28 27 29 28 30 29 31 30 32 31 34 32 35
REMARK SMILES IDX 33 36 79 37 34 38 78 39 35 40 36 41 37 42 72 43 38 44 77 45
REMARK SMILES IDX 71 46 73 47 39 48 76 49 70 50 69 51 40 53 62 54 47 55 61 56
REMARK SMILES IDX 48 57 51 58 60 59 74 60 49 61 50 62 59 64 75 65 52 66 41 67
REMARK SMILES IDX 42 68 46 69 43 70 45 71 44 72 63 73 64 74 68 75 65 76 67 77
REMARK SMILES IDX 66 78 53 79 54 80 58 81 55 82 57 83 56 84
REMARK H PARENT 22 7 29 33 73 52 51 63
REMARK Flexibility Score: inf
ROOT
ATOM      1  C   UNL A   1      32.617  27.916  23.486  1.00  0.00     0.002 C 
ENDROOT
BRANCH   1   2
ATOM      2  C   UNL A   1      33.521  27.171  22.498  1.00  0.00     0.021 C 
BRANCH   2   3
ATOM      3  C   UNL A   1      32.781  26.183  21.602  1.00  0.00     0.116 C 
BRANCH   3   4
ATOM      4  N   UNL A   1      31.666  25.558  22.293  1.00  0.00    -0.352 N 
ATOM      5  C   UNL A   1      31.475  24.516  23.133  1.00  0.00     0.251 C 
ATOM      6  O   UNL A   1      30.308  24.355  23.504  1.00  0.00    -0.270 OA
ATOM      7  H   UNL A   1      30.819  26.020  22.095  1.00  0.00     0.163 HD
BRANCH   5   8
ATOM      8  C   UNL A   1      32.537  23.586  23.622  1.00  0.00     0.067 C 
ATOM      9  C   UNL A   1      36.861  21.208  25.117  1.00  0.00     0.048 C 
ATOM     10  C   UNL A   1      35.445  20.792  24.832  1.00  0.00    -0.005 A 
ATOM     11  C   UNL A   1      35.080  19.444  24.971  1.00  0.00     0.054 A 
ATOM     12  C   UNL A   1      34.489  21.710  24.379  1.00  0.00     0.131 A 
ATOM     13  C   UNL A   1      33.780  19.021  24.680  1.00  0.00     0.130 A 
ATOM     14  C   UNL A   1      33.185  21.303  24.091  1.00  0.00     0.021 A 
ATOM     15  O   UNL A   1      34.900  22.997  24.184  1.00  0.00    -0.475 OA
ATOM     16  C   UNL A   1      32.837  19.959  24.246  1.00  0.00     0.058 A 
ATOM     17  C   UNL A   1      32.220  22.277  23.595  1.00  0.00     0.025 C 
ATOM     18  C   UNL A   1      33.870  24.021  24.160  1.00  0.00     0.314 C 
BRANCH  13  19
ATOM     19  O   UNL A   1      33.307  17.743  24.771  1.00  0.00    -0.406 OA
BRANCH  19  20
ATOM     20  C   UNL A   1      33.943  16.746  23.989  1.00  0.00     0.573 C 
ATOM     21  F   UNL A   1      33.169  15.645  23.878  1.00  0.00    -0.132 F 
ATOM     22  F   UNL A   1      34.245  17.213  22.759  1.00  0.00    -0.132 F 
ATOM     23  F   UNL A   1      35.096  16.389  24.597  1.00  0.00    -0.132 F 
ENDBRANCH  19  20
ENDBRANCH  13  19
BRANCH  18  24
ATOM     24  C   UNL A   1      33.774  24.665  25.554  1.00  0.00     0.429 C 
ATOM     25  F   UNL A   1      34.574  25.759  25.626  1.00  0.00    -0.167 F 
ATOM     26  F   UNL A   1      32.523  25.094  25.845  1.00  0.00    -0.167 F 
ATOM     27  F   UNL A   1      34.145  23.825  26.544  1.00  0.00    -0.167 F 
ENDBRANCH  18  24
ENDBRANCH   5   8
ENDBRANCH   3   4
ENDBRANCH   2   3
ENDBRANCH   1   2
BRANCH   1  28
ATOM     28  C   UNL A   1      33.341  28.624  24.640  1.00  0.00     0.002 C 
BRANCH  28  29
ATOM     29  C   UNL A   1      32.749  28.393  26.033  1.00  0.00     0.021 C 
BRANCH  29  30
ATOM     30  C   UNL A   1      33.709  28.675  27.185  1.00  0.00     0.116 C 
BRANCH  30  31
ATOM     31  N   UNL A   1      33.644  30.059  27.620  1.00  0.00    -0.352 N 
ATOM     32  C   UNL A   1      34.587  30.787  28.301  1.00  0.00     0.251 C 
ATOM     33  H   UNL A   1      32.814  30.540  27.396  1.00  0.00     0.163 HD
ATOM     34  O   UNL A   1      34.324  31.894  28.757  1.00  0.00    -0.269 OA
BRANCH  32  35
ATOM     35  C   UNL A   1      35.928  30.206  28.499  1.00  0.00     0.039 A 
ATOM     36  C   UNL A   1      36.836  30.227  27.438  1.00  0.00     0.014 A 
ATOM     37  C   UNL A   1      36.289  29.676  29.741  1.00  0.00     0.014 A 
ATOM     38  C   UNL A   1      38.135  29.761  27.642  1.00  0.00     0.010 A 
ATOM     39  C   UNL A   1      37.598  29.252  29.955  1.00  0.00     0.010 A 
ATOM     40  C   UNL A   1      38.530  29.295  28.907  1.00  0.00    -0.014 A 
BRANCH  40  41
ATOM     41  C   UNL A   1      39.922  28.851  29.142  1.00  0.00     0.031 A 
ATOM     42  C   UNL A   1      40.352  27.470  28.741  1.00  0.00     0.074 A 
ATOM     43  C   UNL A   1      40.795  29.689  29.734  1.00  0.00     0.049 A 
ATOM     44  N   UNL A   1      41.533  26.918  28.842  1.00  0.00    -0.248 NA
ATOM     45  C   UNL A   1      39.322  26.592  28.161  1.00  0.00     0.031 C 
ATOM     46  C   UNL A   1      40.486  31.045  30.192  1.00  0.00     0.029 A 
ATOM     47  N   UNL A   1      42.122  29.527  30.040  1.00  0.00    -0.354 N 
ATOM     48  C   UNL A   1      41.390  25.634  28.336  1.00  0.00     0.074 A 
ATOM     49  C   UNL A   1      40.001  25.470  27.971  1.00  0.00     0.031 C 
ATOM     50  C   UNL A   1      41.603  31.604  30.686  1.00  0.00     0.029 A 
ATOM     51  C   UNL A   1      42.698  30.641  30.599  1.00  0.00     0.049 A 
ATOM     52  H   UNL A   1      42.615  28.690  29.875  1.00  0.00     0.167 HD
ATOM     53  C   UNL A   1      42.340  24.686  28.166  1.00  0.00     0.031 A 
ATOM     54  C   UNL A   1      43.967  30.869  30.984  1.00  0.00     0.031 A 
ATOM     55  C   UNL A   1      43.723  24.852  28.516  1.00  0.00     0.049 A 
ATOM     56  C   UNL A   1      44.998  29.793  30.804  1.00  0.00     0.074 A 
ATOM     57  C   UNL A   1      44.764  23.958  28.343  1.00  0.00     0.029 A 
ATOM     58  N   UNL A   1      44.256  25.987  29.102  1.00  0.00    -0.354 N 
ATOM     59  N   UNL A   1      44.855  28.599  30.284  1.00  0.00    -0.248 NA
ATOM     60  C   UNL A   1      46.365  30.096  31.254  1.00  0.00     0.031 C 
ATOM     61  C   UNL A   1      45.925  24.540  28.855  1.00  0.00     0.029 A 
ATOM     62  C   UNL A   1      45.612  25.811  29.311  1.00  0.00     0.049 A 
ATOM     63  H   UNL A   1      43.748  26.797  29.336  1.00  0.00     0.167 HD
ATOM     64  C   UNL A   1      46.115  28.016  30.324  1.00  0.00     0.074 A 
ATOM     65  C   UNL A   1      47.011  28.985  30.918  1.00  0.00     0.031 C 
ATOM     66  C   UNL A   1      46.491  26.786  29.899  1.00  0.00     0.031 A 
BRANCH  53  67
ATOM     67  C   UNL A   1      41.922  23.384  27.552  1.00  0.00    -0.014 A 
ATOM     68  C   UNL A   1      42.187  23.116  26.201  1.00  0.00     0.009 A 
ATOM     69  C   UNL A   1      41.336  22.388  28.346  1.00  0.00     0.009 A 
ATOM     70  C   UNL A   1      41.860  21.875  25.651  1.00  0.00     0.001 A 
ATOM     71  C   UNL A   1      41.028  21.141  27.799  1.00  0.00     0.001 A 
ATOM     72  C   UNL A   1      41.288  20.888  26.452  1.00  0.00     0.000 A 
ENDBRANCH  53  67
BRANCH  54  73
ATOM     73  C   UNL A   1      44.336  32.198  31.531  1.00  0.00    -0.014 A 
ATOM     74  C   UNL A   1      44.367  32.403  32.919  1.00  0.00     0.009 A 
ATOM     75  C   UNL A   1      44.704  33.249  30.677  1.00  0.00     0.009 A 
ATOM     76  C   UNL A   1      44.753  33.639  33.441  1.00  0.00     0.001 A 
ATOM     77  C   UNL A   1      45.106  34.478  31.205  1.00  0.00     0.001 A 
ATOM     78  C   UNL A   1      45.127  34.673  32.584  1.00  0.00     0.000 A 
ENDBRANCH  54  73
BRANCH  66  79
ATOM     79  C   UNL A   1      47.933  26.404  30.034  1.00  0.00    -0.014 A 
ATOM     80  C   UNL A   1      48.410  25.816  31.213  1.00  0.00     0.009 A 
ATOM     81  C   UNL A   1      48.787  26.513  28.924  1.00  0.00     0.009 A 
ATOM     82  C   UNL A   1      49.720  25.337  31.277  1.00  0.00     0.001 A 
ATOM     83  C   UNL A   1      50.090  26.018  28.988  1.00  0.00     0.001 A 
ATOM     84  C   UNL A   1      50.555  25.431  30.163  1.00  0.00     0.000 A 
ENDBRANCH  66  79
ENDBRANCH  40  41
ENDBRANCH  32  35
ENDBRANCH  30  31
ENDBRANCH  29  30
ENDBRANCH  28  29
ENDBRANCH   1  28
TORSDOF 16
ENDMDL
