MODEL 1
REMARK VINA RESULT:     -11.3      0.000      0.000
REMARK SMILES O=C(NCCCCCCNC(=O)c1cccc(NC(=S)N/N=C\c2c[nH]c3ccccc23)c1)c1ccc(-c2c3nc(c(-c4ccccc4)c4ccc([nH]4)c(-c4ccccc4)c4nc(c(-c5ccccc5)c5ccc2[nH]5)C=C4)C=C3)cc1
REMARK SMILES IDX 8 1 7 2 6 3 5 4 4 5 3 6 1 7 2 8 34 10 35 11 81 12 36 13
REMARK SMILES IDX 80 14 37 15 38 16 39 17 74 18 40 19 79 20 73 21 75 22 41 23
REMARK SMILES IDX 78 24 72 25 71 26 42 28 64 29 49 30 63 31 50 32 53 33 62 34
REMARK SMILES IDX 76 35 51 36 52 37 61 39 77 40 54 41 43 42 44 43 48 44 45 45
REMARK SMILES IDX 47 46 46 47 65 48 66 49 70 50 67 51 69 52 68 53 55 54 56 55
REMARK SMILES IDX 60 56 57 57 59 58 58 59 9 60 10 61 11 62 12 64 13 65 14 66
REMARK SMILES IDX 33 67 15 68 17 69 16 70 18 71 19 73 20 74 21 75 22 77 23 78
REMARK SMILES IDX 24 79 25 80 32 81 26 82 27 83 31 84 28 86 30 87 29 88
REMARK H PARENT 3 9 75 27 53 38 10 63 18 72 21 76 26 85
REMARK Flexibility Score: inf
ROOT
ATOM      1  C   UNL A   1      32.016  28.942  23.045  1.00  0.00     0.021 C 
ENDROOT
BRANCH   1   2
ATOM      2  C   UNL A   1      32.687  28.673  24.390  1.00  0.00     0.002 C 
BRANCH   2   3
ATOM      3  C   UNL A   1      31.785  28.077  25.475  1.00  0.00     0.002 C 
BRANCH   3   4
ATOM      4  C   UNL A   1      32.450  27.824  26.829  1.00  0.00     0.021 C 
BRANCH   4   5
ATOM      5  C   UNL A   1      33.798  28.508  27.029  1.00  0.00     0.116 C 
BRANCH   5   6
ATOM      6  N   UNL A   1      33.659  29.876  27.498  1.00  0.00    -0.352 N 
ATOM      7  O   UNL A   1      34.192  31.729  28.664  1.00  0.00    -0.269 OA
ATOM      8  C   UNL A   1      34.545  30.647  28.204  1.00  0.00     0.251 C 
ATOM      9  H   UNL A   1      32.805  30.311  27.276  1.00  0.00     0.163 HD
BRANCH   8  10
ATOM     10  C   UNL A   1      35.924  30.166  28.430  1.00  0.00     0.039 A 
ATOM     11  C   UNL A   1      36.887  30.246  27.420  1.00  0.00     0.014 A 
ATOM     12  C   UNL A   1      36.264  29.662  29.688  1.00  0.00     0.014 A 
ATOM     13  C   UNL A   1      38.159  29.723  27.633  1.00  0.00     0.010 A 
ATOM     14  C   UNL A   1      37.560  29.202  29.923  1.00  0.00     0.010 A 
ATOM     15  C   UNL A   1      38.512  29.213  28.891  1.00  0.00    -0.014 A 
BRANCH  15  16
ATOM     16  C   UNL A   1      39.902  28.765  29.144  1.00  0.00     0.031 A 
ATOM     17  C   UNL A   1      40.920  29.693  29.738  1.00  0.00     0.074 A 
ATOM     18  C   UNL A   1      40.247  27.508  28.805  1.00  0.00     0.049 A 
ATOM     19  N   UNL A   1      42.186  29.474  29.987  1.00  0.00    -0.248 NA
ATOM     20  C   UNL A   1      40.461  31.046  30.090  1.00  0.00     0.031 C 
ATOM     21  C   UNL A   1      39.347  26.520  28.205  1.00  0.00     0.029 A 
ATOM     22  N   UNL A   1      41.445  26.850  28.908  1.00  0.00    -0.354 N 
ATOM     23  C   UNL A   1      42.683  30.664  30.501  1.00  0.00     0.074 A 
ATOM     24  C   UNL A   1      41.585  31.609  30.511  1.00  0.00     0.031 C 
ATOM     25  C   UNL A   1      40.019  25.378  28.008  1.00  0.00     0.029 A 
ATOM     26  C   UNL A   1      41.407  25.570  28.414  1.00  0.00     0.049 A 
ATOM     27  H   UNL A   1      42.252  27.256  29.299  1.00  0.00     0.167 HD
ATOM     28  C   UNL A   1      43.939  30.943  30.924  1.00  0.00     0.031 A 
ATOM     29  C   UNL A   1      42.385  24.659  28.270  1.00  0.00     0.031 A 
ATOM     30  C   UNL A   1      45.028  30.000  30.904  1.00  0.00     0.049 A 
ATOM     31  C   UNL A   1      43.775  24.999  28.719  1.00  0.00     0.074 A 
ATOM     32  C   UNL A   1      46.324  30.170  31.360  1.00  0.00     0.029 A 
ATOM     33  N   UNL A   1      44.952  28.715  30.387  1.00  0.00    -0.354 N 
ATOM     34  N   UNL A   1      44.215  26.110  29.256  1.00  0.00    -0.248 NA
ATOM     35  C   UNL A   1      44.799  23.961  28.543  1.00  0.00     0.031 C 
ATOM     36  C   UNL A   1      47.046  29.008  31.068  1.00  0.00     0.029 A 
ATOM     37  C   UNL A   1      46.186  28.094  30.482  1.00  0.00     0.049 A 
ATOM     38  H   UNL A   1      44.140  28.306  30.009  1.00  0.00     0.167 HD
ATOM     39  C   UNL A   1      45.566  25.903  29.497  1.00  0.00     0.074 A 
ATOM     40  C   UNL A   1      45.867  24.553  29.062  1.00  0.00     0.031 C 
ATOM     41  C   UNL A   1      46.472  26.755  30.034  1.00  0.00     0.031 A 
BRANCH  28  42
ATOM     42  C   UNL A   1      44.212  32.338  31.412  1.00  0.00    -0.014 A 
ATOM     43  C   UNL A   1      44.630  33.353  30.536  1.00  0.00     0.009 A 
ATOM     44  C   UNL A   1      44.023  32.650  32.767  1.00  0.00     0.009 A 
ATOM     45  C   UNL A   1      44.892  34.639  31.016  1.00  0.00     0.001 A 
ATOM     46  C   UNL A   1      44.259  33.942  33.240  1.00  0.00     0.001 A 
ATOM     47  C   UNL A   1      44.704  34.932  32.366  1.00  0.00     0.000 A 
ENDBRANCH  28  42
BRANCH  29  48
ATOM     48  C   UNL A   1      42.068  23.347  27.649  1.00  0.00    -0.014 A 
ATOM     49  C   UNL A   1      41.611  22.277  28.429  1.00  0.00     0.009 A 
ATOM     50  C   UNL A   1      42.169  23.183  26.258  1.00  0.00     0.009 A 
ATOM     51  C   UNL A   1      41.268  21.064  27.828  1.00  0.00     0.001 A 
ATOM     52  C   UNL A   1      41.800  21.979  25.657  1.00  0.00     0.001 A 
ATOM     53  C   UNL A   1      41.354  20.918  26.444  1.00  0.00     0.000 A 
ENDBRANCH  29  48
BRANCH  41  54
ATOM     54  C   UNL A   1      47.875  26.246  30.198  1.00  0.00    -0.014 A 
ATOM     55  C   UNL A   1      48.791  26.285  29.136  1.00  0.00     0.009 A 
ATOM     56  C   UNL A   1      48.299  25.767  31.447  1.00  0.00     0.009 A 
ATOM     57  C   UNL A   1      50.099  25.832  29.316  1.00  0.00     0.001 A 
ATOM     58  C   UNL A   1      49.614  25.338  31.631  1.00  0.00     0.001 A 
ATOM     59  C   UNL A   1      50.511  25.364  30.564  1.00  0.00     0.000 A 
ENDBRANCH  41  54
ENDBRANCH  15  16
ENDBRANCH   8  10
ENDBRANCH   5   6
ENDBRANCH   4   5
ENDBRANCH   3   4
ENDBRANCH   2   3
ENDBRANCH   1   2
BRANCH   1  60
ATOM     60  C   UNL A   1      31.180  27.795  22.493  1.00  0.00     0.116 C 
BRANCH  60  61
ATOM     61  N   UNL A   1      31.917  26.924  21.592  1.00  0.00    -0.352 N 
ATOM     62  C   UNL A   1      32.509  25.705  21.815  1.00  0.00     0.251 C 
ATOM     63  H   UNL A   1      32.005  27.264  20.671  1.00  0.00     0.163 HD
ATOM     64  O   UNL A   1      33.181  25.182  20.927  1.00  0.00    -0.269 OA
BRANCH  62  65
ATOM     65  C   UNL A   1      32.377  25.030  23.125  1.00  0.00     0.041 A 
ATOM     66  C   UNL A   1      31.197  24.344  23.422  1.00  0.00     0.014 A 
ATOM     67  C   UNL A   1      33.426  25.034  24.042  1.00  0.00     0.040 A 
ATOM     68  C   UNL A   1      31.093  23.624  24.615  1.00  0.00     0.003 A 
ATOM     69  C   UNL A   1      33.354  24.239  25.180  1.00  0.00     0.041 A 
ATOM     70  C   UNL A   1      32.177  23.564  25.492  1.00  0.00     0.026 A 
BRANCH  69  71
ATOM     71  N   UNL A   1      34.549  23.978  25.857  1.00  0.00    -0.331 N 
ATOM     72  H   UNL A   1      34.575  24.263  26.800  1.00  0.00     0.169 HD
BRANCH  71  73
ATOM     73  C   UNL A   1      35.678  23.385  25.394  1.00  0.00     0.191 C 
ATOM     74  S   UNL A   1      37.162  24.019  25.847  1.00  0.00    -0.039 S 
BRANCH  73  75
ATOM     75  N   UNL A   1      35.610  22.202  24.710  1.00  0.00    -0.254 N 
ATOM     76  H   UNL A   1      34.809  22.057  24.156  1.00  0.00     0.193 HD
BRANCH  75  77
ATOM     77  N   UNL A   1      36.555  21.191  24.716  1.00  0.00    -0.181 NA
ATOM     78  C   UNL A   1      36.163  19.950  24.878  1.00  0.00     0.143 C 
BRANCH  78  79
ATOM     79  C   UNL A   1      34.771  19.559  24.924  1.00  0.00     0.020 A 
ATOM     80  C   UNL A   1      33.776  20.300  25.534  1.00  0.00     0.093 A 
ATOM     81  C   UNL A   1      34.130  18.355  24.528  1.00  0.00     0.008 A 
ATOM     82  N   UNL A   1      32.955  19.369  26.111  1.00  0.00    -0.361 N 
ATOM     83  C   UNL A   1      33.176  18.149  25.526  1.00  0.00     0.046 A 
ATOM     84  C   UNL A   1      34.318  17.346  23.567  1.00  0.00     0.011 A 
ATOM     85  H   UNL A   1      32.308  19.547  26.832  1.00  0.00     0.166 HD
ATOM     86  C   UNL A   1      32.618  16.902  25.795  1.00  0.00     0.027 A 
ATOM     87  C   UNL A   1      33.587  16.157  23.698  1.00  0.00     0.001 A 
ATOM     88  C   UNL A   1      32.825  15.909  24.839  1.00  0.00     0.002 A 
ENDBRANCH  78  79
ENDBRANCH  75  77
ENDBRANCH  73  75
ENDBRANCH  71  73
ENDBRANCH  69  71
ENDBRANCH  62  65
ENDBRANCH  60  61
ENDBRANCH   1  60
TORSDOF 18
ENDMDL
MODEL 2
REMARK VINA RESULT:     -11.2      4.803     11.639
REMARK SMILES O=C(NCCCCCCNC(=O)c1cccc(NC(=S)N/N=C\c2c[nH]c3ccccc23)c1)c1ccc(-c2c3nc(c(-c4ccccc4)c4ccc([nH]4)c(-c4ccccc4)c4nc(c(-c5ccccc5)c5ccc2[nH]5)C=C4)C=C3)cc1
REMARK SMILES IDX 8 1 7 2 6 3 5 4 4 5 3 6 1 7 2 8 34 10 35 11 81 12 36 13
REMARK SMILES IDX 80 14 37 15 38 16 39 17 74 18 40 19 79 20 73 21 75 22 41 23
REMARK SMILES IDX 78 24 72 25 71 26 42 28 64 29 49 30 63 31 50 32 53 33 62 34
REMARK SMILES IDX 76 35 51 36 52 37 61 39 77 40 54 41 43 42 44 43 48 44 45 45
REMARK SMILES IDX 47 46 46 47 65 48 66 49 70 50 67 51 69 52 68 53 55 54 56 55
REMARK SMILES IDX 60 56 57 57 59 58 58 59 9 60 10 61 11 62 12 64 13 65 14 66
REMARK SMILES IDX 33 67 15 68 17 69 16 70 18 71 19 73 20 74 21 75 22 77 23 78
REMARK SMILES IDX 24 79 25 80 32 81 26 82 27 83 31 84 28 86 30 87 29 88
REMARK H PARENT 3 9 75 27 53 38 10 63 18 72 21 76 26 85
REMARK Flexibility Score: inf
ROOT
ATOM      1  C   UNL A   1      44.402  23.299  27.641  1.00  0.00     0.021 C 
ENDROOT
BRANCH   1   2
ATOM      2  C   UNL A   1      42.914  23.602  27.795  1.00  0.00     0.002 C 
BRANCH   2   3
ATOM      3  C   UNL A   1      42.110  22.587  28.612  1.00  0.00     0.002 C 
BRANCH   3   4
ATOM      4  C   UNL A   1      41.234  21.626  27.807  1.00  0.00     0.021 C 
BRANCH   4   5
ATOM      5  C   UNL A   1      41.145  21.924  26.314  1.00  0.00     0.116 C 
BRANCH   5   6
ATOM      6  N   UNL A   1      39.773  22.058  25.859  1.00  0.00    -0.352 N 
ATOM      7  O   UNL A   1      37.691  22.919  25.782  1.00  0.00    -0.269 OA
ATOM      8  C   UNL A   1      38.865  23.054  26.113  1.00  0.00     0.251 C 
ATOM      9  H   UNL A   1      39.448  21.329  25.285  1.00  0.00     0.163 HD
BRANCH   8  10
ATOM     10  C   UNL A   1      39.297  24.286  26.804  1.00  0.00     0.039 A 
ATOM     11  C   UNL A   1      40.032  25.268  26.132  1.00  0.00     0.014 A 
ATOM     12  C   UNL A   1      38.927  24.475  28.138  1.00  0.00     0.014 A 
ATOM     13  C   UNL A   1      40.488  26.386  26.822  1.00  0.00     0.010 A 
ATOM     14  C   UNL A   1      39.325  25.631  28.811  1.00  0.00     0.010 A 
ATOM     15  C   UNL A   1      40.124  26.587  28.163  1.00  0.00    -0.014 A 
BRANCH  15  16
ATOM     16  C   UNL A   1      40.515  27.836  28.857  1.00  0.00     0.031 A 
ATOM     17  C   UNL A   1      41.858  27.972  29.510  1.00  0.00     0.074 A 
ATOM     18  C   UNL A   1      39.627  28.847  28.916  1.00  0.00     0.049 A 
ATOM     19  N   UNL A   1      42.343  28.980  30.191  1.00  0.00    -0.248 NA
ATOM     20  C   UNL A   1      42.774  26.828  29.392  1.00  0.00     0.031 C 
ATOM     21  C   UNL A   1      38.284  28.824  28.331  1.00  0.00     0.029 A 
ATOM     22  N   UNL A   1      39.716  30.084  29.499  1.00  0.00    -0.354 N 
ATOM     23  C   UNL A   1      43.608  28.584  30.605  1.00  0.00     0.074 A 
ATOM     24  C   UNL A   1      43.809  27.237  30.114  1.00  0.00     0.031 C 
ATOM     25  C   UNL A   1      37.681  29.996  28.572  1.00  0.00     0.029 A 
ATOM     26  C   UNL A   1      38.570  30.829  29.373  1.00  0.00     0.049 A 
ATOM     27  H   UNL A   1      40.523  30.406  29.962  1.00  0.00     0.167 HD
ATOM     28  C   UNL A   1      44.517  29.281  31.329  1.00  0.00     0.031 A 
ATOM     29  C   UNL A   1      38.252  32.037  29.873  1.00  0.00     0.031 A 
ATOM     30  C   UNL A   1      44.307  30.619  31.821  1.00  0.00     0.049 A 
ATOM     31  C   UNL A   1      39.263  32.778  30.696  1.00  0.00     0.074 A 
ATOM     32  C   UNL A   1      45.186  31.428  32.518  1.00  0.00     0.029 A 
ATOM     33  N   UNL A   1      43.128  31.337  31.680  1.00  0.00    -0.354 N 
ATOM     34  N   UNL A   1      40.477  32.413  31.029  1.00  0.00    -0.248 NA
ATOM     35  C   UNL A   1      38.862  34.094  31.208  1.00  0.00     0.031 C 
ATOM     36  C   UNL A   1      44.521  32.615  32.847  1.00  0.00     0.029 A 
ATOM     37  C   UNL A   1      43.246  32.566  32.306  1.00  0.00     0.049 A 
ATOM     38  H   UNL A   1      42.327  31.019  31.204  1.00  0.00     0.167 HD
ATOM     39  C   UNL A   1      40.993  33.460  31.780  1.00  0.00     0.074 A 
ATOM     40  C   UNL A   1      39.964  34.480  31.838  1.00  0.00     0.031 C 
ATOM     41  C   UNL A   1      42.210  33.566  32.365  1.00  0.00     0.031 A 
BRANCH  28  42
ATOM     42  C   UNL A   1      45.810  28.592  31.663  1.00  0.00    -0.014 A 
ATOM     43  C   UNL A   1      45.964  27.857  32.850  1.00  0.00     0.009 A 
ATOM     44  C   UNL A   1      46.886  28.659  30.764  1.00  0.00     0.009 A 
ATOM     45  C   UNL A   1      47.182  27.238  33.145  1.00  0.00     0.001 A 
ATOM     46  C   UNL A   1      48.092  28.018  31.049  1.00  0.00     0.001 A 
ATOM     47  C   UNL A   1      48.242  27.317  32.244  1.00  0.00     0.000 A 
ENDBRANCH  28  42
BRANCH  29  48
ATOM     48  C   UNL A   1      36.900  32.594  29.616  1.00  0.00    -0.014 A 
ATOM     49  C   UNL A   1      36.628  33.298  28.436  1.00  0.00     0.009 A 
ATOM     50  C   UNL A   1      35.859  32.370  30.533  1.00  0.00     0.009 A 
ATOM     51  C   UNL A   1      35.340  33.775  28.182  1.00  0.00     0.001 A 
ATOM     52  C   UNL A   1      34.568  32.824  30.263  1.00  0.00     0.001 A 
ATOM     53  C   UNL A   1      34.310  33.531  29.090  1.00  0.00     0.000 A 
ENDBRANCH  29  48
BRANCH  41  54
ATOM     54  C   UNL A   1      42.505  34.838  33.104  1.00  0.00    -0.014 A 
ATOM     55  C   UNL A   1      43.250  35.868  32.510  1.00  0.00     0.009 A 
ATOM     56  C   UNL A   1      41.988  35.027  34.395  1.00  0.00     0.009 A 
ATOM     57  C   UNL A   1      43.491  37.054  33.206  1.00  0.00     0.001 A 
ATOM     58  C   UNL A   1      42.209  36.223  35.078  1.00  0.00     0.001 A 
ATOM     59  C   UNL A   1      42.966  37.233  34.486  1.00  0.00     0.000 A 
ENDBRANCH  41  54
ENDBRANCH  15  16
ENDBRANCH   8  10
ENDBRANCH   5   6
ENDBRANCH   4   5
ENDBRANCH   3   4
ENDBRANCH   2   3
ENDBRANCH   1   2
BRANCH   1  60
ATOM     60  C   UNL A   1      45.341  24.279  28.329  1.00  0.00     0.116 C 
BRANCH  60  61
ATOM     61  N   UNL A   1      46.506  24.624  27.530  1.00  0.00    -0.352 N 
ATOM     62  C   UNL A   1      46.667  25.576  26.553  1.00  0.00     0.251 C 
ATOM     63  H   UNL A   1      47.310  24.088  27.721  1.00  0.00     0.163 HD
ATOM     64  O   UNL A   1      47.722  25.628  25.922  1.00  0.00    -0.269 OA
BRANCH  62  65
ATOM     65  C   UNL A   1      45.572  26.516  26.227  1.00  0.00     0.041 A 
ATOM     66  C   UNL A   1      44.541  26.095  25.382  1.00  0.00     0.014 A 
ATOM     67  C   UNL A   1      45.534  27.792  26.784  1.00  0.00     0.040 A 
ATOM     68  C   UNL A   1      43.454  26.938  25.140  1.00  0.00     0.003 A 
ATOM     69  C   UNL A   1      44.406  28.587  26.618  1.00  0.00     0.041 A 
ATOM     70  C   UNL A   1      43.381  28.184  25.766  1.00  0.00     0.026 A 
BRANCH  69  71
ATOM     71  N   UNL A   1      44.249  29.670  27.489  1.00  0.00    -0.331 N 
ATOM     72  H   UNL A   1      43.695  29.499  28.285  1.00  0.00     0.169 HD
BRANCH  71  73
ATOM     73  C   UNL A   1      44.757  30.924  27.388  1.00  0.00     0.191 C 
ATOM     74  S   UNL A   1      46.201  31.270  28.167  1.00  0.00    -0.039 S 
BRANCH  73  75
ATOM     75  N   UNL A   1      44.194  31.835  26.537  1.00  0.00    -0.254 N 
ATOM     76  H   UNL A   1      43.309  32.186  26.789  1.00  0.00     0.193 HD
BRANCH  75  77
ATOM     77  N   UNL A   1      44.742  32.314  25.360  1.00  0.00    -0.181 NA
ATOM     78  C   UNL A   1      45.020  33.591  25.256  1.00  0.00     0.143 C 
BRANCH  78  79
ATOM     79  C   UNL A   1      44.903  34.519  26.360  1.00  0.00     0.020 A 
ATOM     80  C   UNL A   1      45.934  34.831  27.225  1.00  0.00     0.093 A 
ATOM     81  C   UNL A   1      43.769  35.183  26.899  1.00  0.00     0.008 A 
ATOM     82  N   UNL A   1      45.336  34.949  28.450  1.00  0.00    -0.361 N 
ATOM     83  C   UNL A   1      43.989  35.139  28.277  1.00  0.00     0.046 A 
ATOM     84  C   UNL A   1      42.535  35.673  26.437  1.00  0.00     0.011 A 
ATOM     85  H   UNL A   1      45.799  34.907  29.318  1.00  0.00     0.166 HD
ATOM     86  C   UNL A   1      42.967  35.272  29.213  1.00  0.00     0.027 A 
ATOM     87  C   UNL A   1      41.563  36.028  27.382  1.00  0.00     0.001 A 
ATOM     88  C   UNL A   1      41.745  35.745  28.736  1.00  0.00     0.002 A 
ENDBRANCH  78  79
ENDBRANCH  75  77
ENDBRANCH  73  75
ENDBRANCH  71  73
ENDBRANCH  69  71
ENDBRANCH  62  65
ENDBRANCH  60  61
ENDBRANCH   1  60
TORSDOF 18
ENDMDL
MODEL 3
REMARK VINA RESULT:     -11.0      0.407      5.708
REMARK SMILES O=C(NCCCCCCNC(=O)c1cccc(NC(=S)N/N=C\c2c[nH]c3ccccc23)c1)c1ccc(-c2c3nc(c(-c4ccccc4)c4ccc([nH]4)c(-c4ccccc4)c4nc(c(-c5ccccc5)c5ccc2[nH]5)C=C4)C=C3)cc1
REMARK SMILES IDX 8 1 7 2 6 3 5 4 4 5 3 6 1 7 2 8 34 10 35 11 81 12 36 13
REMARK SMILES IDX 80 14 37 15 38 16 39 17 74 18 40 19 79 20 73 21 75 22 41 23
REMARK SMILES IDX 78 24 72 25 71 26 42 28 64 29 49 30 63 31 50 32 53 33 62 34
REMARK SMILES IDX 76 35 51 36 52 37 61 39 77 40 54 41 43 42 44 43 48 44 45 45
REMARK SMILES IDX 47 46 46 47 65 48 66 49 70 50 67 51 69 52 68 53 55 54 56 55
REMARK SMILES IDX 60 56 57 57 59 58 58 59 9 60 10 61 11 62 12 64 13 65 14 66
REMARK SMILES IDX 33 67 15 68 17 69 16 70 18 71 19 73 20 74 21 75 22 77 23 78
REMARK SMILES IDX 24 79 25 80 32 81 26 82 27 83 31 84 28 86 30 87 29 88
REMARK H PARENT 3 9 75 27 53 38 10 63 18 72 21 76 26 85
REMARK Flexibility Score: inf
ROOT
ATOM      1  C   UNL A   1      31.584  28.952  23.150  1.00  0.00     0.021 C 
ENDROOT
BRANCH   1   2
ATOM      2  C   UNL A   1      32.451  28.578  24.350  1.00  0.00     0.002 C 
BRANCH   2   3
ATOM      3  C   UNL A   1      31.694  28.129  25.602  1.00  0.00     0.002 C 
BRANCH   3   4
ATOM      4  C   UNL A   1      32.552  27.859  26.839  1.00  0.00     0.021 C 
BRANCH   4   5
ATOM      5  C   UNL A   1      33.864  28.633  26.901  1.00  0.00     0.116 C 
BRANCH   5   6
ATOM      6  N   UNL A   1      33.700  29.955  27.478  1.00  0.00    -0.352 N 
ATOM      7  O   UNL A   1      34.189  31.710  28.804  1.00  0.00    -0.269 OA
ATOM      8  C   UNL A   1      34.563  30.675  28.263  1.00  0.00     0.251 C 
ATOM      9  H   UNL A   1      32.844  30.397  27.278  1.00  0.00     0.163 HD
BRANCH   8  10
ATOM     10  C   UNL A   1      35.944  30.193  28.474  1.00  0.00     0.039 A 
ATOM     11  C   UNL A   1      36.902  30.291  27.460  1.00  0.00     0.014 A 
ATOM     12  C   UNL A   1      36.291  29.668  29.722  1.00  0.00     0.014 A 
ATOM     13  C   UNL A   1      38.175  29.766  27.657  1.00  0.00     0.010 A 
ATOM     14  C   UNL A   1      37.590  29.207  29.942  1.00  0.00     0.010 A 
ATOM     15  C   UNL A   1      38.536  29.236  28.905  1.00  0.00    -0.014 A 
BRANCH  15  16
ATOM     16  C   UNL A   1      39.928  28.786  29.144  1.00  0.00     0.031 A 
ATOM     17  C   UNL A   1      40.392  27.430  28.701  1.00  0.00     0.074 A 
ATOM     18  C   UNL A   1      40.770  29.611  29.796  1.00  0.00     0.049 A 
ATOM     19  N   UNL A   1      41.562  26.867  28.866  1.00  0.00    -0.248 NA
ATOM     20  C   UNL A   1      39.415  26.594  27.987  1.00  0.00     0.031 C 
ATOM     21  C   UNL A   1      40.426  30.947  30.290  1.00  0.00     0.029 A 
ATOM     22  N   UNL A   1      42.080  29.446  30.162  1.00  0.00    -0.354 N 
ATOM     23  C   UNL A   1      41.458  25.603  28.301  1.00  0.00     0.074 A 
ATOM     24  C   UNL A   1      40.103  25.475  27.804  1.00  0.00     0.031 C 
ATOM     25  C   UNL A   1      41.502  31.485  30.879  1.00  0.00     0.029 A 
ATOM     26  C   UNL A   1      42.590  30.516  30.855  1.00  0.00     0.049 A 
ATOM     27  H   UNL A   1      42.604  28.641  29.947  1.00  0.00     0.167 HD
ATOM     28  C   UNL A   1      42.404  24.639  28.206  1.00  0.00     0.031 A 
ATOM     29  C   UNL A   1      43.790  30.688  31.438  1.00  0.00     0.031 A 
ATOM     30  C   UNL A   1      43.747  24.770  28.710  1.00  0.00     0.049 A 
ATOM     31  C   UNL A   1      44.813  29.596  31.346  1.00  0.00     0.074 A 
ATOM     32  C   UNL A   1      44.795  23.871  28.616  1.00  0.00     0.029 A 
ATOM     33  N   UNL A   1      44.223  25.866  29.415  1.00  0.00    -0.354 N 
ATOM     34  N   UNL A   1      44.717  28.428  30.757  1.00  0.00    -0.248 NA
ATOM     35  C   UNL A   1      46.106  29.844  31.995  1.00  0.00     0.031 C 
ATOM     36  C   UNL A   1      45.888  24.399  29.313  1.00  0.00     0.029 A 
ATOM     37  C   UNL A   1      45.538  25.651  29.792  1.00  0.00     0.049 A 
ATOM     38  H   UNL A   1      43.703  26.677  29.617  1.00  0.00     0.167 HD
ATOM     39  C   UNL A   1      45.942  27.806  30.952  1.00  0.00     0.074 A 
ATOM     40  C   UNL A   1      46.769  28.733  31.699  1.00  0.00     0.031 C 
ATOM     41  C   UNL A   1      46.344  26.578  30.544  1.00  0.00     0.031 A 
BRANCH  28  42
ATOM     42  C   UNL A   1      42.007  23.339  27.564  1.00  0.00    -0.014 A 
ATOM     43  C   UNL A   1      42.319  23.057  26.224  1.00  0.00     0.009 A 
ATOM     44  C   UNL A   1      41.329  22.370  28.320  1.00  0.00     0.009 A 
ATOM     45  C   UNL A   1      41.924  21.847  25.646  1.00  0.00     0.001 A 
ATOM     46  C   UNL A   1      40.960  21.151  27.748  1.00  0.00     0.001 A 
ATOM     47  C   UNL A   1      41.249  20.896  26.408  1.00  0.00     0.000 A 
ENDBRANCH  28  42
BRANCH  29  48
ATOM     48  C   UNL A   1      44.062  31.947  32.177  1.00  0.00    -0.014 A 
ATOM     49  C   UNL A   1      44.622  33.053  31.526  1.00  0.00     0.009 A 
ATOM     50  C   UNL A   1      43.705  32.061  33.531  1.00  0.00     0.009 A 
ATOM     51  C   UNL A   1      44.827  34.249  32.219  1.00  0.00     0.001 A 
ATOM     52  C   UNL A   1      43.886  33.264  34.213  1.00  0.00     0.001 A 
ATOM     53  C   UNL A   1      44.452  34.356  33.557  1.00  0.00     0.000 A 
ENDBRANCH  29  48
BRANCH  41  54
ATOM     54  C   UNL A   1      47.749  26.172  30.882  1.00  0.00    -0.014 A 
ATOM     55  C   UNL A   1      48.085  25.720  32.167  1.00  0.00     0.009 A 
ATOM     56  C   UNL A   1      48.738  26.196  29.887  1.00  0.00     0.009 A 
ATOM     57  C   UNL A   1      49.392  25.321  32.454  1.00  0.00     0.001 A 
ATOM     58  C   UNL A   1      50.037  25.773  30.170  1.00  0.00     0.001 A 
ATOM     59  C   UNL A   1      50.365  25.343  31.455  1.00  0.00     0.000 A 
ENDBRANCH  41  54
ENDBRANCH  15  16
ENDBRANCH   8  10
ENDBRANCH   5   6
ENDBRANCH   4   5
ENDBRANCH   3   4
ENDBRANCH   2   3
ENDBRANCH   1   2
BRANCH   1  60
ATOM     60  C   UNL A   1      30.890  27.786  22.461  1.00  0.00     0.116 C 
BRANCH  60  61
ATOM     61  N   UNL A   1      31.770  27.017  21.596  1.00  0.00    -0.352 N 
ATOM     62  C   UNL A   1      32.483  25.869  21.842  1.00  0.00     0.251 C 
ATOM     63  H   UNL A   1      31.872  27.379  20.685  1.00  0.00     0.163 HD
ATOM     64  O   UNL A   1      33.259  25.439  20.990  1.00  0.00    -0.269 OA
BRANCH  62  65
ATOM     65  C   UNL A   1      32.353  25.163  23.136  1.00  0.00     0.041 A 
ATOM     66  C   UNL A   1      31.181  24.454  23.411  1.00  0.00     0.014 A 
ATOM     67  C   UNL A   1      33.398  25.161  24.058  1.00  0.00     0.040 A 
ATOM     68  C   UNL A   1      31.081  23.707  24.588  1.00  0.00     0.003 A 
ATOM     69  C   UNL A   1      33.331  24.339  25.178  1.00  0.00     0.041 A 
ATOM     70  C   UNL A   1      32.161  23.642  25.469  1.00  0.00     0.026 A 
BRANCH  69  71
ATOM     71  N   UNL A   1      34.526  24.079  25.856  1.00  0.00    -0.331 N 
ATOM     72  H   UNL A   1      34.564  24.394  26.788  1.00  0.00     0.169 HD
BRANCH  71  73
ATOM     73  C   UNL A   1      35.641  23.451  25.404  1.00  0.00     0.191 C 
ATOM     74  S   UNL A   1      37.140  24.068  25.834  1.00  0.00    -0.039 S 
BRANCH  73  75
ATOM     75  N   UNL A   1      35.547  22.252  24.753  1.00  0.00    -0.254 N 
ATOM     76  H   UNL A   1      34.719  22.089  24.246  1.00  0.00     0.193 HD
BRANCH  75  77
ATOM     77  N   UNL A   1      36.499  21.248  24.733  1.00  0.00    -0.181 NA
ATOM     78  C   UNL A   1      36.117  20.000  24.869  1.00  0.00     0.143 C 
BRANCH  78  79
ATOM     79  C   UNL A   1      34.728  19.599  24.911  1.00  0.00     0.020 A 
ATOM     80  C   UNL A   1      33.723  20.339  25.505  1.00  0.00     0.093 A 
ATOM     81  C   UNL A   1      34.099  18.385  24.527  1.00  0.00     0.008 A 
ATOM     82  N   UNL A   1      32.906  19.409  26.089  1.00  0.00    -0.361 N 
ATOM     83  C   UNL A   1      33.141  18.184  25.521  1.00  0.00     0.046 A 
ATOM     84  C   UNL A   1      34.301  17.365  23.581  1.00  0.00     0.011 A 
ATOM     85  H   UNL A   1      32.253  19.591  26.803  1.00  0.00     0.166 HD
ATOM     86  C   UNL A   1      32.591  16.936  25.804  1.00  0.00     0.027 A 
ATOM     87  C   UNL A   1      33.580  16.171  23.722  1.00  0.00     0.001 A 
ATOM     88  C   UNL A   1      32.812  15.932  24.863  1.00  0.00     0.002 A 
ENDBRANCH  78  79
ENDBRANCH  75  77
ENDBRANCH  73  75
ENDBRANCH  71  73
ENDBRANCH  69  71
ENDBRANCH  62  65
ENDBRANCH  60  61
ENDBRANCH   1  60
TORSDOF 18
ENDMDL
