MODEL 1
REMARK VINA RESULT:     -10.4      0.000      0.000
REMARK SMILES O=C(C[C@H]1C[N@@H+](CCSc2ccccc2F)CCO1)NCCCCCCNC(=O)c1ccc(-c2c3nc(c(-c4ccccc4)c4ccc([nH]4)c(-c4ccccc4)c4nc(c(-c5ccccc5)c5ccc2[nH]5)C=C4)C=C3)cc1
REMARK SMILES IDX 22 1 21 2 20 3 1 4 2 5 3 7 4 8 5 9 19 10 6 11 18 12 17 13
REMARK SMILES IDX 7 15 8 16 9 17 10 18 11 19 15 20 12 21 14 22 16 23 13 24
REMARK SMILES IDX 23 25 24 26 25 27 26 28 27 29 28 30 29 32 30 33 31 34 77 35
REMARK SMILES IDX 32 36 76 37 33 38 34 39 35 40 70 41 36 42 75 43 69 44 71 45
REMARK SMILES IDX 37 46 74 47 68 48 67 49 38 51 60 52 45 53 59 54 46 55 49 56
REMARK SMILES IDX 58 57 72 58 47 59 48 60 57 62 73 63 50 64 39 65 40 66 44 67
REMARK SMILES IDX 41 68 43 69 42 70 61 71 62 72 66 73 63 74 65 75 64 76 51 77
REMARK SMILES IDX 52 78 56 79 53 80 55 81 54 82
REMARK H PARENT 20 6 6 14 27 31 71 50 49 61
REMARK Flexibility Score: inf
ROOT
ATOM      1  C   UNL A   1      36.162  23.646  25.187  1.00  0.00     0.021 C 
ENDROOT
BRANCH   1   2
ATOM      2  C   UNL A   1      35.253  23.496  23.974  1.00  0.00     0.116 C 
BRANCH   2   3
ATOM      3  N   UNL A   1      34.452  24.679  23.718  1.00  0.00    -0.356 N 
ATOM      4  O   UNL A   1      33.647  24.008  21.675  1.00  0.00    -0.275 OA
ATOM      5  C   UNL A   1      33.677  24.826  22.591  1.00  0.00     0.222 C 
ATOM      6  H   UNL A   1      34.463  25.408  24.380  1.00  0.00     0.163 HD
BRANCH   5   7
ATOM      7  C   UNL A   1      32.877  26.104  22.534  1.00  0.00     0.138 C 
BRANCH   7   8
ATOM      8  C   UNL A   1      31.371  25.985  22.292  1.00  0.00     0.182 C 
ATOM      9  C   UNL A   1      30.631  24.884  23.101  1.00  0.00     0.295 C 
ATOM     10  O   UNL A   1      30.711  27.256  22.207  1.00  0.00    -0.366 OA
ATOM     11  N   UNL A   1      29.778  25.298  24.212  1.00  0.00    -0.330 N 
ATOM     12  C   UNL A   1      29.940  27.603  23.357  1.00  0.00     0.222 C 
ATOM     13  C   UNL A   1      29.027  26.481  23.845  1.00  0.00     0.291 C 
ATOM     14  H   UNL A   1      29.095  24.552  24.344  1.00  0.00     0.348 HD
BRANCH  11  15
ATOM     15  C   UNL A   1      30.276  25.166  25.586  1.00  0.00     0.273 C 
BRANCH  15  16
ATOM     16  C   UNL A   1      31.773  24.989  25.944  1.00  0.00     0.136 C 
BRANCH  16  17
ATOM     17  S   UNL A   1      32.387  23.589  26.994  1.00  0.00    -0.117 SA
BRANCH  17  18
ATOM     18  C   UNL A   1      32.589  22.206  25.888  1.00  0.00     0.043 A 
ATOM     19  C   UNL A   1      31.985  22.142  24.625  1.00  0.00     0.018 A 
ATOM     20  C   UNL A   1      33.351  21.109  26.305  1.00  0.00     0.136 A 
ATOM     21  C   UNL A   1      32.260  21.075  23.755  1.00  0.00     0.001 A 
ATOM     22  C   UNL A   1      33.631  20.047  25.445  1.00  0.00     0.040 A 
ATOM     23  F   UNL A   1      33.899  21.091  27.530  1.00  0.00    -0.206 F 
ATOM     24  C   UNL A   1      33.110  20.044  24.155  1.00  0.00     0.003 A 
ENDBRANCH  17  18
ENDBRANCH  16  17
ENDBRANCH  15  16
ENDBRANCH  11  15
ENDBRANCH   7   8
ENDBRANCH   5   7
ENDBRANCH   2   3
ENDBRANCH   1   2
BRANCH   1  25
ATOM     25  C   UNL A   1      36.837  22.346  25.638  1.00  0.00     0.002 C 
BRANCH  25  26
ATOM     26  C   UNL A   1      36.967  21.260  24.564  1.00  0.00     0.002 C 
BRANCH  26  27
ATOM     27  C   UNL A   1      37.877  20.081  24.919  1.00  0.00     0.021 C 
BRANCH  27  28
ATOM     28  C   UNL A   1      39.114  20.432  25.743  1.00  0.00     0.116 C 
BRANCH  28  29
ATOM     29  N   UNL A   1      40.069  19.337  25.827  1.00  0.00    -0.352 N 
ATOM     30  C   UNL A   1      41.411  19.370  26.110  1.00  0.00     0.251 C 
ATOM     31  H   UNL A   1      39.698  18.442  25.655  1.00  0.00     0.163 HD
ATOM     32  O   UNL A   1      42.094  18.351  25.997  1.00  0.00    -0.269 OA
BRANCH  30  33
ATOM     33  C   UNL A   1      42.048  20.637  26.522  1.00  0.00     0.039 A 
ATOM     34  C   UNL A   1      42.534  21.502  25.537  1.00  0.00     0.014 A 
ATOM     35  C   UNL A   1      42.152  20.980  27.872  1.00  0.00     0.014 A 
ATOM     36  C   UNL A   1      43.050  22.746  25.903  1.00  0.00     0.010 A 
ATOM     37  C   UNL A   1      42.600  22.249  28.230  1.00  0.00     0.010 A 
ATOM     38  C   UNL A   1      43.045  23.147  27.249  1.00  0.00    -0.014 A 
BRANCH  38  39
ATOM     39  C   UNL A   1      43.471  24.514  27.645  1.00  0.00     0.031 A 
ATOM     40  C   UNL A   1      42.451  25.566  27.973  1.00  0.00     0.074 A 
ATOM     41  C   UNL A   1      44.782  24.828  27.632  1.00  0.00     0.049 A 
ATOM     42  N   UNL A   1      42.632  26.828  28.271  1.00  0.00    -0.248 NA
ATOM     43  C   UNL A   1      41.039  25.153  27.936  1.00  0.00     0.031 C 
ATOM     44  C   UNL A   1      45.870  23.911  27.288  1.00  0.00     0.029 A 
ATOM     45  N   UNL A   1      45.420  26.013  27.903  1.00  0.00    -0.354 N 
ATOM     46  C   UNL A   1      41.361  27.361  28.444  1.00  0.00     0.074 A 
ATOM     47  C   UNL A   1      40.418  26.300  28.165  1.00  0.00     0.031 C 
ATOM     48  C   UNL A   1      47.040  24.561  27.385  1.00  0.00     0.029 A 
ATOM     49  C   UNL A   1      46.784  25.949  27.754  1.00  0.00     0.049 A 
ATOM     50  H   UNL A   1      44.945  26.830  28.178  1.00  0.00     0.167 HD
ATOM     51  C   UNL A   1      41.011  28.615  28.819  1.00  0.00     0.031 A 
ATOM     52  C   UNL A   1      47.726  26.904  27.880  1.00  0.00     0.031 A 
ATOM     53  C   UNL A   1      41.950  29.671  29.087  1.00  0.00     0.049 A 
ATOM     54  C   UNL A   1      47.312  28.296  28.268  1.00  0.00     0.074 A 
ATOM     55  C   UNL A   1      41.698  30.959  29.525  1.00  0.00     0.029 A 
ATOM     56  N   UNL A   1      43.325  29.564  28.930  1.00  0.00    -0.354 N 
ATOM     57  N   UNL A   1      46.111  28.764  28.507  1.00  0.00    -0.248 NA
ATOM     58  C   UNL A   1      48.386  29.289  28.412  1.00  0.00     0.031 C 
ATOM     59  C   UNL A   1      42.913  31.651  29.571  1.00  0.00     0.029 A 
ATOM     60  C   UNL A   1      43.930  30.774  29.228  1.00  0.00     0.049 A 
ATOM     61  H   UNL A   1      43.800  28.749  28.649  1.00  0.00     0.167 HD
ATOM     62  C   UNL A   1      46.284  30.098  28.851  1.00  0.00     0.074 A 
ATOM     63  C   UNL A   1      47.709  30.359  28.809  1.00  0.00     0.031 C 
ATOM     64  C   UNL A   1      45.348  31.024  29.173  1.00  0.00     0.031 A 
BRANCH  51  65
ATOM     65  C   UNL A   1      39.541  28.912  28.940  1.00  0.00    -0.014 A 
ATOM     66  C   UNL A   1      38.858  28.732  30.155  1.00  0.00     0.009 A 
ATOM     67  C   UNL A   1      38.830  29.394  27.830  1.00  0.00     0.009 A 
ATOM     68  C   UNL A   1      37.486  28.983  30.240  1.00  0.00     0.001 A 
ATOM     69  C   UNL A   1      37.467  29.678  27.928  1.00  0.00     0.001 A 
ATOM     70  C   UNL A   1      36.793  29.460  29.128  1.00  0.00     0.000 A 
ENDBRANCH  51  65
BRANCH  52  71
ATOM     71  C   UNL A   1      49.153  26.571  27.632  1.00  0.00    -0.014 A 
ATOM     72  C   UNL A   1      49.699  26.673  26.343  1.00  0.00     0.009 A 
ATOM     73  C   UNL A   1      49.982  26.162  28.688  1.00  0.00     0.009 A 
ATOM     74  C   UNL A   1      51.039  26.349  26.114  1.00  0.00     0.001 A 
ATOM     75  C   UNL A   1      51.328  25.869  28.462  1.00  0.00     0.001 A 
ATOM     76  C   UNL A   1      51.853  25.955  27.175  1.00  0.00     0.000 A 
ENDBRANCH  52  71
BRANCH  64  77
ATOM     77  C   UNL A   1      45.834  32.402  29.528  1.00  0.00    -0.014 A 
ATOM     78  C   UNL A   1      45.946  33.410  28.558  1.00  0.00     0.009 A 
ATOM     79  C   UNL A   1      46.144  32.706  30.863  1.00  0.00     0.009 A 
ATOM     80  C   UNL A   1      46.384  34.688  28.915  1.00  0.00     0.001 A 
ATOM     81  C   UNL A   1      46.551  33.992  31.221  1.00  0.00     0.001 A 
ATOM     82  C   UNL A   1      46.681  34.978  30.246  1.00  0.00     0.000 A 
ENDBRANCH  64  77
ENDBRANCH  38  39
ENDBRANCH  30  33
ENDBRANCH  28  29
ENDBRANCH  27  28
ENDBRANCH  26  27
ENDBRANCH  25  26
ENDBRANCH   1  25
TORSDOF 18
ENDMDL
MODEL 2
REMARK VINA RESULT:      -9.8      5.876     10.145
REMARK SMILES O=C(C[C@H]1C[N@@H+](CCSc2ccccc2F)CCO1)NCCCCCCNC(=O)c1ccc(-c2c3nc(c(-c4ccccc4)c4ccc([nH]4)c(-c4ccccc4)c4nc(c(-c5ccccc5)c5ccc2[nH]5)C=C4)C=C3)cc1
REMARK SMILES IDX 22 1 21 2 20 3 1 4 2 5 3 7 4 8 5 9 19 10 6 11 18 12 17 13
REMARK SMILES IDX 7 15 8 16 9 17 10 18 11 19 15 20 12 21 14 22 16 23 13 24
REMARK SMILES IDX 23 25 24 26 25 27 26 28 27 29 28 30 29 32 30 33 31 34 77 35
REMARK SMILES IDX 32 36 76 37 33 38 34 39 35 40 70 41 36 42 75 43 69 44 71 45
REMARK SMILES IDX 37 46 74 47 68 48 67 49 38 51 60 52 45 53 59 54 46 55 49 56
REMARK SMILES IDX 58 57 72 58 47 59 48 60 57 62 73 63 50 64 39 65 40 66 44 67
REMARK SMILES IDX 41 68 43 69 42 70 61 71 62 72 66 73 63 74 65 75 64 76 51 77
REMARK SMILES IDX 52 78 56 79 53 80 55 81 54 82
REMARK H PARENT 20 6 6 14 27 31 71 50 49 61
REMARK Flexibility Score: inf
ROOT
ATOM      1  C   UNL A   1      35.114  31.599  28.327  1.00  0.00     0.021 C 
ENDROOT
BRANCH   1   2
ATOM      2  C   UNL A   1      33.718  31.389  27.754  1.00  0.00     0.116 C 
BRANCH   2   3
ATOM      3  N   UNL A   1      33.391  29.987  27.561  1.00  0.00    -0.356 N 
ATOM      4  O   UNL A   1      32.110  30.279  25.679  1.00  0.00    -0.275 OA
ATOM      5  C   UNL A   1      32.633  29.536  26.506  1.00  0.00     0.222 C 
ATOM      6  H   UNL A   1      33.727  29.331  28.214  1.00  0.00     0.163 HD
BRANCH   5   7
ATOM      7  C   UNL A   1      32.449  28.040  26.451  1.00  0.00     0.138 C 
BRANCH   7   8
ATOM      8  C   UNL A   1      32.171  27.411  25.084  1.00  0.00     0.182 C 
ATOM      9  C   UNL A   1      32.868  26.052  24.799  1.00  0.00     0.295 C 
ATOM     10  O   UNL A   1      30.797  27.511  24.686  1.00  0.00    -0.366 OA
ATOM     11  N   UNL A   1      32.053  24.840  24.815  1.00  0.00    -0.330 N 
ATOM     12  C   UNL A   1      30.062  26.291  24.780  1.00  0.00     0.222 C 
ATOM     13  C   UNL A   1      30.781  25.092  24.167  1.00  0.00     0.291 C 
ATOM     14  H   UNL A   1      32.542  24.158  24.235  1.00  0.00     0.348 HD
BRANCH  11  15
ATOM     15  C   UNL A   1      32.095  23.963  25.990  1.00  0.00     0.273 C 
BRANCH  15  16
ATOM     16  C   UNL A   1      31.876  22.430  25.926  1.00  0.00     0.136 C 
BRANCH  16  17
ATOM     17  S   UNL A   1      32.552  21.385  24.553  1.00  0.00    -0.117 SA
BRANCH  17  18
ATOM     18  C   UNL A   1      34.300  21.730  24.495  1.00  0.00     0.043 A 
ATOM     19  C   UNL A   1      35.224  21.148  25.374  1.00  0.00     0.018 A 
ATOM     20  C   UNL A   1      34.779  22.655  23.561  1.00  0.00     0.136 A 
ATOM     21  C   UNL A   1      36.600  21.377  25.218  1.00  0.00     0.001 A 
ATOM     22  C   UNL A   1      36.145  22.886  23.399  1.00  0.00     0.040 A 
ATOM     23  F   UNL A   1      33.929  23.290  22.739  1.00  0.00    -0.206 F 
ATOM     24  C   UNL A   1      37.061  22.222  24.208  1.00  0.00     0.003 A 
ENDBRANCH  17  18
ENDBRANCH  16  17
ENDBRANCH  15  16
ENDBRANCH  11  15
ENDBRANCH   7   8
ENDBRANCH   5   7
ENDBRANCH   2   3
ENDBRANCH   1   2
BRANCH   1  25
ATOM     25  C   UNL A   1      35.745  32.951  27.978  1.00  0.00     0.002 C 
BRANCH  25  26
ATOM     26  C   UNL A   1      35.640  34.031  29.061  1.00  0.00     0.002 C 
BRANCH  26  27
ATOM     27  C   UNL A   1      34.470  35.007  28.914  1.00  0.00     0.021 C 
BRANCH  27  28
ATOM     28  C   UNL A   1      33.152  34.551  29.537  1.00  0.00     0.116 C 
BRANCH  28  29
ATOM     29  N   UNL A   1      32.642  35.484  30.531  1.00  0.00    -0.352 N 
ATOM     30  C   UNL A   1      33.027  35.666  31.835  1.00  0.00     0.251 C 
ATOM     31  H   UNL A   1      31.913  36.069  30.223  1.00  0.00     0.163 HD
ATOM     32  O   UNL A   1      32.382  36.410  32.574  1.00  0.00    -0.269 OA
BRANCH  30  33
ATOM     33  C   UNL A   1      34.202  34.945  32.366  1.00  0.00     0.039 A 
ATOM     34  C   UNL A   1      34.042  33.631  32.816  1.00  0.00     0.014 A 
ATOM     35  C   UNL A   1      35.459  35.553  32.404  1.00  0.00     0.014 A 
ATOM     36  C   UNL A   1      35.158  32.902  33.230  1.00  0.00     0.010 A 
ATOM     37  C   UNL A   1      36.580  34.802  32.747  1.00  0.00     0.010 A 
ATOM     38  C   UNL A   1      36.442  33.467  33.155  1.00  0.00    -0.014 A 
BRANCH  38  39
ATOM     39  C   UNL A   1      37.653  32.668  33.469  1.00  0.00     0.031 A 
ATOM     40  C   UNL A   1      38.423  32.913  34.735  1.00  0.00     0.074 A 
ATOM     41  C   UNL A   1      38.106  31.772  32.569  1.00  0.00     0.049 A 
ATOM     42  N   UNL A   1      39.539  32.363  35.144  1.00  0.00    -0.248 NA
ATOM     43  C   UNL A   1      37.881  33.928  35.653  1.00  0.00     0.031 C 
ATOM     44  C   UNL A   1      37.478  31.472  31.281  1.00  0.00     0.029 A 
ATOM     45  N   UNL A   1      39.212  30.958  32.596  1.00  0.00    -0.354 N 
ATOM     46  C   UNL A   1      39.838  32.973  36.355  1.00  0.00     0.074 A 
ATOM     47  C   UNL A   1      38.817  33.971  36.589  1.00  0.00     0.031 C 
ATOM     48  C   UNL A   1      38.196  30.531  30.650  1.00  0.00     0.029 A 
ATOM     49  C   UNL A   1      39.358  30.192  31.465  1.00  0.00     0.049 A 
ATOM     50  H   UNL A   1      39.839  30.927  33.354  1.00  0.00     0.167 HD
ATOM     51  C   UNL A   1      40.860  32.713  37.205  1.00  0.00     0.031 A 
ATOM     52  C   UNL A   1      40.326  29.326  31.112  1.00  0.00     0.031 A 
ATOM     53  C   UNL A   1      41.880  31.727  36.967  1.00  0.00     0.049 A 
ATOM     54  C   UNL A   1      41.468  29.075  32.058  1.00  0.00     0.074 A 
ATOM     55  C   UNL A   1      42.926  31.351  37.792  1.00  0.00     0.029 A 
ATOM     56  N   UNL A   1      41.989  30.967  35.812  1.00  0.00    -0.354 N 
ATOM     57  N   UNL A   1      41.694  29.602  33.237  1.00  0.00    -0.248 NA
ATOM     58  C   UNL A   1      42.483  28.104  31.627  1.00  0.00     0.031 C 
ATOM     59  C   UNL A   1      43.705  30.412  37.109  1.00  0.00     0.029 A 
ATOM     60  C   UNL A   1      43.106  30.151  35.887  1.00  0.00     0.049 A 
ATOM     61  H   UNL A   1      41.365  31.003  35.051  1.00  0.00     0.167 HD
ATOM     62  C   UNL A   1      42.862  29.011  33.699  1.00  0.00     0.074 A 
ATOM     63  C   UNL A   1      43.287  28.071  32.681  1.00  0.00     0.031 C 
ATOM     64  C   UNL A   1      43.524  29.227  34.863  1.00  0.00     0.031 A 
BRANCH  51  65
ATOM     65  C   UNL A   1      40.931  33.530  38.467  1.00  0.00    -0.014 A 
ATOM     66  C   UNL A   1      41.655  34.733  38.519  1.00  0.00     0.009 A 
ATOM     67  C   UNL A   1      40.250  33.102  39.618  1.00  0.00     0.009 A 
ATOM     68  C   UNL A   1      41.735  35.462  39.709  1.00  0.00     0.001 A 
ATOM     69  C   UNL A   1      40.303  33.850  40.795  1.00  0.00     0.001 A 
ATOM     70  C   UNL A   1      41.056  35.022  40.844  1.00  0.00     0.000 A 
ENDBRANCH  51  65
BRANCH  52  71
ATOM     71  C   UNL A   1      40.258  28.637  29.797  1.00  0.00    -0.014 A 
ATOM     72  C   UNL A   1      40.812  29.225  28.650  1.00  0.00     0.009 A 
ATOM     73  C   UNL A   1      39.647  27.378  29.684  1.00  0.00     0.009 A 
ATOM     74  C   UNL A   1      40.735  28.577  27.414  1.00  0.00     0.001 A 
ATOM     75  C   UNL A   1      39.599  26.719  28.455  1.00  0.00     0.001 A 
ATOM     76  C   UNL A   1      40.135  27.322  27.320  1.00  0.00     0.000 A 
ENDBRANCH  52  71
BRANCH  64  77
ATOM     77  C   UNL A   1      44.766  28.417  35.110  1.00  0.00    -0.014 A 
ATOM     78  C   UNL A   1      44.706  27.156  35.724  1.00  0.00     0.009 A 
ATOM     79  C   UNL A   1      46.010  28.905  34.679  1.00  0.00     0.009 A 
ATOM     80  C   UNL A   1      45.873  26.415  35.928  1.00  0.00     0.001 A 
ATOM     81  C   UNL A   1      47.169  28.147  34.856  1.00  0.00     0.001 A 
ATOM     82  C   UNL A   1      47.101  26.908  35.489  1.00  0.00     0.000 A 
ENDBRANCH  64  77
ENDBRANCH  38  39
ENDBRANCH  30  33
ENDBRANCH  28  29
ENDBRANCH  27  28
ENDBRANCH  26  27
ENDBRANCH  25  26
ENDBRANCH   1  25
TORSDOF 18
ENDMDL
MODEL 3
REMARK VINA RESULT:      -9.7      6.038     10.593
REMARK SMILES O=C(C[C@H]1C[N@@H+](CCSc2ccccc2F)CCO1)NCCCCCCNC(=O)c1ccc(-c2c3nc(c(-c4ccccc4)c4ccc([nH]4)c(-c4ccccc4)c4nc(c(-c5ccccc5)c5ccc2[nH]5)C=C4)C=C3)cc1
REMARK SMILES IDX 22 1 21 2 20 3 1 4 2 5 3 7 4 8 5 9 19 10 6 11 18 12 17 13
REMARK SMILES IDX 7 15 8 16 9 17 10 18 11 19 15 20 12 21 14 22 16 23 13 24
REMARK SMILES IDX 23 25 24 26 25 27 26 28 27 29 28 30 29 32 30 33 31 34 77 35
REMARK SMILES IDX 32 36 76 37 33 38 34 39 35 40 70 41 36 42 75 43 69 44 71 45
REMARK SMILES IDX 37 46 74 47 68 48 67 49 38 51 60 52 45 53 59 54 46 55 49 56
REMARK SMILES IDX 58 57 72 58 47 59 48 60 57 62 73 63 50 64 39 65 40 66 44 67
REMARK SMILES IDX 41 68 43 69 42 70 61 71 62 72 66 73 63 74 65 75 64 76 51 77
REMARK SMILES IDX 52 78 56 79 53 80 55 81 54 82
REMARK H PARENT 20 6 6 14 27 31 71 50 49 61
REMARK Flexibility Score: inf
ROOT
ATOM      1  C   UNL A   1      34.511  31.925  27.736  1.00  0.00     0.021 C 
ENDROOT
BRANCH   1   2
ATOM      2  C   UNL A   1      34.817  30.436  27.847  1.00  0.00     0.116 C 
BRANCH   2   3
ATOM      3  N   UNL A   1      34.506  29.703  26.634  1.00  0.00    -0.356 N 
ATOM      4  O   UNL A   1      32.297  29.317  27.126  1.00  0.00    -0.275 OA
ATOM      5  C   UNL A   1      33.246  29.226  26.352  1.00  0.00     0.222 C 
ATOM      6  H   UNL A   1      35.227  29.540  25.983  1.00  0.00     0.163 HD
BRANCH   5   7
ATOM      7  C   UNL A   1      33.113  28.537  25.017  1.00  0.00     0.138 C 
BRANCH   7   8
ATOM      8  C   UNL A   1      33.756  27.157  24.867  1.00  0.00     0.182 C 
ATOM      9  C   UNL A   1      33.118  26.008  25.697  1.00  0.00     0.295 C 
ATOM     10  O   UNL A   1      34.101  26.839  23.511  1.00  0.00    -0.366 OA
ATOM     11  N   UNL A   1      32.317  25.010  24.993  1.00  0.00    -0.330 N 
ATOM     12  C   UNL A   1      33.235  25.893  22.885  1.00  0.00     0.222 C 
ATOM     13  C   UNL A   1      32.952  24.661  23.739  1.00  0.00     0.291 C 
ATOM     14  H   UNL A   1      32.335  24.170  25.571  1.00  0.00     0.348 HD
BRANCH  11  15
ATOM     15  C   UNL A   1      30.853  25.094  25.054  1.00  0.00     0.273 C 
BRANCH  15  16
ATOM     16  C   UNL A   1      30.061  26.417  24.900  1.00  0.00     0.136 C 
BRANCH  16  17
ATOM     17  S   UNL A   1      28.555  26.555  23.828  1.00  0.00    -0.117 SA
BRANCH  17  18
ATOM     18  C   UNL A   1      28.606  28.193  23.127  1.00  0.00     0.043 A 
ATOM     19  C   UNL A   1      27.518  29.076  23.168  1.00  0.00     0.018 A 
ATOM     20  C   UNL A   1      29.766  28.613  22.466  1.00  0.00     0.136 A 
ATOM     21  C   UNL A   1      27.647  30.390  22.690  1.00  0.00     0.001 A 
ATOM     22  C   UNL A   1      29.901  29.918  21.991  1.00  0.00     0.040 A 
ATOM     23  F   UNL A   1      30.813  27.783  22.342  1.00  0.00    -0.206 F 
ATOM     24  C   UNL A   1      28.850  30.819  22.131  1.00  0.00     0.003 A 
ENDBRANCH  17  18
ENDBRANCH  16  17
ENDBRANCH  15  16
ENDBRANCH  11  15
ENDBRANCH   7   8
ENDBRANCH   5   7
ENDBRANCH   2   3
ENDBRANCH   1   2
BRANCH   1  25
ATOM     25  C   UNL A   1      35.062  32.772  28.888  1.00  0.00     0.002 C 
BRANCH  25  26
ATOM     26  C   UNL A   1      35.366  34.236  28.548  1.00  0.00     0.002 C 
BRANCH  26  27
ATOM     27  C   UNL A   1      34.251  35.236  28.863  1.00  0.00     0.021 C 
BRANCH  27  28
ATOM     28  C   UNL A   1      33.041  34.660  29.596  1.00  0.00     0.116 C 
BRANCH  28  29
ATOM     29  N   UNL A   1      32.510  35.561  30.609  1.00  0.00    -0.352 N 
ATOM     30  C   UNL A   1      32.889  35.722  31.918  1.00  0.00     0.251 C 
ATOM     31  H   UNL A   1      31.770  36.137  30.312  1.00  0.00     0.163 HD
ATOM     32  O   UNL A   1      32.228  36.436  32.672  1.00  0.00    -0.269 OA
BRANCH  30  33
ATOM     33  C   UNL A   1      34.078  35.013  32.435  1.00  0.00     0.039 A 
ATOM     34  C   UNL A   1      33.916  33.745  33.000  1.00  0.00     0.014 A 
ATOM     35  C   UNL A   1      35.348  35.587  32.348  1.00  0.00     0.014 A 
ATOM     36  C   UNL A   1      35.038  33.020  33.405  1.00  0.00     0.010 A 
ATOM     37  C   UNL A   1      36.471  34.835  32.684  1.00  0.00     0.010 A 
ATOM     38  C   UNL A   1      36.328  33.542  33.208  1.00  0.00    -0.014 A 
BRANCH  38  39
ATOM     39  C   UNL A   1      37.538  32.737  33.513  1.00  0.00     0.031 A 
ATOM     40  C   UNL A   1      38.319  32.982  34.773  1.00  0.00     0.074 A 
ATOM     41  C   UNL A   1      37.978  31.837  32.612  1.00  0.00     0.049 A 
ATOM     42  N   UNL A   1      39.436  32.427  35.173  1.00  0.00    -0.248 NA
ATOM     43  C   UNL A   1      37.791  34.002  35.692  1.00  0.00     0.031 C 
ATOM     44  C   UNL A   1      37.337  31.537  31.331  1.00  0.00     0.029 A 
ATOM     45  N   UNL A   1      39.079  31.017  32.632  1.00  0.00    -0.354 N 
ATOM     46  C   UNL A   1      39.749  33.038  36.380  1.00  0.00     0.074 A 
ATOM     47  C   UNL A   1      38.735  34.042  36.619  1.00  0.00     0.031 C 
ATOM     48  C   UNL A   1      38.044  30.590  30.696  1.00  0.00     0.029 A 
ATOM     49  C   UNL A   1      39.211  30.247  31.502  1.00  0.00     0.049 A 
ATOM     50  H   UNL A   1      39.713  30.984  33.384  1.00  0.00     0.167 HD
ATOM     51  C   UNL A   1      40.777  32.776  37.222  1.00  0.00     0.031 A 
ATOM     52  C   UNL A   1      40.173  29.375  31.142  1.00  0.00     0.031 A 
ATOM     53  C   UNL A   1      41.790  31.784  36.978  1.00  0.00     0.049 A 
ATOM     54  C   UNL A   1      41.320  29.120  32.079  1.00  0.00     0.074 A 
ATOM     55  C   UNL A   1      42.841  31.404  37.794  1.00  0.00     0.029 A 
ATOM     56  N   UNL A   1      41.884  31.020  35.823  1.00  0.00    -0.354 N 
ATOM     57  N   UNL A   1      41.559  29.649  33.255  1.00  0.00    -0.248 NA
ATOM     58  C   UNL A   1      42.327  28.143  31.642  1.00  0.00     0.031 C 
ATOM     59  C   UNL A   1      43.609  30.459  37.107  1.00  0.00     0.029 A 
ATOM     60  C   UNL A   1      42.997  30.198  35.891  1.00  0.00     0.049 A 
ATOM     61  H   UNL A   1      41.254  31.057  35.068  1.00  0.00     0.167 HD
ATOM     62  C   UNL A   1      42.728  29.053  33.709  1.00  0.00     0.074 A 
ATOM     63  C   UNL A   1      43.140  28.108  32.690  1.00  0.00     0.031 C 
ATOM     64  C   UNL A   1      43.401  29.269  34.866  1.00  0.00     0.031 A 
BRANCH  51  65
ATOM     65  C   UNL A   1      40.863  33.596  38.481  1.00  0.00    -0.014 A 
ATOM     66  C   UNL A   1      41.579  34.804  38.519  1.00  0.00     0.009 A 
ATOM     67  C   UNL A   1      40.204  33.165  39.643  1.00  0.00     0.009 A 
ATOM     68  C   UNL A   1      41.674  35.535  39.705  1.00  0.00     0.001 A 
ATOM     69  C   UNL A   1      40.270  33.916  40.818  1.00  0.00     0.001 A 
ATOM     70  C   UNL A   1      41.017  35.093  40.852  1.00  0.00     0.000 A 
ENDBRANCH  51  65
BRANCH  52  71
ATOM     71  C   UNL A   1      40.089  28.683  29.830  1.00  0.00    -0.014 A 
ATOM     72  C   UNL A   1      39.471  27.428  29.720  1.00  0.00     0.009 A 
ATOM     73  C   UNL A   1      40.617  29.281  28.675  1.00  0.00     0.009 A 
ATOM     74  C   UNL A   1      39.405  26.777  28.485  1.00  0.00     0.001 A 
ATOM     75  C   UNL A   1      40.522  28.642  27.437  1.00  0.00     0.001 A 
ATOM     76  C   UNL A   1      39.924  27.388  27.345  1.00  0.00     0.000 A 
ENDBRANCH  52  71
BRANCH  64  77
ATOM     77  C   UNL A   1      44.642  28.453  35.104  1.00  0.00    -0.014 A 
ATOM     78  C   UNL A   1      44.578  27.185  35.703  1.00  0.00     0.009 A 
ATOM     79  C   UNL A   1      45.888  28.943  34.681  1.00  0.00     0.009 A 
ATOM     80  C   UNL A   1      45.743  26.438  35.899  1.00  0.00     0.001 A 
ATOM     81  C   UNL A   1      47.044  28.181  34.850  1.00  0.00     0.001 A 
ATOM     82  C   UNL A   1      46.972  26.934  35.467  1.00  0.00     0.000 A 
ENDBRANCH  64  77
ENDBRANCH  38  39
ENDBRANCH  30  33
ENDBRANCH  28  29
ENDBRANCH  27  28
ENDBRANCH  26  27
ENDBRANCH  25  26
ENDBRANCH   1  25
TORSDOF 18
ENDMDL
