MODEL 1
REMARK VINA RESULT:     -11.4      0.000      0.000
REMARK SMILES Cc1ccc2[nH]c3c(=O)n(CC(=O)NCCCCCCNC(=O)c4ccc(-c5c6nc(c(-c7ccccc7)c7ccc([nH]7)c(-c7ccccc7)c7nc(c(-c8ccccc8)c8ccc5[nH]8)C=C7)C=C6)cc4)cnc3c2c1
REMARK SMILES IDX 18 1 17 2 16 3 15 4 14 5 12 6 13 7 11 9 10 10 1 11 2 12 3 13
REMARK SMILES IDX 76 14 4 15 75 16 5 17 74 18 6 19 7 20 73 21 8 23 72 24 9 25
REMARK SMILES IDX 19 26 20 27 21 28 22 29 23 31 24 32 25 33 71 34 26 35 70 36
REMARK SMILES IDX 27 37 28 38 29 39 64 40 30 41 69 42 63 43 65 44 31 45 68 46
REMARK SMILES IDX 62 47 61 48 32 50 54 51 39 52 53 53 40 54 43 55 52 56 66 57
REMARK SMILES IDX 41 58 42 59 51 61 67 62 44 63 33 64 34 65 38 66 35 67 37 68
REMARK SMILES IDX 36 69 55 70 56 71 60 72 57 73 59 74 58 75 45 76 46 77 50 78
REMARK SMILES IDX 47 79 49 80 48 81
REMARK H PARENT 14 8 6 22 21 30 65 49 43 60
REMARK Flexibility Score: inf
ROOT
ATOM      1  C   UNL A   1      31.669  27.868  25.777  1.00  0.00     0.002 C 
ENDROOT
BRANCH   1   2
ATOM      2  C   UNL A   1      31.085  27.670  24.372  1.00  0.00     0.002 C 
BRANCH   2   3
ATOM      3  C   UNL A   1      29.936  26.657  24.278  1.00  0.00     0.021 C 
BRANCH   3   4
ATOM      4  C   UNL A   1      30.341  25.324  23.655  1.00  0.00     0.116 C 
BRANCH   4   5
ATOM      5  N   UNL A   1      30.335  24.253  24.629  1.00  0.00    -0.355 N 
ATOM      6  C   UNL A   1      31.206  23.219  24.808  1.00  0.00     0.240 C 
ATOM      7  O   UNL A   1      31.100  22.567  25.850  1.00  0.00    -0.273 OA
ATOM      8  H   UNL A   1      29.583  24.275  25.264  1.00  0.00     0.163 HD
BRANCH   6   9
ATOM      9  C   UNL A   1      32.375  22.979  23.846  1.00  0.00     0.226 C 
BRANCH   9  10
ATOM     10  N   UNL A   1      33.684  23.175  24.449  1.00  0.00    -0.288 N 
ATOM     11  C   UNL A   1      40.457  25.192  27.778  1.00  0.00     0.044 C 
ATOM     12  C   UNL A   1      39.542  24.207  27.111  1.00  0.00    -0.050 A 
ATOM     13  C   UNL A   1      39.989  22.901  26.878  1.00  0.00     0.005 A 
ATOM     14  C   UNL A   1      38.243  24.580  26.727  1.00  0.00     0.016 A 
ATOM     15  C   UNL A   1      39.177  21.947  26.257  1.00  0.00     0.027 A 
ATOM     16  C   UNL A   1      37.403  23.637  26.100  1.00  0.00     0.026 A 
ATOM     17  C   UNL A   1      37.892  22.343  25.874  1.00  0.00     0.048 A 
ATOM     18  C   UNL A   1      36.083  23.645  25.599  1.00  0.00     0.103 A 
ATOM     19  N   UNL A   1      36.892  21.624  25.249  1.00  0.00    -0.349 N 
ATOM     20  C   UNL A   1      35.795  22.417  25.078  1.00  0.00     0.132 A 
ATOM     21  N   UNL A   1      35.155  24.689  25.616  1.00  0.00    -0.236 NA
ATOM     22  H   UNL A   1      36.961  20.682  24.970  1.00  0.00     0.167 HD
ATOM     23  C   UNL A   1      34.550  22.091  24.481  1.00  0.00     0.278 A 
ATOM     24  C   UNL A   1      34.025  24.375  25.061  1.00  0.00     0.203 A 
ATOM     25  O   UNL A   1      34.284  20.970  24.045  1.00  0.00    -0.267 OA
ENDBRANCH   9  10
ENDBRANCH   6   9
ENDBRANCH   4   5
ENDBRANCH   3   4
ENDBRANCH   2   3
ENDBRANCH   1   2
BRANCH   1  26
ATOM     26  C   UNL A   1      32.908  28.769  25.853  1.00  0.00     0.021 C 
BRANCH  26  27
ATOM     27  C   UNL A   1      33.371  29.083  27.276  1.00  0.00     0.116 C 
BRANCH  27  28
ATOM     28  N   UNL A   1      33.568  30.497  27.521  1.00  0.00    -0.352 N 
ATOM     29  C   UNL A   1      34.637  31.282  27.844  1.00  0.00     0.251 C 
ATOM     30  H   UNL A   1      32.734  31.013  27.435  1.00  0.00     0.163 HD
ATOM     31  O   UNL A   1      34.434  32.499  27.843  1.00  0.00    -0.269 OA
BRANCH  29  32
ATOM     32  C   UNL A   1      35.975  30.788  28.267  1.00  0.00     0.039 A 
ATOM     33  C   UNL A   1      36.978  31.549  28.866  1.00  0.00     0.014 A 
ATOM     34  C   UNL A   1      36.253  29.442  27.950  1.00  0.00     0.014 A 
ATOM     35  C   UNL A   1      38.257  31.023  29.018  1.00  0.00     0.010 A 
ATOM     36  C   UNL A   1      37.523  28.906  28.116  1.00  0.00     0.010 A 
ATOM     37  C   UNL A   1      38.541  29.720  28.592  1.00  0.00    -0.014 A 
BRANCH  37  38
ATOM     38  C   UNL A   1      39.894  29.209  28.793  1.00  0.00     0.031 A 
ATOM     39  C   UNL A   1      40.210  28.906  30.214  1.00  0.00     0.074 A 
ATOM     40  C   UNL A   1      40.768  28.954  27.798  1.00  0.00     0.049 A 
ATOM     41  N   UNL A   1      41.054  29.521  30.974  1.00  0.00    -0.248 NA
ATOM     42  C   UNL A   1      39.386  27.909  30.915  1.00  0.00     0.031 C 
ATOM     43  C   UNL A   1      40.523  28.966  26.354  1.00  0.00     0.029 A 
ATOM     44  N   UNL A   1      42.065  28.531  27.878  1.00  0.00    -0.354 N 
ATOM     45  C   UNL A   1      41.013  28.866  32.201  1.00  0.00     0.074 A 
ATOM     46  C   UNL A   1      39.865  27.996  32.156  1.00  0.00     0.031 C 
ATOM     47  C   UNL A   1      41.541  28.339  25.718  1.00  0.00     0.029 A 
ATOM     48  C   UNL A   1      42.576  28.023  26.688  1.00  0.00     0.049 A 
ATOM     49  H   UNL A   1      42.592  28.580  28.709  1.00  0.00     0.167 HD
ATOM     50  C   UNL A   1      42.071  28.913  33.057  1.00  0.00     0.031 A 
ATOM     51  C   UNL A   1      43.745  27.352  26.522  1.00  0.00     0.031 A 
ATOM     52  C   UNL A   1      42.969  29.988  32.725  1.00  0.00     0.049 A 
ATOM     53  C   UNL A   1      44.618  27.692  27.665  1.00  0.00     0.074 A 
ATOM     54  C   UNL A   1      42.881  31.363  32.673  1.00  0.00     0.029 A 
ATOM     55  N   UNL A   1      44.089  29.647  32.009  1.00  0.00    -0.354 N 
ATOM     56  N   UNL A   1      45.124  28.874  27.859  1.00  0.00    -0.248 NA
ATOM     57  C   UNL A   1      44.588  26.821  28.827  1.00  0.00     0.031 C 
ATOM     58  C   UNL A   1      43.692  31.743  31.564  1.00  0.00     0.029 A 
ATOM     59  C   UNL A   1      44.288  30.593  31.043  1.00  0.00     0.049 A 
ATOM     60  H   UNL A   1      44.653  28.855  32.164  1.00  0.00     0.167 HD
ATOM     61  C   UNL A   1      45.040  29.063  29.229  1.00  0.00     0.074 A 
ATOM     62  C   UNL A   1      44.810  27.728  29.781  1.00  0.00     0.031 C 
ATOM     63  C   UNL A   1      44.881  30.314  29.753  1.00  0.00     0.031 A 
BRANCH  50  64
ATOM     64  C   UNL A   1      42.531  27.723  33.869  1.00  0.00    -0.014 A 
ATOM     65  C   UNL A   1      41.865  27.259  35.019  1.00  0.00     0.009 A 
ATOM     66  C   UNL A   1      43.476  26.849  33.298  1.00  0.00     0.009 A 
ATOM     67  C   UNL A   1      42.080  25.978  35.536  1.00  0.00     0.001 A 
ATOM     68  C   UNL A   1      43.664  25.550  33.787  1.00  0.00     0.001 A 
ATOM     69  C   UNL A   1      42.956  25.112  34.899  1.00  0.00     0.000 A 
ENDBRANCH  50  64
BRANCH  51  70
ATOM     70  C   UNL A   1      44.013  26.155  25.688  1.00  0.00    -0.014 A 
ATOM     71  C   UNL A   1      42.987  25.226  25.440  1.00  0.00     0.009 A 
ATOM     72  C   UNL A   1      45.335  25.752  25.420  1.00  0.00     0.009 A 
ATOM     73  C   UNL A   1      43.273  23.928  24.998  1.00  0.00     0.001 A 
ATOM     74  C   UNL A   1      45.620  24.453  24.979  1.00  0.00     0.001 A 
ATOM     75  C   UNL A   1      44.590  23.535  24.786  1.00  0.00     0.000 A 
ENDBRANCH  51  70
BRANCH  63  76
ATOM     76  C   UNL A   1      45.099  31.507  28.853  1.00  0.00    -0.014 A 
ATOM     77  C   UNL A   1      46.313  32.201  28.982  1.00  0.00     0.009 A 
ATOM     78  C   UNL A   1      44.098  32.065  28.040  1.00  0.00     0.009 A 
ATOM     79  C   UNL A   1      46.516  33.424  28.341  1.00  0.00     0.001 A 
ATOM     80  C   UNL A   1      44.312  33.277  27.372  1.00  0.00     0.001 A 
ATOM     81  C   UNL A   1      45.517  33.961  27.536  1.00  0.00     0.000 A 
ENDBRANCH  63  76
ENDBRANCH  37  38
ENDBRANCH  29  32
ENDBRANCH  27  28
ENDBRANCH  26  27
ENDBRANCH   1  26
TORSDOF 14
ENDMDL
MODEL 2
REMARK VINA RESULT:     -11.3      1.629      2.215
REMARK SMILES Cc1ccc2[nH]c3c(=O)n(CC(=O)NCCCCCCNC(=O)c4ccc(-c5c6nc(c(-c7ccccc7)c7ccc([nH]7)c(-c7ccccc7)c7nc(c(-c8ccccc8)c8ccc5[nH]8)C=C7)C=C6)cc4)cnc3c2c1
REMARK SMILES IDX 18 1 17 2 16 3 15 4 14 5 12 6 13 7 11 9 10 10 1 11 2 12 3 13
REMARK SMILES IDX 76 14 4 15 75 16 5 17 74 18 6 19 7 20 73 21 8 23 72 24 9 25
REMARK SMILES IDX 19 26 20 27 21 28 22 29 23 31 24 32 25 33 71 34 26 35 70 36
REMARK SMILES IDX 27 37 28 38 29 39 64 40 30 41 69 42 63 43 65 44 31 45 68 46
REMARK SMILES IDX 62 47 61 48 32 50 54 51 39 52 53 53 40 54 43 55 52 56 66 57
REMARK SMILES IDX 41 58 42 59 51 61 67 62 44 63 33 64 34 65 38 66 35 67 37 68
REMARK SMILES IDX 36 69 55 70 56 71 60 72 57 73 59 74 58 75 45 76 46 77 50 78
REMARK SMILES IDX 47 79 49 80 48 81
REMARK H PARENT 14 8 6 22 21 30 65 49 43 60
REMARK Flexibility Score: inf
ROOT
ATOM      1  C   UNL A   1      31.606  28.967  26.759  1.00  0.00     0.002 C 
ENDROOT
BRANCH   1   2
ATOM      2  C   UNL A   1      31.416  28.057  25.538  1.00  0.00     0.002 C 
BRANCH   2   3
ATOM      3  C   UNL A   1      31.020  28.777  24.242  1.00  0.00     0.021 C 
BRANCH   3   4
ATOM      4  C   UNL A   1      30.185  27.921  23.294  1.00  0.00     0.116 C 
BRANCH   4   5
ATOM      5  N   UNL A   1      30.961  27.462  22.162  1.00  0.00    -0.355 N 
ATOM      6  C   UNL A   1      31.481  26.231  21.890  1.00  0.00     0.240 C 
ATOM      7  O   UNL A   1      31.914  26.042  20.750  1.00  0.00    -0.273 OA
ATOM      8  H   UNL A   1      31.142  28.148  21.479  1.00  0.00     0.163 HD
BRANCH   6   9
ATOM      9  C   UNL A   1      31.377  25.077  22.893  1.00  0.00     0.226 C 
BRANCH   9  10
ATOM     10  N   UNL A   1      32.643  24.717  23.511  1.00  0.00    -0.288 N 
ATOM     11  C   UNL A   1      39.471  23.726  27.175  1.00  0.00     0.044 C 
ATOM     12  C   UNL A   1      38.359  23.259  26.282  1.00  0.00    -0.050 A 
ATOM     13  C   UNL A   1      38.425  21.984  25.708  1.00  0.00     0.005 A 
ATOM     14  C   UNL A   1      37.250  24.084  26.026  1.00  0.00     0.016 A 
ATOM     15  C   UNL A   1      37.417  21.505  24.866  1.00  0.00     0.027 A 
ATOM     16  C   UNL A   1      36.218  23.624  25.182  1.00  0.00     0.026 A 
ATOM     17  C   UNL A   1      36.329  22.346  24.617  1.00  0.00     0.048 A 
ATOM     18  C   UNL A   1      34.993  24.149  24.716  1.00  0.00     0.103 A 
ATOM     19  N   UNL A   1      35.209  22.138  23.836  1.00  0.00    -0.349 N 
ATOM     20  C   UNL A   1      34.400  23.236  23.893  1.00  0.00     0.132 A 
ATOM     21  N   UNL A   1      34.406  25.379  25.019  1.00  0.00    -0.236 NA
ATOM     22  H   UNL A   1      35.023  21.322  23.318  1.00  0.00     0.167 HD
ATOM     23  C   UNL A   1      33.156  23.455  23.246  1.00  0.00     0.278 A 
ATOM     24  C   UNL A   1      33.273  25.565  24.413  1.00  0.00     0.203 A 
ATOM     25  O   UNL A   1      32.610  22.613  22.533  1.00  0.00    -0.267 OA
ENDBRANCH   9  10
ENDBRANCH   6   9
ENDBRANCH   4   5
ENDBRANCH   3   4
ENDBRANCH   2   3
ENDBRANCH   1   2
BRANCH   1  26
ATOM     26  C   UNL A   1      33.052  29.108  27.254  1.00  0.00     0.021 C 
BRANCH  26  27
ATOM     27  C   UNL A   1      33.841  30.231  26.579  1.00  0.00     0.116 C 
BRANCH  27  28
ATOM     28  N   UNL A   1      34.185  31.315  27.475  1.00  0.00    -0.352 N 
ATOM     29  C   UNL A   1      35.314  31.697  28.141  1.00  0.00     0.251 C 
ATOM     30  H   UNL A   1      33.426  31.918  27.644  1.00  0.00     0.163 HD
ATOM     31  O   UNL A   1      35.257  32.782  28.725  1.00  0.00    -0.269 OA
BRANCH  29  32
ATOM     32  C   UNL A   1      36.552  30.884  28.279  1.00  0.00     0.039 A 
ATOM     33  C   UNL A   1      36.695  29.542  27.928  1.00  0.00     0.014 A 
ATOM     34  C   UNL A   1      37.641  31.534  28.895  1.00  0.00     0.014 A 
ATOM     35  C   UNL A   1      37.835  28.839  28.304  1.00  0.00     0.010 A 
ATOM     36  C   UNL A   1      38.789  30.843  29.256  1.00  0.00     0.010 A 
ATOM     37  C   UNL A   1      38.857  29.477  29.015  1.00  0.00    -0.014 A 
BRANCH  37  38
ATOM     38  C   UNL A   1      40.042  28.700  29.367  1.00  0.00     0.031 A 
ATOM     39  C   UNL A   1      40.289  28.623  30.830  1.00  0.00     0.074 A 
ATOM     40  C   UNL A   1      40.813  28.042  28.477  1.00  0.00     0.049 A 
ATOM     41  N   UNL A   1      41.269  29.151  31.486  1.00  0.00    -0.248 NA
ATOM     42  C   UNL A   1      39.251  28.023  31.682  1.00  0.00     0.031 C 
ATOM     43  C   UNL A   1      40.562  27.822  27.051  1.00  0.00     0.029 A 
ATOM     44  N   UNL A   1      41.964  27.338  28.690  1.00  0.00    -0.354 N 
ATOM     45  C   UNL A   1      41.081  28.789  32.815  1.00  0.00     0.074 A 
ATOM     46  C   UNL A   1      39.752  28.238  32.899  1.00  0.00     0.031 C 
ATOM     47  C   UNL A   1      41.384  26.848  26.593  1.00  0.00     0.029 A 
ATOM     48  C   UNL A   1      42.319  26.490  27.645  1.00  0.00     0.049 A 
ATOM     49  H   UNL A   1      42.497  27.422  29.514  1.00  0.00     0.167 HD
ATOM     50  C   UNL A   1      42.127  28.745  33.685  1.00  0.00     0.031 A 
ATOM     51  C   UNL A   1      43.281  25.532  27.662  1.00  0.00     0.031 A 
ATOM     52  C   UNL A   1      43.261  29.476  33.182  1.00  0.00     0.049 A 
ATOM     53  C   UNL A   1      44.225  25.871  28.748  1.00  0.00     0.074 A 
ATOM     54  C   UNL A   1      43.518  30.791  32.855  1.00  0.00     0.029 A 
ATOM     55  N   UNL A   1      44.252  28.732  32.592  1.00  0.00    -0.354 N 
ATOM     56  N   UNL A   1      45.012  26.905  28.723  1.00  0.00    -0.248 NA
ATOM     57  C   UNL A   1      43.993  25.287  30.058  1.00  0.00     0.031 C 
ATOM     58  C   UNL A   1      44.384  30.727  31.724  1.00  0.00     0.029 A 
ATOM     59  C   UNL A   1      44.669  29.385  31.467  1.00  0.00     0.049 A 
ATOM     60  H   UNL A   1      44.603  27.874  32.924  1.00  0.00     0.167 HD
ATOM     61  C   UNL A   1      44.995  27.382  30.023  1.00  0.00     0.074 A 
ATOM     62  C   UNL A   1      44.445  26.285  30.821  1.00  0.00     0.031 C 
ATOM     63  C   UNL A   1      45.158  28.713  30.282  1.00  0.00     0.031 A 
BRANCH  50  64
ATOM     64  C   UNL A   1      42.286  27.669  34.736  1.00  0.00    -0.014 A 
ATOM     65  C   UNL A   1      41.783  27.777  36.045  1.00  0.00     0.009 A 
ATOM     66  C   UNL A   1      42.674  26.381  34.319  1.00  0.00     0.009 A 
ATOM     67  C   UNL A   1      41.619  26.662  36.873  1.00  0.00     0.001 A 
ATOM     68  C   UNL A   1      42.472  25.256  35.128  1.00  0.00     0.001 A 
ATOM     69  C   UNL A   1      41.933  25.397  36.401  1.00  0.00     0.000 A 
ENDBRANCH  50  64
BRANCH  51  70
ATOM     70  C   UNL A   1      43.233  24.162  27.094  1.00  0.00    -0.014 A 
ATOM     71  C   UNL A   1      43.254  23.977  25.701  1.00  0.00     0.009 A 
ATOM     72  C   UNL A   1      42.833  23.073  27.890  1.00  0.00     0.009 A 
ATOM     73  C   UNL A   1      42.836  22.773  25.121  1.00  0.00     0.001 A 
ATOM     74  C   UNL A   1      42.414  21.868  27.309  1.00  0.00     0.001 A 
ATOM     75  C   UNL A   1      42.398  21.725  25.924  1.00  0.00     0.000 A 
ENDBRANCH  51  70
BRANCH  63  76
ATOM     76  C   UNL A   1      45.656  29.609  29.172  1.00  0.00    -0.014 A 
ATOM     77  C   UNL A   1      44.715  30.054  28.230  1.00  0.00     0.009 A 
ATOM     78  C   UNL A   1      47.015  29.867  28.928  1.00  0.00     0.009 A 
ATOM     79  C   UNL A   1      45.116  30.714  27.068  1.00  0.00     0.001 A 
ATOM     80  C   UNL A   1      47.416  30.555  27.776  1.00  0.00     0.001 A 
ATOM     81  C   UNL A   1      46.466  30.966  26.841  1.00  0.00     0.000 A 
ENDBRANCH  63  76
ENDBRANCH  37  38
ENDBRANCH  29  32
ENDBRANCH  27  28
ENDBRANCH  26  27
ENDBRANCH   1  26
TORSDOF 14
ENDMDL
MODEL 3
REMARK VINA RESULT:     -11.2      2.287      7.552
REMARK SMILES Cc1ccc2[nH]c3c(=O)n(CC(=O)NCCCCCCNC(=O)c4ccc(-c5c6nc(c(-c7ccccc7)c7ccc([nH]7)c(-c7ccccc7)c7nc(c(-c8ccccc8)c8ccc5[nH]8)C=C7)C=C6)cc4)cnc3c2c1
REMARK SMILES IDX 18 1 17 2 16 3 15 4 14 5 12 6 13 7 11 9 10 10 1 11 2 12 3 13
REMARK SMILES IDX 76 14 4 15 75 16 5 17 74 18 6 19 7 20 73 21 8 23 72 24 9 25
REMARK SMILES IDX 19 26 20 27 21 28 22 29 23 31 24 32 25 33 71 34 26 35 70 36
REMARK SMILES IDX 27 37 28 38 29 39 64 40 30 41 69 42 63 43 65 44 31 45 68 46
REMARK SMILES IDX 62 47 61 48 32 50 54 51 39 52 53 53 40 54 43 55 52 56 66 57
REMARK SMILES IDX 41 58 42 59 51 61 67 62 44 63 33 64 34 65 38 66 35 67 37 68
REMARK SMILES IDX 36 69 55 70 56 71 60 72 57 73 59 74 58 75 45 76 46 77 50 78
REMARK SMILES IDX 47 79 49 80 48 81
REMARK H PARENT 14 8 6 22 21 30 65 49 43 60
REMARK Flexibility Score: inf
ROOT
ATOM      1  C   UNL A   1      35.911  21.564  25.300  1.00  0.00     0.002 C 
ENDROOT
BRANCH   1   2
ATOM      2  C   UNL A   1      34.630  21.475  24.459  1.00  0.00     0.002 C 
BRANCH   2   3
ATOM      3  C   UNL A   1      33.673  20.338  24.843  1.00  0.00     0.021 C 
BRANCH   3   4
ATOM      4  C   UNL A   1      32.198  20.705  24.708  1.00  0.00     0.116 C 
BRANCH   4   5
ATOM      5  N   UNL A   1      31.691  21.336  25.908  1.00  0.00    -0.355 N 
ATOM      6  C   UNL A   1      31.271  22.616  26.121  1.00  0.00     0.240 C 
ATOM      7  O   UNL A   1      30.675  22.845  27.176  1.00  0.00    -0.273 OA
ATOM      8  H   UNL A   1      31.640  20.748  26.696  1.00  0.00     0.163 HD
BRANCH   6   9
ATOM      9  C   UNL A   1      31.376  23.687  25.029  1.00  0.00     0.226 C 
BRANCH   9  10
ATOM     10  N   UNL A   1      32.034  24.909  25.462  1.00  0.00    -0.288 N 
ATOM     11  C   UNL A   1      36.415  30.935  27.811  1.00  0.00     0.044 C 
ATOM     12  C   UNL A   1      35.099  30.297  27.472  1.00  0.00    -0.050 A 
ATOM     13  C   UNL A   1      33.921  31.043  27.593  1.00  0.00     0.005 A 
ATOM     14  C   UNL A   1      35.041  28.965  27.027  1.00  0.00     0.016 A 
ATOM     15  C   UNL A   1      32.671  30.493  27.294  1.00  0.00     0.027 A 
ATOM     16  C   UNL A   1      33.793  28.387  26.718  1.00  0.00     0.026 A 
ATOM     17  C   UNL A   1      32.635  29.164  26.864  1.00  0.00     0.048 A 
ATOM     18  C   UNL A   1      33.358  27.127  26.254  1.00  0.00     0.103 A 
ATOM     19  N   UNL A   1      31.558  28.376  26.508  1.00  0.00    -0.349 N 
ATOM     20  C   UNL A   1      31.998  27.137  26.142  1.00  0.00     0.132 A 
ATOM     21  N   UNL A   1      34.129  26.012  25.920  1.00  0.00    -0.236 NA
ATOM     22  H   UNL A   1      30.617  28.665  26.517  1.00  0.00     0.167 HD
ATOM     23  C   UNL A   1      31.238  26.019  25.710  1.00  0.00     0.278 A 
ATOM     24  C   UNL A   1      33.418  24.997  25.534  1.00  0.00     0.203 A 
ATOM     25  O   UNL A   1      30.014  26.046  25.578  1.00  0.00    -0.267 OA
ENDBRANCH   9  10
ENDBRANCH   6   9
ENDBRANCH   4   5
ENDBRANCH   3   4
ENDBRANCH   2   3
ENDBRANCH   1   2
BRANCH   1  26
ATOM     26  C   UNL A   1      36.889  22.674  24.894  1.00  0.00     0.021 C 
BRANCH  26  27
ATOM     27  C   UNL A   1      37.810  23.144  26.020  1.00  0.00     0.116 C 
BRANCH  27  28
ATOM     28  N   UNL A   1      39.147  22.595  25.939  1.00  0.00    -0.352 N 
ATOM     29  C   UNL A   1      40.375  22.967  26.404  1.00  0.00     0.251 C 
ATOM     30  H   UNL A   1      39.178  21.754  25.427  1.00  0.00     0.163 HD
ATOM     31  O   UNL A   1      41.287  22.153  26.239  1.00  0.00    -0.269 OA
BRANCH  29  32
ATOM     32  C   UNL A   1      40.706  24.287  27.008  1.00  0.00     0.039 A 
ATOM     33  C   UNL A   1      41.434  24.493  28.179  1.00  0.00     0.014 A 
ATOM     34  C   UNL A   1      40.154  25.408  26.355  1.00  0.00     0.014 A 
ATOM     35  C   UNL A   1      41.492  25.760  28.751  1.00  0.00     0.010 A 
ATOM     36  C   UNL A   1      40.224  26.678  26.912  1.00  0.00     0.010 A 
ATOM     37  C   UNL A   1      40.841  26.840  28.145  1.00  0.00    -0.014 A 
BRANCH  37  38
ATOM     38  C   UNL A   1      40.950  28.152  28.775  1.00  0.00     0.031 A 
ATOM     39  C   UNL A   1      42.121  28.941  28.307  1.00  0.00     0.074 A 
ATOM     40  C   UNL A   1      40.051  28.659  29.643  1.00  0.00     0.049 A 
ATOM     41  N   UNL A   1      43.164  29.271  28.994  1.00  0.00    -0.248 NA
ATOM     42  C   UNL A   1      42.216  29.266  26.876  1.00  0.00     0.031 C 
ATOM     43  C   UNL A   1      38.740  28.114  30.007  1.00  0.00     0.029 A 
ATOM     44  N   UNL A   1      40.084  29.841  30.327  1.00  0.00    -0.354 N 
ATOM     45  C   UNL A   1      43.967  30.017  28.137  1.00  0.00     0.074 A 
ATOM     46  C   UNL A   1      43.415  29.846  26.816  1.00  0.00     0.031 C 
ATOM     47  C   UNL A   1      38.014  29.069  30.636  1.00  0.00     0.029 A 
ATOM     48  C   UNL A   1      38.858  30.230  30.858  1.00  0.00     0.049 A 
ATOM     49  H   UNL A   1      40.906  30.373  30.434  1.00  0.00     0.167 HD
ATOM     50  C   UNL A   1      44.871  30.911  28.623  1.00  0.00     0.031 A 
ATOM     51  C   UNL A   1      38.549  31.437  31.399  1.00  0.00     0.031 A 
ATOM     52  C   UNL A   1      45.148  30.675  30.016  1.00  0.00     0.049 A 
ATOM     53  C   UNL A   1      39.817  32.077  31.809  1.00  0.00     0.074 A 
ATOM     54  C   UNL A   1      45.694  29.643  30.750  1.00  0.00     0.029 A 
ATOM     55  N   UNL A   1      44.487  31.477  30.913  1.00  0.00    -0.354 N 
ATOM     56  N   UNL A   1      40.565  31.640  32.778  1.00  0.00    -0.248 NA
ATOM     57  C   UNL A   1      40.469  32.964  30.861  1.00  0.00     0.031 C 
ATOM     58  C   UNL A   1      44.962  29.634  31.974  1.00  0.00     0.029 A 
ATOM     59  C   UNL A   1      44.063  30.701  31.954  1.00  0.00     0.049 A 
ATOM     60  H   UNL A   1      44.343  32.447  30.821  1.00  0.00     0.167 HD
ATOM     61  C   UNL A   1      41.860  31.805  32.315  1.00  0.00     0.074 A 
ATOM     62  C   UNL A   1      41.742  32.725  31.184  1.00  0.00     0.031 C 
ATOM     63  C   UNL A   1      42.857  30.960  32.712  1.00  0.00     0.031 A 
BRANCH  50  64
ATOM     64  C   UNL A   1      45.127  32.259  27.985  1.00  0.00    -0.014 A 
ATOM     65  C   UNL A   1      46.256  32.545  27.196  1.00  0.00     0.009 A 
ATOM     66  C   UNL A   1      44.061  33.175  27.909  1.00  0.00     0.009 A 
ATOM     67  C   UNL A   1      46.301  33.646  26.335  1.00  0.00     0.001 A 
ATOM     68  C   UNL A   1      44.084  34.254  27.017  1.00  0.00     0.001 A 
ATOM     69  C   UNL A   1      45.200  34.482  26.222  1.00  0.00     0.000 A 
ENDBRANCH  50  64
BRANCH  51  70
ATOM     70  C   UNL A   1      37.312  32.237  31.228  1.00  0.00    -0.014 A 
ATOM     71  C   UNL A   1      36.075  31.719  31.646  1.00  0.00     0.009 A 
ATOM     72  C   UNL A   1      37.294  33.348  30.364  1.00  0.00     0.009 A 
ATOM     73  C   UNL A   1      34.867  32.249  31.175  1.00  0.00     0.001 A 
ATOM     74  C   UNL A   1      36.085  33.878  29.892  1.00  0.00     0.001 A 
ATOM     75  C   UNL A   1      34.873  33.316  30.284  1.00  0.00     0.000 A 
ENDBRANCH  51  70
BRANCH  63  76
ATOM     76  C   UNL A   1      42.602  30.041  33.882  1.00  0.00    -0.014 A 
ATOM     77  C   UNL A   1      41.932  28.834  33.623  1.00  0.00     0.009 A 
ATOM     78  C   UNL A   1      42.828  30.401  35.221  1.00  0.00     0.009 A 
ATOM     79  C   UNL A   1      41.479  28.023  34.664  1.00  0.00     0.001 A 
ATOM     80  C   UNL A   1      42.400  29.573  36.266  1.00  0.00     0.001 A 
ATOM     81  C   UNL A   1      41.713  28.391  35.986  1.00  0.00     0.000 A 
ENDBRANCH  63  76
ENDBRANCH  37  38
ENDBRANCH  29  32
ENDBRANCH  27  28
ENDBRANCH  26  27
ENDBRANCH   1  26
TORSDOF 14
ENDMDL
