MODEL 1
REMARK VINA RESULT:     -11.1      0.000      0.000
REMARK SMILES C[C@@H](C(=O)NCCCCCCNC(=O)c1ccc(-c2c3nc(c(-c4ccccc4)c4ccc([nH]4)c(-c4ccccc4)c4nc(c(-c5ccccc5)c5ccc2[nH]5)C=C4)C=C3)cc1)N1C(=O)/C(=C/c2ccc(N(C)C)cc2)SC1=S
REMARK SMILES IDX 8 1 7 2 6 3 5 4 3 5 4 6 2 8 1 9 63 10 64 11 78 12 65 13
REMARK SMILES IDX 66 14 77 15 79 16 67 17 68 18 69 19 76 20 70 21 75 22 71 23
REMARK SMILES IDX 72 24 73 25 74 26 9 27 10 28 11 29 12 30 13 31 14 33 15 34
REMARK SMILES IDX 16 35 62 36 17 37 61 38 18 39 19 40 20 41 55 42 21 43 60 44
REMARK SMILES IDX 54 45 56 46 22 47 59 48 53 49 52 50 23 52 45 53 30 54 44 55
REMARK SMILES IDX 31 56 34 57 43 58 57 59 32 60 33 61 42 63 58 64 35 65 24 66
REMARK SMILES IDX 25 67 29 68 26 69 28 70 27 71 46 72 47 73 51 74 48 75 50 76
REMARK SMILES IDX 49 77 36 78 37 79 41 80 38 81 40 82 39 83
REMARK H PARENT 5 7 12 32 56 51 34 62
REMARK Flexibility Score: inf
ROOT
ATOM      1  C   UNL A   1      34.006  25.689  25.926  1.00  0.00     0.002 C 
ENDROOT
BRANCH   1   2
ATOM      2  C   UNL A   1      34.945  24.757  25.151  1.00  0.00     0.021 C 
BRANCH   2   3
ATOM      3  C   UNL A   1      34.613  23.274  25.308  1.00  0.00     0.116 C 
BRANCH   3   4
ATOM      4  N   UNL A   1      33.989  23.017  26.587  1.00  0.00    -0.354 N 
ATOM      5  C   UNL A   1      32.759  22.504  26.872  1.00  0.00     0.242 C 
ATOM      6  O   UNL A   1      32.481  22.345  28.064  1.00  0.00    -0.273 OA
ATOM      7  H   UNL A   1      34.536  23.247  27.372  1.00  0.00     0.163 HD
BRANCH   5   8
ATOM      8  C   UNL A   1      31.806  22.080  25.731  1.00  0.00     0.178 C 
ATOM      9  C   UNL A   1      32.318  20.940  24.849  1.00  0.00     0.042 C 
BRANCH   8  10
ATOM     10  N   UNL A   1      31.483  23.294  24.956  1.00  0.00    -0.281 N 
ATOM     11  C   UNL A   1      30.748  24.307  25.558  1.00  0.00     0.266 C 
ATOM     12  C   UNL A   1      31.740  23.444  23.609  1.00  0.00     0.149 C 
ATOM     13  O   UNL A   1      30.386  24.352  26.722  1.00  0.00    -0.268 OA
ATOM     14  C   UNL A   1      30.466  25.387  24.580  1.00  0.00     0.081 C 
ATOM     15  S   UNL A   1      31.145  25.002  23.054  1.00  0.00    -0.054 SA
ATOM     16  S   UNL A   1      32.517  22.387  22.577  1.00  0.00    -0.052 S 
ATOM     17  C   UNL A   1      29.800  26.491  24.946  1.00  0.00     0.029 C 
BRANCH  17  18
ATOM     18  C   UNL A   1      29.522  27.643  24.089  1.00  0.00    -0.024 A 
ATOM     19  C   UNL A   1      28.261  27.778  23.517  1.00  0.00     0.010 A 
ATOM     20  C   UNL A   1      30.485  28.609  23.813  1.00  0.00     0.010 A 
ATOM     21  C   UNL A   1      27.957  28.889  22.714  1.00  0.00     0.026 A 
ATOM     22  C   UNL A   1      30.169  29.711  23.008  1.00  0.00     0.026 A 
ATOM     23  C   UNL A   1      28.896  29.896  22.438  1.00  0.00     0.036 A 
BRANCH  23  24
ATOM     24  N   UNL A   1      28.608  30.997  21.640  1.00  0.00    -0.378 N 
ATOM     25  C   UNL A   1      27.944  30.905  20.346  1.00  0.00     0.143 C 
ATOM     26  C   UNL A   1      28.763  32.348  22.173  1.00  0.00     0.143 C 
ENDBRANCH  23  24
ENDBRANCH  17  18
ENDBRANCH   8  10
ENDBRANCH   5   8
ENDBRANCH   3   4
ENDBRANCH   2   3
ENDBRANCH   1   2
BRANCH   1  27
ATOM     27  C   UNL A   1      33.611  26.974  25.188  1.00  0.00     0.002 C 
BRANCH  27  28
ATOM     28  C   UNL A   1      34.121  28.268  25.825  1.00  0.00     0.021 C 
BRANCH  28  29
ATOM     29  C   UNL A   1      33.650  28.497  27.256  1.00  0.00     0.116 C 
BRANCH  29  30
ATOM     30  N   UNL A   1      33.565  29.911  27.583  1.00  0.00    -0.352 N 
ATOM     31  C   UNL A   1      34.483  30.716  28.208  1.00  0.00     0.251 C 
ATOM     32  H   UNL A   1      32.728  30.354  27.315  1.00  0.00     0.163 HD
ATOM     33  O   UNL A   1      34.162  31.841  28.578  1.00  0.00    -0.269 OA
BRANCH  31  34
ATOM     34  C   UNL A   1      35.855  30.225  28.451  1.00  0.00     0.039 A 
ATOM     35  C   UNL A   1      36.791  30.301  27.415  1.00  0.00     0.014 A 
ATOM     36  C   UNL A   1      36.215  29.663  29.680  1.00  0.00     0.014 A 
ATOM     37  C   UNL A   1      38.095  29.849  27.625  1.00  0.00     0.010 A 
ATOM     38  C   UNL A   1      37.534  29.285  29.912  1.00  0.00     0.010 A 
ATOM     39  C   UNL A   1      38.483  29.357  28.881  1.00  0.00    -0.014 A 
BRANCH  39  40
ATOM     40  C   UNL A   1      39.870  28.888  29.124  1.00  0.00     0.031 A 
ATOM     41  C   UNL A   1      40.868  29.794  29.793  1.00  0.00     0.074 A 
ATOM     42  C   UNL A   1      40.244  27.664  28.706  1.00  0.00     0.049 A 
ATOM     43  N   UNL A   1      42.128  29.570  30.077  1.00  0.00    -0.248 NA
ATOM     44  C   UNL A   1      40.399  31.136  30.171  1.00  0.00     0.031 C 
ATOM     45  C   UNL A   1      39.384  26.703  28.015  1.00  0.00     0.029 A 
ATOM     46  N   UNL A   1      41.451  27.017  28.805  1.00  0.00    -0.354 N 
ATOM     47  C   UNL A   1      42.602  30.746  30.643  1.00  0.00     0.074 A 
ATOM     48  C   UNL A   1      41.513  31.698  30.617  1.00  0.00     0.031 C 
ATOM     49  C   UNL A   1      40.077  25.575  27.789  1.00  0.00     0.029 A 
ATOM     50  C   UNL A   1      41.439  25.747  28.283  1.00  0.00     0.049 A 
ATOM     51  H   UNL A   1      42.250  27.426  29.213  1.00  0.00     0.167 HD
ATOM     52  C   UNL A   1      43.827  31.008  31.158  1.00  0.00     0.031 A 
ATOM     53  C   UNL A   1      42.415  24.823  28.215  1.00  0.00     0.031 A 
ATOM     54  C   UNL A   1      44.906  30.057  31.199  1.00  0.00     0.049 A 
ATOM     55  C   UNL A   1      43.770  25.142  28.782  1.00  0.00     0.074 A 
ATOM     56  C   UNL A   1      46.163  30.202  31.758  1.00  0.00     0.029 A 
ATOM     57  N   UNL A   1      44.855  28.783  30.653  1.00  0.00    -0.354 N 
ATOM     58  N   UNL A   1      44.180  26.233  29.383  1.00  0.00    -0.248 NA
ATOM     59  C   UNL A   1      44.793  24.092  28.673  1.00  0.00     0.031 C 
ATOM     60  C   UNL A   1      46.892  29.036  31.503  1.00  0.00     0.029 A 
ATOM     61  C   UNL A   1      46.068  28.142  30.838  1.00  0.00     0.049 A 
ATOM     62  H   UNL A   1      44.072  28.393  30.202  1.00  0.00     0.167 HD
ATOM     63  C   UNL A   1      45.496  25.987  29.755  1.00  0.00     0.074 A 
ATOM     64  C   UNL A   1      45.810  24.641  29.323  1.00  0.00     0.031 C 
ATOM     65  C   UNL A   1      46.365  26.803  30.401  1.00  0.00     0.031 A 
BRANCH  52  66
ATOM     66  C   UNL A   1      44.066  32.389  31.705  1.00  0.00    -0.014 A 
ATOM     67  C   UNL A   1      43.855  32.687  33.062  1.00  0.00     0.009 A 
ATOM     68  C   UNL A   1      44.529  33.404  30.854  1.00  0.00     0.009 A 
ATOM     69  C   UNL A   1      44.059  33.982  33.543  1.00  0.00     0.001 A 
ATOM     70  C   UNL A   1      44.762  34.690  31.345  1.00  0.00     0.001 A 
ATOM     71  C   UNL A   1      44.516  34.981  32.686  1.00  0.00     0.000 A 
ENDBRANCH  52  66
BRANCH  53  72
ATOM     72  C   UNL A   1      42.141  23.491  27.615  1.00  0.00    -0.014 A 
ATOM     73  C   UNL A   1      42.453  23.243  26.269  1.00  0.00     0.009 A 
ATOM     74  C   UNL A   1      41.563  22.465  28.378  1.00  0.00     0.009 A 
ATOM     75  C   UNL A   1      42.163  22.006  25.691  1.00  0.00     0.001 A 
ATOM     76  C   UNL A   1      41.302  21.218  27.804  1.00  0.00     0.001 A 
ATOM     77  C   UNL A   1      41.593  20.993  26.460  1.00  0.00     0.000 A 
ENDBRANCH  53  72
BRANCH  65  78
ATOM     78  C   UNL A   1      47.724  26.243  30.717  1.00  0.00    -0.014 A 
ATOM     79  C   UNL A   1      48.022  25.711  31.982  1.00  0.00     0.009 A 
ATOM     80  C   UNL A   1      48.714  26.224  29.722  1.00  0.00     0.009 A 
ATOM     81  C   UNL A   1      49.296  25.207  32.254  1.00  0.00     0.001 A 
ATOM     82  C   UNL A   1      49.976  25.690  29.985  1.00  0.00     0.001 A 
ATOM     83  C   UNL A   1      50.269  25.192  31.254  1.00  0.00     0.000 A 
ENDBRANCH  65  78
ENDBRANCH  39  40
ENDBRANCH  31  34
ENDBRANCH  29  30
ENDBRANCH  28  29
ENDBRANCH  27  28
ENDBRANCH   1  27
TORSDOF 16
ENDMDL
MODEL 2
REMARK VINA RESULT:     -11.1      2.989      7.649
REMARK SMILES C[C@@H](C(=O)NCCCCCCNC(=O)c1ccc(-c2c3nc(c(-c4ccccc4)c4ccc([nH]4)c(-c4ccccc4)c4nc(c(-c5ccccc5)c5ccc2[nH]5)C=C4)C=C3)cc1)N1C(=O)/C(=C/c2ccc(N(C)C)cc2)SC1=S
REMARK SMILES IDX 8 1 7 2 6 3 5 4 3 5 4 6 2 8 1 9 63 10 64 11 78 12 65 13
REMARK SMILES IDX 66 14 77 15 79 16 67 17 68 18 69 19 76 20 70 21 75 22 71 23
REMARK SMILES IDX 72 24 73 25 74 26 9 27 10 28 11 29 12 30 13 31 14 33 15 34
REMARK SMILES IDX 16 35 62 36 17 37 61 38 18 39 19 40 20 41 55 42 21 43 60 44
REMARK SMILES IDX 54 45 56 46 22 47 59 48 53 49 52 50 23 52 45 53 30 54 44 55
REMARK SMILES IDX 31 56 34 57 43 58 57 59 32 60 33 61 42 63 58 64 35 65 24 66
REMARK SMILES IDX 25 67 29 68 26 69 28 70 27 71 46 72 47 73 51 74 48 75 50 76
REMARK SMILES IDX 49 77 36 78 37 79 41 80 38 81 40 82 39 83
REMARK H PARENT 5 7 12 32 56 51 34 62
REMARK Flexibility Score: inf
ROOT
ATOM      1  C   UNL A   1      37.243  22.102  25.484  1.00  0.00     0.002 C 
ENDROOT
BRANCH   1   2
ATOM      2  C   UNL A   1      36.366  23.229  24.924  1.00  0.00     0.021 C 
BRANCH   2   3
ATOM      3  C   UNL A   1      34.890  22.859  24.798  1.00  0.00     0.116 C 
BRANCH   3   4
ATOM      4  N   UNL A   1      34.480  22.837  23.411  1.00  0.00    -0.354 N 
ATOM      5  C   UNL A   1      33.290  23.187  22.846  1.00  0.00     0.242 C 
ATOM      6  O   UNL A   1      33.211  23.114  21.617  1.00  0.00    -0.273 OA
ATOM      7  H   UNL A   1      35.165  22.523  22.778  1.00  0.00     0.163 HD
BRANCH   5   8
ATOM      8  C   UNL A   1      32.134  23.718  23.725  1.00  0.00     0.178 C 
ATOM      9  C   UNL A   1      30.743  23.612  23.099  1.00  0.00     0.042 C 
BRANCH   8  10
ATOM     10  N   UNL A   1      32.476  25.101  24.111  1.00  0.00    -0.281 N 
ATOM     11  C   UNL A   1      32.518  25.438  25.457  1.00  0.00     0.266 C 
ATOM     12  C   UNL A   1      32.625  26.140  23.216  1.00  0.00     0.149 C 
ATOM     13  O   UNL A   1      32.374  24.683  26.403  1.00  0.00    -0.268 OA
ATOM     14  C   UNL A   1      32.796  26.888  25.615  1.00  0.00     0.081 C 
ATOM     15  S   UNL A   1      32.966  27.633  24.080  1.00  0.00    -0.054 SA
ATOM     16  S   UNL A   1      32.547  26.094  21.549  1.00  0.00    -0.052 S 
ATOM     17  C   UNL A   1      32.919  27.438  26.830  1.00  0.00     0.029 C 
BRANCH  17  18
ATOM     18  C   UNL A   1      33.254  28.835  27.106  1.00  0.00    -0.024 A 
ATOM     19  C   UNL A   1      34.571  29.173  27.404  1.00  0.00     0.010 A 
ATOM     20  C   UNL A   1      32.294  29.841  27.094  1.00  0.00     0.010 A 
ATOM     21  C   UNL A   1      34.926  30.510  27.645  1.00  0.00     0.026 A 
ATOM     22  C   UNL A   1      32.662  31.171  27.338  1.00  0.00     0.026 A 
ATOM     23  C   UNL A   1      33.988  31.555  27.612  1.00  0.00     0.036 A 
BRANCH  23  24
ATOM     24  N   UNL A   1      34.327  32.880  27.854  1.00  0.00    -0.378 N 
ATOM     25  C   UNL A   1      33.355  33.917  28.176  1.00  0.00     0.143 C 
ATOM     26  C   UNL A   1      35.729  33.259  28.017  1.00  0.00     0.143 C 
ENDBRANCH  23  24
ENDBRANCH  17  18
ENDBRANCH   8  10
ENDBRANCH   5   8
ENDBRANCH   3   4
ENDBRANCH   2   3
ENDBRANCH   1   2
BRANCH   1  27
ATOM     27  C   UNL A   1      36.971  20.713  24.896  1.00  0.00     0.002 C 
BRANCH  27  28
ATOM     28  C   UNL A   1      38.131  19.722  25.013  1.00  0.00     0.021 C 
BRANCH  28  29
ATOM     29  C   UNL A   1      39.252  20.169  25.945  1.00  0.00     0.116 C 
BRANCH  29  30
ATOM     30  N   UNL A   1      40.358  19.226  25.959  1.00  0.00    -0.352 N 
ATOM     31  C   UNL A   1      41.704  19.464  26.068  1.00  0.00     0.251 C 
ATOM     32  H   UNL A   1      40.102  18.278  25.880  1.00  0.00     0.163 HD
ATOM     33  O   UNL A   1      42.507  18.560  25.863  1.00  0.00    -0.269 OA
BRANCH  31  34
ATOM     34  C   UNL A   1      42.191  20.815  26.417  1.00  0.00     0.039 A 
ATOM     35  C   UNL A   1      42.524  21.698  25.386  1.00  0.00     0.014 A 
ATOM     36  C   UNL A   1      42.350  21.204  27.750  1.00  0.00     0.014 A 
ATOM     37  C   UNL A   1      42.981  22.981  25.692  1.00  0.00     0.010 A 
ATOM     38  C   UNL A   1      42.731  22.509  28.054  1.00  0.00     0.010 A 
ATOM     39  C   UNL A   1      43.068  23.405  27.028  1.00  0.00    -0.014 A 
BRANCH  39  40
ATOM     40  C   UNL A   1      43.535  24.771  27.369  1.00  0.00     0.031 A 
ATOM     41  C   UNL A   1      44.977  25.149  27.165  1.00  0.00     0.074 A 
ATOM     42  C   UNL A   1      42.674  25.658  27.901  1.00  0.00     0.049 A 
ATOM     43  N   UNL A   1      45.577  26.287  27.417  1.00  0.00    -0.248 NA
ATOM     44  C   UNL A   1      45.868  24.107  26.631  1.00  0.00     0.031 C 
ATOM     45  C   UNL A   1      41.260  25.406  28.182  1.00  0.00     0.029 A 
ATOM     46  N   UNL A   1      42.864  26.958  28.300  1.00  0.00    -0.354 N 
ATOM     47  C   UNL A   1      46.914  26.088  27.094  1.00  0.00     0.074 A 
ATOM     48  C   UNL A   1      47.048  24.710  26.677  1.00  0.00     0.031 C 
ATOM     49  C   UNL A   1      40.702  26.526  28.668  1.00  0.00     0.029 A 
ATOM     50  C   UNL A   1      41.724  27.562  28.771  1.00  0.00     0.049 A 
ATOM     51  H   UNL A   1      43.737  27.414  28.253  1.00  0.00     0.167 HD
ATOM     52  C   UNL A   1      47.935  26.977  27.122  1.00  0.00     0.031 A 
ATOM     53  C   UNL A   1      41.525  28.811  29.229  1.00  0.00     0.031 A 
ATOM     54  C   UNL A   1      47.800  28.352  27.521  1.00  0.00     0.049 A 
ATOM     55  C   UNL A   1      42.678  29.775  29.261  1.00  0.00     0.074 A 
ATOM     56  C   UNL A   1      48.759  29.349  27.522  1.00  0.00     0.029 A 
ATOM     57  N   UNL A   1      46.629  28.922  27.997  1.00  0.00    -0.354 N 
ATOM     58  N   UNL A   1      43.919  29.594  28.880  1.00  0.00    -0.248 NA
ATOM     59  C   UNL A   1      42.394  31.123  29.775  1.00  0.00     0.031 C 
ATOM     60  C   UNL A   1      48.183  30.509  28.049  1.00  0.00     0.029 A 
ATOM     61  C   UNL A   1      46.849  30.250  28.320  1.00  0.00     0.049 A 
ATOM     62  H   UNL A   1      45.769  28.452  28.091  1.00  0.00     0.167 HD
ATOM     63  C   UNL A   1      44.556  30.813  29.075  1.00  0.00     0.074 A 
ATOM     64  C   UNL A   1      43.560  31.728  29.595  1.00  0.00     0.031 C 
ATOM     65  C   UNL A   1      45.848  31.147  28.839  1.00  0.00     0.031 A 
BRANCH  52  66
ATOM     66  C   UNL A   1      49.297  26.477  26.721  1.00  0.00    -0.014 A 
ATOM     67  C   UNL A   1      49.754  26.576  25.396  1.00  0.00     0.009 A 
ATOM     68  C   UNL A   1      50.145  25.914  27.688  1.00  0.00     0.009 A 
ATOM     69  C   UNL A   1      51.011  26.083  25.041  1.00  0.00     0.001 A 
ATOM     70  C   UNL A   1      51.413  25.450  27.336  1.00  0.00     0.001 A 
ATOM     71  C   UNL A   1      51.840  25.524  26.011  1.00  0.00     0.000 A 
ENDBRANCH  52  66
BRANCH  53  72
ATOM     72  C   UNL A   1      40.170  29.239  29.663  1.00  0.00    -0.014 A 
ATOM     73  C   UNL A   1      39.775  29.088  31.002  1.00  0.00     0.009 A 
ATOM     74  C   UNL A   1      39.262  29.793  28.747  1.00  0.00     0.009 A 
ATOM     75  C   UNL A   1      38.490  29.454  31.407  1.00  0.00     0.001 A 
ATOM     76  C   UNL A   1      37.987  30.185  29.162  1.00  0.00     0.001 A 
ATOM     77  C   UNL A   1      37.599  30.007  30.489  1.00  0.00     0.000 A 
ENDBRANCH  53  72
BRANCH  65  78
ATOM     78  C   UNL A   1      46.247  32.572  29.101  1.00  0.00    -0.014 A 
ATOM     79  C   UNL A   1      46.081  33.571  28.129  1.00  0.00     0.009 A 
ATOM     80  C   UNL A   1      46.772  32.925  30.355  1.00  0.00     0.009 A 
ATOM     81  C   UNL A   1      46.470  34.886  28.394  1.00  0.00     0.001 A 
ATOM     82  C   UNL A   1      47.130  34.245  30.629  1.00  0.00     0.001 A 
ATOM     83  C   UNL A   1      46.989  35.223  29.645  1.00  0.00     0.000 A 
ENDBRANCH  65  78
ENDBRANCH  39  40
ENDBRANCH  31  34
ENDBRANCH  29  30
ENDBRANCH  28  29
ENDBRANCH  27  28
ENDBRANCH   1  27
TORSDOF 16
ENDMDL
MODEL 3
REMARK VINA RESULT:     -11.0      5.186      9.496
REMARK SMILES C[C@@H](C(=O)NCCCCCCNC(=O)c1ccc(-c2c3nc(c(-c4ccccc4)c4ccc([nH]4)c(-c4ccccc4)c4nc(c(-c5ccccc5)c5ccc2[nH]5)C=C4)C=C3)cc1)N1C(=O)/C(=C/c2ccc(N(C)C)cc2)SC1=S
REMARK SMILES IDX 8 1 7 2 6 3 5 4 3 5 4 6 2 8 1 9 63 10 64 11 78 12 65 13
REMARK SMILES IDX 66 14 77 15 79 16 67 17 68 18 69 19 76 20 70 21 75 22 71 23
REMARK SMILES IDX 72 24 73 25 74 26 9 27 10 28 11 29 12 30 13 31 14 33 15 34
REMARK SMILES IDX 16 35 62 36 17 37 61 38 18 39 19 40 20 41 55 42 21 43 60 44
REMARK SMILES IDX 54 45 56 46 22 47 59 48 53 49 52 50 23 52 45 53 30 54 44 55
REMARK SMILES IDX 31 56 34 57 43 58 57 59 32 60 33 61 42 63 58 64 35 65 24 66
REMARK SMILES IDX 25 67 29 68 26 69 28 70 27 71 46 72 47 73 51 74 48 75 50 76
REMARK SMILES IDX 49 77 36 78 37 79 41 80 38 81 40 82 39 83
REMARK H PARENT 5 7 12 32 56 51 34 62
REMARK Flexibility Score: inf
ROOT
ATOM      1  C   UNL A   1      37.670  33.132  30.250  1.00  0.00     0.002 C 
ENDROOT
BRANCH   1   2
ATOM      2  C   UNL A   1      38.172  34.338  31.055  1.00  0.00     0.021 C 
BRANCH   2   3
ATOM      3  C   UNL A   1      39.436  34.058  31.866  1.00  0.00     0.116 C 
BRANCH   3   4
ATOM      4  N   UNL A   1      39.439  34.819  33.096  1.00  0.00    -0.354 N 
ATOM      5  C   UNL A   1      38.892  34.521  34.308  1.00  0.00     0.242 C 
ATOM      6  O   UNL A   1      39.076  35.333  35.220  1.00  0.00    -0.273 OA
ATOM      7  H   UNL A   1      39.908  35.682  33.051  1.00  0.00     0.163 HD
BRANCH   5   8
ATOM      8  C   UNL A   1      38.144  33.186  34.522  1.00  0.00     0.178 C 
ATOM      9  C   UNL A   1      37.093  33.202  35.633  1.00  0.00     0.042 C 
BRANCH   8  10
ATOM     10  N   UNL A   1      39.165  32.139  34.725  1.00  0.00    -0.281 N 
ATOM     11  C   UNL A   1      39.239  31.081  33.830  1.00  0.00     0.266 C 
ATOM     12  C   UNL A   1      39.979  32.056  35.836  1.00  0.00     0.149 C 
ATOM     13  O   UNL A   1      38.585  30.942  32.810  1.00  0.00    -0.268 OA
ATOM     14  C   UNL A   1      40.271  30.108  34.267  1.00  0.00     0.081 C 
ATOM     15  S   UNL A   1      41.006  30.635  35.724  1.00  0.00    -0.054 SA
ATOM     16  S   UNL A   1      40.077  33.106  37.131  1.00  0.00    -0.052 S 
ATOM     17  C   UNL A   1      40.547  29.020  33.537  1.00  0.00     0.029 C 
BRANCH  17  18
ATOM     18  C   UNL A   1      41.583  28.031  33.834  1.00  0.00    -0.024 A 
ATOM     19  C   UNL A   1      41.311  27.013  34.744  1.00  0.00     0.010 A 
ATOM     20  C   UNL A   1      42.842  28.081  33.247  1.00  0.00     0.010 A 
ATOM     21  C   UNL A   1      42.277  26.035  35.027  1.00  0.00     0.026 A 
ATOM     22  C   UNL A   1      43.798  27.098  33.540  1.00  0.00     0.026 A 
ATOM     23  C   UNL A   1      43.548  26.037  34.431  1.00  0.00     0.036 A 
BRANCH  23  24
ATOM     24  N   UNL A   1      44.513  25.077  34.708  1.00  0.00    -0.378 N 
ATOM     25  C   UNL A   1      45.947  25.316  34.598  1.00  0.00     0.143 C 
ATOM     26  C   UNL A   1      44.133  23.820  35.348  1.00  0.00     0.143 C 
ENDBRANCH  23  24
ENDBRANCH  17  18
ENDBRANCH   8  10
ENDBRANCH   5   8
ENDBRANCH   3   4
ENDBRANCH   2   3
ENDBRANCH   1   2
BRANCH   1  27
ATOM     27  C   UNL A   1      37.336  33.424  28.783  1.00  0.00     0.002 C 
BRANCH  27  28
ATOM     28  C   UNL A   1      35.844  33.419  28.446  1.00  0.00     0.021 C 
BRANCH  28  29
ATOM     29  C   UNL A   1      34.977  32.639  29.428  1.00  0.00     0.116 C 
BRANCH  29  30
ATOM     30  N   UNL A   1      34.206  31.599  28.768  1.00  0.00    -0.352 N 
ATOM     31  C   UNL A   1      34.632  30.418  28.215  1.00  0.00     0.251 C 
ATOM     32  H   UNL A   1      33.237  31.766  28.711  1.00  0.00     0.163 HD
ATOM     33  O   UNL A   1      33.868  29.752  27.524  1.00  0.00    -0.269 OA
BRANCH  31  34
ATOM     34  C   UNL A   1      36.018  29.954  28.436  1.00  0.00     0.039 A 
ATOM     35  C   UNL A   1      36.940  30.066  27.392  1.00  0.00     0.014 A 
ATOM     36  C   UNL A   1      36.403  29.382  29.652  1.00  0.00     0.014 A 
ATOM     37  C   UNL A   1      38.255  29.639  27.580  1.00  0.00     0.010 A 
ATOM     38  C   UNL A   1      37.733  29.029  29.864  1.00  0.00     0.010 A 
ATOM     39  C   UNL A   1      38.669  29.137  28.825  1.00  0.00    -0.014 A 
BRANCH  39  40
ATOM     40  C   UNL A   1      40.068  28.695  29.045  1.00  0.00     0.031 A 
ATOM     41  C   UNL A   1      41.057  29.618  29.705  1.00  0.00     0.074 A 
ATOM     42  C   UNL A   1      40.461  27.481  28.616  1.00  0.00     0.049 A 
ATOM     43  N   UNL A   1      42.325  29.418  29.969  1.00  0.00    -0.248 NA
ATOM     44  C   UNL A   1      40.566  30.948  30.096  1.00  0.00     0.031 C 
ATOM     45  C   UNL A   1      39.610  26.506  27.932  1.00  0.00     0.029 A 
ATOM     46  N   UNL A   1      41.681  26.859  28.694  1.00  0.00    -0.354 N 
ATOM     47  C   UNL A   1      42.783  30.601  30.535  1.00  0.00     0.074 A 
ATOM     48  C   UNL A   1      41.675  31.530  30.529  1.00  0.00     0.031 C 
ATOM     49  C   UNL A   1      40.323  25.394  27.690  1.00  0.00     0.029 A 
ATOM     50  C   UNL A   1      41.687  25.591  28.166  1.00  0.00     0.049 A 
ATOM     51  H   UNL A   1      42.477  27.281  29.093  1.00  0.00     0.167 HD
ATOM     52  C   UNL A   1      44.010  30.884  31.033  1.00  0.00     0.031 A 
ATOM     53  C   UNL A   1      42.681  24.687  28.078  1.00  0.00     0.031 A 
ATOM     54  C   UNL A   1      45.108  29.956  31.054  1.00  0.00     0.049 A 
ATOM     55  C   UNL A   1      44.037  25.031  28.628  1.00  0.00     0.074 A 
ATOM     56  C   UNL A   1      46.371  30.124  31.596  1.00  0.00     0.029 A 
ATOM     57  N   UNL A   1      45.075  28.684  30.503  1.00  0.00    -0.354 N 
ATOM     58  N   UNL A   1      44.434  26.126  29.229  1.00  0.00    -0.248 NA
ATOM     59  C   UNL A   1      45.079  24.002  28.499  1.00  0.00     0.031 C 
ATOM     60  C   UNL A   1      47.119  28.974  31.324  1.00  0.00     0.029 A 
ATOM     61  C   UNL A   1      46.303  28.066  30.667  1.00  0.00     0.049 A 
ATOM     62  H   UNL A   1      44.293  28.280  30.061  1.00  0.00     0.167 HD
ATOM     63  C   UNL A   1      45.760  25.906  29.580  1.00  0.00     0.074 A 
ATOM     64  C   UNL A   1      46.094  24.568  29.137  1.00  0.00     0.031 C 
ATOM     65  C   UNL A   1      46.621  26.735  30.218  1.00  0.00     0.031 A 
BRANCH  52  66
ATOM     66  C   UNL A   1      44.229  32.267  31.584  1.00  0.00    -0.014 A 
ATOM     67  C   UNL A   1      44.672  33.321  30.767  1.00  0.00     0.009 A 
ATOM     68  C   UNL A   1      43.969  32.526  32.939  1.00  0.00     0.009 A 
ATOM     69  C   UNL A   1      44.892  34.590  31.305  1.00  0.00     0.001 A 
ATOM     70  C   UNL A   1      44.160  33.804  33.467  1.00  0.00     0.001 A 
ATOM     71  C   UNL A   1      44.633  34.832  32.653  1.00  0.00     0.000 A 
ENDBRANCH  52  66
BRANCH  53  72
ATOM     72  C   UNL A   1      42.425  23.353  27.476  1.00  0.00    -0.014 A 
ATOM     73  C   UNL A   1      41.871  22.321  28.249  1.00  0.00     0.009 A 
ATOM     74  C   UNL A   1      42.739  23.100  26.131  1.00  0.00     0.009 A 
ATOM     75  C   UNL A   1      41.663  21.056  27.698  1.00  0.00     0.001 A 
ATOM     76  C   UNL A   1      42.502  21.841  25.575  1.00  0.00     0.001 A 
ATOM     77  C   UNL A   1      41.974  20.818  26.360  1.00  0.00     0.000 A 
ENDBRANCH  53  72
BRANCH  65  78
ATOM     78  C   UNL A   1      47.996  26.202  30.513  1.00  0.00    -0.014 A 
ATOM     79  C   UNL A   1      49.008  26.208  29.540  1.00  0.00     0.009 A 
ATOM     80  C   UNL A   1      48.289  25.712  31.796  1.00  0.00     0.009 A 
ATOM     81  C   UNL A   1      50.274  25.697  29.836  1.00  0.00     0.001 A 
ATOM     82  C   UNL A   1      49.563  25.232  32.098  1.00  0.00     0.001 A 
ATOM     83  C   UNL A   1      50.551  25.215  31.116  1.00  0.00     0.000 A 
ENDBRANCH  65  78
ENDBRANCH  39  40
ENDBRANCH  31  34
ENDBRANCH  29  30
ENDBRANCH  28  29
ENDBRANCH  27  28
ENDBRANCH   1  27
TORSDOF 16
ENDMDL
