MODEL 1
REMARK VINA RESULT:      -8.2      0.000      0.000
REMARK SMILES COc1cc(C(C)C)cc([C@H]([NH3+])C(=O)NCCCCCCNC(=O)c2ccc(-c3c4nc(c(-c5ccccc5)c5ccc([nH]5)c(-c5ccccc5)c5nc(c(-c6ccccc6)c6ccc3[nH]6)C=C5)C=C4)cc2)c1O
REMARK SMILES IDX 18 1 17 2 16 3 15 4 13 5 14 6 11 8 10 9 3 10 4 11 73 12 5 13
REMARK SMILES IDX 9 14 2 15 1 16 74 17 6 19 7 20 8 21 12 22 19 26 20 27 21 28
REMARK SMILES IDX 22 29 23 30 24 32 25 33 26 34 72 35 27 36 71 37 28 38 29 39
REMARK SMILES IDX 30 40 65 41 31 42 70 43 64 44 66 45 32 46 69 47 63 48 62 49
REMARK SMILES IDX 33 51 55 52 40 53 54 54 41 55 44 56 53 57 67 58 42 59 43 60
REMARK SMILES IDX 52 62 68 63 45 64 34 65 35 66 39 67 36 68 38 69 37 70 56 71
REMARK SMILES IDX 57 72 61 73 58 74 60 75 59 76 46 77 47 78 51 79 48 80 50 81
REMARK SMILES IDX 49 82
REMARK H PARENT 15 7 74 18 12 23 12 24 12 25 22 31 66 50 44 61
REMARK Flexibility Score: inf
ROOT
ATOM      1  C   UNL A   1      33.212  34.619  32.771  1.00  0.00     0.002 C 
ENDROOT
BRANCH   1   2
ATOM      2  C   UNL A   1      34.239  33.744  33.496  1.00  0.00     0.021 C 
BRANCH   2   3
ATOM      3  C   UNL A   1      35.275  34.517  34.307  1.00  0.00     0.116 C 
BRANCH   3   4
ATOM      4  N   UNL A   1      35.532  33.892  35.592  1.00  0.00    -0.351 N 
ATOM      5  C   UNL A   1      36.729  33.480  36.118  1.00  0.00     0.283 C 
ATOM      6  O   UNL A   1      36.726  32.978  37.246  1.00  0.00    -0.268 OA
ATOM      7  H   UNL A   1      34.742  33.744  36.161  1.00  0.00     0.163 HD
BRANCH   5   8
ATOM      8  C   UNL A   1      38.053  33.660  35.320  1.00  0.00     0.306 C 
BRANCH   8   9
ATOM      9  C   UNL A   1      38.674  32.334  34.883  1.00  0.00     0.065 A 
ATOM     10  C   UNL A   1      38.724  30.301  33.538  1.00  0.00     0.161 A 
ATOM     11  C   UNL A   1      39.950  29.932  34.088  1.00  0.00     0.054 A 
ATOM     12  C   UNL A   1      38.060  31.450  33.988  1.00  0.00     0.167 A 
ATOM     13  C   UNL A   1      40.540  30.724  35.081  1.00  0.00    -0.041 A 
ATOM     14  C   UNL A   1      39.897  31.918  35.454  1.00  0.00     0.018 A 
BRANCH  10  15
ATOM     15  O   UNL A   1      38.160  29.457  32.615  1.00  0.00    -0.493 OA
ATOM     16  C   UNL A   1      38.833  28.194  32.543  1.00  0.00     0.278 C 
ENDBRANCH  10  15
BRANCH  12  17
ATOM     17  O   UNL A   1      36.768  31.673  33.587  1.00  0.00    -0.504 OA
ATOM     18  H   UNL A   1      36.559  31.701  32.674  1.00  0.00     0.293 HD
ENDBRANCH  12  17
BRANCH  13  19
ATOM     19  C   UNL A   1      41.832  30.328  35.774  1.00  0.00     0.013 C 
ATOM     20  C   UNL A   1      42.679  29.398  34.902  1.00  0.00     0.012 C 
ATOM     21  C   UNL A   1      42.637  31.550  36.220  1.00  0.00     0.012 C 
ENDBRANCH  13  19
ENDBRANCH   8   9
BRANCH   8  22
ATOM     22  N   UNL A   1      38.939  34.529  36.128  1.00  0.00    -0.343 N 
ATOM     23  H   UNL A   1      39.716  33.977  36.492  1.00  0.00     0.345 HD
ATOM     24  H   UNL A   1      38.410  34.926  36.905  1.00  0.00     0.345 HD
ATOM     25  H   UNL A   1      39.302  35.282  35.544  1.00  0.00     0.345 HD
ENDBRANCH   8  22
ENDBRANCH   5   8
ENDBRANCH   3   4
ENDBRANCH   2   3
ENDBRANCH   1   2
BRANCH   1  26
ATOM     26  C   UNL A   1      33.713  36.000  32.337  1.00  0.00     0.002 C 
BRANCH  26  27
ATOM     27  C   UNL A   1      32.931  36.661  31.199  1.00  0.00     0.021 C 
BRANCH  27  28
ATOM     28  C   UNL A   1      33.533  36.494  29.806  1.00  0.00     0.116 C 
BRANCH  28  29
ATOM     29  N   UNL A   1      32.774  35.579  28.972  1.00  0.00    -0.352 N 
ATOM     30  C   UNL A   1      33.128  34.362  28.448  1.00  0.00     0.251 C 
ATOM     31  H   UNL A   1      31.864  35.879  28.748  1.00  0.00     0.163 HD
ATOM     32  O   UNL A   1      32.383  33.805  27.646  1.00  0.00    -0.269 OA
BRANCH  30  33
ATOM     33  C   UNL A   1      34.410  33.722  28.818  1.00  0.00     0.039 A 
ATOM     34  C   UNL A   1      35.509  33.902  27.971  1.00  0.00     0.014 A 
ATOM     35  C   UNL A   1      34.533  32.922  29.958  1.00  0.00     0.014 A 
ATOM     36  C   UNL A   1      36.739  33.330  28.296  1.00  0.00     0.010 A 
ATOM     37  C   UNL A   1      35.777  32.399  30.312  1.00  0.00     0.010 A 
ATOM     38  C   UNL A   1      36.891  32.598  29.485  1.00  0.00    -0.014 A 
BRANCH  38  39
ATOM     39  C   UNL A   1      38.220  32.062  29.874  1.00  0.00     0.031 A 
ATOM     40  C   UNL A   1      38.685  30.721  29.381  1.00  0.00     0.074 A 
ATOM     41  C   UNL A   1      39.000  32.777  30.708  1.00  0.00     0.049 A 
ATOM     42  N   UNL A   1      39.822  30.110  29.604  1.00  0.00    -0.248 NA
ATOM     43  C   UNL A   1      37.747  29.958  28.543  1.00  0.00     0.031 C 
ATOM     44  C   UNL A   1      38.647  34.071  31.297  1.00  0.00     0.029 A 
ATOM     45  N   UNL A   1      40.254  32.518  31.201  1.00  0.00    -0.354 N 
ATOM     46  C   UNL A   1      39.733  28.891  28.946  1.00  0.00     0.074 A 
ATOM     47  C   UNL A   1      38.415  28.828  28.350  1.00  0.00     0.031 C 
ATOM     48  C   UNL A   1      39.673  34.507  32.045  1.00  0.00     0.029 A 
ATOM     49  C   UNL A   1      40.742  33.514  32.010  1.00  0.00     0.049 A 
ATOM     50  H   UNL A   1      40.755  31.697  30.995  1.00  0.00     0.167 HD
ATOM     51  C   UNL A   1      40.668  27.917  28.832  1.00  0.00     0.031 A 
ATOM     52  C   UNL A   1      41.922  33.623  32.649  1.00  0.00     0.031 A 
ATOM     53  C   UNL A   1      41.982  27.978  29.415  1.00  0.00     0.049 A 
ATOM     54  C   UNL A   1      42.944  32.533  32.500  1.00  0.00     0.074 A 
ATOM     55  C   UNL A   1      43.020  27.068  29.300  1.00  0.00     0.029 A 
ATOM     56  N   UNL A   1      42.438  29.005  30.226  1.00  0.00    -0.354 N 
ATOM     57  N   UNL A   1      42.872  31.422  31.810  1.00  0.00    -0.248 NA
ATOM     58  C   UNL A   1      44.217  32.722  33.210  1.00  0.00     0.031 C 
ATOM     59  C   UNL A   1      44.090  27.524  30.078  1.00  0.00     0.029 A 
ATOM     60  C   UNL A   1      43.734  28.740  30.639  1.00  0.00     0.049 A 
ATOM     61  H   UNL A   1      41.918  29.804  30.472  1.00  0.00     0.167 HD
ATOM     62  C   UNL A   1      44.094  30.787  31.987  1.00  0.00     0.074 A 
ATOM     63  C   UNL A   1      44.896  31.647  32.833  1.00  0.00     0.031 C 
ATOM     64  C   UNL A   1      44.514  29.598  31.492  1.00  0.00     0.031 A 
BRANCH  51  65
ATOM     65  C   UNL A   1      40.296  26.693  28.043  1.00  0.00    -0.014 A 
ATOM     66  C   UNL A   1      40.699  26.542  26.707  1.00  0.00     0.009 A 
ATOM     67  C   UNL A   1      39.567  25.662  28.654  1.00  0.00     0.009 A 
ATOM     68  C   UNL A   1      40.349  25.397  25.989  1.00  0.00     0.001 A 
ATOM     69  C   UNL A   1      39.240  24.506  27.941  1.00  0.00     0.001 A 
ATOM     70  C   UNL A   1      39.624  24.379  26.607  1.00  0.00     0.000 A 
ENDBRANCH  51  65
BRANCH  52  71
ATOM     71  C   UNL A   1      42.213  34.827  33.467  1.00  0.00    -0.014 A 
ATOM     72  C   UNL A   1      41.878  34.855  34.829  1.00  0.00     0.009 A 
ATOM     73  C   UNL A   1      42.828  35.948  32.893  1.00  0.00     0.009 A 
ATOM     74  C   UNL A   1      42.134  35.995  35.596  1.00  0.00     0.001 A 
ATOM     75  C   UNL A   1      43.106  37.077  33.667  1.00  0.00     0.001 A 
ATOM     76  C   UNL A   1      42.751  37.102  35.015  1.00  0.00     0.000 A 
ENDBRANCH  52  71
BRANCH  64  77
ATOM     77  C   UNL A   1      45.909  29.168  31.846  1.00  0.00    -0.014 A 
ATOM     78  C   UNL A   1      46.159  28.393  32.989  1.00  0.00     0.009 A 
ATOM     79  C   UNL A   1      46.981  29.524  31.015  1.00  0.00     0.009 A 
ATOM     80  C   UNL A   1      47.463  28.013  33.312  1.00  0.00     0.001 A 
ATOM     81  C   UNL A   1      48.280  29.122  31.326  1.00  0.00     0.001 A 
ATOM     82  C   UNL A   1      48.521  28.375  32.479  1.00  0.00     0.000 A 
ENDBRANCH  64  77
ENDBRANCH  38  39
ENDBRANCH  30  33
ENDBRANCH  28  29
ENDBRANCH  27  28
ENDBRANCH  26  27
ENDBRANCH   1  26
TORSDOF 18
ENDMDL
MODEL 2
REMARK VINA RESULT:      -8.1      4.957     11.205
REMARK SMILES COc1cc(C(C)C)cc([C@H]([NH3+])C(=O)NCCCCCCNC(=O)c2ccc(-c3c4nc(c(-c5ccccc5)c5ccc([nH]5)c(-c5ccccc5)c5nc(c(-c6ccccc6)c6ccc3[nH]6)C=C5)C=C4)cc2)c1O
REMARK SMILES IDX 18 1 17 2 16 3 15 4 13 5 14 6 11 8 10 9 3 10 4 11 73 12 5 13
REMARK SMILES IDX 9 14 2 15 1 16 74 17 6 19 7 20 8 21 12 22 19 26 20 27 21 28
REMARK SMILES IDX 22 29 23 30 24 32 25 33 26 34 72 35 27 36 71 37 28 38 29 39
REMARK SMILES IDX 30 40 65 41 31 42 70 43 64 44 66 45 32 46 69 47 63 48 62 49
REMARK SMILES IDX 33 51 55 52 40 53 54 54 41 55 44 56 53 57 67 58 42 59 43 60
REMARK SMILES IDX 52 62 68 63 45 64 34 65 35 66 39 67 36 68 38 69 37 70 56 71
REMARK SMILES IDX 57 72 61 73 58 74 60 75 59 76 46 77 47 78 51 79 48 80 50 81
REMARK SMILES IDX 49 82
REMARK H PARENT 15 7 74 18 12 23 12 24 12 25 22 31 66 50 44 61
REMARK Flexibility Score: inf
ROOT
ATOM      1  C   UNL A   1      38.493  22.244  25.865  1.00  0.00     0.002 C 
ENDROOT
BRANCH   1   2
ATOM      2  C   UNL A   1      37.659  23.501  26.135  1.00  0.00     0.021 C 
BRANCH   2   3
ATOM      3  C   UNL A   1      36.175  23.364  25.804  1.00  0.00     0.116 C 
BRANCH   3   4
ATOM      4  N   UNL A   1      35.420  22.826  26.923  1.00  0.00    -0.351 N 
ATOM      5  C   UNL A   1      34.094  22.484  26.972  1.00  0.00     0.283 C 
ATOM      6  O   UNL A   1      33.651  22.029  28.031  1.00  0.00    -0.268 OA
ATOM      7  H   UNL A   1      35.928  22.691  27.755  1.00  0.00     0.163 HD
BRANCH   5   8
ATOM      8  C   UNL A   1      33.183  22.648  25.722  1.00  0.00     0.306 C 
BRANCH   8   9
ATOM      9  C   UNL A   1      32.785  24.099  25.457  1.00  0.00     0.065 A 
ATOM     10  C   UNL A   1      31.707  26.199  26.070  1.00  0.00     0.161 A 
ATOM     11  C   UNL A   1      32.171  26.810  24.906  1.00  0.00     0.054 A 
ATOM     12  C   UNL A   1      31.949  24.838  26.302  1.00  0.00     0.167 A 
ATOM     13  C   UNL A   1      32.905  26.071  23.971  1.00  0.00    -0.041 A 
ATOM     14  C   UNL A   1      33.210  24.730  24.267  1.00  0.00     0.018 A 
BRANCH  10  15
ATOM     15  O   UNL A   1      30.939  26.951  26.922  1.00  0.00    -0.493 OA
ATOM     16  C   UNL A   1      31.628  28.111  27.403  1.00  0.00     0.278 C 
ENDBRANCH  10  15
BRANCH  12  17
ATOM     17  O   UNL A   1      31.306  24.216  27.341  1.00  0.00    -0.504 OA
ATOM     18  H   UNL A   1      31.561  24.394  28.225  1.00  0.00     0.293 HD
ENDBRANCH  12  17
BRANCH  13  19
ATOM     19  C   UNL A   1      33.363  26.662  22.648  1.00  0.00     0.013 C 
ATOM     20  C   UNL A   1      32.554  26.110  21.473  1.00  0.00     0.012 C 
ATOM     21  C   UNL A   1      33.334  28.191  22.667  1.00  0.00     0.012 C 
ENDBRANCH  13  19
ENDBRANCH   8   9
BRANCH   8  22
ATOM     22  N   UNL A   1      32.049  21.707  25.878  1.00  0.00    -0.343 N 
ATOM     23  H   UNL A   1      31.328  22.138  26.458  1.00  0.00     0.345 HD
ATOM     24  H   UNL A   1      32.377  20.850  26.323  1.00  0.00     0.345 HD
ATOM     25  H   UNL A   1      31.660  21.488  24.961  1.00  0.00     0.345 HD
ENDBRANCH   8  22
ENDBRANCH   5   8
ENDBRANCH   3   4
ENDBRANCH   2   3
ENDBRANCH   1   2
BRANCH   1  26
ATOM     26  C   UNL A   1      37.850  21.216  24.929  1.00  0.00     0.002 C 
BRANCH  26  27
ATOM     27  C   UNL A   1      38.442  19.805  24.988  1.00  0.00     0.021 C 
BRANCH  27  28
ATOM     28  C   UNL A   1      39.358  19.528  26.177  1.00  0.00     0.116 C 
BRANCH  28  29
ATOM     29  N   UNL A   1      40.656  19.013  25.777  1.00  0.00    -0.352 N 
ATOM     30  C   UNL A   1      41.882  19.628  25.757  1.00  0.00     0.251 C 
ATOM     31  H   UNL A   1      40.655  18.077  25.472  1.00  0.00     0.163 HD
ATOM     32  O   UNL A   1      42.841  19.055  25.247  1.00  0.00    -0.269 OA
BRANCH  30  33
ATOM     33  C   UNL A   1      42.058  20.984  26.321  1.00  0.00     0.039 A 
ATOM     34  C   UNL A   1      41.872  21.159  27.697  1.00  0.00     0.014 A 
ATOM     35  C   UNL A   1      42.361  22.084  25.514  1.00  0.00     0.014 A 
ATOM     36  C   UNL A   1      42.046  22.420  28.268  1.00  0.00     0.010 A 
ATOM     37  C   UNL A   1      42.593  23.333  26.095  1.00  0.00     0.010 A 
ATOM     38  C   UNL A   1      42.437  23.512  27.476  1.00  0.00    -0.014 A 
BRANCH  38  39
ATOM     39  C   UNL A   1      42.706  24.833  28.096  1.00  0.00     0.031 A 
ATOM     40  C   UNL A   1      44.084  25.196  28.572  1.00  0.00     0.074 A 
ATOM     41  C   UNL A   1      41.689  25.702  28.262  1.00  0.00     0.049 A 
ATOM     42  N   UNL A   1      44.501  26.312  29.117  1.00  0.00    -0.248 NA
ATOM     43  C   UNL A   1      45.128  24.167  28.437  1.00  0.00     0.031 C 
ATOM     44  C   UNL A   1      40.295  25.455  27.888  1.00  0.00     0.029 A 
ATOM     45  N   UNL A   1      41.674  26.970  28.785  1.00  0.00    -0.354 N 
ATOM     46  C   UNL A   1      45.847  26.118  29.397  1.00  0.00     0.074 A 
ATOM     47  C   UNL A   1      46.168  24.763  29.004  1.00  0.00     0.031 C 
ATOM     48  C   UNL A   1      39.567  26.549  28.164  1.00  0.00     0.029 A 
ATOM     49  C   UNL A   1      40.435  27.561  28.756  1.00  0.00     0.049 A 
ATOM     50  H   UNL A   1      42.474  27.415  29.147  1.00  0.00     0.167 HD
ATOM     51  C   UNL A   1      46.740  26.993  29.920  1.00  0.00     0.031 A 
ATOM     52  C   UNL A   1      40.040  28.784  29.156  1.00  0.00     0.031 A 
ATOM     53  C   UNL A   1      46.428  28.343  30.305  1.00  0.00     0.049 A 
ATOM     54  C   UNL A   1      41.051  29.737  29.725  1.00  0.00     0.074 A 
ATOM     55  C   UNL A   1      47.281  29.323  30.784  1.00  0.00     0.029 A 
ATOM     56  N   UNL A   1      45.161  28.903  30.258  1.00  0.00    -0.354 N 
ATOM     57  N   UNL A   1      42.336  29.563  29.911  1.00  0.00    -0.248 NA
ATOM     58  C   UNL A   1      40.555  31.062  30.126  1.00  0.00     0.031 C 
ATOM     59  C   UNL A   1      46.522  30.464  31.068  1.00  0.00     0.029 A 
ATOM     60  C   UNL A   1      45.204  30.208  30.723  1.00  0.00     0.049 A 
ATOM     61  H   UNL A   1      44.351  28.442  29.942  1.00  0.00     0.167 HD
ATOM     62  C   UNL A   1      42.807  30.760  30.434  1.00  0.00     0.074 A 
ATOM     63  C   UNL A   1      41.674  31.658  30.516  1.00  0.00     0.031 C 
ATOM     64  C   UNL A   1      44.066  31.085  30.812  1.00  0.00     0.031 A 
BRANCH  51  65
ATOM     65  C   UNL A   1      48.150  26.508  30.109  1.00  0.00    -0.014 A 
ATOM     66  C   UNL A   1      48.542  25.864  31.293  1.00  0.00     0.009 A 
ATOM     67  C   UNL A   1      49.088  26.662  29.076  1.00  0.00     0.009 A 
ATOM     68  C   UNL A   1      49.854  25.415  31.452  1.00  0.00     0.001 A 
ATOM     69  C   UNL A   1      50.393  26.189  29.228  1.00  0.00     0.001 A 
ATOM     70  C   UNL A   1      50.777  25.575  30.419  1.00  0.00     0.000 A 
ENDBRANCH  51  65
BRANCH  52  71
ATOM     71  C   UNL A   1      38.619  29.189  29.004  1.00  0.00    -0.014 A 
ATOM     72  C   UNL A   1      37.723  29.045  30.074  1.00  0.00     0.009 A 
ATOM     73  C   UNL A   1      38.155  29.724  27.793  1.00  0.00     0.009 A 
ATOM     74  C   UNL A   1      36.382  29.408  29.926  1.00  0.00     0.001 A 
ATOM     75  C   UNL A   1      36.820  30.109  27.657  1.00  0.00     0.001 A 
ATOM     76  C   UNL A   1      35.934  29.943  28.720  1.00  0.00     0.000 A 
ENDBRANCH  52  71
BRANCH  64  77
ATOM     77  C   UNL A   1      44.282  32.476  31.335  1.00  0.00    -0.014 A 
ATOM     78  C   UNL A   1      44.177  32.757  32.707  1.00  0.00     0.009 A 
ATOM     79  C   UNL A   1      44.615  33.511  30.450  1.00  0.00     0.009 A 
ATOM     80  C   UNL A   1      44.368  34.058  33.176  1.00  0.00     0.001 A 
ATOM     81  C   UNL A   1      44.829  34.806  30.924  1.00  0.00     0.001 A 
ATOM     82  C   UNL A   1      44.696  35.080  32.285  1.00  0.00     0.000 A 
ENDBRANCH  64  77
ENDBRANCH  38  39
ENDBRANCH  30  33
ENDBRANCH  28  29
ENDBRANCH  27  28
ENDBRANCH  26  27
ENDBRANCH   1  26
TORSDOF 18
ENDMDL
MODEL 3
REMARK VINA RESULT:      -8.0      0.462      6.003
REMARK SMILES COc1cc(C(C)C)cc([C@H]([NH3+])C(=O)NCCCCCCNC(=O)c2ccc(-c3c4nc(c(-c5ccccc5)c5ccc([nH]5)c(-c5ccccc5)c5nc(c(-c6ccccc6)c6ccc3[nH]6)C=C5)C=C4)cc2)c1O
REMARK SMILES IDX 18 1 17 2 16 3 15 4 13 5 14 6 11 8 10 9 3 10 4 11 73 12 5 13
REMARK SMILES IDX 9 14 2 15 1 16 74 17 6 19 7 20 8 21 12 22 19 26 20 27 21 28
REMARK SMILES IDX 22 29 23 30 24 32 25 33 26 34 72 35 27 36 71 37 28 38 29 39
REMARK SMILES IDX 30 40 65 41 31 42 70 43 64 44 66 45 32 46 69 47 63 48 62 49
REMARK SMILES IDX 33 51 55 52 40 53 54 54 41 55 44 56 53 57 67 58 42 59 43 60
REMARK SMILES IDX 52 62 68 63 45 64 34 65 35 66 39 67 36 68 38 69 37 70 56 71
REMARK SMILES IDX 57 72 61 73 58 74 60 75 59 76 46 77 47 78 51 79 48 80 50 81
REMARK SMILES IDX 49 82
REMARK H PARENT 15 7 74 18 12 23 12 24 12 25 22 31 66 50 44 61
REMARK Flexibility Score: inf
ROOT
ATOM      1  C   UNL A   1      33.368  34.544  32.852  1.00  0.00     0.002 C 
ENDROOT
BRANCH   1   2
ATOM      2  C   UNL A   1      34.610  33.853  33.423  1.00  0.00     0.021 C 
BRANCH   2   3
ATOM      3  C   UNL A   1      35.380  34.675  34.453  1.00  0.00     0.116 C 
BRANCH   3   4
ATOM      4  N   UNL A   1      35.644  33.915  35.663  1.00  0.00    -0.351 N 
ATOM      5  C   UNL A   1      36.844  33.453  36.136  1.00  0.00     0.283 C 
ATOM      6  O   UNL A   1      36.846  32.831  37.203  1.00  0.00    -0.268 OA
ATOM      7  H   UNL A   1      34.856  33.704  36.215  1.00  0.00     0.163 HD
BRANCH   5   8
ATOM      8  C   UNL A   1      38.164  33.722  35.358  1.00  0.00     0.306 C 
BRANCH   8   9
ATOM      9  C   UNL A   1      38.918  32.443  34.998  1.00  0.00     0.065 A 
ATOM     10  C   UNL A   1      39.289  30.454  33.637  1.00  0.00     0.161 A 
ATOM     11  C   UNL A   1      40.435  30.135  34.364  1.00  0.00     0.054 A 
ATOM     12  C   UNL A   1      38.501  31.554  34.001  1.00  0.00     0.167 A 
ATOM     13  C   UNL A   1      40.819  30.928  35.452  1.00  0.00    -0.041 A 
ATOM     14  C   UNL A   1      40.060  32.076  35.744  1.00  0.00     0.018 A 
BRANCH  10  15
ATOM     15  O   UNL A   1      38.923  29.608  32.621  1.00  0.00    -0.493 OA
ATOM     16  C   UNL A   1      37.722  28.885  32.915  1.00  0.00     0.278 C 
ENDBRANCH  10  15
BRANCH  12  17
ATOM     17  O   UNL A   1      37.275  31.719  33.407  1.00  0.00    -0.504 OA
ATOM     18  H   UNL A   1      37.212  31.789  32.475  1.00  0.00     0.293 HD
ENDBRANCH  12  17
BRANCH  13  19
ATOM     19  C   UNL A   1      42.008  30.581  36.331  1.00  0.00     0.013 C 
ATOM     20  C   UNL A   1      42.930  29.562  35.656  1.00  0.00     0.012 C 
ATOM     21  C   UNL A   1      42.784  31.827  36.758  1.00  0.00     0.012 C 
ENDBRANCH  13  19
ENDBRANCH   8   9
BRANCH   8  22
ATOM     22  N   UNL A   1      38.943  34.708  36.142  1.00  0.00    -0.343 N 
ATOM     23  H   UNL A   1      39.156  34.319  37.062  1.00  0.00     0.345 HD
ATOM     24  H   UNL A   1      38.398  35.563  36.253  1.00  0.00     0.345 HD
ATOM     25  H   UNL A   1      39.814  34.919  35.654  1.00  0.00     0.345 HD
ENDBRANCH   8  22
ENDBRANCH   5   8
ENDBRANCH   3   4
ENDBRANCH   2   3
ENDBRANCH   1   2
BRANCH   1  26
ATOM     26  C   UNL A   1      33.588  35.967  32.329  1.00  0.00     0.002 C 
BRANCH  26  27
ATOM     27  C   UNL A   1      32.664  36.404  31.189  1.00  0.00     0.021 C 
BRANCH  27  28
ATOM     28  C   UNL A   1      33.284  36.371  29.793  1.00  0.00     0.116 C 
BRANCH  28  29
ATOM     29  N   UNL A   1      32.651  35.397  28.922  1.00  0.00    -0.352 N 
ATOM     30  C   UNL A   1      33.152  34.240  28.381  1.00  0.00     0.251 C 
ATOM     31  H   UNL A   1      31.718  35.597  28.683  1.00  0.00     0.163 HD
ATOM     32  O   UNL A   1      32.494  33.622  27.549  1.00  0.00    -0.269 OA
BRANCH  30  33
ATOM     33  C   UNL A   1      34.490  33.740  28.768  1.00  0.00     0.039 A 
ATOM     34  C   UNL A   1      34.588  32.916  29.895  1.00  0.00     0.014 A 
ATOM     35  C   UNL A   1      35.644  34.102  28.067  1.00  0.00     0.014 A 
ATOM     36  C   UNL A   1      35.830  32.411  30.281  1.00  0.00     0.010 A 
ATOM     37  C   UNL A   1      36.876  33.549  28.419  1.00  0.00     0.010 A 
ATOM     38  C   UNL A   1      36.981  32.699  29.529  1.00  0.00    -0.014 A 
BRANCH  38  39
ATOM     39  C   UNL A   1      38.287  32.093  29.889  1.00  0.00     0.031 A 
ATOM     40  C   UNL A   1      39.259  32.823  30.772  1.00  0.00     0.074 A 
ATOM     41  C   UNL A   1      38.613  30.886  29.387  1.00  0.00     0.049 A 
ATOM     42  N   UNL A   1      40.433  32.434  31.204  1.00  0.00    -0.248 NA
ATOM     43  C   UNL A   1      38.873  34.172  31.215  1.00  0.00     0.031 C 
ATOM     44  C   UNL A   1      37.781  30.093  28.480  1.00  0.00     0.029 A 
ATOM     45  N   UNL A   1      39.732  30.114  29.573  1.00  0.00    -0.354 N 
ATOM     46  C   UNL A   1      40.929  33.489  31.957  1.00  0.00     0.074 A 
ATOM     47  C   UNL A   1      39.949  34.552  31.890  1.00  0.00     0.031 C 
ATOM     48  C   UNL A   1      38.403  28.933  28.214  1.00  0.00     0.029 A 
ATOM     49  C   UNL A   1      39.686  28.912  28.909  1.00  0.00     0.049 A 
ATOM     50  H   UNL A   1      40.495  30.393  30.128  1.00  0.00     0.167 HD
ATOM     51  C   UNL A   1      42.087  33.562  32.657  1.00  0.00     0.031 A 
ATOM     52  C   UNL A   1      40.574  27.902  28.868  1.00  0.00     0.031 A 
ATOM     53  C   UNL A   1      43.060  32.506  32.734  1.00  0.00     0.049 A 
ATOM     54  C   UNL A   1      41.847  28.005  29.659  1.00  0.00     0.074 A 
ATOM     55  C   UNL A   1      44.233  32.464  33.469  1.00  0.00     0.029 A 
ATOM     56  N   UNL A   1      42.975  31.304  32.048  1.00  0.00    -0.354 N 
ATOM     57  N   UNL A   1      42.264  28.979  30.428  1.00  0.00    -0.248 NA
ATOM     58  C   UNL A   1      42.764  26.858  29.582  1.00  0.00     0.031 C 
ATOM     59  C   UNL A   1      44.880  31.255  33.194  1.00  0.00     0.029 A 
ATOM     60  C   UNL A   1      44.087  30.524  32.323  1.00  0.00     0.049 A 
ATOM     61  H   UNL A   1      42.235  31.044  31.454  1.00  0.00     0.167 HD
ATOM     62  C   UNL A   1      43.482  28.558  30.942  1.00  0.00     0.074 A 
ATOM     63  C   UNL A   1      43.728  27.233  30.413  1.00  0.00     0.031 C 
ATOM     64  C   UNL A   1      44.323  29.213  31.779  1.00  0.00     0.031 A 
BRANCH  51  65
ATOM     65  C   UNL A   1      42.366  34.841  33.397  1.00  0.00    -0.014 A 
ATOM     66  C   UNL A   1      41.970  35.005  34.733  1.00  0.00     0.009 A 
ATOM     67  C   UNL A   1      43.065  35.878  32.762  1.00  0.00     0.009 A 
ATOM     68  C   UNL A   1      42.240  36.197  35.409  1.00  0.00     0.001 A 
ATOM     69  C   UNL A   1      43.356  37.060  33.448  1.00  0.00     0.001 A 
ATOM     70  C   UNL A   1      42.935  37.221  34.767  1.00  0.00     0.000 A 
ENDBRANCH  51  65
BRANCH  52  71
ATOM     71  C   UNL A   1      40.276  26.686  28.069  1.00  0.00    -0.014 A 
ATOM     72  C   UNL A   1      40.793  26.546  26.773  1.00  0.00     0.009 A 
ATOM     73  C   UNL A   1      39.477  25.662  28.599  1.00  0.00     0.009 A 
ATOM     74  C   UNL A   1      40.497  25.411  26.013  1.00  0.00     0.001 A 
ATOM     75  C   UNL A   1      39.203  24.518  27.847  1.00  0.00     0.001 A 
ATOM     76  C   UNL A   1      39.707  24.397  26.552  1.00  0.00     0.000 A 
ENDBRANCH  52  71
BRANCH  64  77
ATOM     77  C   UNL A   1      45.579  28.494  32.181  1.00  0.00    -0.014 A 
ATOM     78  C   UNL A   1      45.607  27.662  33.311  1.00  0.00     0.009 A 
ATOM     79  C   UNL A   1      46.742  28.636  31.409  1.00  0.00     0.009 A 
ATOM     80  C   UNL A   1      46.787  27.012  33.679  1.00  0.00     0.001 A 
ATOM     81  C   UNL A   1      47.913  27.965  31.765  1.00  0.00     0.001 A 
ATOM     82  C   UNL A   1      47.937  27.162  32.905  1.00  0.00     0.000 A 
ENDBRANCH  64  77
ENDBRANCH  38  39
ENDBRANCH  30  33
ENDBRANCH  28  29
ENDBRANCH  27  28
ENDBRANCH  26  27
ENDBRANCH   1  26
TORSDOF 18
ENDMDL
