MODEL 1
REMARK VINA RESULT:      -8.7      0.000      0.000
REMARK SMILES COc1ccc(/C=C2/SC(=S)N(NC(=O)c3ccc(C(C)(C)C)cc3)C2=O)c(C(=O)NCCCCCCNC(=O)c2ccc(-c3c4nc(c(-c5ccccc5)c5ccc([nH]5)c(-c5ccccc5)c5nc(c(-c6ccccc6)c6ccc3[nH]6)C=C5)C=C4)cc2)c1OC
REMARK SMILES IDX 33 1 32 2 31 3 29 4 30 5 28 7 3 8 4 9 89 10 5 11 6 12 2 13
REMARK SMILES IDX 1 14 90 15 91 16 7 17 8 18 9 19 26 20 10 21 12 22 27 23
REMARK SMILES IDX 11 24 13 25 14 26 15 28 16 29 17 30 25 31 18 32 24 33 19 34
REMARK SMILES IDX 20 35 21 36 22 37 23 38 34 39 35 40 36 41 37 42 38 43 39 44
REMARK SMILES IDX 40 46 41 47 42 48 88 49 43 50 87 51 44 52 45 53 46 54 81 55
REMARK SMILES IDX 47 56 86 57 80 58 82 59 48 60 85 61 79 62 78 63 49 65 71 66
REMARK SMILES IDX 56 67 70 68 57 69 60 70 69 71 83 72 58 73 59 74 68 76 84 77
REMARK SMILES IDX 61 78 50 79 51 80 55 81 52 82 54 83 53 84 72 85 73 86 77 87
REMARK SMILES IDX 74 88 76 89 75 90 62 91 63 92 67 93 64 94 66 95 65 96
REMARK H PARENT 31 6 13 27 38 45 82 64 60 75
REMARK Flexibility Score: inf
ROOT
ATOM      1  C   UNL A   1      39.623  29.124  27.945  1.00  0.00     0.021 C 
ENDROOT
BRANCH   1   2
ATOM      2  C   UNL A   1      40.468  30.039  28.823  1.00  0.00     0.116 C 
BRANCH   2   3
ATOM      3  N   UNL A   1      40.190  30.003  30.240  1.00  0.00    -0.352 N 
ATOM      4  C   UNL A   1      39.262  30.751  30.938  1.00  0.00     0.255 C 
ATOM      5  O   UNL A   1      39.147  30.583  32.152  1.00  0.00    -0.269 OA
ATOM      6  H   UNL A   1      40.726  29.371  30.772  1.00  0.00     0.163 HD
BRANCH   4   7
ATOM      7  C   UNL A   1      38.468  31.819  30.263  1.00  0.00     0.092 A 
ATOM      8  C   UNL A   1      36.374  32.648  29.309  1.00  0.00     0.161 A 
ATOM      9  C   UNL A   1      36.977  33.884  29.069  1.00  0.00     0.051 A 
ATOM     10  C   UNL A   1      37.110  31.608  29.911  1.00  0.00     0.174 A 
ATOM     11  C   UNL A   1      38.304  34.102  29.448  1.00  0.00     0.013 A 
ATOM     12  C   UNL A   1      39.063  33.088  30.064  1.00  0.00    -0.007 A 
BRANCH   8  13
ATOM     13  O   UNL A   1      35.014  32.544  29.147  1.00  0.00    -0.493 OA
ATOM     14  C   UNL A   1      34.625  32.149  27.832  1.00  0.00     0.278 C 
ENDBRANCH   8  13
BRANCH  10  15
ATOM     15  O   UNL A   1      36.522  30.428  30.303  1.00  0.00    -0.492 OA
ATOM     16  C   UNL A   1      36.455  29.422  29.293  1.00  0.00     0.278 C 
ENDBRANCH  10  15
BRANCH  12  17
ATOM     17  C   UNL A   1      40.373  33.517  30.595  1.00  0.00     0.030 C 
ATOM     18  C   UNL A   1      40.702  34.017  31.796  1.00  0.00     0.082 C 
ATOM     19  S   UNL A   1      42.344  34.408  32.196  1.00  0.00    -0.052 SA
ATOM     20  C   UNL A   1      39.823  34.273  32.971  1.00  0.00     0.285 C 
ATOM     21  C   UNL A   1      41.954  34.797  33.862  1.00  0.00     0.168 C 
ATOM     22  N   UNL A   1      40.608  34.571  34.078  1.00  0.00    -0.198 N 
ATOM     23  O   UNL A   1      38.602  34.222  32.934  1.00  0.00    -0.266 OA
ATOM     24  S   UNL A   1      43.077  35.367  34.956  1.00  0.00    -0.050 S 
BRANCH  22  25
ATOM     25  N   UNL A   1      40.053  34.835  35.347  1.00  0.00    -0.255 N 
ATOM     26  C   UNL A   1      40.016  34.014  36.456  1.00  0.00     0.270 C 
ATOM     27  H   UNL A   1      39.637  35.722  35.456  1.00  0.00     0.192 HD
ATOM     28  O   UNL A   1      39.514  34.429  37.500  1.00  0.00    -0.267 OA
BRANCH  26  29
ATOM     29  C   UNL A   1      40.476  32.611  36.405  1.00  0.00     0.041 A 
ATOM     30  C   UNL A   1      39.605  31.682  35.835  1.00  0.00     0.014 A 
ATOM     31  C   UNL A   1      41.752  32.217  36.806  1.00  0.00     0.014 A 
ATOM     32  C   UNL A   1      40.059  30.399  35.531  1.00  0.00     0.005 A 
ATOM     33  C   UNL A   1      42.207  30.931  36.485  1.00  0.00     0.005 A 
ATOM     34  C   UNL A   1      41.393  30.023  35.781  1.00  0.00    -0.043 A 
BRANCH  34  35
ATOM     35  C   UNL A   1      41.941  28.734  35.146  1.00  0.00    -0.013 C 
ATOM     36  C   UNL A   1      43.428  28.856  34.772  1.00  0.00     0.016 C 
ATOM     37  C   UNL A   1      41.806  27.610  36.189  1.00  0.00     0.016 C 
ATOM     38  C   UNL A   1      41.173  28.280  33.886  1.00  0.00     0.016 C 
ENDBRANCH  34  35
ENDBRANCH  26  29
ENDBRANCH  22  25
ENDBRANCH  12  17
ENDBRANCH   4   7
ENDBRANCH   2   3
ENDBRANCH   1   2
BRANCH   1  39
ATOM     39  C   UNL A   1      40.240  27.764  27.607  1.00  0.00     0.002 C 
BRANCH  39  40
ATOM     40  C   UNL A   1      39.952  26.613  28.578  1.00  0.00     0.002 C 
BRANCH  40  41
ATOM     41  C   UNL A   1      39.255  25.383  27.991  1.00  0.00     0.021 C 
BRANCH  41  42
ATOM     42  C   UNL A   1      39.633  25.030  26.558  1.00  0.00     0.116 C 
BRANCH  42  43
ATOM     43  N   UNL A   1      40.419  23.811  26.467  1.00  0.00    -0.352 N 
ATOM     44  C   UNL A   1      41.772  23.642  26.309  1.00  0.00     0.251 C 
ATOM     45  H   UNL A   1      39.900  22.976  26.527  1.00  0.00     0.163 HD
ATOM     46  O   UNL A   1      42.233  22.524  26.092  1.00  0.00    -0.269 OA
BRANCH  44  47
ATOM     47  C   UNL A   1      42.680  24.807  26.371  1.00  0.00     0.039 A 
ATOM     48  C   UNL A   1      43.222  25.173  27.606  1.00  0.00     0.014 A 
ATOM     49  C   UNL A   1      42.994  25.540  25.223  1.00  0.00     0.014 A 
ATOM     50  C   UNL A   1      44.141  26.224  27.676  1.00  0.00     0.010 A 
ATOM     51  C   UNL A   1      43.964  26.537  25.282  1.00  0.00     0.010 A 
ATOM     52  C   UNL A   1      44.554  26.884  26.508  1.00  0.00    -0.014 A 
BRANCH  52  53
ATOM     53  C   UNL A   1      45.620  27.917  26.543  1.00  0.00     0.031 A 
ATOM     54  C   UNL A   1      45.268  29.373  26.680  1.00  0.00     0.074 A 
ATOM     55  C   UNL A   1      46.906  27.549  26.383  1.00  0.00     0.049 A 
ATOM     56  N   UNL A   1      46.056  30.418  26.660  1.00  0.00    -0.248 NA
ATOM     57  C   UNL A   1      43.842  29.698  26.840  1.00  0.00     0.031 C 
ATOM     58  C   UNL A   1      47.380  26.173  26.214  1.00  0.00     0.029 A 
ATOM     59  N   UNL A   1      48.053  28.302  26.331  1.00  0.00    -0.354 N 
ATOM     60  C   UNL A   1      45.224  31.522  26.793  1.00  0.00     0.074 A 
ATOM     61  C   UNL A   1      43.866  31.023  26.839  1.00  0.00     0.031 C 
ATOM     62  C   UNL A   1      48.719  26.179  26.105  1.00  0.00     0.029 A 
ATOM     63  C   UNL A   1      49.194  27.558  26.146  1.00  0.00     0.049 A 
ATOM     64  H   UNL A   1      48.059  29.283  26.418  1.00  0.00     0.167 HD
ATOM     65  C   UNL A   1      45.559  32.832  26.885  1.00  0.00     0.031 A 
ATOM     66  C   UNL A   1      50.478  27.940  26.009  1.00  0.00     0.031 A 
ATOM     67  C   UNL A   1      46.910  33.327  26.834  1.00  0.00     0.049 A 
ATOM     68  C   UNL A   1      50.817  29.404  26.065  1.00  0.00     0.074 A 
ATOM     69  C   UNL A   1      47.353  34.632  26.965  1.00  0.00     0.029 A 
ATOM     70  N   UNL A   1      48.033  32.541  26.630  1.00  0.00    -0.354 N 
ATOM     71  N   UNL A   1      50.024  30.430  26.254  1.00  0.00    -0.248 NA
ATOM     72  C   UNL A   1      52.233  29.761  25.893  1.00  0.00     0.031 C 
ATOM     73  C   UNL A   1      48.738  34.643  26.773  1.00  0.00     0.029 A 
ATOM     74  C   UNL A   1      49.166  33.338  26.595  1.00  0.00     0.049 A 
ATOM     75  H   UNL A   1      48.026  31.562  26.525  1.00  0.00     0.167 HD
ATOM     76  C   UNL A   1      50.846  31.550  26.254  1.00  0.00     0.074 A 
ATOM     77  C   UNL A   1      52.201  31.076  26.064  1.00  0.00     0.031 C 
ATOM     78  C   UNL A   1      50.509  32.854  26.401  1.00  0.00     0.031 A 
BRANCH  65  79
ATOM     79  C   UNL A   1      44.440  33.826  27.037  1.00  0.00    -0.014 A 
ATOM     80  C   UNL A   1      43.855  34.442  25.919  1.00  0.00     0.009 A 
ATOM     81  C   UNL A   1      43.935  34.121  28.313  1.00  0.00     0.009 A 
ATOM     82  C   UNL A   1      42.814  35.360  26.078  1.00  0.00     0.001 A 
ATOM     83  C   UNL A   1      42.875  35.015  28.468  1.00  0.00     0.001 A 
ATOM     84  C   UNL A   1      42.322  35.641  27.352  1.00  0.00     0.000 A 
ENDBRANCH  65  79
BRANCH  66  85
ATOM     85  C   UNL A   1      51.544  26.922  25.807  1.00  0.00    -0.014 A 
ATOM     86  C   UNL A   1      51.994  26.609  24.515  1.00  0.00     0.009 A 
ATOM     87  C   UNL A   1      52.107  26.249  26.901  1.00  0.00     0.009 A 
ATOM     88  C   UNL A   1      52.964  25.623  24.322  1.00  0.00     0.001 A 
ATOM     89  C   UNL A   1      53.101  25.287  26.708  1.00  0.00     0.001 A 
ATOM     90  C   UNL A   1      53.520  24.967  25.419  1.00  0.00     0.000 A 
ENDBRANCH  66  85
BRANCH  78  91
ATOM     91  C   UNL A   1      51.625  33.862  26.395  1.00  0.00    -0.014 A 
ATOM     92  C   UNL A   1      52.247  34.271  27.585  1.00  0.00     0.009 A 
ATOM     93  C   UNL A   1      52.093  34.371  25.173  1.00  0.00     0.009 A 
ATOM     94  C   UNL A   1      53.294  35.194  27.551  1.00  0.00     0.001 A 
ATOM     95  C   UNL A   1      53.162  35.267  25.141  1.00  0.00     0.001 A 
ATOM     96  C   UNL A   1      53.756  35.686  26.330  1.00  0.00     0.000 A 
ENDBRANCH  78  91
ENDBRANCH  52  53
ENDBRANCH  44  47
ENDBRANCH  42  43
ENDBRANCH  41  42
ENDBRANCH  40  41
ENDBRANCH  39  40
ENDBRANCH   1  39
TORSDOF 19
ENDMDL
MODEL 2
REMARK VINA RESULT:      -8.7      2.227      6.269
REMARK SMILES COc1ccc(/C=C2/SC(=S)N(NC(=O)c3ccc(C(C)(C)C)cc3)C2=O)c(C(=O)NCCCCCCNC(=O)c2ccc(-c3c4nc(c(-c5ccccc5)c5ccc([nH]5)c(-c5ccccc5)c5nc(c(-c6ccccc6)c6ccc3[nH]6)C=C5)C=C4)cc2)c1OC
REMARK SMILES IDX 33 1 32 2 31 3 29 4 30 5 28 7 3 8 4 9 89 10 5 11 6 12 2 13
REMARK SMILES IDX 1 14 90 15 91 16 7 17 8 18 9 19 26 20 10 21 12 22 27 23
REMARK SMILES IDX 11 24 13 25 14 26 15 28 16 29 17 30 25 31 18 32 24 33 19 34
REMARK SMILES IDX 20 35 21 36 22 37 23 38 34 39 35 40 36 41 37 42 38 43 39 44
REMARK SMILES IDX 40 46 41 47 42 48 88 49 43 50 87 51 44 52 45 53 46 54 81 55
REMARK SMILES IDX 47 56 86 57 80 58 82 59 48 60 85 61 79 62 78 63 49 65 71 66
REMARK SMILES IDX 56 67 70 68 57 69 60 70 69 71 83 72 58 73 59 74 68 76 84 77
REMARK SMILES IDX 61 78 50 79 51 80 55 81 52 82 54 83 53 84 72 85 73 86 77 87
REMARK SMILES IDX 74 88 76 89 75 90 62 91 63 92 67 93 64 94 66 95 65 96
REMARK H PARENT 31 6 13 27 38 45 82 64 60 75
REMARK Flexibility Score: inf
ROOT
ATOM      1  C   UNL A   1      41.350  28.165  27.553  1.00  0.00     0.021 C 
ENDROOT
BRANCH   1   2
ATOM      2  C   UNL A   1      40.927  29.312  28.462  1.00  0.00     0.116 C 
BRANCH   2   3
ATOM      3  N   UNL A   1      40.389  28.944  29.751  1.00  0.00    -0.352 N 
ATOM      4  C   UNL A   1      39.588  29.704  30.580  1.00  0.00     0.255 C 
ATOM      5  O   UNL A   1      39.206  29.226  31.648  1.00  0.00    -0.269 OA
ATOM      6  H   UNL A   1      40.623  28.045  30.078  1.00  0.00     0.163 HD
BRANCH   4   7
ATOM      7  C   UNL A   1      39.258  31.120  30.246  1.00  0.00     0.092 A 
ATOM      8  C   UNL A   1      37.907  32.779  29.060  1.00  0.00     0.161 A 
ATOM      9  C   UNL A   1      38.604  33.802  29.705  1.00  0.00     0.051 A 
ATOM     10  C   UNL A   1      38.223  31.432  29.327  1.00  0.00     0.174 A 
ATOM     11  C   UNL A   1      39.599  33.494  30.636  1.00  0.00     0.013 A 
ATOM     12  C   UNL A   1      39.929  32.158  30.936  1.00  0.00    -0.007 A 
BRANCH   8  13
ATOM     13  O   UNL A   1      36.785  33.109  28.339  1.00  0.00    -0.493 OA
ATOM     14  C   UNL A   1      35.894  33.977  29.037  1.00  0.00     0.278 C 
ENDBRANCH   8  13
BRANCH  10  15
ATOM     15  O   UNL A   1      37.469  30.393  28.833  1.00  0.00    -0.492 OA
ATOM     16  C   UNL A   1      36.319  30.061  29.609  1.00  0.00     0.278 C 
ENDBRANCH  10  15
BRANCH  12  17
ATOM     17  C   UNL A   1      40.846  31.978  32.080  1.00  0.00     0.030 C 
ATOM     18  C   UNL A   1      42.180  31.828  32.110  1.00  0.00     0.082 C 
ATOM     19  S   UNL A   1      43.042  31.676  33.608  1.00  0.00    -0.052 SA
ATOM     20  C   UNL A   1      43.141  31.817  30.972  1.00  0.00     0.285 C 
ATOM     21  C   UNL A   1      44.612  31.697  32.825  1.00  0.00     0.168 C 
ATOM     22  N   UNL A   1      44.439  31.871  31.464  1.00  0.00    -0.198 N 
ATOM     23  O   UNL A   1      42.808  31.766  29.796  1.00  0.00    -0.266 OA
ATOM     24  S   UNL A   1      46.049  31.511  33.651  1.00  0.00    -0.050 S 
BRANCH  22  25
ATOM     25  N   UNL A   1      45.567  31.900  30.619  1.00  0.00    -0.255 N 
ATOM     26  C   UNL A   1      46.245  30.838  30.054  1.00  0.00     0.270 C 
ATOM     27  H   UNL A   1      45.918  32.795  30.404  1.00  0.00     0.192 HD
ATOM     28  O   UNL A   1      47.198  31.057  29.307  1.00  0.00    -0.267 OA
BRANCH  26  29
ATOM     29  C   UNL A   1      45.921  29.437  30.391  1.00  0.00     0.041 A 
ATOM     30  C   UNL A   1      46.915  28.697  31.033  1.00  0.00     0.014 A 
ATOM     31  C   UNL A   1      44.660  28.878  30.182  1.00  0.00     0.014 A 
ATOM     32  C   UNL A   1      46.605  27.460  31.597  1.00  0.00     0.005 A 
ATOM     33  C   UNL A   1      44.351  27.641  30.762  1.00  0.00     0.005 A 
ATOM     34  C   UNL A   1      45.296  26.942  31.538  1.00  0.00    -0.043 A 
BRANCH  34  35
ATOM     35  C   UNL A   1      44.919  25.752  32.435  1.00  0.00    -0.013 C 
ATOM     36  C   UNL A   1      44.484  24.523  31.618  1.00  0.00     0.016 C 
ATOM     37  C   UNL A   1      46.170  25.363  33.243  1.00  0.00     0.016 C 
ATOM     38  C   UNL A   1      43.799  26.062  33.453  1.00  0.00     0.016 C 
ENDBRANCH  34  35
ENDBRANCH  26  29
ENDBRANCH  22  25
ENDBRANCH  12  17
ENDBRANCH   4   7
ENDBRANCH   2   3
ENDBRANCH   1   2
BRANCH   1  39
ATOM     39  C   UNL A   1      40.233  27.214  27.112  1.00  0.00     0.002 C 
BRANCH  39  40
ATOM     40  C   UNL A   1      39.677  26.260  28.176  1.00  0.00     0.002 C 
BRANCH  40  41
ATOM     41  C   UNL A   1      40.152  24.807  28.104  1.00  0.00     0.021 C 
BRANCH  41  42
ATOM     42  C   UNL A   1      40.652  24.341  26.742  1.00  0.00     0.116 C 
BRANCH  42  43
ATOM     43  N   UNL A   1      41.594  23.238  26.835  1.00  0.00    -0.352 N 
ATOM     44  C   UNL A   1      42.962  23.233  26.716  1.00  0.00     0.251 C 
ATOM     45  H   UNL A   1      41.189  22.358  27.010  1.00  0.00     0.163 HD
ATOM     46  O   UNL A   1      43.572  22.169  26.667  1.00  0.00    -0.269 OA
BRANCH  44  47
ATOM     47  C   UNL A   1      43.706  24.508  26.618  1.00  0.00     0.039 A 
ATOM     48  C   UNL A   1      44.244  25.064  27.782  1.00  0.00     0.014 A 
ATOM     49  C   UNL A   1      43.870  25.156  25.391  1.00  0.00     0.014 A 
ATOM     50  C   UNL A   1      45.014  26.227  27.702  1.00  0.00     0.010 A 
ATOM     51  C   UNL A   1      44.698  26.272  25.302  1.00  0.00     0.010 A 
ATOM     52  C   UNL A   1      45.285  26.815  26.456  1.00  0.00    -0.014 A 
BRANCH  52  53
ATOM     53  C   UNL A   1      46.202  27.977  26.335  1.00  0.00     0.031 A 
ATOM     54  C   UNL A   1      47.682  27.766  26.167  1.00  0.00     0.074 A 
ATOM     55  C   UNL A   1      45.709  29.225  26.444  1.00  0.00     0.049 A 
ATOM     56  N   UNL A   1      48.641  28.656  26.113  1.00  0.00    -0.248 NA
ATOM     57  C   UNL A   1      48.147  26.373  26.066  1.00  0.00     0.031 C 
ATOM     58  C   UNL A   1      44.297  29.566  26.636  1.00  0.00     0.029 A 
ATOM     59  N   UNL A   1      46.342  30.444  26.415  1.00  0.00    -0.354 N 
ATOM     60  C   UNL A   1      49.820  27.933  25.985  1.00  0.00     0.074 A 
ATOM     61  C   UNL A   1      49.462  26.531  26.021  1.00  0.00     0.031 C 
ATOM     62  C   UNL A   1      44.169  30.903  26.679  1.00  0.00     0.029 A 
ATOM     63  C   UNL A   1      45.491  31.512  26.570  1.00  0.00     0.049 A 
ATOM     64  H   UNL A   1      47.314  30.544  26.296  1.00  0.00     0.167 HD
ATOM     65  C   UNL A   1      51.085  28.393  25.833  1.00  0.00     0.031 A 
ATOM     66  C   UNL A   1      45.743  32.833  26.631  1.00  0.00     0.031 A 
ATOM     67  C   UNL A   1      51.441  29.788  25.801  1.00  0.00     0.049 A 
ATOM     68  C   UNL A   1      47.162  33.315  26.510  1.00  0.00     0.074 A 
ATOM     69  C   UNL A   1      52.690  30.353  25.605  1.00  0.00     0.029 A 
ATOM     70  N   UNL A   1      50.551  30.835  25.976  1.00  0.00    -0.354 N 
ATOM     71  N   UNL A   1      48.258  32.620  26.325  1.00  0.00    -0.248 NA
ATOM     72  C   UNL A   1      47.377  34.766  26.600  1.00  0.00     0.031 C 
ATOM     73  C   UNL A   1      52.565  31.740  25.729  1.00  0.00     0.029 A 
ATOM     74  C   UNL A   1      51.228  32.043  25.929  1.00  0.00     0.049 A 
ATOM     75  H   UNL A   1      49.581  30.735  26.115  1.00  0.00     0.167 HD
ATOM     76  C   UNL A   1      49.288  33.550  26.247  1.00  0.00     0.074 A 
ATOM     77  C   UNL A   1      48.683  34.858  26.387  1.00  0.00     0.031 C 
ATOM     78  C   UNL A   1      50.615  33.338  26.074  1.00  0.00     0.031 A 
BRANCH  65  79
ATOM     79  C   UNL A   1      52.184  27.373  25.703  1.00  0.00    -0.014 A 
ATOM     80  C   UNL A   1      52.563  26.865  24.450  1.00  0.00     0.009 A 
ATOM     81  C   UNL A   1      52.879  26.945  26.845  1.00  0.00     0.009 A 
ATOM     82  C   UNL A   1      53.588  25.921  24.349  1.00  0.00     0.001 A 
ATOM     83  C   UNL A   1      53.924  26.027  26.738  1.00  0.00     0.001 A 
ATOM     84  C   UNL A   1      54.271  25.508  25.491  1.00  0.00     0.000 A 
ENDBRANCH  65  79
BRANCH  66  85
ATOM     85  C   UNL A   1      44.627  33.800  26.815  1.00  0.00    -0.014 A 
ATOM     86  C   UNL A   1      43.920  34.292  25.707  1.00  0.00     0.009 A 
ATOM     87  C   UNL A   1      44.272  34.246  28.097  1.00  0.00     0.009 A 
ATOM     88  C   UNL A   1      42.902  35.232  25.877  1.00  0.00     0.001 A 
ATOM     89  C   UNL A   1      43.231  35.162  28.267  1.00  0.00     0.001 A 
ATOM     90  C   UNL A   1      42.555  35.662  27.156  1.00  0.00     0.000 A 
ENDBRANCH  66  85
BRANCH  78  91
ATOM     91  C   UNL A   1      51.503  34.549  25.991  1.00  0.00    -0.014 A 
ATOM     92  C   UNL A   1      52.154  35.057  27.126  1.00  0.00     0.009 A 
ATOM     93  C   UNL A   1      51.730  35.159  24.747  1.00  0.00     0.009 A 
ATOM     94  C   UNL A   1      52.988  36.172  27.020  1.00  0.00     0.001 A 
ATOM     95  C   UNL A   1      52.590  36.252  24.639  1.00  0.00     0.001 A 
ATOM     96  C   UNL A   1      53.212  36.764  25.777  1.00  0.00     0.000 A 
ENDBRANCH  78  91
ENDBRANCH  52  53
ENDBRANCH  44  47
ENDBRANCH  42  43
ENDBRANCH  41  42
ENDBRANCH  40  41
ENDBRANCH  39  40
ENDBRANCH   1  39
TORSDOF 19
ENDMDL
MODEL 3
REMARK VINA RESULT:      -8.6      2.806      7.625
REMARK SMILES COc1ccc(/C=C2/SC(=S)N(NC(=O)c3ccc(C(C)(C)C)cc3)C2=O)c(C(=O)NCCCCCCNC(=O)c2ccc(-c3c4nc(c(-c5ccccc5)c5ccc([nH]5)c(-c5ccccc5)c5nc(c(-c6ccccc6)c6ccc3[nH]6)C=C5)C=C4)cc2)c1OC
REMARK SMILES IDX 33 1 32 2 31 3 29 4 30 5 28 7 3 8 4 9 89 10 5 11 6 12 2 13
REMARK SMILES IDX 1 14 90 15 91 16 7 17 8 18 9 19 26 20 10 21 12 22 27 23
REMARK SMILES IDX 11 24 13 25 14 26 15 28 16 29 17 30 25 31 18 32 24 33 19 34
REMARK SMILES IDX 20 35 21 36 22 37 23 38 34 39 35 40 36 41 37 42 38 43 39 44
REMARK SMILES IDX 40 46 41 47 42 48 88 49 43 50 87 51 44 52 45 53 46 54 81 55
REMARK SMILES IDX 47 56 86 57 80 58 82 59 48 60 85 61 79 62 78 63 49 65 71 66
REMARK SMILES IDX 56 67 70 68 57 69 60 70 69 71 83 72 58 73 59 74 68 76 84 77
REMARK SMILES IDX 61 78 50 79 51 80 55 81 52 82 54 83 53 84 72 85 73 86 77 87
REMARK SMILES IDX 74 88 76 89 75 90 62 91 63 92 67 93 64 94 66 95 65 96
REMARK H PARENT 31 6 13 27 38 45 82 64 60 75
REMARK Flexibility Score: inf
ROOT
ATOM      1  C   UNL A   1      39.908  28.218  32.883  1.00  0.00     0.021 C 
ENDROOT
BRANCH   1   2
ATOM      2  C   UNL A   1      40.910  29.352  32.704  1.00  0.00     0.116 C 
BRANCH   2   3
ATOM      3  N   UNL A   1      41.320  30.041  33.906  1.00  0.00    -0.352 N 
ATOM      4  C   UNL A   1      41.589  31.386  34.058  1.00  0.00     0.255 C 
ATOM      5  O   UNL A   1      41.918  31.811  35.166  1.00  0.00    -0.269 OA
ATOM      6  H   UNL A   1      41.421  29.484  34.712  1.00  0.00     0.163 HD
BRANCH   4   7
ATOM      7  C   UNL A   1      41.579  32.311  32.887  1.00  0.00     0.092 A 
ATOM      8  C   UNL A   1      40.396  33.787  31.336  1.00  0.00     0.161 A 
ATOM      9  C   UNL A   1      41.608  34.118  30.730  1.00  0.00     0.051 A 
ATOM     10  C   UNL A   1      40.369  32.886  32.420  1.00  0.00     0.174 A 
ATOM     11  C   UNL A   1      42.804  33.579  31.213  1.00  0.00     0.013 A 
ATOM     12  C   UNL A   1      42.813  32.687  32.303  1.00  0.00    -0.007 A 
BRANCH   8  13
ATOM     13  O   UNL A   1      39.279  34.511  30.997  1.00  0.00    -0.493 OA
ATOM     14  C   UNL A   1      39.077  34.623  29.589  1.00  0.00     0.278 C 
ENDBRANCH   8  13
BRANCH  10  15
ATOM     15  O   UNL A   1      39.224  32.645  33.142  1.00  0.00    -0.492 OA
ATOM     16  C   UNL A   1      38.883  33.657  34.088  1.00  0.00     0.278 C 
ENDBRANCH  10  15
BRANCH  12  17
ATOM     17  C   UNL A   1      44.152  32.359  32.836  1.00  0.00     0.030 C 
ATOM     18  C   UNL A   1      44.987  31.354  32.529  1.00  0.00     0.082 C 
ATOM     19  S   UNL A   1      46.546  31.210  33.276  1.00  0.00    -0.052 SA
ATOM     20  C   UNL A   1      44.806  30.265  31.528  1.00  0.00     0.285 C 
ATOM     21  C   UNL A   1      47.017  29.852  32.271  1.00  0.00     0.168 C 
ATOM     22  N   UNL A   1      46.005  29.581  31.369  1.00  0.00    -0.198 N 
ATOM     23  O   UNL A   1      43.751  30.034  30.953  1.00  0.00    -0.266 OA
ATOM     24  S   UNL A   1      48.466  29.043  32.443  1.00  0.00    -0.050 S 
BRANCH  22  25
ATOM     25  N   UNL A   1      46.148  28.509  30.463  1.00  0.00    -0.255 N 
ATOM     26  C   UNL A   1      45.851  27.175  30.658  1.00  0.00     0.270 C 
ATOM     27  H   UNL A   1      46.508  28.744  29.577  1.00  0.00     0.192 HD
ATOM     28  O   UNL A   1      46.012  26.379  29.734  1.00  0.00    -0.267 OA
BRANCH  26  29
ATOM     29  C   UNL A   1      45.433  26.652  31.974  1.00  0.00     0.041 A 
ATOM     30  C   UNL A   1      44.096  26.837  32.330  1.00  0.00     0.014 A 
ATOM     31  C   UNL A   1      46.279  25.917  32.803  1.00  0.00     0.014 A 
ATOM     32  C   UNL A   1      43.571  26.165  33.433  1.00  0.00     0.005 A 
ATOM     33  C   UNL A   1      45.743  25.233  33.902  1.00  0.00     0.005 A 
ATOM     34  C   UNL A   1      44.367  25.289  34.196  1.00  0.00    -0.043 A 
BRANCH  34  35
ATOM     35  C   UNL A   1      43.689  24.331  35.189  1.00  0.00    -0.013 C 
ATOM     36  C   UNL A   1      44.406  24.299  36.549  1.00  0.00     0.016 C 
ATOM     37  C   UNL A   1      42.256  24.841  35.422  1.00  0.00     0.016 C 
ATOM     38  C   UNL A   1      43.577  22.877  34.681  1.00  0.00     0.016 C 
ENDBRANCH  34  35
ENDBRANCH  26  29
ENDBRANCH  22  25
ENDBRANCH  12  17
ENDBRANCH   4   7
ENDBRANCH   2   3
ENDBRANCH   1   2
BRANCH   1  39
ATOM     39  C   UNL A   1      38.460  28.539  32.504  1.00  0.00     0.002 C 
BRANCH  39  40
ATOM     40  C   UNL A   1      37.798  29.712  33.234  1.00  0.00     0.002 C 
BRANCH  40  41
ATOM     41  C   UNL A   1      36.690  30.450  32.479  1.00  0.00     0.021 C 
BRANCH  41  42
ATOM     42  C   UNL A   1      36.230  29.800  31.179  1.00  0.00     0.116 C 
BRANCH  42  43
ATOM     43  N   UNL A   1      35.969  30.767  30.126  1.00  0.00    -0.352 N 
ATOM     44  C   UNL A   1      36.784  31.215  29.116  1.00  0.00     0.251 C 
ATOM     45  H   UNL A   1      35.067  31.162  30.139  1.00  0.00     0.163 HD
ATOM     46  O   UNL A   1      36.433  32.160  28.415  1.00  0.00    -0.269 OA
BRANCH  44  47
ATOM     47  C   UNL A   1      38.100  30.583  28.886  1.00  0.00     0.039 A 
ATOM     48  C   UNL A   1      38.274  29.784  27.752  1.00  0.00     0.014 A 
ATOM     49  C   UNL A   1      39.157  30.769  29.780  1.00  0.00     0.014 A 
ATOM     50  C   UNL A   1      39.530  29.238  27.474  1.00  0.00     0.010 A 
ATOM     51  C   UNL A   1      40.425  30.286  29.464  1.00  0.00     0.010 A 
ATOM     52  C   UNL A   1      40.626  29.522  28.304  1.00  0.00    -0.014 A 
BRANCH  52  53
ATOM     53  C   UNL A   1      41.994  29.057  27.960  1.00  0.00     0.031 A 
ATOM     54  C   UNL A   1      42.264  27.598  27.714  1.00  0.00     0.074 A 
ATOM     55  C   UNL A   1      43.009  29.943  27.934  1.00  0.00     0.049 A 
ATOM     56  N   UNL A   1      43.403  26.999  27.471  1.00  0.00    -0.248 NA
ATOM     57  C   UNL A   1      41.107  26.690  27.770  1.00  0.00     0.031 C 
ATOM     58  C   UNL A   1      42.887  31.381  28.180  1.00  0.00     0.029 A 
ATOM     59  N   UNL A   1      44.349  29.762  27.695  1.00  0.00    -0.354 N 
ATOM     60  C   UNL A   1      43.103  25.648  27.357  1.00  0.00     0.074 A 
ATOM     61  C   UNL A   1      41.684  25.508  27.608  1.00  0.00     0.031 C 
ATOM     62  C   UNL A   1      44.094  31.954  28.051  1.00  0.00     0.029 A 
ATOM     63  C   UNL A   1      45.084  30.921  27.764  1.00  0.00     0.049 A 
ATOM     64  H   UNL A   1      44.747  28.884  27.492  1.00  0.00     0.167 HD
ATOM     65  C   UNL A   1      43.928  24.618  27.052  1.00  0.00     0.031 A 
ATOM     66  C   UNL A   1      46.406  31.131  27.627  1.00  0.00     0.031 A 
ATOM     67  C   UNL A   1      45.340  24.758  26.806  1.00  0.00     0.049 A 
ATOM     68  C   UNL A   1      47.308  29.962  27.339  1.00  0.00     0.074 A 
ATOM     69  C   UNL A   1      46.251  23.780  26.445  1.00  0.00     0.029 A 
ATOM     70  N   UNL A   1      46.046  25.947  26.902  1.00  0.00    -0.354 N 
ATOM     71  N   UNL A   1      46.998  28.701  27.171  1.00  0.00    -0.248 NA
ATOM     72  C   UNL A   1      48.744  30.251  27.216  1.00  0.00     0.031 C 
ATOM     73  C   UNL A   1      47.519  24.365  26.388  1.00  0.00     0.029 A 
ATOM     74  C   UNL A   1      47.387  25.721  26.642  1.00  0.00     0.049 A 
ATOM     75  H   UNL A   1      45.651  26.821  27.122  1.00  0.00     0.167 HD
ATOM     76  C   UNL A   1      48.194  28.050  26.893  1.00  0.00     0.074 A 
ATOM     77  C   UNL A   1      49.232  29.059  26.898  1.00  0.00     0.031 C 
ATOM     78  C   UNL A   1      48.412  26.734  26.654  1.00  0.00     0.031 A 
BRANCH  65  79
ATOM     79  C   UNL A   1      43.325  23.241  26.982  1.00  0.00    -0.014 A 
ATOM     80  C   UNL A   1      42.927  22.559  28.142  1.00  0.00     0.009 A 
ATOM     81  C   UNL A   1      43.114  22.634  25.734  1.00  0.00     0.009 A 
ATOM     82  C   UNL A   1      42.365  21.283  28.058  1.00  0.00     0.001 A 
ATOM     83  C   UNL A   1      42.523  21.372  25.649  1.00  0.00     0.001 A 
ATOM     84  C   UNL A   1      42.159  20.693  26.812  1.00  0.00     0.000 A 
ENDBRANCH  65  79
BRANCH  66  85
ATOM     85  C   UNL A   1      46.964  32.504  27.759  1.00  0.00    -0.014 A 
ATOM     86  C   UNL A   1      47.107  33.327  26.631  1.00  0.00     0.009 A 
ATOM     87  C   UNL A   1      47.368  32.995  29.010  1.00  0.00     0.009 A 
ATOM     88  C   UNL A   1      47.670  34.599  26.749  1.00  0.00     0.001 A 
ATOM     89  C   UNL A   1      47.900  34.281  29.131  1.00  0.00     0.001 A 
ATOM     90  C   UNL A   1      48.061  35.077  27.998  1.00  0.00     0.000 A 
ENDBRANCH  66  85
BRANCH  78  91
ATOM     91  C   UNL A   1      49.822  26.312  26.344  1.00  0.00    -0.014 A 
ATOM     92  C   UNL A   1      50.346  26.413  25.046  1.00  0.00     0.009 A 
ATOM     93  C   UNL A   1      50.652  25.853  27.380  1.00  0.00     0.009 A 
ATOM     94  C   UNL A   1      51.665  26.031  24.788  1.00  0.00     0.001 A 
ATOM     95  C   UNL A   1      51.978  25.505  27.124  1.00  0.00     0.001 A 
ATOM     96  C   UNL A   1      52.482  25.586  25.827  1.00  0.00     0.000 A 
ENDBRANCH  78  91
ENDBRANCH  52  53
ENDBRANCH  44  47
ENDBRANCH  42  43
ENDBRANCH  41  42
ENDBRANCH  40  41
ENDBRANCH  39  40
ENDBRANCH   1  39
TORSDOF 19
ENDMDL
