MODEL 1
REMARK VINA RESULT:     -10.7      0.000      0.000
REMARK SMILES Cc1onc(-c2cccc(Br)c2)c1C(=O)NCCCCCCNC(=O)c1ccc(-c2c3nc(c(-c4ccccc4)c4ccc([nH]4)c(-c4ccccc4)c4nc(c(-c5ccccc5)c5ccc2[nH]5)C=C4)C=C3)cc1
REMARK SMILES IDX 20 1 19 2 18 3 17 4 16 5 14 6 15 7 13 9 1 10 2 11 3 12 4 13
REMARK SMILES IDX 5 14 6 15 7 16 12 17 8 18 10 19 9 20 11 21 21 22 22 23 23 24
REMARK SMILES IDX 24 25 25 27 26 28 27 29 73 30 28 31 72 32 29 33 30 34 31 35
REMARK SMILES IDX 66 36 32 37 71 38 65 39 67 40 33 41 70 42 64 43 63 44 34 46
REMARK SMILES IDX 56 47 41 48 55 49 42 50 45 51 54 52 68 53 43 54 44 55 53 57
REMARK SMILES IDX 69 58 46 59 35 60 36 61 40 62 37 63 39 64 38 65 57 66 58 67
REMARK SMILES IDX 62 68 59 69 61 70 60 71 47 72 48 73 52 74 49 75 51 76 50 77
REMARK H PARENT 16 8 23 26 67 45 45 56
REMARK Flexibility Score: inf
ROOT
ATOM      1  C   UNL A   1      36.323  19.968  25.015  1.00  0.00     0.002 C 
ENDROOT
BRANCH   1   2
ATOM      2  C   UNL A   1      35.220  18.955  24.683  1.00  0.00     0.002 C 
BRANCH   2   3
ATOM      3  C   UNL A   1      33.845  19.575  24.389  1.00  0.00     0.021 C 
BRANCH   3   4
ATOM      4  C   UNL A   1      32.860  19.437  25.552  1.00  0.00     0.116 C 
BRANCH   4   5
ATOM      5  N   UNL A   1      33.286  20.248  26.658  1.00  0.00    -0.352 N 
ATOM      6  C   UNL A   1      33.132  21.549  27.027  1.00  0.00     0.257 C 
ATOM      7  O   UNL A   1      33.696  21.795  28.098  1.00  0.00    -0.269 OA
ATOM      8  H   UNL A   1      33.819  19.737  27.309  1.00  0.00     0.163 HD
BRANCH   6   9
ATOM      9  C   UNL A   1      32.381  22.583  26.316  1.00  0.00     0.110 A 
ATOM     10  C   UNL A   1      29.780  22.781  26.998  1.00  0.00     0.092 C 
ATOM     11  C   UNL A   1      31.074  23.056  26.343  1.00  0.00     0.147 A 
ATOM     12  O   UNL A   1      30.955  24.107  25.484  1.00  0.00    -0.360 OA
ATOM     13  N   UNL A   1      32.128  24.330  24.829  1.00  0.00    -0.079 NA
ATOM     14  C   UNL A   1      32.981  23.406  25.280  1.00  0.00     0.126 A 
BRANCH  14  15
ATOM     15  C   UNL A   1      34.324  23.353  24.713  1.00  0.00     0.006 A 
ATOM     16  C   UNL A   1      34.508  23.067  23.353  1.00  0.00     0.010 A 
ATOM     17  C   UNL A   1      35.436  23.604  25.525  1.00  0.00     0.026 A 
ATOM     18  C   UNL A   1      35.794  22.992  22.816  1.00  0.00     0.002 A 
ATOM     19  C   UNL A   1      36.716  23.535  24.978  1.00  0.00     0.018 A 
ATOM     20  C   UNL A   1      36.901  23.225  23.631  1.00  0.00     0.016 A 
ATOM     21  Br  UNL A   1      38.221  23.860  26.078  1.00  0.00    -0.051 Br
ENDBRANCH  14  15
ENDBRANCH   6   9
ENDBRANCH   4   5
ENDBRANCH   3   4
ENDBRANCH   2   3
ENDBRANCH   1   2
BRANCH   1  22
ATOM     22  C   UNL A   1      37.746  19.483  24.727  1.00  0.00     0.021 C 
BRANCH  22  23
ATOM     23  C   UNL A   1      38.809  20.127  25.610  1.00  0.00     0.116 C 
BRANCH  23  24
ATOM     24  N   UNL A   1      39.936  19.232  25.825  1.00  0.00    -0.352 N 
ATOM     25  C   UNL A   1      41.231  19.533  26.148  1.00  0.00     0.251 C 
ATOM     26  H   UNL A   1      39.738  18.273  25.723  1.00  0.00     0.163 HD
ATOM     27  O   UNL A   1      42.112  18.679  26.038  1.00  0.00    -0.269 OA
BRANCH  25  28
ATOM     28  C   UNL A   1      41.574  20.885  26.625  1.00  0.00     0.039 A 
ATOM     29  C   UNL A   1      41.520  21.159  27.994  1.00  0.00     0.014 A 
ATOM     30  C   UNL A   1      41.934  21.887  25.718  1.00  0.00     0.014 A 
ATOM     31  C   UNL A   1      41.874  22.426  28.457  1.00  0.00     0.010 A 
ATOM     32  C   UNL A   1      42.360  23.124  26.188  1.00  0.00     0.010 A 
ATOM     33  C   UNL A   1      42.325  23.409  27.561  1.00  0.00    -0.014 A 
BRANCH  33  34
ATOM     34  C   UNL A   1      42.759  24.743  28.040  1.00  0.00     0.031 A 
ATOM     35  C   UNL A   1      41.743  25.817  28.310  1.00  0.00     0.074 A 
ATOM     36  C   UNL A   1      44.073  25.005  28.174  1.00  0.00     0.049 A 
ATOM     37  N   UNL A   1      41.932  27.057  28.686  1.00  0.00    -0.248 NA
ATOM     38  C   UNL A   1      40.329  25.461  28.105  1.00  0.00     0.031 C 
ATOM     39  C   UNL A   1      45.158  24.058  27.906  1.00  0.00     0.029 A 
ATOM     40  N   UNL A   1      44.720  26.149  28.565  1.00  0.00    -0.354 N 
ATOM     41  C   UNL A   1      40.668  27.629  28.748  1.00  0.00     0.074 A 
ATOM     42  C   UNL A   1      39.724  26.620  28.319  1.00  0.00     0.031 C 
ATOM     43  C   UNL A   1      46.333  24.651  28.171  1.00  0.00     0.029 A 
ATOM     44  C   UNL A   1      46.088  26.028  28.584  1.00  0.00     0.049 A 
ATOM     45  H   UNL A   1      44.248  26.978  28.808  1.00  0.00     0.167 HD
ATOM     46  C   UNL A   1      40.321  28.877  29.145  1.00  0.00     0.031 A 
ATOM     47  C   UNL A   1      47.039  26.929  28.894  1.00  0.00     0.031 A 
ATOM     48  C   UNL A   1      41.261  29.877  29.575  1.00  0.00     0.049 A 
ATOM     49  C   UNL A   1      46.630  28.314  29.308  1.00  0.00     0.074 A 
ATOM     50  C   UNL A   1      41.006  31.152  30.050  1.00  0.00     0.029 A 
ATOM     51  N   UNL A   1      42.638  29.717  29.578  1.00  0.00    -0.354 N 
ATOM     52  N   UNL A   1      45.426  28.818  29.431  1.00  0.00    -0.248 NA
ATOM     53  C   UNL A   1      47.713  29.251  29.640  1.00  0.00     0.031 C 
ATOM     54  C   UNL A   1      42.232  31.784  30.284  1.00  0.00     0.029 A 
ATOM     55  C   UNL A   1      43.248  30.879  30.016  1.00  0.00     0.049 A 
ATOM     56  H   UNL A   1      43.111  28.897  29.307  1.00  0.00     0.167 HD
ATOM     57  C   UNL A   1      45.604  30.120  29.878  1.00  0.00     0.074 A 
ATOM     58  C   UNL A   1      47.032  30.321  30.023  1.00  0.00     0.031 C 
ATOM     59  C   UNL A   1      44.671  31.065  30.148  1.00  0.00     0.031 A 
BRANCH  46  60
ATOM     60  C   UNL A   1      38.858  29.229  29.119  1.00  0.00    -0.014 A 
ATOM     61  C   UNL A   1      38.047  29.064  30.253  1.00  0.00     0.009 A 
ATOM     62  C   UNL A   1      38.289  29.758  27.950  1.00  0.00     0.009 A 
ATOM     63  C   UNL A   1      36.688  29.381  30.205  1.00  0.00     0.001 A 
ATOM     64  C   UNL A   1      36.936  30.104  27.914  1.00  0.00     0.001 A 
ATOM     65  C   UNL A   1      36.135  29.905  29.037  1.00  0.00     0.000 A 
ENDBRANCH  46  60
BRANCH  47  66
ATOM     66  C   UNL A   1      48.474  26.543  28.838  1.00  0.00    -0.014 A 
ATOM     67  C   UNL A   1      49.098  25.962  29.952  1.00  0.00     0.009 A 
ATOM     68  C   UNL A   1      49.226  26.753  27.671  1.00  0.00     0.009 A 
ATOM     69  C   UNL A   1      50.453  25.625  29.908  1.00  0.00     0.001 A 
ATOM     70  C   UNL A   1      50.572  26.386  27.620  1.00  0.00     0.001 A 
ATOM     71  C   UNL A   1      51.187  25.832  28.742  1.00  0.00     0.000 A 
ENDBRANCH  47  66
BRANCH  59  72
ATOM     72  C   UNL A   1      45.163  32.392  30.657  1.00  0.00    -0.014 A 
ATOM     73  C   UNL A   1      45.363  32.620  32.027  1.00  0.00     0.009 A 
ATOM     74  C   UNL A   1      45.467  33.415  29.745  1.00  0.00     0.009 A 
ATOM     75  C   UNL A   1      45.825  33.859  32.475  1.00  0.00     0.001 A 
ATOM     76  C   UNL A   1      45.959  34.641  30.193  1.00  0.00     0.001 A 
ATOM     77  C   UNL A   1      46.128  34.865  31.558  1.00  0.00     0.000 A 
ENDBRANCH  59  72
ENDBRANCH  33  34
ENDBRANCH  25  28
ENDBRANCH  23  24
ENDBRANCH  22  23
ENDBRANCH   1  22
TORSDOF 14
ENDMDL
MODEL 2
REMARK VINA RESULT:     -10.6      1.537      6.409
REMARK SMILES Cc1onc(-c2cccc(Br)c2)c1C(=O)NCCCCCCNC(=O)c1ccc(-c2c3nc(c(-c4ccccc4)c4ccc([nH]4)c(-c4ccccc4)c4nc(c(-c5ccccc5)c5ccc2[nH]5)C=C4)C=C3)cc1
REMARK SMILES IDX 20 1 19 2 18 3 17 4 16 5 14 6 15 7 13 9 1 10 2 11 3 12 4 13
REMARK SMILES IDX 5 14 6 15 7 16 12 17 8 18 10 19 9 20 11 21 21 22 22 23 23 24
REMARK SMILES IDX 24 25 25 27 26 28 27 29 73 30 28 31 72 32 29 33 30 34 31 35
REMARK SMILES IDX 66 36 32 37 71 38 65 39 67 40 33 41 70 42 64 43 63 44 34 46
REMARK SMILES IDX 56 47 41 48 55 49 42 50 45 51 54 52 68 53 43 54 44 55 53 57
REMARK SMILES IDX 69 58 46 59 35 60 36 61 40 62 37 63 39 64 38 65 57 66 58 67
REMARK SMILES IDX 62 68 59 69 61 70 60 71 47 72 48 73 52 74 49 75 51 76 50 77
REMARK H PARENT 16 8 23 26 67 45 45 56
REMARK Flexibility Score: inf
ROOT
ATOM      1  C   UNL A   1      36.360  20.230  24.979  1.00  0.00     0.002 C 
ENDROOT
BRANCH   1   2
ATOM      2  C   UNL A   1      36.195  21.735  24.731  1.00  0.00     0.002 C 
BRANCH   2   3
ATOM      3  C   UNL A   1      35.643  22.527  25.927  1.00  0.00     0.021 C 
BRANCH   3   4
ATOM      4  C   UNL A   1      35.846  24.038  25.796  1.00  0.00     0.116 C 
BRANCH   4   5
ATOM      5  N   UNL A   1      35.190  24.522  24.614  1.00  0.00    -0.352 N 
ATOM      6  C   UNL A   1      33.908  24.822  24.266  1.00  0.00     0.257 C 
ATOM      7  O   UNL A   1      33.828  25.222  23.100  1.00  0.00    -0.269 OA
ATOM      8  H   UNL A   1      35.822  24.677  23.875  1.00  0.00     0.163 HD
BRANCH   6   9
ATOM      9  C   UNL A   1      32.723  24.739  25.116  1.00  0.00     0.110 A 
ATOM     10  C   UNL A   1      32.275  26.898  26.669  1.00  0.00     0.092 C 
ATOM     11  C   UNL A   1      32.097  25.578  26.032  1.00  0.00     0.147 A 
ATOM     12  O   UNL A   1      30.956  24.984  26.484  1.00  0.00    -0.360 OA
ATOM     13  N   UNL A   1      30.815  23.741  25.948  1.00  0.00    -0.079 NA
ATOM     14  C   UNL A   1      31.879  23.557  25.160  1.00  0.00     0.126 A 
BRANCH  14  15
ATOM     15  C   UNL A   1      32.040  22.276  24.483  1.00  0.00     0.006 A 
ATOM     16  C   UNL A   1      31.942  22.194  23.087  1.00  0.00     0.010 A 
ATOM     17  C   UNL A   1      32.310  21.121  25.227  1.00  0.00     0.026 A 
ATOM     18  C   UNL A   1      32.072  20.965  22.441  1.00  0.00     0.002 A 
ATOM     19  C   UNL A   1      32.446  19.898  24.572  1.00  0.00     0.018 A 
ATOM     20  C   UNL A   1      32.323  19.813  23.186  1.00  0.00     0.016 A 
ATOM     21  Br  UNL A   1      32.796  18.334  25.578  1.00  0.00    -0.051 Br
ENDBRANCH  14  15
ENDBRANCH   6   9
ENDBRANCH   4   5
ENDBRANCH   3   4
ENDBRANCH   2   3
ENDBRANCH   1   2
BRANCH   1  22
ATOM     22  C   UNL A   1      37.767  19.688  24.713  1.00  0.00     0.021 C 
BRANCH  22  23
ATOM     23  C   UNL A   1      38.824  20.218  25.677  1.00  0.00     0.116 C 
BRANCH  23  24
ATOM     24  N   UNL A   1      39.948  19.302  25.787  1.00  0.00    -0.352 N 
ATOM     25  C   UNL A   1      41.262  19.573  26.057  1.00  0.00     0.251 C 
ATOM     26  H   UNL A   1      39.734  18.351  25.650  1.00  0.00     0.163 HD
ATOM     27  O   UNL A   1      42.125  18.716  25.858  1.00  0.00    -0.269 OA
BRANCH  25  28
ATOM     28  C   UNL A   1      41.648  20.896  26.581  1.00  0.00     0.039 A 
ATOM     29  C   UNL A   1      42.123  21.867  25.696  1.00  0.00     0.014 A 
ATOM     30  C   UNL A   1      41.557  21.170  27.948  1.00  0.00     0.014 A 
ATOM     31  C   UNL A   1      42.461  23.131  26.178  1.00  0.00     0.010 A 
ATOM     32  C   UNL A   1      41.820  22.454  28.415  1.00  0.00     0.010 A 
ATOM     33  C   UNL A   1      42.284  23.444  27.536  1.00  0.00    -0.014 A 
BRANCH  33  34
ATOM     34  C   UNL A   1      42.583  24.799  28.057  1.00  0.00     0.031 A 
ATOM     35  C   UNL A   1      43.982  25.156  28.477  1.00  0.00     0.074 A 
ATOM     36  C   UNL A   1      41.583  25.688  28.208  1.00  0.00     0.049 A 
ATOM     37  N   UNL A   1      44.428  26.270  29.000  1.00  0.00    -0.248 NA
ATOM     38  C   UNL A   1      45.010  24.115  28.312  1.00  0.00     0.031 C 
ATOM     39  C   UNL A   1      40.177  25.448  27.873  1.00  0.00     0.029 A 
ATOM     40  N   UNL A   1      41.596  26.972  28.688  1.00  0.00    -0.354 N 
ATOM     41  C   UNL A   1      45.779  26.059  29.239  1.00  0.00     0.074 A 
ATOM     42  C   UNL A   1      46.070  24.695  28.856  1.00  0.00     0.031 C 
ATOM     43  C   UNL A   1      39.470  26.560  28.129  1.00  0.00     0.029 A 
ATOM     44  C   UNL A   1      40.360  27.573  28.684  1.00  0.00     0.049 A 
ATOM     45  H   UNL A   1      42.412  27.421  29.005  1.00  0.00     0.167 HD
ATOM     46  C   UNL A   1      46.701  26.930  29.716  1.00  0.00     0.031 A 
ATOM     47  C   UNL A   1      39.986  28.801  29.088  1.00  0.00     0.031 A 
ATOM     48  C   UNL A   1      46.410  28.287  30.093  1.00  0.00     0.049 A 
ATOM     49  C   UNL A   1      41.022  29.740  29.637  1.00  0.00     0.074 A 
ATOM     50  C   UNL A   1      47.284  29.265  30.535  1.00  0.00     0.029 A 
ATOM     51  N   UNL A   1      45.146  28.857  30.076  1.00  0.00    -0.354 N 
ATOM     52  N   UNL A   1      42.311  29.550  29.790  1.00  0.00    -0.248 NA
ATOM     53  C   UNL A   1      40.555  31.068  30.057  1.00  0.00     0.031 C 
ATOM     54  C   UNL A   1      46.539  30.409  30.842  1.00  0.00     0.029 A 
ATOM     55  C   UNL A   1      45.211  30.163  30.530  1.00  0.00     0.049 A 
ATOM     56  H   UNL A   1      44.324  28.399  29.786  1.00  0.00     0.167 HD
ATOM     57  C   UNL A   1      42.812  30.741  30.298  1.00  0.00     0.074 A 
ATOM     58  C   UNL A   1      41.691  31.653  30.409  1.00  0.00     0.031 C 
ATOM     59  C   UNL A   1      44.085  31.055  30.641  1.00  0.00     0.031 A 
BRANCH  46  60
ATOM     60  C   UNL A   1      48.111  26.428  29.869  1.00  0.00    -0.014 A 
ATOM     61  C   UNL A   1      48.542  25.808  31.053  1.00  0.00     0.009 A 
ATOM     62  C   UNL A   1      49.015  26.553  28.803  1.00  0.00     0.009 A 
ATOM     63  C   UNL A   1      49.859  25.363  31.182  1.00  0.00     0.001 A 
ATOM     64  C   UNL A   1      50.324  26.079  28.922  1.00  0.00     0.001 A 
ATOM     65  C   UNL A   1      50.747  25.495  30.116  1.00  0.00     0.000 A 
ENDBRANCH  46  60
BRANCH  47  66
ATOM     66  C   UNL A   1      38.564  29.219  28.975  1.00  0.00    -0.014 A 
ATOM     67  C   UNL A   1      38.075  29.761  27.778  1.00  0.00     0.009 A 
ATOM     68  C   UNL A   1      37.688  29.077  30.064  1.00  0.00     0.009 A 
ATOM     69  C   UNL A   1      36.745  30.179  27.680  1.00  0.00     0.001 A 
ATOM     70  C   UNL A   1      36.352  29.467  29.954  1.00  0.00     0.001 A 
ATOM     71  C   UNL A   1      35.884  30.026  28.766  1.00  0.00     0.000 A 
ENDBRANCH  47  66
BRANCH  59  72
ATOM     72  C   UNL A   1      44.339  32.451  31.137  1.00  0.00    -0.014 A 
ATOM     73  C   UNL A   1      44.305  32.757  32.506  1.00  0.00     0.009 A 
ATOM     74  C   UNL A   1      44.656  33.466  30.221  1.00  0.00     0.009 A 
ATOM     75  C   UNL A   1      44.548  34.060  32.944  1.00  0.00     0.001 A 
ATOM     76  C   UNL A   1      44.929  34.761  30.663  1.00  0.00     0.001 A 
ATOM     77  C   UNL A   1      44.866  35.058  32.023  1.00  0.00     0.000 A 
ENDBRANCH  59  72
ENDBRANCH  33  34
ENDBRANCH  25  28
ENDBRANCH  23  24
ENDBRANCH  22  23
ENDBRANCH   1  22
TORSDOF 14
ENDMDL
MODEL 3
REMARK VINA RESULT:     -10.6      1.484      2.432
REMARK SMILES Cc1onc(-c2cccc(Br)c2)c1C(=O)NCCCCCCNC(=O)c1ccc(-c2c3nc(c(-c4ccccc4)c4ccc([nH]4)c(-c4ccccc4)c4nc(c(-c5ccccc5)c5ccc2[nH]5)C=C4)C=C3)cc1
REMARK SMILES IDX 20 1 19 2 18 3 17 4 16 5 14 6 15 7 13 9 1 10 2 11 3 12 4 13
REMARK SMILES IDX 5 14 6 15 7 16 12 17 8 18 10 19 9 20 11 21 21 22 22 23 23 24
REMARK SMILES IDX 24 25 25 27 26 28 27 29 73 30 28 31 72 32 29 33 30 34 31 35
REMARK SMILES IDX 66 36 32 37 71 38 65 39 67 40 33 41 70 42 64 43 63 44 34 46
REMARK SMILES IDX 56 47 41 48 55 49 42 50 45 51 54 52 68 53 43 54 44 55 53 57
REMARK SMILES IDX 69 58 46 59 35 60 36 61 40 62 37 63 39 64 38 65 57 66 58 67
REMARK SMILES IDX 62 68 59 69 61 70 60 71 47 72 48 73 52 74 49 75 51 76 50 77
REMARK H PARENT 16 8 23 26 67 45 45 56
REMARK Flexibility Score: inf
ROOT
ATOM      1  C   UNL A   1      36.198  20.387  25.040  1.00  0.00     0.002 C 
ENDROOT
BRANCH   1   2
ATOM      2  C   UNL A   1      35.792  21.838  24.754  1.00  0.00     0.002 C 
BRANCH   2   3
ATOM      3  C   UNL A   1      35.448  22.667  26.002  1.00  0.00     0.021 C 
BRANCH   3   4
ATOM      4  C   UNL A   1      35.713  24.164  25.825  1.00  0.00     0.116 C 
BRANCH   4   5
ATOM      5  N   UNL A   1      35.049  24.645  24.646  1.00  0.00    -0.352 N 
ATOM      6  C   UNL A   1      33.760  24.913  24.296  1.00  0.00     0.257 C 
ATOM      7  O   UNL A   1      33.674  25.326  23.135  1.00  0.00    -0.269 OA
ATOM      8  H   UNL A   1      35.679  24.827  23.913  1.00  0.00     0.163 HD
BRANCH   6   9
ATOM      9  C   UNL A   1      32.574  24.785  25.140  1.00  0.00     0.110 A 
ATOM     10  C   UNL A   1      32.057  26.911  26.717  1.00  0.00     0.092 C 
ATOM     11  C   UNL A   1      31.920  25.594  26.063  1.00  0.00     0.147 A 
ATOM     12  O   UNL A   1      30.795  24.963  26.502  1.00  0.00    -0.360 OA
ATOM     13  N   UNL A   1      30.692  23.722  25.950  1.00  0.00    -0.079 NA
ATOM     14  C   UNL A   1      31.764  23.579  25.165  1.00  0.00     0.126 A 
BRANCH  14  15
ATOM     15  C   UNL A   1      31.965  22.312  24.473  1.00  0.00     0.006 A 
ATOM     16  C   UNL A   1      31.914  22.252  23.073  1.00  0.00     0.010 A 
ATOM     17  C   UNL A   1      32.227  21.149  25.206  1.00  0.00     0.026 A 
ATOM     18  C   UNL A   1      32.082  21.035  22.412  1.00  0.00     0.002 A 
ATOM     19  C   UNL A   1      32.402  19.938  24.537  1.00  0.00     0.018 A 
ATOM     20  C   UNL A   1      32.325  19.875  23.146  1.00  0.00     0.016 A 
ATOM     21  Br  UNL A   1      32.741  18.363  25.528  1.00  0.00    -0.051 Br
ENDBRANCH  14  15
ENDBRANCH   6   9
ENDBRANCH   4   5
ENDBRANCH   3   4
ENDBRANCH   2   3
ENDBRANCH   1   2
BRANCH   1  22
ATOM     22  C   UNL A   1      37.630  20.030  24.631  1.00  0.00     0.021 C 
BRANCH  22  23
ATOM     23  C   UNL A   1      38.687  20.474  25.636  1.00  0.00     0.116 C 
BRANCH  23  24
ATOM     24  N   UNL A   1      39.736  19.476  25.781  1.00  0.00    -0.352 N 
ATOM     25  C   UNL A   1      41.058  19.647  26.086  1.00  0.00     0.251 C 
ATOM     26  H   UNL A   1      39.453  18.544  25.639  1.00  0.00     0.163 HD
ATOM     27  O   UNL A   1      41.859  18.727  25.914  1.00  0.00    -0.269 OA
BRANCH  25  28
ATOM     28  C   UNL A   1      41.529  20.940  26.618  1.00  0.00     0.039 A 
ATOM     29  C   UNL A   1      42.003  21.910  25.732  1.00  0.00     0.014 A 
ATOM     30  C   UNL A   1      41.517  21.186  27.994  1.00  0.00     0.014 A 
ATOM     31  C   UNL A   1      42.420  23.146  26.223  1.00  0.00     0.010 A 
ATOM     32  C   UNL A   1      41.861  22.445  28.475  1.00  0.00     0.010 A 
ATOM     33  C   UNL A   1      42.325  23.434  27.595  1.00  0.00    -0.014 A 
BRANCH  33  34
ATOM     34  C   UNL A   1      42.710  24.762  28.129  1.00  0.00     0.031 A 
ATOM     35  C   UNL A   1      41.669  25.827  28.332  1.00  0.00     0.074 A 
ATOM     36  C   UNL A   1      44.008  25.028  28.372  1.00  0.00     0.049 A 
ATOM     37  N   UNL A   1      41.820  27.061  28.742  1.00  0.00    -0.248 NA
ATOM     38  C   UNL A   1      40.279  25.466  28.009  1.00  0.00     0.031 C 
ATOM     39  C   UNL A   1      45.117  24.091  28.178  1.00  0.00     0.029 A 
ATOM     40  N   UNL A   1      44.613  26.169  28.832  1.00  0.00    -0.354 N 
ATOM     41  C   UNL A   1      40.552  27.625  28.711  1.00  0.00     0.074 A 
ATOM     42  C   UNL A   1      39.652  26.619  28.192  1.00  0.00     0.031 C 
ATOM     43  C   UNL A   1      46.263  24.686  28.546  1.00  0.00     0.029 A 
ATOM     44  C   UNL A   1      45.977  26.054  28.959  1.00  0.00     0.049 A 
ATOM     45  H   UNL A   1      44.119  26.991  29.050  1.00  0.00     0.167 HD
ATOM     46  C   UNL A   1      40.166  28.865  29.098  1.00  0.00     0.031 A 
ATOM     47  C   UNL A   1      46.894  26.955  29.360  1.00  0.00     0.031 A 
ATOM     48  C   UNL A   1      41.062  29.863  29.618  1.00  0.00     0.049 A 
ATOM     49  C   UNL A   1      46.445  28.331  29.762  1.00  0.00     0.074 A 
ATOM     50  C   UNL A   1      40.761  31.129  30.091  1.00  0.00     0.029 A 
ATOM     51  N   UNL A   1      42.435  29.709  29.730  1.00  0.00    -0.354 N 
ATOM     52  N   UNL A   1      45.231  28.827  29.794  1.00  0.00    -0.248 NA
ATOM     53  C   UNL A   1      47.491  29.267  30.194  1.00  0.00     0.031 C 
ATOM     54  C   UNL A   1      41.960  31.762  30.434  1.00  0.00     0.029 A 
ATOM     55  C   UNL A   1      43.000  30.868  30.234  1.00  0.00     0.049 A 
ATOM     56  H   UNL A   1      42.934  28.896  29.486  1.00  0.00     0.167 HD
ATOM     57  C   UNL A   1      45.364  30.122  30.276  1.00  0.00     0.074 A 
ATOM     58  C   UNL A   1      46.774  30.328  30.538  1.00  0.00     0.031 C 
ATOM     59  C   UNL A   1      44.406  31.059  30.484  1.00  0.00     0.031 A 
BRANCH  46  60
ATOM     60  C   UNL A   1      38.708  29.210  28.959  1.00  0.00    -0.014 A 
ATOM     61  C   UNL A   1      38.174  29.646  27.735  1.00  0.00     0.009 A 
ATOM     62  C   UNL A   1      37.850  29.072  30.061  1.00  0.00     0.009 A 
ATOM     63  C   UNL A   1      36.821  29.977  27.630  1.00  0.00     0.001 A 
ATOM     64  C   UNL A   1      36.491  29.374  29.945  1.00  0.00     0.001 A 
ATOM     65  C   UNL A   1      35.981  29.836  28.733  1.00  0.00     0.000 A 
ENDBRANCH  46  60
BRANCH  47  66
ATOM     66  C   UNL A   1      48.331  26.577  29.414  1.00  0.00    -0.014 A 
ATOM     67  C   UNL A   1      49.169  26.811  28.314  1.00  0.00     0.009 A 
ATOM     68  C   UNL A   1      48.872  25.983  30.566  1.00  0.00     0.009 A 
ATOM     69  C   UNL A   1      50.514  26.432  28.355  1.00  0.00     0.001 A 
ATOM     70  C   UNL A   1      50.222  25.633  30.615  1.00  0.00     0.001 A 
ATOM     71  C   UNL A   1      51.039  25.849  29.506  1.00  0.00     0.000 A 
ENDBRANCH  47  66
BRANCH  59  72
ATOM     72  C   UNL A   1      44.848  32.379  31.052  1.00  0.00    -0.014 A 
ATOM     73  C   UNL A   1      44.936  32.585  32.437  1.00  0.00     0.009 A 
ATOM     74  C   UNL A   1      45.218  33.418  30.184  1.00  0.00     0.009 A 
ATOM     75  C   UNL A   1      45.353  33.819  32.941  1.00  0.00     0.001 A 
ATOM     76  C   UNL A   1      45.663  34.640  30.689  1.00  0.00     0.001 A 
ATOM     77  C   UNL A   1      45.721  34.841  32.067  1.00  0.00     0.000 A 
ENDBRANCH  59  72
ENDBRANCH  33  34
ENDBRANCH  25  28
ENDBRANCH  23  24
ENDBRANCH  22  23
ENDBRANCH   1  22
TORSDOF 14
ENDMDL
