MODEL 1
REMARK VINA RESULT:     -12.6      0.000      0.000
REMARK SMILES Cc1c(CC(=O)NCCCCCCNC(=O)c2ccc(-c3c4nc(c(-c5ccccc5)c5ccc([nH]5)c(-c5ccccc5)c5nc(c(-c6ccccc6)c6ccc3[nH]6)C=C5)C=C4)cc2)cc(-c2ccc(S(C)(=O)=O)cc2)n1-c1ccccc1
REMARK SMILES IDX 10 1 9 2 8 3 7 4 5 5 6 6 4 8 3 9 1 10 2 11 77 12 65 13 66 14
REMARK SMILES IDX 78 15 79 16 83 17 80 18 82 19 81 20 67 21 68 22 76 23 69 24
REMARK SMILES IDX 75 25 70 26 71 27 72 28 73 29 74 30 11 31 12 32 13 33 14 34
REMARK SMILES IDX 15 35 16 37 17 38 18 39 64 40 19 41 63 42 20 43 21 44 22 45
REMARK SMILES IDX 57 46 23 47 62 48 56 49 58 50 24 51 61 52 55 53 54 54 25 56
REMARK SMILES IDX 47 57 32 58 46 59 33 60 36 61 45 62 59 63 34 64 35 65 44 67
REMARK SMILES IDX 60 68 37 69 26 70 27 71 31 72 28 73 30 74 29 75 48 76 49 77
REMARK SMILES IDX 53 78 50 79 52 80 51 81 38 82 39 83 43 84 40 85 42 86 41 87
REMARK H PARENT 7 7 14 36 58 55 36 66
REMARK Flexibility Score: inf
ROOT
ATOM      1  C   UNL A   1      31.724  29.942  26.042  1.00  0.00     0.002 C 
ENDROOT
BRANCH   1   2
ATOM      2  C   UNL A   1      31.863  29.471  24.589  1.00  0.00     0.021 C 
BRANCH   2   3
ATOM      3  C   UNL A   1      30.540  29.133  23.898  1.00  0.00     0.116 C 
BRANCH   3   4
ATOM      4  N   UNL A   1      30.754  28.421  22.651  1.00  0.00    -0.356 N 
ATOM      5  C   UNL A   1      30.789  27.074  22.421  1.00  0.00     0.224 C 
ATOM      6  O   UNL A   1      31.048  26.686  21.279  1.00  0.00    -0.275 OA
ATOM      7  H   UNL A   1      30.893  28.990  21.859  1.00  0.00     0.163 HD
BRANCH   5   8
ATOM      8  C   UNL A   1      30.455  26.090  23.528  1.00  0.00     0.137 C 
BRANCH   8   9
ATOM      9  C   UNL A   1      31.487  25.026  23.720  1.00  0.00    -0.017 A 
ATOM     10  C   UNL A   1      33.662  26.417  23.954  1.00  0.00     0.065 C 
ATOM     11  C   UNL A   1      32.852  25.163  23.951  1.00  0.00     0.024 A 
ATOM     12  N   UNL A   1      33.405  23.894  24.118  1.00  0.00    -0.314 N 
ATOM     13  C   UNL A   1      31.220  23.641  23.664  1.00  0.00     0.033 A 
ATOM     14  C   UNL A   1      32.385  22.961  23.942  1.00  0.00     0.053 A 
BRANCH  12  15
ATOM     15  C   UNL A   1      34.763  23.586  24.439  1.00  0.00     0.046 A 
ATOM     16  C   UNL A   1      35.614  23.047  23.464  1.00  0.00     0.026 A 
ATOM     17  C   UNL A   1      35.221  23.739  25.753  1.00  0.00     0.026 A 
ATOM     18  C   UNL A   1      36.908  22.649  23.805  1.00  0.00     0.002 A 
ATOM     19  C   UNL A   1      36.514  23.333  26.087  1.00  0.00     0.002 A 
ATOM     20  C   UNL A   1      37.355  22.787  25.117  1.00  0.00     0.000 A 
ENDBRANCH  12  15
BRANCH  14  21
ATOM     21  C   UNL A   1      32.514  21.523  24.104  1.00  0.00    -0.001 A 
ATOM     22  C   UNL A   1      32.894  20.970  25.333  1.00  0.00     0.011 A 
ATOM     23  C   UNL A   1      32.258  20.700  22.999  1.00  0.00     0.011 A 
ATOM     24  C   UNL A   1      33.102  19.604  25.430  1.00  0.00     0.021 A 
ATOM     25  C   UNL A   1      32.459  19.335  23.090  1.00  0.00     0.021 A 
ATOM     26  C   UNL A   1      32.913  18.812  24.293  1.00  0.00     0.067 A 
BRANCH  26  27
ATOM     27  S   UNL A   1      33.258  17.093  24.377  1.00  0.00     0.175 S 
ATOM     28  C   UNL A   1      35.015  17.083  24.718  1.00  0.00     0.163 C 
ATOM     29  O   UNL A   1      32.479  16.646  25.523  1.00  0.00    -0.224 OA
ATOM     30  O   UNL A   1      33.062  16.510  23.078  1.00  0.00    -0.224 OA
ENDBRANCH  26  27
ENDBRANCH  14  21
ENDBRANCH   8   9
ENDBRANCH   5   8
ENDBRANCH   3   4
ENDBRANCH   2   3
ENDBRANCH   1   2
BRANCH   1  31
ATOM     31  C   UNL A   1      31.955  28.881  27.126  1.00  0.00     0.002 C 
BRANCH  31  32
ATOM     32  C   UNL A   1      33.375  28.298  27.258  1.00  0.00     0.021 C 
BRANCH  32  33
ATOM     33  C   UNL A   1      34.560  29.280  27.180  1.00  0.00     0.116 C 
BRANCH  33  34
ATOM     34  N   UNL A   1      34.439  30.421  28.063  1.00  0.00    -0.352 N 
ATOM     35  C   UNL A   1      35.443  31.225  28.566  1.00  0.00     0.251 C 
ATOM     36  H   UNL A   1      33.524  30.652  28.343  1.00  0.00     0.163 HD
ATOM     37  O   UNL A   1      35.129  32.276  29.123  1.00  0.00    -0.269 OA
BRANCH  35  38
ATOM     38  C   UNL A   1      36.890  30.841  28.501  1.00  0.00     0.039 A 
ATOM     39  C   UNL A   1      37.325  30.049  27.447  1.00  0.00     0.014 A 
ATOM     40  C   UNL A   1      37.752  30.995  29.602  1.00  0.00     0.014 A 
ATOM     41  C   UNL A   1      38.592  29.425  27.511  1.00  0.00     0.010 A 
ATOM     42  C   UNL A   1      39.014  30.313  29.688  1.00  0.00     0.010 A 
ATOM     43  C   UNL A   1      39.451  29.467  28.659  1.00  0.00    -0.014 A 
BRANCH  43  44
ATOM     44  C   UNL A   1      40.410  28.254  28.817  1.00  0.00     0.031 A 
ATOM     45  C   UNL A   1      41.405  28.680  29.829  1.00  0.00     0.074 A 
ATOM     46  C   UNL A   1      40.724  27.050  28.229  1.00  0.00     0.049 A 
ATOM     47  N   UNL A   1      42.111  29.756  29.627  1.00  0.00    -0.248 NA
ATOM     48  C   UNL A   1      41.459  28.137  31.181  1.00  0.00     0.031 C 
ATOM     49  C   UNL A   1      40.206  26.504  26.981  1.00  0.00     0.029 A 
ATOM     50  N   UNL A   1      41.553  25.987  28.639  1.00  0.00    -0.354 N 
ATOM     51  C   UNL A   1      42.944  29.848  30.709  1.00  0.00     0.074 A 
ATOM     52  C   UNL A   1      42.344  28.983  31.716  1.00  0.00     0.031 C 
ATOM     53  C   UNL A   1      40.476  25.178  26.859  1.00  0.00     0.029 A 
ATOM     54  C   UNL A   1      41.355  24.765  27.938  1.00  0.00     0.049 A 
ATOM     55  H   UNL A   1      42.220  26.084  29.356  1.00  0.00     0.167 HD
ATOM     56  C   UNL A   1      44.266  30.046  30.445  1.00  0.00     0.031 A 
ATOM     57  C   UNL A   1      41.920  23.528  28.123  1.00  0.00     0.031 A 
ATOM     58  C   UNL A   1      45.058  28.882  30.732  1.00  0.00     0.049 A 
ATOM     59  C   UNL A   1      43.230  23.755  28.744  1.00  0.00     0.074 A 
ATOM     60  C   UNL A   1      45.166  28.038  31.816  1.00  0.00     0.029 A 
ATOM     61  N   UNL A   1      45.561  28.197  29.645  1.00  0.00    -0.354 N 
ATOM     62  N   UNL A   1      44.246  24.148  28.038  1.00  0.00    -0.248 NA
ATOM     63  C   UNL A   1      43.507  23.482  30.147  1.00  0.00     0.031 C 
ATOM     64  C   UNL A   1      45.335  26.739  31.276  1.00  0.00     0.029 A 
ATOM     65  C   UNL A   1      45.546  26.841  29.907  1.00  0.00     0.049 A 
ATOM     66  H   UNL A   1      45.882  28.611  28.813  1.00  0.00     0.167 HD
ATOM     67  C   UNL A   1      45.076  24.680  28.975  1.00  0.00     0.074 A 
ATOM     68  C   UNL A   1      44.741  23.989  30.205  1.00  0.00     0.031 C 
ATOM     69  C   UNL A   1      45.539  25.941  28.772  1.00  0.00     0.031 A 
BRANCH  56  70
ATOM     70  C   UNL A   1      44.560  31.003  29.320  1.00  0.00    -0.014 A 
ATOM     71  C   UNL A   1      45.355  32.126  29.575  1.00  0.00     0.009 A 
ATOM     72  C   UNL A   1      43.963  30.881  28.048  1.00  0.00     0.009 A 
ATOM     73  C   UNL A   1      45.502  33.123  28.604  1.00  0.00     0.001 A 
ATOM     74  C   UNL A   1      44.090  31.887  27.090  1.00  0.00     0.001 A 
ATOM     75  C   UNL A   1      44.853  33.014  27.373  1.00  0.00     0.000 A 
ENDBRANCH  56  70
BRANCH  57  76
ATOM     76  C   UNL A   1      41.776  22.098  27.661  1.00  0.00    -0.014 A 
ATOM     77  C   UNL A   1      40.473  21.586  27.398  1.00  0.00     0.009 A 
ATOM     78  C   UNL A   1      42.842  21.386  27.100  1.00  0.00     0.009 A 
ATOM     79  C   UNL A   1      40.235  20.516  26.526  1.00  0.00     0.001 A 
ATOM     80  C   UNL A   1      42.604  20.282  26.248  1.00  0.00     0.001 A 
ATOM     81  C   UNL A   1      41.306  19.872  25.932  1.00  0.00     0.000 A 
ENDBRANCH  57  76
BRANCH  69  82
ATOM     82  C   UNL A   1      45.756  26.397  27.328  1.00  0.00    -0.014 A 
ATOM     83  C   UNL A   1      46.943  26.210  26.582  1.00  0.00     0.009 A 
ATOM     84  C   UNL A   1      44.713  27.078  26.684  1.00  0.00     0.009 A 
ATOM     85  C   UNL A   1      47.111  26.752  25.302  1.00  0.00     0.001 A 
ATOM     86  C   UNL A   1      44.859  27.575  25.381  1.00  0.00     0.001 A 
ATOM     87  C   UNL A   1      46.065  27.435  24.700  1.00  0.00     0.000 A 
ENDBRANCH  69  82
ENDBRANCH  43  44
ENDBRANCH  35  38
ENDBRANCH  33  34
ENDBRANCH  32  33
ENDBRANCH  31  32
ENDBRANCH   1  31
TORSDOF 17
ENDMDL
MODEL 2
REMARK VINA RESULT:     -12.5      1.624      2.434
REMARK SMILES Cc1c(CC(=O)NCCCCCCNC(=O)c2ccc(-c3c4nc(c(-c5ccccc5)c5ccc([nH]5)c(-c5ccccc5)c5nc(c(-c6ccccc6)c6ccc3[nH]6)C=C5)C=C4)cc2)cc(-c2ccc(S(C)(=O)=O)cc2)n1-c1ccccc1
REMARK SMILES IDX 10 1 9 2 8 3 7 4 5 5 6 6 4 8 3 9 1 10 2 11 77 12 65 13 66 14
REMARK SMILES IDX 78 15 79 16 83 17 80 18 82 19 81 20 67 21 68 22 76 23 69 24
REMARK SMILES IDX 75 25 70 26 71 27 72 28 73 29 74 30 11 31 12 32 13 33 14 34
REMARK SMILES IDX 15 35 16 37 17 38 18 39 64 40 19 41 63 42 20 43 21 44 22 45
REMARK SMILES IDX 57 46 23 47 62 48 56 49 58 50 24 51 61 52 55 53 54 54 25 56
REMARK SMILES IDX 47 57 32 58 46 59 33 60 36 61 45 62 59 63 34 64 35 65 44 67
REMARK SMILES IDX 60 68 37 69 26 70 27 71 31 72 28 73 30 74 29 75 48 76 49 77
REMARK SMILES IDX 53 78 50 79 52 80 51 81 38 82 39 83 43 84 40 85 42 86 41 87
REMARK H PARENT 7 7 14 36 58 55 36 66
REMARK Flexibility Score: inf
ROOT
ATOM      1  C   UNL A   1      31.919  29.319  26.553  1.00  0.00     0.002 C 
ENDROOT
BRANCH   1   2
ATOM      2  C   UNL A   1      31.939  29.693  25.066  1.00  0.00     0.021 C 
BRANCH   2   3
ATOM      3  C   UNL A   1      30.589  29.566  24.357  1.00  0.00     0.116 C 
BRANCH   3   4
ATOM      4  N   UNL A   1      30.718  28.896  23.075  1.00  0.00    -0.356 N 
ATOM      5  C   UNL A   1      30.718  27.558  22.796  1.00  0.00     0.224 C 
ATOM      6  O   UNL A   1      30.903  27.208  21.627  1.00  0.00    -0.275 OA
ATOM      7  H   UNL A   1      30.819  29.492  22.297  1.00  0.00     0.163 HD
BRANCH   5   8
ATOM      8  C   UNL A   1      30.435  26.539  23.885  1.00  0.00     0.137 C 
BRANCH   8   9
ATOM      9  C   UNL A   1      31.439  25.433  23.951  1.00  0.00    -0.017 A 
ATOM     10  C   UNL A   1      33.669  26.738  24.152  1.00  0.00     0.065 C 
ATOM     11  C   UNL A   1      32.818  25.512  24.114  1.00  0.00     0.024 A 
ATOM     12  N   UNL A   1      33.334  24.218  24.169  1.00  0.00    -0.314 N 
ATOM     13  C   UNL A   1      31.121  24.064  23.822  1.00  0.00     0.033 A 
ATOM     14  C   UNL A   1      32.275  23.331  23.992  1.00  0.00     0.053 A 
BRANCH  12  15
ATOM     15  C   UNL A   1      34.696  23.848  24.395  1.00  0.00     0.046 A 
ATOM     16  C   UNL A   1      35.289  24.071  25.646  1.00  0.00     0.026 A 
ATOM     17  C   UNL A   1      35.466  23.344  23.341  1.00  0.00     0.026 A 
ATOM     18  C   UNL A   1      36.647  23.808  25.836  1.00  0.00     0.002 A 
ATOM     19  C   UNL A   1      36.826  23.089  23.537  1.00  0.00     0.002 A 
ATOM     20  C   UNL A   1      37.415  23.323  24.780  1.00  0.00     0.000 A 
ENDBRANCH  12  15
BRANCH  14  21
ATOM     21  C   UNL A   1      32.363  21.882  24.054  1.00  0.00    -0.001 A 
ATOM     22  C   UNL A   1      32.684  21.233  25.253  1.00  0.00     0.011 A 
ATOM     23  C   UNL A   1      32.127  21.147  22.885  1.00  0.00     0.011 A 
ATOM     24  C   UNL A   1      32.855  19.859  25.258  1.00  0.00     0.021 A 
ATOM     25  C   UNL A   1      32.291  19.774  22.884  1.00  0.00     0.021 A 
ATOM     26  C   UNL A   1      32.688  19.154  24.062  1.00  0.00     0.067 A 
BRANCH  26  27
ATOM     27  S   UNL A   1      32.987  17.426  24.034  1.00  0.00     0.175 S 
ATOM     28  C   UNL A   1      34.695  17.335  24.561  1.00  0.00     0.163 C 
ATOM     29  O   UNL A   1      32.078  16.907  25.045  1.00  0.00    -0.224 OA
ATOM     30  O   UNL A   1      32.924  16.960  22.675  1.00  0.00    -0.224 OA
ENDBRANCH  26  27
ENDBRANCH  14  21
ENDBRANCH   8   9
ENDBRANCH   5   8
ENDBRANCH   3   4
ENDBRANCH   2   3
ENDBRANCH   1   2
BRANCH   1  31
ATOM     31  C   UNL A   1      33.066  28.425  27.044  1.00  0.00     0.002 C 
BRANCH  31  32
ATOM     32  C   UNL A   1      34.282  29.118  27.686  1.00  0.00     0.021 C 
BRANCH  32  33
ATOM     33  C   UNL A   1      34.544  30.590  27.314  1.00  0.00     0.116 C 
BRANCH  33  34
ATOM     34  N   UNL A   1      33.982  31.543  28.249  1.00  0.00    -0.352 N 
ATOM     35  C   UNL A   1      34.612  32.193  29.292  1.00  0.00     0.251 C 
ATOM     36  H   UNL A   1      33.029  31.754  28.125  1.00  0.00     0.163 HD
ATOM     37  O   UNL A   1      34.029  33.128  29.838  1.00  0.00    -0.269 OA
BRANCH  35  38
ATOM     38  C   UNL A   1      35.952  31.770  29.812  1.00  0.00     0.039 A 
ATOM     39  C   UNL A   1      37.092  32.176  29.132  1.00  0.00     0.014 A 
ATOM     40  C   UNL A   1      36.090  30.747  30.768  1.00  0.00     0.014 A 
ATOM     41  C   UNL A   1      38.334  31.558  29.407  1.00  0.00     0.010 A 
ATOM     42  C   UNL A   1      37.343  30.084  31.004  1.00  0.00     0.010 A 
ATOM     43  C   UNL A   1      38.497  30.441  30.293  1.00  0.00    -0.014 A 
BRANCH  43  44
ATOM     44  C   UNL A   1      39.701  29.511  29.975  1.00  0.00     0.031 A 
ATOM     45  C   UNL A   1      40.606  29.644  31.141  1.00  0.00     0.074 A 
ATOM     46  C   UNL A   1      40.254  28.784  28.946  1.00  0.00     0.049 A 
ATOM     47  N   UNL A   1      41.054  30.819  31.480  1.00  0.00    -0.248 NA
ATOM     48  C   UNL A   1      40.815  28.585  32.121  1.00  0.00     0.031 C 
ATOM     49  C   UNL A   1      39.835  28.751  27.550  1.00  0.00     0.029 A 
ATOM     50  N   UNL A   1      41.307  27.849  28.910  1.00  0.00    -0.354 N 
ATOM     51  C   UNL A   1      41.877  30.596  32.551  1.00  0.00     0.074 A 
ATOM     52  C   UNL A   1      41.508  29.272  33.033  1.00  0.00     0.031 C 
ATOM     53  C   UNL A   1      40.384  27.703  26.882  1.00  0.00     0.029 A 
ATOM     54  C   UNL A   1      41.362  27.050  27.734  1.00  0.00     0.049 A 
ATOM     55  H   UNL A   1      41.956  27.755  29.644  1.00  0.00     0.167 HD
ATOM     56  C   UNL A   1      43.116  31.160  32.496  1.00  0.00     0.031 A 
ATOM     57  C   UNL A   1      42.188  26.005  27.402  1.00  0.00     0.031 A 
ATOM     58  C   UNL A   1      44.150  30.182  32.303  1.00  0.00     0.049 A 
ATOM     59  C   UNL A   1      43.433  26.202  28.152  1.00  0.00     0.074 A 
ATOM     60  C   UNL A   1      44.470  28.989  32.916  1.00  0.00     0.029 A 
ATOM     61  N   UNL A   1      44.761  30.168  31.066  1.00  0.00    -0.354 N 
ATOM     62  N   UNL A   1      44.318  27.069  27.764  1.00  0.00    -0.248 NA
ATOM     63  C   UNL A   1      43.801  25.402  29.312  1.00  0.00     0.031 C 
ATOM     64  C   UNL A   1      44.904  28.128  31.877  1.00  0.00     0.029 A 
ATOM     65  C   UNL A   1      45.050  28.866  30.709  1.00  0.00     0.049 A 
ATOM     66  H   UNL A   1      44.961  30.963  30.523  1.00  0.00     0.167 HD
ATOM     67  C   UNL A   1      45.038  27.292  28.897  1.00  0.00     0.074 A 
ATOM     68  C   UNL A   1      44.896  26.076  29.674  1.00  0.00     0.031 C 
ATOM     69  C   UNL A   1      45.208  28.579  29.298  1.00  0.00     0.031 A 
BRANCH  56  70
ATOM     70  C   UNL A   1      43.163  32.553  31.925  1.00  0.00    -0.014 A 
ATOM     71  C   UNL A   1      43.508  32.724  30.581  1.00  0.00     0.009 A 
ATOM     72  C   UNL A   1      42.993  33.703  32.725  1.00  0.00     0.009 A 
ATOM     73  C   UNL A   1      43.732  34.006  30.066  1.00  0.00     0.001 A 
ATOM     74  C   UNL A   1      43.242  34.979  32.217  1.00  0.00     0.001 A 
ATOM     75  C   UNL A   1      43.620  35.129  30.888  1.00  0.00     0.000 A 
ENDBRANCH  56  70
BRANCH  57  76
ATOM     76  C   UNL A   1      42.347  24.931  26.353  1.00  0.00    -0.014 A 
ATOM     77  C   UNL A   1      43.366  25.076  25.368  1.00  0.00     0.009 A 
ATOM     78  C   UNL A   1      41.836  23.640  26.525  1.00  0.00     0.009 A 
ATOM     79  C   UNL A   1      43.934  23.988  24.692  1.00  0.00     0.001 A 
ATOM     80  C   UNL A   1      42.386  22.545  25.817  1.00  0.00     0.001 A 
ATOM     81  C   UNL A   1      43.454  22.713  24.933  1.00  0.00     0.000 A 
ENDBRANCH  57  76
BRANCH  69  82
ATOM     82  C   UNL A   1      45.281  29.659  28.217  1.00  0.00    -0.014 A 
ATOM     83  C   UNL A   1      46.466  30.109  27.590  1.00  0.00     0.009 A 
ATOM     84  C   UNL A   1      44.089  30.280  27.820  1.00  0.00     0.009 A 
ATOM     85  C   UNL A   1      46.471  31.181  26.689  1.00  0.00     0.001 A 
ATOM     86  C   UNL A   1      44.083  31.317  26.876  1.00  0.00     0.001 A 
ATOM     87  C   UNL A   1      45.275  31.784  26.329  1.00  0.00     0.000 A 
ENDBRANCH  69  82
ENDBRANCH  43  44
ENDBRANCH  35  38
ENDBRANCH  33  34
ENDBRANCH  32  33
ENDBRANCH  31  32
ENDBRANCH   1  31
TORSDOF 17
ENDMDL
MODEL 3
REMARK VINA RESULT:     -12.3      3.424      8.936
REMARK SMILES Cc1c(CC(=O)NCCCCCCNC(=O)c2ccc(-c3c4nc(c(-c5ccccc5)c5ccc([nH]5)c(-c5ccccc5)c5nc(c(-c6ccccc6)c6ccc3[nH]6)C=C5)C=C4)cc2)cc(-c2ccc(S(C)(=O)=O)cc2)n1-c1ccccc1
REMARK SMILES IDX 10 1 9 2 8 3 7 4 5 5 6 6 4 8 3 9 1 10 2 11 77 12 65 13 66 14
REMARK SMILES IDX 78 15 79 16 83 17 80 18 82 19 81 20 67 21 68 22 76 23 69 24
REMARK SMILES IDX 75 25 70 26 71 27 72 28 73 29 74 30 11 31 12 32 13 33 14 34
REMARK SMILES IDX 15 35 16 37 17 38 18 39 64 40 19 41 63 42 20 43 21 44 22 45
REMARK SMILES IDX 57 46 23 47 62 48 56 49 58 50 24 51 61 52 55 53 54 54 25 56
REMARK SMILES IDX 47 57 32 58 46 59 33 60 36 61 45 62 59 63 34 64 35 65 44 67
REMARK SMILES IDX 60 68 37 69 26 70 27 71 31 72 28 73 30 74 29 75 48 76 49 77
REMARK SMILES IDX 53 78 50 79 52 80 51 81 38 82 39 83 43 84 40 85 42 86 41 87
REMARK H PARENT 7 7 14 36 58 55 36 66
REMARK Flexibility Score: inf
ROOT
ATOM      1  C   UNL A   1      36.880  22.717  23.989  1.00  0.00     0.002 C 
ENDROOT
BRANCH   1   2
ATOM      2  C   UNL A   1      35.401  22.313  24.023  1.00  0.00     0.021 C 
BRANCH   2   3
ATOM      3  C   UNL A   1      34.482  23.185  23.166  1.00  0.00     0.116 C 
BRANCH   3   4
ATOM      4  N   UNL A   1      33.527  22.386  22.419  1.00  0.00    -0.356 N 
ATOM      5  C   UNL A   1      32.368  21.803  22.848  1.00  0.00     0.224 C 
ATOM      6  O   UNL A   1      31.734  21.109  22.048  1.00  0.00    -0.275 OA
ATOM      7  H   UNL A   1      33.747  22.244  21.470  1.00  0.00     0.163 HD
BRANCH   5   8
ATOM      8  C   UNL A   1      31.845  22.056  24.252  1.00  0.00     0.137 C 
BRANCH   8   9
ATOM      9  C   UNL A   1      31.681  23.505  24.581  1.00  0.00    -0.017 A 
ATOM     10  C   UNL A   1      33.328  23.801  26.560  1.00  0.00     0.065 C 
ATOM     11  C   UNL A   1      32.348  24.266  25.535  1.00  0.00     0.024 A 
ATOM     12  N   UNL A   1      31.899  25.583  25.446  1.00  0.00    -0.314 N 
ATOM     13  C   UNL A   1      30.749  24.360  23.956  1.00  0.00     0.033 A 
ATOM     14  C   UNL A   1      30.913  25.630  24.463  1.00  0.00     0.053 A 
BRANCH  12  15
ATOM     15  C   UNL A   1      32.373  26.702  26.199  1.00  0.00     0.046 A 
ATOM     16  C   UNL A   1      31.522  27.356  27.101  1.00  0.00     0.026 A 
ATOM     17  C   UNL A   1      33.660  27.202  25.970  1.00  0.00     0.026 A 
ATOM     18  C   UNL A   1      31.951  28.512  27.758  1.00  0.00     0.002 A 
ATOM     19  C   UNL A   1      34.079  28.362  26.625  1.00  0.00     0.002 A 
ATOM     20  C   UNL A   1      33.226  29.017  27.515  1.00  0.00     0.000 A 
ENDBRANCH  12  15
BRANCH  14  21
ATOM     21  C   UNL A   1      30.234  26.828  24.000  1.00  0.00    -0.001 A 
ATOM     22  C   UNL A   1      28.839  26.857  23.871  1.00  0.00     0.011 A 
ATOM     23  C   UNL A   1      31.004  27.952  23.677  1.00  0.00     0.011 A 
ATOM     24  C   UNL A   1      28.228  27.978  23.336  1.00  0.00     0.021 A 
ATOM     25  C   UNL A   1      30.400  29.077  23.147  1.00  0.00     0.021 A 
ATOM     26  C   UNL A   1      29.026  29.061  22.951  1.00  0.00     0.067 A 
BRANCH  26  27
ATOM     27  S   UNL A   1      28.276  30.453  22.190  1.00  0.00     0.175 S 
ATOM     28  C   UNL A   1      29.016  31.811  23.090  1.00  0.00     0.163 C 
ATOM     29  O   UNL A   1      28.751  30.387  20.816  1.00  0.00    -0.224 OA
ATOM     30  O   UNL A   1      26.869  30.448  22.486  1.00  0.00    -0.224 OA
ENDBRANCH  26  27
ENDBRANCH  14  21
ENDBRANCH   8   9
ENDBRANCH   5   8
ENDBRANCH   3   4
ENDBRANCH   2   3
ENDBRANCH   1   2
BRANCH   1  31
ATOM     31  C   UNL A   1      37.596  22.792  25.345  1.00  0.00     0.002 C 
BRANCH  31  32
ATOM     32  C   UNL A   1      38.558  21.645  25.705  1.00  0.00     0.021 C 
BRANCH  32  33
ATOM     33  C   UNL A   1      39.754  21.976  26.619  1.00  0.00     0.116 C 
BRANCH  33  34
ATOM     34  N   UNL A   1      40.849  22.637  25.941  1.00  0.00    -0.352 N 
ATOM     35  C   UNL A   1      41.523  23.783  26.316  1.00  0.00     0.251 C 
ATOM     36  H   UNL A   1      41.151  22.217  25.104  1.00  0.00     0.163 HD
ATOM     37  O   UNL A   1      42.565  24.069  25.729  1.00  0.00    -0.269 OA
BRANCH  35  38
ATOM     38  C   UNL A   1      41.005  24.711  27.373  1.00  0.00     0.039 A 
ATOM     39  C   UNL A   1      39.734  25.249  27.226  1.00  0.00     0.014 A 
ATOM     40  C   UNL A   1      41.851  25.287  28.337  1.00  0.00     0.014 A 
ATOM     41  C   UNL A   1      39.335  26.344  28.028  1.00  0.00     0.010 A 
ATOM     42  C   UNL A   1      41.463  26.434  29.110  1.00  0.00     0.010 A 
ATOM     43  C   UNL A   1      40.203  27.027  28.943  1.00  0.00    -0.014 A 
BRANCH  43  44
ATOM     44  C   UNL A   1      39.851  28.518  29.205  1.00  0.00     0.031 A 
ATOM     45  C   UNL A   1      41.154  29.185  29.438  1.00  0.00     0.074 A 
ATOM     46  C   UNL A   1      38.775  29.340  29.451  1.00  0.00     0.049 A 
ATOM     47  N   UNL A   1      41.935  28.759  30.389  1.00  0.00    -0.248 NA
ATOM     48  C   UNL A   1      41.762  30.114  28.494  1.00  0.00     0.031 C 
ATOM     49  C   UNL A   1      37.389  28.952  29.680  1.00  0.00     0.029 A 
ATOM     50  N   UNL A   1      38.652  30.743  29.507  1.00  0.00    -0.354 N 
ATOM     51  C   UNL A   1      43.019  29.594  30.366  1.00  0.00     0.074 A 
ATOM     52  C   UNL A   1      42.966  30.236  29.060  1.00  0.00     0.031 C 
ATOM     53  C   UNL A   1      36.544  30.011  29.574  1.00  0.00     0.029 A 
ATOM     54  C   UNL A   1      37.318  31.232  29.442  1.00  0.00     0.049 A 
ATOM     55  H   UNL A   1      39.431  31.339  29.586  1.00  0.00     0.167 HD
ATOM     56  C   UNL A   1      43.398  30.135  31.558  1.00  0.00     0.031 A 
ATOM     57  C   UNL A   1      36.840  32.518  29.390  1.00  0.00     0.031 A 
ATOM     58  C   UNL A   1      43.112  31.541  31.632  1.00  0.00     0.049 A 
ATOM     59  C   UNL A   1      37.847  33.365  30.038  1.00  0.00     0.074 A 
ATOM     60  C   UNL A   1      43.359  32.616  30.805  1.00  0.00     0.029 A 
ATOM     61  N   UNL A   1      42.085  31.917  32.473  1.00  0.00    -0.354 N 
ATOM     62  N   UNL A   1      37.943  33.418  31.332  1.00  0.00    -0.248 NA
ATOM     63  C   UNL A   1      38.737  34.253  29.304  1.00  0.00     0.031 C 
ATOM     64  C   UNL A   1      42.208  33.438  30.889  1.00  0.00     0.029 A 
ATOM     65  C   UNL A   1      41.393  32.973  31.914  1.00  0.00     0.049 A 
ATOM     66  H   UNL A   1      41.878  31.497  33.338  1.00  0.00     0.167 HD
ATOM     67  C   UNL A   1      39.208  33.884  31.521  1.00  0.00     0.074 A 
ATOM     68  C   UNL A   1      39.508  34.643  30.322  1.00  0.00     0.031 C 
ATOM     69  C   UNL A   1      40.027  33.182  32.346  1.00  0.00     0.031 A 
BRANCH  56  70
ATOM     70  C   UNL A   1      43.327  29.202  32.738  1.00  0.00    -0.014 A 
ATOM     71  C   UNL A   1      44.380  28.309  32.960  1.00  0.00     0.009 A 
ATOM     72  C   UNL A   1      42.183  29.106  33.558  1.00  0.00     0.009 A 
ATOM     73  C   UNL A   1      44.268  27.313  33.938  1.00  0.00     0.001 A 
ATOM     74  C   UNL A   1      42.062  28.098  34.514  1.00  0.00     0.001 A 
ATOM     75  C   UNL A   1      43.103  27.195  34.698  1.00  0.00     0.000 A 
ENDBRANCH  56  70
BRANCH  57  76
ATOM     76  C   UNL A   1      35.556  33.278  29.158  1.00  0.00    -0.014 A 
ATOM     77  C   UNL A   1      34.715  33.565  30.272  1.00  0.00     0.009 A 
ATOM     78  C   UNL A   1      35.344  34.049  28.011  1.00  0.00     0.009 A 
ATOM     79  C   UNL A   1      33.814  34.636  30.291  1.00  0.00     0.001 A 
ATOM     80  C   UNL A   1      34.407  35.110  28.018  1.00  0.00     0.001 A 
ATOM     81  C   UNL A   1      33.673  35.426  29.163  1.00  0.00     0.000 A 
ENDBRANCH  57  76
BRANCH  69  82
ATOM     82  C   UNL A   1      39.388  32.441  33.522  1.00  0.00    -0.014 A 
ATOM     83  C   UNL A   1      39.212  32.969  34.823  1.00  0.00     0.009 A 
ATOM     84  C   UNL A   1      38.959  31.122  33.320  1.00  0.00     0.009 A 
ATOM     85  C   UNL A   1      38.721  32.194  35.881  1.00  0.00     0.001 A 
ATOM     86  C   UNL A   1      38.415  30.360  34.364  1.00  0.00     0.001 A 
ATOM     87  C   UNL A   1      38.319  30.887  35.649  1.00  0.00     0.000 A 
ENDBRANCH  69  82
ENDBRANCH  43  44
ENDBRANCH  35  38
ENDBRANCH  33  34
ENDBRANCH  32  33
ENDBRANCH  31  32
ENDBRANCH   1  31
TORSDOF 17
ENDMDL
