MODEL 1
REMARK VINA RESULT:     -11.9      0.000      0.000
REMARK SMILES O=C(NCCCCCCNC(=O)[C@]12C[NH2+]C[C@H]1CN(C(=O)c1ccccc1-n1cncn1)C2)c1ccc(-c2c3nc(c(-c4ccccc4)c4ccc([nH]4)c(-c4ccccc4)c4nc(c(-c5ccccc5)c5ccc2[nH]5)C=C4)C=C3)cc1
REMARK SMILES IDX 7 1 6 2 5 3 4 4 3 5 1 6 2 7 34 9 35 10 81 11 36 12 80 13
REMARK SMILES IDX 37 14 38 15 39 16 74 17 40 18 79 19 73 20 75 21 41 22 78 23
REMARK SMILES IDX 72 24 71 25 42 27 64 28 49 29 63 30 50 31 53 32 62 33 76 34
REMARK SMILES IDX 51 35 52 36 61 38 77 39 54 40 43 41 44 42 48 43 45 44 47 45
REMARK SMILES IDX 46 46 65 47 66 48 70 49 67 50 69 51 68 52 55 53 56 54 60 55
REMARK SMILES IDX 57 56 59 57 58 58 8 59 9 60 10 61 11 62 12 64 13 65 14 66
REMARK SMILES IDX 17 67 33 68 15 69 16 70 18 71 19 72 20 75 21 76 22 77 23 78
REMARK SMILES IDX 27 79 24 80 26 81 25 82 28 83 29 84 32 85 30 86 31 87
REMARK H PARENT 3 8 75 26 53 37 10 63 15 73 15 74
REMARK Flexibility Score: inf
ROOT
ATOM      1  C   UNL A   1      39.424  21.628  26.086  1.00  0.00     0.002 C 
ENDROOT
BRANCH   1   2
ATOM      2  C   UNL A   1      40.555  20.874  26.787  1.00  0.00     0.002 C 
BRANCH   2   3
ATOM      3  C   UNL A   1      41.069  19.601  26.106  1.00  0.00     0.021 C 
BRANCH   3   4
ATOM      4  C   UNL A   1      42.549  19.273  26.307  1.00  0.00     0.116 C 
BRANCH   4   5
ATOM      5  N   UNL A   1      43.421  19.581  25.193  1.00  0.00    -0.352 N 
ATOM      6  O   UNL A   1      44.843  20.608  23.828  1.00  0.00    -0.269 OA
ATOM      7  C   UNL A   1      44.083  20.707  24.793  1.00  0.00     0.251 C 
ATOM      8  H   UNL A   1      43.568  18.813  24.594  1.00  0.00     0.163 HD
BRANCH   7   9
ATOM      9  C   UNL A   1      43.885  22.041  25.410  1.00  0.00     0.039 A 
ATOM     10  C   UNL A   1      42.999  23.012  24.943  1.00  0.00     0.014 A 
ATOM     11  C   UNL A   1      44.629  22.299  26.573  1.00  0.00     0.014 A 
ATOM     12  C   UNL A   1      42.920  24.251  25.574  1.00  0.00     0.010 A 
ATOM     13  C   UNL A   1      44.524  23.520  27.230  1.00  0.00     0.010 A 
ATOM     14  C   UNL A   1      43.686  24.508  26.715  1.00  0.00    -0.014 A 
BRANCH  14  15
ATOM     15  C   UNL A   1      43.446  25.759  27.435  1.00  0.00     0.031 A 
ATOM     16  C   UNL A   1      44.408  26.870  27.155  1.00  0.00     0.074 A 
ATOM     17  C   UNL A   1      42.337  26.016  28.157  1.00  0.00     0.049 A 
ATOM     18  N   UNL A   1      45.093  27.579  27.994  1.00  0.00    -0.248 NA
ATOM     19  C   UNL A   1      44.656  27.206  25.744  1.00  0.00     0.031 C 
ATOM     20  C   UNL A   1      41.129  25.195  28.269  1.00  0.00     0.029 A 
ATOM     21  N   UNL A   1      42.012  27.150  28.843  1.00  0.00    -0.354 N 
ATOM     22  C   UNL A   1      45.755  28.544  27.236  1.00  0.00     0.074 A 
ATOM     23  C   UNL A   1      45.518  28.215  25.853  1.00  0.00     0.031 C 
ATOM     24  C   UNL A   1      40.130  25.950  28.778  1.00  0.00     0.029 A 
ATOM     25  C   UNL A   1      40.662  27.253  29.143  1.00  0.00     0.049 A 
ATOM     26  H   UNL A   1      42.674  27.832  29.102  1.00  0.00     0.167 HD
ATOM     27  C   UNL A   1      46.325  29.655  27.781  1.00  0.00     0.031 A 
ATOM     28  C   UNL A   1      40.009  28.351  29.592  1.00  0.00     0.031 A 
ATOM     29  C   UNL A   1      46.546  29.532  29.192  1.00  0.00     0.049 A 
ATOM     30  C   UNL A   1      41.004  29.302  30.131  1.00  0.00     0.074 A 
ATOM     31  C   UNL A   1      47.286  28.689  29.998  1.00  0.00     0.029 A 
ATOM     32  N   UNL A   1      45.697  30.202  30.037  1.00  0.00    -0.354 N 
ATOM     33  N   UNL A   1      41.673  29.111  31.230  1.00  0.00    -0.248 NA
ATOM     34  C   UNL A   1      41.526  30.339  29.256  1.00  0.00     0.031 C 
ATOM     35  C   UNL A   1      46.512  28.543  31.186  1.00  0.00     0.029 A 
ATOM     36  C   UNL A   1      45.365  29.325  31.036  1.00  0.00     0.049 A 
ATOM     37  H   UNL A   1      45.386  31.131  29.943  1.00  0.00     0.167 HD
ATOM     38  C   UNL A   1      42.912  29.686  30.995  1.00  0.00     0.074 A 
ATOM     39  C   UNL A   1      42.717  30.537  29.825  1.00  0.00     0.031 C 
ATOM     40  C   UNL A   1      44.039  29.202  31.597  1.00  0.00     0.031 A 
BRANCH  27  41
ATOM     41  C   UNL A   1      46.386  30.988  27.078  1.00  0.00    -0.014 A 
ATOM     42  C   UNL A   1      47.607  31.685  27.026  1.00  0.00     0.009 A 
ATOM     43  C   UNL A   1      45.231  31.703  26.708  1.00  0.00     0.009 A 
ATOM     44  C   UNL A   1      47.660  33.039  26.670  1.00  0.00     0.001 A 
ATOM     45  C   UNL A   1      45.285  33.042  26.310  1.00  0.00     0.001 A 
ATOM     46  C   UNL A   1      46.498  33.717  26.316  1.00  0.00     0.000 A 
ENDBRANCH  27  41
BRANCH  28  47
ATOM     47  C   UNL A   1      38.599  28.735  29.380  1.00  0.00    -0.014 A 
ATOM     48  C   UNL A   1      37.745  28.970  30.468  1.00  0.00     0.009 A 
ATOM     49  C   UNL A   1      38.155  29.121  28.101  1.00  0.00     0.009 A 
ATOM     50  C   UNL A   1      36.504  29.594  30.285  1.00  0.00     0.001 A 
ATOM     51  C   UNL A   1      36.915  29.737  27.918  1.00  0.00     0.001 A 
ATOM     52  C   UNL A   1      36.094  29.986  29.012  1.00  0.00     0.000 A 
ENDBRANCH  28  47
BRANCH  40  53
ATOM     53  C   UNL A   1      43.871  28.214  32.725  1.00  0.00    -0.014 A 
ATOM     54  C   UNL A   1      43.865  26.823  32.519  1.00  0.00     0.009 A 
ATOM     55  C   UNL A   1      43.866  28.691  34.044  1.00  0.00     0.009 A 
ATOM     56  C   UNL A   1      43.812  25.937  33.600  1.00  0.00     0.001 A 
ATOM     57  C   UNL A   1      43.838  27.805  35.125  1.00  0.00     0.001 A 
ATOM     58  C   UNL A   1      43.804  26.430  34.902  1.00  0.00     0.000 A 
ENDBRANCH  40  53
ENDBRANCH  14  15
ENDBRANCH   7   9
ENDBRANCH   4   5
ENDBRANCH   3   4
ENDBRANCH   2   3
ENDBRANCH   1   2
BRANCH   1  59
ATOM     59  C   UNL A   1      39.203  23.086  26.490  1.00  0.00     0.021 C 
BRANCH  59  60
ATOM     60  C   UNL A   1      37.890  23.766  26.104  1.00  0.00     0.116 C 
BRANCH  60  61
ATOM     61  N   UNL A   1      37.521  23.510  24.729  1.00  0.00    -0.355 N 
ATOM     62  C   UNL A   1      36.372  23.141  24.109  1.00  0.00     0.234 C 
ATOM     63  H   UNL A   1      38.271  23.633  24.103  1.00  0.00     0.163 HD
ATOM     64  O   UNL A   1      36.532  22.869  22.911  1.00  0.00    -0.274 OA
BRANCH  62  65
ATOM     65  C   UNL A   1      35.004  22.925  24.797  1.00  0.00     0.125 C 
ATOM     66  C   UNL A   1      35.177  21.917  25.954  1.00  0.00     0.280 C 
ATOM     67  C   UNL A   1      33.830  22.273  24.038  1.00  0.00     0.087 C 
ATOM     68  C   UNL A   1      34.447  24.277  25.268  1.00  0.00     0.143 C 
ATOM     69  N   UNL A   1      34.888  20.602  25.367  1.00  0.00    -0.345 N 
ATOM     70  C   UNL A   1      33.872  20.779  24.339  1.00  0.00     0.267 C 
ATOM     71  C   UNL A   1      32.585  22.893  24.690  1.00  0.00     0.130 C 
ATOM     72  N   UNL A   1      33.002  24.221  25.059  1.00  0.00    -0.337 N 
ATOM     73  H   UNL A   1      34.543  19.969  26.089  1.00  0.00     0.346 HD
ATOM     74  H   UNL A   1      35.735  20.201  24.963  1.00  0.00     0.346 HD
BRANCH  72  75
ATOM     75  C   UNL A   1      32.075  25.218  25.266  1.00  0.00     0.256 C 
ATOM     76  O   UNL A   1      30.860  25.063  25.226  1.00  0.00    -0.269 OA
BRANCH  75  77
ATOM     77  C   UNL A   1      32.598  26.594  25.329  1.00  0.00     0.065 A 
ATOM     78  C   UNL A   1      32.875  27.146  26.582  1.00  0.00     0.016 A 
ATOM     79  C   UNL A   1      32.956  27.270  24.149  1.00  0.00     0.079 A 
ATOM     80  C   UNL A   1      33.549  28.364  26.661  1.00  0.00     0.001 A 
ATOM     81  C   UNL A   1      33.677  28.470  24.240  1.00  0.00     0.029 A 
ATOM     82  C   UNL A   1      33.964  29.014  25.495  1.00  0.00     0.002 A 
BRANCH  79  83
ATOM     83  N   UNL A   1      32.643  26.754  22.868  1.00  0.00    -0.220 N 
ATOM     84  C   UNL A   1      31.472  26.832  22.155  1.00  0.00     0.225 A 
ATOM     85  N   UNL A   1      33.550  26.049  22.142  1.00  0.00    -0.155 NA
ATOM     86  N   UNL A   1      31.528  26.058  21.094  1.00  0.00    -0.223 NA
ATOM     87  C   UNL A   1      32.799  25.581  21.143  1.00  0.00     0.246 A 
ENDBRANCH  79  83
ENDBRANCH  75  77
ENDBRANCH  72  75
ENDBRANCH  62  65
ENDBRANCH  60  61
ENDBRANCH  59  60
ENDBRANCH   1  59
TORSDOF 16
ENDMDL
MODEL 2
REMARK VINA RESULT:     -11.5      2.409      7.998
REMARK SMILES O=C(NCCCCCCNC(=O)[C@]12C[NH2+]C[C@H]1CN(C(=O)c1ccccc1-n1cncn1)C2)c1ccc(-c2c3nc(c(-c4ccccc4)c4ccc([nH]4)c(-c4ccccc4)c4nc(c(-c5ccccc5)c5ccc2[nH]5)C=C4)C=C3)cc1
REMARK SMILES IDX 7 1 6 2 5 3 4 4 3 5 1 6 2 7 34 9 35 10 81 11 36 12 80 13
REMARK SMILES IDX 37 14 38 15 39 16 74 17 40 18 79 19 73 20 75 21 41 22 78 23
REMARK SMILES IDX 72 24 71 25 42 27 64 28 49 29 63 30 50 31 53 32 62 33 76 34
REMARK SMILES IDX 51 35 52 36 61 38 77 39 54 40 43 41 44 42 48 43 45 44 47 45
REMARK SMILES IDX 46 46 65 47 66 48 70 49 67 50 69 51 68 52 55 53 56 54 60 55
REMARK SMILES IDX 57 56 59 57 58 58 8 59 9 60 10 61 11 62 12 64 13 65 14 66
REMARK SMILES IDX 17 67 33 68 15 69 16 70 18 71 19 72 20 75 21 76 22 77 23 78
REMARK SMILES IDX 27 79 24 80 26 81 25 82 28 83 29 84 32 85 30 86 31 87
REMARK H PARENT 3 8 75 26 53 37 10 63 15 73 15 74
REMARK Flexibility Score: inf
ROOT
ATOM      1  C   UNL A   1      34.933  29.580  27.617  1.00  0.00     0.002 C 
ENDROOT
BRANCH   1   2
ATOM      2  C   UNL A   1      34.496  31.043  27.719  1.00  0.00     0.002 C 
BRANCH   2   3
ATOM      3  C   UNL A   1      35.605  32.094  27.829  1.00  0.00     0.021 C 
BRANCH   3   4
ATOM      4  C   UNL A   1      35.363  33.236  28.816  1.00  0.00     0.116 C 
BRANCH   4   5
ATOM      5  N   UNL A   1      34.974  32.843  30.154  1.00  0.00    -0.352 N 
ATOM      6  O   UNL A   1      34.998  32.019  32.218  1.00  0.00    -0.269 OA
ATOM      7  C   UNL A   1      35.559  32.078  31.123  1.00  0.00     0.251 C 
ATOM      8  H   UNL A   1      34.099  33.206  30.424  1.00  0.00     0.163 HD
BRANCH   7   9
ATOM      9  C   UNL A   1      36.784  31.271  30.906  1.00  0.00     0.039 A 
ATOM     10  C   UNL A   1      38.078  31.789  30.830  1.00  0.00     0.014 A 
ATOM     11  C   UNL A   1      36.600  29.881  30.818  1.00  0.00     0.014 A 
ATOM     12  C   UNL A   1      39.157  30.945  30.582  1.00  0.00     0.010 A 
ATOM     13  C   UNL A   1      37.680  29.031  30.610  1.00  0.00     0.010 A 
ATOM     14  C   UNL A   1      38.959  29.566  30.468  1.00  0.00    -0.014 A 
BRANCH  14  15
ATOM     15  C   UNL A   1      40.141  28.708  30.373  1.00  0.00     0.031 A 
ATOM     16  C   UNL A   1      40.890  28.484  31.649  1.00  0.00     0.074 A 
ATOM     17  C   UNL A   1      40.463  27.982  29.285  1.00  0.00     0.049 A 
ATOM     18  N   UNL A   1      42.152  28.649  31.887  1.00  0.00    -0.248 NA
ATOM     19  C   UNL A   1      40.111  28.046  32.819  1.00  0.00     0.031 C 
ATOM     20  C   UNL A   1      39.675  27.796  28.064  1.00  0.00     0.029 A 
ATOM     21  N   UNL A   1      41.524  27.142  29.106  1.00  0.00    -0.354 N 
ATOM     22  C   UNL A   1      42.361  28.207  33.192  1.00  0.00     0.074 A 
ATOM     23  C   UNL A   1      41.060  27.928  33.746  1.00  0.00     0.031 C 
ATOM     24  C   UNL A   1      40.163  26.735  27.383  1.00  0.00     0.029 A 
ATOM     25  C   UNL A   1      41.363  26.257  28.050  1.00  0.00     0.049 A 
ATOM     26  H   UNL A   1      42.329  27.162  29.673  1.00  0.00     0.167 HD
ATOM     27  C   UNL A   1      43.597  27.937  33.696  1.00  0.00     0.031 A 
ATOM     28  C   UNL A   1      42.118  25.166  27.779  1.00  0.00     0.031 A 
ATOM     29  C   UNL A   1      44.653  28.531  32.931  1.00  0.00     0.049 A 
ATOM     30  C   UNL A   1      43.398  25.288  28.509  1.00  0.00     0.074 A 
ATOM     31  C   UNL A   1      45.011  29.822  32.594  1.00  0.00     0.029 A 
ATOM     32  N   UNL A   1      45.391  27.716  32.111  1.00  0.00    -0.354 N 
ATOM     33  N   UNL A   1      44.329  26.145  28.211  1.00  0.00    -0.248 NA
ATOM     34  C   UNL A   1      43.515  24.673  29.821  1.00  0.00     0.031 C 
ATOM     35  C   UNL A   1      45.560  29.722  31.282  1.00  0.00     0.029 A 
ATOM     36  C   UNL A   1      45.522  28.375  30.916  1.00  0.00     0.049 A 
ATOM     37  H   UNL A   1      45.756  26.830  32.335  1.00  0.00     0.167 HD
ATOM     38  C   UNL A   1      44.893  26.494  29.428  1.00  0.00     0.074 A 
ATOM     39  C   UNL A   1      44.446  25.463  30.359  1.00  0.00     0.031 C 
ATOM     40  C   UNL A   1      45.433  27.733  29.625  1.00  0.00     0.031 A 
BRANCH  27  41
ATOM     41  C   UNL A   1      43.863  26.853  34.712  1.00  0.00    -0.014 A 
ATOM     42  C   UNL A   1      43.458  25.534  34.436  1.00  0.00     0.009 A 
ATOM     43  C   UNL A   1      44.248  27.134  36.037  1.00  0.00     0.009 A 
ATOM     44  C   UNL A   1      43.396  24.564  35.444  1.00  0.00     0.001 A 
ATOM     45  C   UNL A   1      44.229  26.158  37.036  1.00  0.00     0.001 A 
ATOM     46  C   UNL A   1      43.778  24.877  36.744  1.00  0.00     0.000 A 
ENDBRANCH  27  41
BRANCH  28  47
ATOM     47  C   UNL A   1      41.718  23.912  27.112  1.00  0.00    -0.014 A 
ATOM     48  C   UNL A   1      42.531  23.328  26.129  1.00  0.00     0.009 A 
ATOM     49  C   UNL A   1      40.652  23.147  27.622  1.00  0.00     0.009 A 
ATOM     50  C   UNL A   1      42.302  22.016  25.693  1.00  0.00     0.001 A 
ATOM     51  C   UNL A   1      40.419  21.841  27.183  1.00  0.00     0.001 A 
ATOM     52  C   UNL A   1      41.253  21.270  26.228  1.00  0.00     0.000 A 
ENDBRANCH  28  47
BRANCH  40  53
ATOM     53  C   UNL A   1      45.650  28.612  28.417  1.00  0.00    -0.014 A 
ATOM     54  C   UNL A   1      44.629  29.405  27.865  1.00  0.00     0.009 A 
ATOM     55  C   UNL A   1      46.950  28.756  27.912  1.00  0.00     0.009 A 
ATOM     56  C   UNL A   1      44.894  30.285  26.811  1.00  0.00     0.001 A 
ATOM     57  C   UNL A   1      47.220  29.653  26.876  1.00  0.00     0.001 A 
ATOM     58  C   UNL A   1      46.191  30.411  26.321  1.00  0.00     0.000 A 
ENDBRANCH  40  53
ENDBRANCH  14  15
ENDBRANCH   7   9
ENDBRANCH   4   5
ENDBRANCH   3   4
ENDBRANCH   2   3
ENDBRANCH   1   2
BRANCH   1  59
ATOM     59  C   UNL A   1      34.039  28.640  26.809  1.00  0.00     0.021 C 
BRANCH  59  60
ATOM     60  C   UNL A   1      32.991  29.244  25.875  1.00  0.00     0.116 C 
BRANCH  60  61
ATOM     61  N   UNL A   1      33.459  29.341  24.510  1.00  0.00    -0.355 N 
ATOM     62  C   UNL A   1      33.534  28.474  23.470  1.00  0.00     0.234 C 
ATOM     63  H   UNL A   1      33.800  30.237  24.286  1.00  0.00     0.163 HD
ATOM     64  O   UNL A   1      34.164  28.927  22.504  1.00  0.00    -0.274 OA
BRANCH  62  65
ATOM     65  C   UNL A   1      33.032  27.011  23.475  1.00  0.00     0.125 C 
ATOM     66  C   UNL A   1      32.738  26.576  22.023  1.00  0.00     0.280 C 
ATOM     67  C   UNL A   1      31.698  26.633  24.150  1.00  0.00     0.087 C 
ATOM     68  C   UNL A   1      34.073  26.114  24.163  1.00  0.00     0.143 C 
ATOM     69  N   UNL A   1      31.316  26.874  21.811  1.00  0.00    -0.345 N 
ATOM     70  C   UNL A   1      30.620  26.677  23.075  1.00  0.00     0.267 C 
ATOM     71  C   UNL A   1      31.916  25.181  24.601  1.00  0.00     0.130 C 
ATOM     72  N   UNL A   1      33.319  25.114  24.915  1.00  0.00    -0.337 N 
ATOM     73  H   UNL A   1      30.932  26.248  21.103  1.00  0.00     0.346 HD
ATOM     74  H   UNL A   1      31.200  27.836  21.490  1.00  0.00     0.346 HD
BRANCH  72  75
ATOM     75  C   UNL A   1      33.808  24.132  25.748  1.00  0.00     0.256 C 
ATOM     76  O   UNL A   1      33.371  23.881  26.865  1.00  0.00    -0.269 OA
BRANCH  75  77
ATOM     77  C   UNL A   1      35.071  23.495  25.337  1.00  0.00     0.065 A 
ATOM     78  C   UNL A   1      36.275  24.051  25.779  1.00  0.00     0.016 A 
ATOM     79  C   UNL A   1      35.054  22.267  24.650  1.00  0.00     0.079 A 
ATOM     80  C   UNL A   1      37.467  23.360  25.567  1.00  0.00     0.001 A 
ATOM     81  C   UNL A   1      36.253  21.559  24.487  1.00  0.00     0.029 A 
ATOM     82  C   UNL A   1      37.454  22.111  24.940  1.00  0.00     0.002 A 
BRANCH  79  83
ATOM     83  N   UNL A   1      33.853  21.707  24.151  1.00  0.00    -0.220 N 
ATOM     84  C   UNL A   1      33.109  20.660  24.635  1.00  0.00     0.225 A 
ATOM     85  N   UNL A   1      33.257  22.184  23.027  1.00  0.00    -0.155 NA
ATOM     86  N   UNL A   1      32.170  20.328  23.777  1.00  0.00    -0.223 NA
ATOM     87  C   UNL A   1      32.317  21.263  22.803  1.00  0.00     0.246 A 
ENDBRANCH  79  83
ENDBRANCH  75  77
ENDBRANCH  72  75
ENDBRANCH  62  65
ENDBRANCH  60  61
ENDBRANCH  59  60
ENDBRANCH   1  59
TORSDOF 16
ENDMDL
MODEL 3
REMARK VINA RESULT:     -11.3      2.382      3.298
REMARK SMILES O=C(NCCCCCCNC(=O)[C@]12C[NH2+]C[C@H]1CN(C(=O)c1ccccc1-n1cncn1)C2)c1ccc(-c2c3nc(c(-c4ccccc4)c4ccc([nH]4)c(-c4ccccc4)c4nc(c(-c5ccccc5)c5ccc2[nH]5)C=C4)C=C3)cc1
REMARK SMILES IDX 7 1 6 2 5 3 4 4 3 5 1 6 2 7 34 9 35 10 81 11 36 12 80 13
REMARK SMILES IDX 37 14 38 15 39 16 74 17 40 18 79 19 73 20 75 21 41 22 78 23
REMARK SMILES IDX 72 24 71 25 42 27 64 28 49 29 63 30 50 31 53 32 62 33 76 34
REMARK SMILES IDX 51 35 52 36 61 38 77 39 54 40 43 41 44 42 48 43 45 44 47 45
REMARK SMILES IDX 46 46 65 47 66 48 70 49 67 50 69 51 68 52 55 53 56 54 60 55
REMARK SMILES IDX 57 56 59 57 58 58 8 59 9 60 10 61 11 62 12 64 13 65 14 66
REMARK SMILES IDX 17 67 33 68 15 69 16 70 18 71 19 72 20 75 21 76 22 77 23 78
REMARK SMILES IDX 27 79 24 80 26 81 25 82 28 83 29 84 32 85 30 86 31 87
REMARK H PARENT 3 8 75 26 53 37 10 63 15 73 15 74
REMARK Flexibility Score: inf
ROOT
ATOM      1  C   UNL A   1      38.585  23.903  26.002  1.00  0.00     0.002 C 
ENDROOT
BRANCH   1   2
ATOM      2  C   UNL A   1      39.255  23.735  27.367  1.00  0.00     0.002 C 
BRANCH   2   3
ATOM      3  C   UNL A   1      40.531  22.888  27.416  1.00  0.00     0.021 C 
BRANCH   3   4
ATOM      4  C   UNL A   1      40.857  22.079  26.161  1.00  0.00     0.116 C 
BRANCH   4   5
ATOM      5  N   UNL A   1      42.046  22.482  25.439  1.00  0.00    -0.352 N 
ATOM      6  O   UNL A   1      43.868  23.576  24.789  1.00  0.00    -0.269 OA
ATOM      7  C   UNL A   1      42.850  23.585  25.484  1.00  0.00     0.251 C 
ATOM      8  H   UNL A   1      42.338  21.818  24.774  1.00  0.00     0.163 HD
BRANCH   7   9
ATOM      9  C   UNL A   1      42.531  24.806  26.263  1.00  0.00     0.039 A 
ATOM     10  C   UNL A   1      43.016  25.086  27.541  1.00  0.00     0.014 A 
ATOM     11  C   UNL A   1      41.711  25.750  25.622  1.00  0.00     0.014 A 
ATOM     12  C   UNL A   1      42.621  26.246  28.202  1.00  0.00     0.010 A 
ATOM     13  C   UNL A   1      41.346  26.928  26.263  1.00  0.00     0.010 A 
ATOM     14  C   UNL A   1      41.782  27.166  27.566  1.00  0.00    -0.014 A 
BRANCH  14  15
ATOM     15  C   UNL A   1      41.529  28.442  28.236  1.00  0.00     0.031 A 
ATOM     16  C   UNL A   1      42.561  29.505  28.029  1.00  0.00     0.074 A 
ATOM     17  C   UNL A   1      40.369  28.761  28.842  1.00  0.00     0.049 A 
ATOM     18  N   UNL A   1      43.193  30.204  28.917  1.00  0.00    -0.248 NA
ATOM     19  C   UNL A   1      42.957  29.799  26.642  1.00  0.00     0.031 C 
ATOM     20  C   UNL A   1      39.121  27.994  28.853  1.00  0.00     0.029 A 
ATOM     21  N   UNL A   1      40.029  29.923  29.473  1.00  0.00    -0.354 N 
ATOM     22  C   UNL A   1      43.966  31.124  28.208  1.00  0.00     0.074 A 
ATOM     23  C   UNL A   1      43.848  30.773  26.815  1.00  0.00     0.031 C 
ATOM     24  C   UNL A   1      38.112  28.801  29.249  1.00  0.00     0.029 A 
ATOM     25  C   UNL A   1      38.663  30.089  29.639  1.00  0.00     0.049 A 
ATOM     26  H   UNL A   1      40.692  30.583  29.781  1.00  0.00     0.167 HD
ATOM     27  C   UNL A   1      44.529  32.221  28.785  1.00  0.00     0.031 A 
ATOM     28  C   UNL A   1      38.018  31.223  30.003  1.00  0.00     0.031 A 
ATOM     29  C   UNL A   1      44.608  32.122  30.212  1.00  0.00     0.049 A 
ATOM     30  C   UNL A   1      38.998  32.144  30.618  1.00  0.00     0.074 A 
ATOM     31  C   UNL A   1      45.230  31.267  31.101  1.00  0.00     0.029 A 
ATOM     32  N   UNL A   1      43.713  32.845  30.959  1.00  0.00    -0.354 N 
ATOM     33  N   UNL A   1      39.550  31.950  31.779  1.00  0.00    -0.248 NA
ATOM     34  C   UNL A   1      39.645  33.138  29.778  1.00  0.00     0.031 C 
ATOM     35  C   UNL A   1      44.342  31.180  32.212  1.00  0.00     0.029 A 
ATOM     36  C   UNL A   1      43.249  32.006  31.938  1.00  0.00     0.049 A 
ATOM     37  H   UNL A   1      43.453  33.784  30.818  1.00  0.00     0.167 HD
ATOM     38  C   UNL A   1      40.830  32.468  31.654  1.00  0.00     0.074 A 
ATOM     39  C   UNL A   1      40.784  33.299  30.455  1.00  0.00     0.031 C 
ATOM     40  C   UNL A   1      41.871  31.951  32.370  1.00  0.00     0.031 A 
BRANCH  27  41
ATOM     41  C   UNL A   1      44.715  33.535  28.066  1.00  0.00    -0.014 A 
ATOM     42  C   UNL A   1      45.992  34.124  28.026  1.00  0.00     0.009 A 
ATOM     43  C   UNL A   1      43.631  34.341  27.668  1.00  0.00     0.009 A 
ATOM     44  C   UNL A   1      46.165  35.463  27.654  1.00  0.00     0.001 A 
ATOM     45  C   UNL A   1      43.806  35.664  27.255  1.00  0.00     0.001 A 
ATOM     46  C   UNL A   1      45.072  36.234  27.271  1.00  0.00     0.000 A 
ENDBRANCH  27  41
BRANCH  28  47
ATOM     47  C   UNL A   1      36.653  31.661  29.649  1.00  0.00    -0.014 A 
ATOM     48  C   UNL A   1      35.759  32.100  30.637  1.00  0.00     0.009 A 
ATOM     49  C   UNL A   1      36.309  31.889  28.303  1.00  0.00     0.009 A 
ATOM     50  C   UNL A   1      34.577  32.767  30.290  1.00  0.00     0.001 A 
ATOM     51  C   UNL A   1      35.128  32.549  27.957  1.00  0.00     0.001 A 
ATOM     52  C   UNL A   1      34.268  33.001  28.951  1.00  0.00     0.000 A 
ENDBRANCH  28  47
BRANCH  40  53
ATOM     53  C   UNL A   1      41.554  30.997  33.495  1.00  0.00    -0.014 A 
ATOM     54  C   UNL A   1      41.364  29.619  33.289  1.00  0.00     0.009 A 
ATOM     55  C   UNL A   1      41.591  31.473  34.814  1.00  0.00     0.009 A 
ATOM     56  C   UNL A   1      41.175  28.751  34.368  1.00  0.00     0.001 A 
ATOM     57  C   UNL A   1      41.428  30.601  35.894  1.00  0.00     0.001 A 
ATOM     58  C   UNL A   1      41.212  29.243  35.671  1.00  0.00     0.000 A 
ENDBRANCH  40  53
ENDBRANCH  14  15
ENDBRANCH   7   9
ENDBRANCH   4   5
ENDBRANCH   3   4
ENDBRANCH   2   3
ENDBRANCH   1   2
BRANCH   1  59
ATOM     59  C   UNL A   1      37.067  23.728  25.945  1.00  0.00     0.021 C 
BRANCH  59  60
ATOM     60  C   UNL A   1      36.493  22.316  25.829  1.00  0.00     0.116 C 
BRANCH  60  61
ATOM     61  N   UNL A   1      35.454  22.063  26.803  1.00  0.00    -0.355 N 
ATOM     62  C   UNL A   1      34.134  22.361  26.880  1.00  0.00     0.234 C 
ATOM     63  H   UNL A   1      35.779  21.561  27.586  1.00  0.00     0.163 HD
ATOM     64  O   UNL A   1      33.638  22.094  27.984  1.00  0.00    -0.274 OA
BRANCH  62  65
ATOM     65  C   UNL A   1      33.307  23.088  25.794  1.00  0.00     0.125 C 
ATOM     66  C   UNL A   1      31.870  22.525  25.796  1.00  0.00     0.280 C 
ATOM     67  C   UNL A   1      33.658  22.940  24.299  1.00  0.00     0.087 C 
ATOM     68  C   UNL A   1      33.350  24.604  26.045  1.00  0.00     0.143 C 
ATOM     69  N   UNL A   1      31.879  21.439  24.807  1.00  0.00    -0.345 N 
ATOM     70  C   UNL A   1      32.810  21.801  23.747  1.00  0.00     0.267 C 
ATOM     71  C   UNL A   1      33.197  24.269  23.683  1.00  0.00     0.130 C 
ATOM     72  N   UNL A   1      33.403  25.236  24.729  1.00  0.00    -0.337 N 
ATOM     73  H   UNL A   1      30.944  21.316  24.419  1.00  0.00     0.346 HD
ATOM     74  H   UNL A   1      32.165  20.563  25.246  1.00  0.00     0.346 HD
BRANCH  72  75
ATOM     75  C   UNL A   1      33.522  26.577  24.436  1.00  0.00     0.256 C 
ATOM     76  O   UNL A   1      34.005  27.027  23.404  1.00  0.00    -0.269 OA
BRANCH  75  77
ATOM     77  C   UNL A   1      33.236  27.514  25.535  1.00  0.00     0.065 A 
ATOM     78  C   UNL A   1      34.299  27.968  26.320  1.00  0.00     0.016 A 
ATOM     79  C   UNL A   1      31.947  28.058  25.685  1.00  0.00     0.079 A 
ATOM     80  C   UNL A   1      34.085  28.998  27.235  1.00  0.00     0.001 A 
ATOM     81  C   UNL A   1      31.755  29.126  26.573  1.00  0.00     0.029 A 
ATOM     82  C   UNL A   1      32.823  29.587  27.348  1.00  0.00     0.002 A 
BRANCH  79  83
ATOM     83  N   UNL A   1      30.844  27.581  24.936  1.00  0.00    -0.220 N 
ATOM     84  C   UNL A   1      30.107  26.434  25.097  1.00  0.00     0.225 A 
ATOM     85  N   UNL A   1      30.358  28.267  23.869  1.00  0.00    -0.155 NA
ATOM     86  N   UNL A   1      29.294  26.264  24.078  1.00  0.00    -0.223 NA
ATOM     87  C   UNL A   1      29.501  27.387  23.344  1.00  0.00     0.246 A 
ENDBRANCH  79  83
ENDBRANCH  75  77
ENDBRANCH  72  75
ENDBRANCH  62  65
ENDBRANCH  60  61
ENDBRANCH  59  60
ENDBRANCH   1  59
TORSDOF 16
ENDMDL
