MODEL 1
REMARK VINA RESULT:     -10.8      0.000      0.000
REMARK SMILES O=C(NCCCCCCNC(=O)c1cccc(Br)c1O[C@@H]1CCOC2(CCC2)C1)c1ccc(-c2c3nc(c(-c4ccccc4)c4ccc([nH]4)c(-c4ccccc4)c4nc(c(-c5ccccc5)c5ccc2[nH]5)C=C4)C=C3)cc1
REMARK SMILES IDX 6 1 5 2 4 3 3 4 1 5 2 6 30 8 31 9 77 10 32 11 76 12 33 13
REMARK SMILES IDX 34 14 35 15 70 16 36 17 75 18 69 19 71 20 37 21 74 22 68 23
REMARK SMILES IDX 67 24 38 26 60 27 45 28 59 29 46 30 49 31 58 32 72 33 47 34
REMARK SMILES IDX 48 35 57 37 73 38 50 39 39 40 40 41 44 42 41 43 43 44 42 45
REMARK SMILES IDX 61 46 62 47 66 48 63 49 65 50 64 51 51 52 52 53 56 54 53 55
REMARK SMILES IDX 55 56 54 57 7 58 8 59 9 60 10 61 11 62 12 64 13 65 14 66
REMARK SMILES IDX 19 67 15 68 17 69 16 70 18 71 20 72 21 73 22 74 29 75 23 76
REMARK SMILES IDX 25 77 24 78 26 79 28 80 27 81
REMARK H PARENT 3 7 71 25 49 36 10 63
REMARK Flexibility Score: inf
ROOT
ATOM      1  C   UNL A   1      39.355  21.000  25.755  1.00  0.00     0.002 C 
ENDROOT
BRANCH   1   2
ATOM      2  C   UNL A   1      40.079  19.662  25.905  1.00  0.00     0.021 C 
BRANCH   2   3
ATOM      3  C   UNL A   1      41.425  19.736  26.612  1.00  0.00     0.116 C 
BRANCH   3   4
ATOM      4  N   UNL A   1      42.552  19.750  25.692  1.00  0.00    -0.352 N 
ATOM      5  O   UNL A   1      44.192  20.653  24.427  1.00  0.00    -0.269 OA
ATOM      6  C   UNL A   1      43.373  20.793  25.328  1.00  0.00     0.251 C 
ATOM      7  H   UNL A   1      42.760  18.886  25.268  1.00  0.00     0.163 HD
BRANCH   6   8
ATOM      8  C   UNL A   1      43.235  22.100  26.004  1.00  0.00     0.039 A 
ATOM      9  C   UNL A   1      43.086  23.272  25.260  1.00  0.00     0.014 A 
ATOM     10  C   UNL A   1      43.286  22.159  27.400  1.00  0.00     0.014 A 
ATOM     11  C   UNL A   1      43.179  24.505  25.893  1.00  0.00     0.010 A 
ATOM     12  C   UNL A   1      43.273  23.399  28.042  1.00  0.00     0.010 A 
ATOM     13  C   UNL A   1      43.272  24.586  27.292  1.00  0.00    -0.014 A 
BRANCH  13  14
ATOM     14  C   UNL A   1      43.345  25.923  27.939  1.00  0.00     0.031 A 
ATOM     15  C   UNL A   1      44.668  26.542  28.302  1.00  0.00     0.074 A 
ATOM     16  C   UNL A   1      42.203  26.603  28.154  1.00  0.00     0.049 A 
ATOM     17  N   UNL A   1      44.909  27.725  28.814  1.00  0.00    -0.248 NA
ATOM     18  C   UNL A   1      45.876  25.736  28.069  1.00  0.00     0.031 C 
ATOM     19  C   UNL A   1      40.856  26.112  27.846  1.00  0.00     0.029 A 
ATOM     20  N   UNL A   1      41.989  27.862  28.655  1.00  0.00    -0.354 N 
ATOM     21  C   UNL A   1      46.287  27.791  28.991  1.00  0.00     0.074 A 
ATOM     22  C   UNL A   1      46.827  26.521  28.554  1.00  0.00     0.031 C 
ATOM     23  C   UNL A   1      39.965  27.080  28.103  1.00  0.00     0.029 A 
ATOM     24  C   UNL A   1      40.666  28.232  28.660  1.00  0.00     0.049 A 
ATOM     25  H   UNL A   1      42.714  28.444  28.979  1.00  0.00     0.167 HD
ATOM     26  C   UNL A   1      47.034  28.817  29.468  1.00  0.00     0.031 A 
ATOM     27  C   UNL A   1      40.076  29.367  29.075  1.00  0.00     0.031 A 
ATOM     28  C   UNL A   1      46.495  30.081  29.900  1.00  0.00     0.049 A 
ATOM     29  C   UNL A   1      40.926  30.471  29.629  1.00  0.00     0.074 A 
ATOM     30  C   UNL A   1      47.176  31.194  30.363  1.00  0.00     0.029 A 
ATOM     31  N   UNL A   1      45.147  30.397  29.933  1.00  0.00    -0.354 N 
ATOM     32  N   UNL A   1      42.229  30.533  29.747  1.00  0.00    -0.248 NA
ATOM     33  C   UNL A   1      40.218  31.668  30.103  1.00  0.00     0.031 C 
ATOM     34  C   UNL A   1      46.235  32.161  30.734  1.00  0.00     0.029 A 
ATOM     35  C   UNL A   1      44.972  31.678  30.434  1.00  0.00     0.049 A 
ATOM     36  H   UNL A   1      44.419  29.800  29.643  1.00  0.00     0.167 HD
ATOM     37  C   UNL A   1      42.502  31.787  30.275  1.00  0.00     0.074 A 
ATOM     38  C   UNL A   1      41.227  32.457  30.440  1.00  0.00     0.031 C 
ATOM     39  C   UNL A   1      43.700  32.336  30.592  1.00  0.00     0.031 A 
BRANCH  26  40
ATOM     40  C   UNL A   1      48.520  28.601  29.585  1.00  0.00    -0.014 A 
ATOM     41  C   UNL A   1      49.399  28.933  28.540  1.00  0.00     0.009 A 
ATOM     42  C   UNL A   1      49.055  28.094  30.780  1.00  0.00     0.009 A 
ATOM     43  C   UNL A   1      50.774  28.724  28.677  1.00  0.00     0.001 A 
ATOM     44  C   UNL A   1      50.432  27.916  30.926  1.00  0.00     0.001 A 
ATOM     45  C   UNL A   1      51.289  28.221  29.870  1.00  0.00     0.000 A 
ENDBRANCH  26  40
BRANCH  27  46
ATOM     46  C   UNL A   1      38.599  29.514  28.978  1.00  0.00    -0.014 A 
ATOM     47  C   UNL A   1      37.998  29.898  27.771  1.00  0.00     0.009 A 
ATOM     48  C   UNL A   1      37.785  29.274  30.096  1.00  0.00     0.009 A 
ATOM     49  C   UNL A   1      36.613  30.066  27.693  1.00  0.00     0.001 A 
ATOM     50  C   UNL A   1      36.400  29.407  30.006  1.00  0.00     0.001 A 
ATOM     51  C   UNL A   1      35.816  29.815  28.809  1.00  0.00     0.000 A 
ENDBRANCH  27  46
BRANCH  39  52
ATOM     52  C   UNL A   1      43.692  33.753  31.097  1.00  0.00    -0.014 A 
ATOM     53  C   UNL A   1      43.772  34.848  30.224  1.00  0.00     0.009 A 
ATOM     54  C   UNL A   1      43.587  33.991  32.477  1.00  0.00     0.009 A 
ATOM     55  C   UNL A   1      43.795  36.151  30.725  1.00  0.00     0.001 A 
ATOM     56  C   UNL A   1      43.573  35.295  32.973  1.00  0.00     0.001 A 
ATOM     57  C   UNL A   1      43.691  36.373  32.099  1.00  0.00     0.000 A 
ENDBRANCH  39  52
ENDBRANCH  13  14
ENDBRANCH   6   8
ENDBRANCH   3   4
ENDBRANCH   2   3
ENDBRANCH   1   2
BRANCH   1  58
ATOM     58  C   UNL A   1      39.669  22.038  26.836  1.00  0.00     0.002 C 
BRANCH  58  59
ATOM     59  C   UNL A   1      39.287  23.481  26.493  1.00  0.00     0.021 C 
BRANCH  59  60
ATOM     60  C   UNL A   1      37.824  23.690  26.112  1.00  0.00     0.116 C 
BRANCH  60  61
ATOM     61  N   UNL A   1      37.615  23.693  24.670  1.00  0.00    -0.352 N 
ATOM     62  C   UNL A   1      36.654  23.056  23.917  1.00  0.00     0.255 C 
ATOM     63  H   UNL A   1      38.259  24.233  24.156  1.00  0.00     0.163 HD
ATOM     64  O   UNL A   1      36.658  23.154  22.697  1.00  0.00    -0.269 OA
BRANCH  62  65
ATOM     65  C   UNL A   1      35.594  22.306  24.619  1.00  0.00     0.083 A 
ATOM     66  C   UNL A   1      35.697  20.918  24.618  1.00  0.00     0.018 A 
ATOM     67  C   UNL A   1      34.502  22.962  25.235  1.00  0.00     0.146 A 
ATOM     68  C   UNL A   1      34.668  20.167  25.135  1.00  0.00     0.002 A 
ATOM     69  C   UNL A   1      33.310  22.273  25.744  1.00  0.00     0.060 A 
ATOM     70  C   UNL A   1      33.520  20.801  25.645  1.00  0.00     0.019 A 
ATOM     71  Br  UNL A   1      31.293  23.567  26.738  1.00  0.00    -0.047 Br
BRANCH  67  72
ATOM     72  O   UNL A   1      34.611  24.310  25.383  1.00  0.00    -0.488 OA
BRANCH  72  73
ATOM     73  C   UNL A   1      33.357  24.570  24.845  1.00  0.00     0.178 C 
ATOM     74  C   UNL A   1      33.660  24.703  22.927  1.00  0.00     0.074 C 
ATOM     75  C   UNL A   1      32.854  26.124  25.884  1.00  0.00     0.080 C 
ATOM     76  C   UNL A   1      33.456  26.434  22.106  1.00  0.00     0.165 C 
ATOM     77  C   UNL A   1      32.819  27.798  24.982  1.00  0.00     0.072 C 
ATOM     78  O   UNL A   1      32.973  27.854  23.172  1.00  0.00    -0.375 OA
ATOM     79  C   UNL A   1      31.612  28.718  25.435  1.00  0.00     0.036 C 
ATOM     80  C   UNL A   1      33.694  28.806  25.832  1.00  0.00     0.036 C 
ATOM     81  C   UNL A   1      32.626  29.866  25.577  1.00  0.00     0.006 C 
ENDBRANCH  72  73
ENDBRANCH  67  72
ENDBRANCH  62  65
ENDBRANCH  60  61
ENDBRANCH  59  60
ENDBRANCH  58  59
ENDBRANCH   1  58
TORSDOF 15
ENDMDL
MODEL 2
REMARK VINA RESULT:     -10.8      5.387     11.770
REMARK SMILES O=C(NCCCCCCNC(=O)c1cccc(Br)c1O[C@@H]1CCOC2(CCC2)C1)c1ccc(-c2c3nc(c(-c4ccccc4)c4ccc([nH]4)c(-c4ccccc4)c4nc(c(-c5ccccc5)c5ccc2[nH]5)C=C4)C=C3)cc1
REMARK SMILES IDX 6 1 5 2 4 3 3 4 1 5 2 6 30 8 31 9 77 10 32 11 76 12 33 13
REMARK SMILES IDX 34 14 35 15 70 16 36 17 75 18 69 19 71 20 37 21 74 22 68 23
REMARK SMILES IDX 67 24 38 26 60 27 45 28 59 29 46 30 49 31 58 32 72 33 47 34
REMARK SMILES IDX 48 35 57 37 73 38 50 39 39 40 40 41 44 42 41 43 43 44 42 45
REMARK SMILES IDX 61 46 62 47 66 48 63 49 65 50 64 51 51 52 52 53 56 54 53 55
REMARK SMILES IDX 55 56 54 57 7 58 8 59 9 60 10 61 11 62 12 64 13 65 14 66
REMARK SMILES IDX 19 67 15 68 17 69 16 70 18 71 20 72 21 73 22 74 29 75 23 76
REMARK SMILES IDX 25 77 24 78 26 79 28 80 27 81
REMARK H PARENT 3 7 71 25 49 36 10 63
REMARK Flexibility Score: inf
ROOT
ATOM      1  C   UNL A   1      34.535  35.405  33.535  1.00  0.00     0.002 C 
ENDROOT
BRANCH   1   2
ATOM      2  C   UNL A   1      33.363  35.345  32.555  1.00  0.00     0.021 C 
BRANCH   2   3
ATOM      3  C   UNL A   1      33.617  36.010  31.209  1.00  0.00     0.116 C 
BRANCH   3   4
ATOM      4  N   UNL A   1      32.822  35.437  30.132  1.00  0.00    -0.352 N 
ATOM      5  O   UNL A   1      32.411  34.229  28.268  1.00  0.00    -0.269 OA
ATOM      6  C   UNL A   1      33.170  34.493  29.194  1.00  0.00     0.251 C 
ATOM      7  H   UNL A   1      31.899  35.774  30.067  1.00  0.00     0.163 HD
BRANCH   6   8
ATOM      8  C   UNL A   1      34.485  33.824  29.284  1.00  0.00     0.039 A 
ATOM      9  C   UNL A   1      34.666  32.726  30.127  1.00  0.00     0.014 A 
ATOM     10  C   UNL A   1      35.559  34.320  28.539  1.00  0.00     0.014 A 
ATOM     11  C   UNL A   1      35.948  32.249  30.368  1.00  0.00     0.010 A 
ATOM     12  C   UNL A   1      36.831  33.768  28.705  1.00  0.00     0.010 A 
ATOM     13  C   UNL A   1      37.048  32.762  29.659  1.00  0.00    -0.014 A 
BRANCH  13  14
ATOM     14  C   UNL A   1      38.403  32.210  29.924  1.00  0.00     0.031 A 
ATOM     15  C   UNL A   1      39.392  32.950  30.785  1.00  0.00     0.074 A 
ATOM     16  C   UNL A   1      38.723  31.003  29.420  1.00  0.00     0.049 A 
ATOM     17  N   UNL A   1      40.591  32.580  31.164  1.00  0.00    -0.248 NA
ATOM     18  C   UNL A   1      38.993  34.277  31.281  1.00  0.00     0.031 C 
ATOM     19  C   UNL A   1      37.852  30.185  28.571  1.00  0.00     0.029 A 
ATOM     20  N   UNL A   1      39.853  30.240  29.568  1.00  0.00    -0.354 N 
ATOM     21  C   UNL A   1      41.098  33.636  31.914  1.00  0.00     0.074 A 
ATOM     22  C   UNL A   1      40.086  34.671  31.916  1.00  0.00     0.031 C 
ATOM     23  C   UNL A   1      38.452  29.010  28.328  1.00  0.00     0.029 A 
ATOM     24  C   UNL A   1      39.775  29.019  28.942  1.00  0.00     0.049 A 
ATOM     25  H   UNL A   1      40.642  30.538  30.074  1.00  0.00     0.167 HD
ATOM     26  C   UNL A   1      42.293  33.733  32.547  1.00  0.00     0.031 A 
ATOM     27  C   UNL A   1      40.670  28.020  28.858  1.00  0.00     0.031 A 
ATOM     28  C   UNL A   1      43.297  32.700  32.545  1.00  0.00     0.049 A 
ATOM     29  C   UNL A   1      41.998  28.169  29.541  1.00  0.00     0.074 A 
ATOM     30  C   UNL A   1      44.524  32.691  33.188  1.00  0.00     0.029 A 
ATOM     31  N   UNL A   1      43.198  31.500  31.859  1.00  0.00    -0.354 N 
ATOM     32  N   UNL A   1      42.440  29.154  30.282  1.00  0.00    -0.248 NA
ATOM     33  C   UNL A   1      42.947  27.060  29.379  1.00  0.00     0.031 C 
ATOM     34  C   UNL A   1      45.191  31.510  32.842  1.00  0.00     0.029 A 
ATOM     35  C   UNL A   1      44.352  30.753  32.042  1.00  0.00     0.049 A 
ATOM     36  H   UNL A   1      42.422  31.218  31.322  1.00  0.00     0.167 HD
ATOM     37  C   UNL A   1      43.706  28.770  30.704  1.00  0.00     0.074 A 
ATOM     38  C   UNL A   1      43.951  27.455  30.147  1.00  0.00     0.031 C 
ATOM     39  C   UNL A   1      44.585  29.445  31.485  1.00  0.00     0.031 A 
BRANCH  26  40
ATOM     40  C   UNL A   1      42.598  35.019  33.267  1.00  0.00    -0.014 A 
ATOM     41  C   UNL A   1      42.272  35.204  34.620  1.00  0.00     0.009 A 
ATOM     42  C   UNL A   1      43.264  36.052  32.587  1.00  0.00     0.009 A 
ATOM     43  C   UNL A   1      42.569  36.408  35.264  1.00  0.00     0.001 A 
ATOM     44  C   UNL A   1      43.589  37.243  33.241  1.00  0.00     0.001 A 
ATOM     45  C   UNL A   1      43.231  37.424  34.576  1.00  0.00     0.000 A 
ENDBRANCH  26  40
BRANCH  27  46
ATOM     46  C   UNL A   1      40.337  26.786  28.099  1.00  0.00    -0.014 A 
ATOM     47  C   UNL A   1      40.806  26.605  26.789  1.00  0.00     0.009 A 
ATOM     48  C   UNL A   1      39.544  25.784  28.680  1.00  0.00     0.009 A 
ATOM     49  C   UNL A   1      40.464  25.459  26.068  1.00  0.00     0.001 A 
ATOM     50  C   UNL A   1      39.233  24.624  27.970  1.00  0.00     0.001 A 
ATOM     51  C   UNL A   1      39.683  24.468  26.661  1.00  0.00     0.000 A 
ENDBRANCH  27  46
BRANCH  39  52
ATOM     52  C   UNL A   1      45.871  28.745  31.830  1.00  0.00    -0.014 A 
ATOM     53  C   UNL A   1      45.978  27.906  32.948  1.00  0.00     0.009 A 
ATOM     54  C   UNL A   1      46.994  28.924  31.005  1.00  0.00     0.009 A 
ATOM     55  C   UNL A   1      47.195  27.296  33.260  1.00  0.00     0.001 A 
ATOM     56  C   UNL A   1      48.199  28.285  31.298  1.00  0.00     0.001 A 
ATOM     57  C   UNL A   1      48.302  27.482  32.432  1.00  0.00     0.000 A 
ENDBRANCH  39  52
ENDBRANCH  13  14
ENDBRANCH   6   8
ENDBRANCH   3   4
ENDBRANCH   2   3
ENDBRANCH   1   2
BRANCH   1  58
ATOM     58  C   UNL A   1      35.809  34.692  33.075  1.00  0.00     0.002 C 
BRANCH  58  59
ATOM     59  C   UNL A   1      36.038  33.301  33.674  1.00  0.00     0.021 C 
BRANCH  59  60
ATOM     60  C   UNL A   1      37.396  33.099  34.341  1.00  0.00     0.116 C 
BRANCH  60  61
ATOM     61  N   UNL A   1      37.305  32.335  35.577  1.00  0.00    -0.352 N 
ATOM     62  C   UNL A   1      37.992  31.207  35.969  1.00  0.00     0.255 C 
ATOM     63  H   UNL A   1      36.654  32.676  36.233  1.00  0.00     0.163 HD
ATOM     64  O   UNL A   1      37.753  30.682  37.050  1.00  0.00    -0.269 OA
BRANCH  62  65
ATOM     65  C   UNL A   1      39.055  30.688  35.086  1.00  0.00     0.083 A 
ATOM     66  C   UNL A   1      38.679  30.322  33.796  1.00  0.00     0.018 A 
ATOM     67  C   UNL A   1      40.386  30.535  35.536  1.00  0.00     0.146 A 
ATOM     68  C   UNL A   1      39.597  29.705  32.979  1.00  0.00     0.002 A 
ATOM     69  C   UNL A   1      41.429  29.820  34.790  1.00  0.00     0.060 A 
ATOM     70  C   UNL A   1      40.894  29.438  33.453  1.00  0.00     0.019 A 
ATOM     71  Br  UNL A   1      43.814  29.470  35.752  1.00  0.00    -0.047 Br
BRANCH  67  72
ATOM     72  O   UNL A   1      40.698  31.132  36.718  1.00  0.00    -0.488 OA
BRANCH  72  73
ATOM     73  C   UNL A   1      41.189  32.286  36.120  1.00  0.00     0.178 C 
ATOM     74  C   UNL A   1      43.065  32.349  36.635  1.00  0.00     0.074 C 
ATOM     75  C   UNL A   1      39.926  33.587  36.797  1.00  0.00     0.080 C 
ATOM     76  C   UNL A   1      43.613  33.740  37.850  1.00  0.00     0.165 C 
ATOM     77  C   UNL A   1      40.564  34.824  38.093  1.00  0.00     0.072 C 
ATOM     78  O   UNL A   1      42.343  34.935  38.440  1.00  0.00    -0.375 OA
ATOM     79  C   UNL A   1      39.975  36.282  37.898  1.00  0.00     0.036 C 
ATOM     80  C   UNL A   1      39.571  34.765  39.325  1.00  0.00     0.036 C 
ATOM     81  C   UNL A   1      39.661  36.286  39.404  1.00  0.00     0.006 C 
ENDBRANCH  72  73
ENDBRANCH  67  72
ENDBRANCH  62  65
ENDBRANCH  60  61
ENDBRANCH  59  60
ENDBRANCH  58  59
ENDBRANCH   1  58
TORSDOF 15
ENDMDL
MODEL 3
REMARK VINA RESULT:     -10.6      0.531      5.885
REMARK SMILES O=C(NCCCCCCNC(=O)c1cccc(Br)c1O[C@@H]1CCOC2(CCC2)C1)c1ccc(-c2c3nc(c(-c4ccccc4)c4ccc([nH]4)c(-c4ccccc4)c4nc(c(-c5ccccc5)c5ccc2[nH]5)C=C4)C=C3)cc1
REMARK SMILES IDX 6 1 5 2 4 3 3 4 1 5 2 6 30 8 31 9 77 10 32 11 76 12 33 13
REMARK SMILES IDX 34 14 35 15 70 16 36 17 75 18 69 19 71 20 37 21 74 22 68 23
REMARK SMILES IDX 67 24 38 26 60 27 45 28 59 29 46 30 49 31 58 32 72 33 47 34
REMARK SMILES IDX 48 35 57 37 73 38 50 39 39 40 40 41 44 42 41 43 43 44 42 45
REMARK SMILES IDX 61 46 62 47 66 48 63 49 65 50 64 51 51 52 52 53 56 54 53 55
REMARK SMILES IDX 55 56 54 57 7 58 8 59 9 60 10 61 11 62 12 64 13 65 14 66
REMARK SMILES IDX 19 67 15 68 17 69 16 70 18 71 20 72 21 73 22 74 29 75 23 76
REMARK SMILES IDX 25 77 24 78 26 79 28 80 27 81
REMARK H PARENT 3 7 71 25 49 36 10 63
REMARK Flexibility Score: inf
ROOT
ATOM      1  C   UNL A   1      39.295  21.170  26.133  1.00  0.00     0.002 C 
ENDROOT
BRANCH   1   2
ATOM      2  C   UNL A   1      40.193  19.939  26.015  1.00  0.00     0.021 C 
BRANCH   2   3
ATOM      3  C   UNL A   1      41.543  20.059  26.709  1.00  0.00     0.116 C 
BRANCH   3   4
ATOM      4  N   UNL A   1      42.666  19.993  25.787  1.00  0.00    -0.352 N 
ATOM      5  O   UNL A   1      44.312  20.782  24.455  1.00  0.00    -0.269 OA
ATOM      6  C   UNL A   1      43.498  20.997  25.346  1.00  0.00     0.251 C 
ATOM      7  H   UNL A   1      42.862  19.098  25.426  1.00  0.00     0.163 HD
BRANCH   6   8
ATOM      8  C   UNL A   1      43.379  22.351  25.927  1.00  0.00     0.039 A 
ATOM      9  C   UNL A   1      43.095  23.449  25.113  1.00  0.00     0.014 A 
ATOM     10  C   UNL A   1      43.582  22.529  27.298  1.00  0.00     0.014 A 
ATOM     11  C   UNL A   1      43.204  24.734  25.631  1.00  0.00     0.010 A 
ATOM     12  C   UNL A   1      43.586  23.818  27.837  1.00  0.00     0.010 A 
ATOM     13  C   UNL A   1      43.449  24.936  26.999  1.00  0.00    -0.014 A 
BRANCH  13  14
ATOM     14  C   UNL A   1      43.534  26.325  27.524  1.00  0.00     0.031 A 
ATOM     15  C   UNL A   1      42.297  27.085  27.922  1.00  0.00     0.074 A 
ATOM     16  C   UNL A   1      44.748  26.884  27.687  1.00  0.00     0.049 A 
ATOM     17  N   UNL A   1      42.202  28.280  28.453  1.00  0.00    -0.248 NA
ATOM     18  C   UNL A   1      41.000  26.431  27.691  1.00  0.00     0.031 C 
ATOM     19  C   UNL A   1      46.023  26.250  27.339  1.00  0.00     0.029 A 
ATOM     20  N   UNL A   1      45.114  28.098  28.211  1.00  0.00    -0.354 N 
ATOM     21  C   UNL A   1      40.841  28.530  28.592  1.00  0.00     0.074 A 
ATOM     22  C   UNL A   1      40.148  27.373  28.066  1.00  0.00     0.031 C 
ATOM     23  C   UNL A   1      47.030  27.050  27.719  1.00  0.00     0.029 A 
ATOM     24  C   UNL A   1      46.474  28.281  28.269  1.00  0.00     0.049 A 
ATOM     25  H   UNL A   1      44.464  28.771  28.517  1.00  0.00     0.167 HD
ATOM     26  C   UNL A   1      40.225  29.619  29.113  1.00  0.00     0.031 A 
ATOM     27  C   UNL A   1      47.198  29.327  28.705  1.00  0.00     0.031 A 
ATOM     28  C   UNL A   1      40.917  30.768  29.638  1.00  0.00     0.049 A 
ATOM     29  C   UNL A   1      46.488  30.533  29.246  1.00  0.00     0.074 A 
ATOM     30  C   UNL A   1      40.381  31.904  30.222  1.00  0.00     0.029 A 
ATOM     31  N   UNL A   1      42.293  30.934  29.634  1.00  0.00    -0.354 N 
ATOM     32  N   UNL A   1      45.204  30.731  29.410  1.00  0.00    -0.248 NA
ATOM     33  C   UNL A   1      47.334  31.657  29.669  1.00  0.00     0.031 C 
ATOM     34  C   UNL A   1      41.430  32.783  30.515  1.00  0.00     0.029 A 
ATOM     35  C   UNL A   1      42.624  32.165  30.180  1.00  0.00     0.049 A 
ATOM     36  H   UNL A   1      42.941  30.275  29.294  1.00  0.00     0.167 HD
ATOM     37  C   UNL A   1      45.087  31.989  29.987  1.00  0.00     0.074 A 
ATOM     38  C   UNL A   1      46.434  32.497  30.157  1.00  0.00     0.031 C 
ATOM     39  C   UNL A   1      43.966  32.661  30.346  1.00  0.00     0.031 A 
BRANCH  26  40
ATOM     40  C   UNL A   1      38.719  29.638  29.108  1.00  0.00    -0.014 A 
ATOM     41  C   UNL A   1      37.973  29.314  30.253  1.00  0.00     0.009 A 
ATOM     42  C   UNL A   1      38.036  30.028  27.945  1.00  0.00     0.009 A 
ATOM     43  C   UNL A   1      36.576  29.342  30.220  1.00  0.00     0.001 A 
ATOM     44  C   UNL A   1      36.640  30.086  27.924  1.00  0.00     0.001 A 
ATOM     45  C   UNL A   1      35.912  29.732  29.058  1.00  0.00     0.000 A 
ENDBRANCH  26  40
BRANCH  27  46
ATOM     46  C   UNL A   1      48.683  29.276  28.649  1.00  0.00    -0.014 A 
ATOM     47  C   UNL A   1      49.422  28.779  29.733  1.00  0.00     0.009 A 
ATOM     48  C   UNL A   1      49.369  29.729  27.511  1.00  0.00     0.009 A 
ATOM     49  C   UNL A   1      50.818  28.763  29.689  1.00  0.00     0.001 A 
ATOM     50  C   UNL A   1      50.762  29.679  27.455  1.00  0.00     0.001 A 
ATOM     51  C   UNL A   1      51.486  29.207  28.549  1.00  0.00     0.000 A 
ENDBRANCH  27  46
BRANCH  39  52
ATOM     52  C   UNL A   1      44.153  33.996  31.013  1.00  0.00    -0.014 A 
ATOM     53  C   UNL A   1      44.321  34.112  32.400  1.00  0.00     0.009 A 
ATOM     54  C   UNL A   1      44.173  35.160  30.227  1.00  0.00     0.009 A 
ATOM     55  C   UNL A   1      44.460  35.369  32.993  1.00  0.00     0.001 A 
ATOM     56  C   UNL A   1      44.348  36.412  30.817  1.00  0.00     0.001 A 
ATOM     57  C   UNL A   1      44.478  36.517  32.200  1.00  0.00     0.000 A 
ENDBRANCH  39  52
ENDBRANCH  13  14
ENDBRANCH   6   8
ENDBRANCH   3   4
ENDBRANCH   2   3
ENDBRANCH   1   2
BRANCH   1  58
ATOM     58  C   UNL A   1      39.911  22.359  26.875  1.00  0.00     0.002 C 
BRANCH  58  59
ATOM     59  C   UNL A   1      39.244  23.714  26.617  1.00  0.00     0.021 C 
BRANCH  59  60
ATOM     60  C   UNL A   1      37.776  23.643  26.202  1.00  0.00     0.116 C 
BRANCH  60  61
ATOM     61  N   UNL A   1      37.600  23.689  24.757  1.00  0.00    -0.352 N 
ATOM     62  C   UNL A   1      36.651  23.081  23.965  1.00  0.00     0.255 C 
ATOM     63  H   UNL A   1      38.258  24.238  24.273  1.00  0.00     0.163 HD
ATOM     64  O   UNL A   1      36.683  23.215  22.748  1.00  0.00    -0.269 OA
BRANCH  62  65
ATOM     65  C   UNL A   1      35.570  22.319  24.621  1.00  0.00     0.083 A 
ATOM     66  C   UNL A   1      35.659  20.930  24.573  1.00  0.00     0.018 A 
ATOM     67  C   UNL A   1      34.475  22.965  25.240  1.00  0.00     0.146 A 
ATOM     68  C   UNL A   1      34.613  20.174  25.045  1.00  0.00     0.002 A 
ATOM     69  C   UNL A   1      33.267  22.272  25.704  1.00  0.00     0.060 A 
ATOM     70  C   UNL A   1      33.463  20.802  25.557  1.00  0.00     0.019 A 
ATOM     71  Br  UNL A   1      31.246  23.554  26.707  1.00  0.00    -0.047 Br
BRANCH  67  72
ATOM     72  O   UNL A   1      34.596  24.306  25.437  1.00  0.00    -0.488 OA
BRANCH  72  73
ATOM     73  C   UNL A   1      33.349  24.598  24.900  1.00  0.00     0.178 C 
ATOM     74  C   UNL A   1      33.666  24.780  22.988  1.00  0.00     0.074 C 
ATOM     75  C   UNL A   1      32.860  26.128  25.980  1.00  0.00     0.080 C 
ATOM     76  C   UNL A   1      33.489  26.536  22.215  1.00  0.00     0.165 C 
ATOM     77  C   UNL A   1      32.851  27.827  25.125  1.00  0.00     0.072 C 
ATOM     78  O   UNL A   1      33.018  27.933  23.319  1.00  0.00    -0.375 OA
ATOM     79  C   UNL A   1      31.653  28.750  25.597  1.00  0.00     0.036 C 
ATOM     80  C   UNL A   1      33.734  28.799  26.008  1.00  0.00     0.036 C 
ATOM     81  C   UNL A   1      32.681  29.880  25.777  1.00  0.00     0.006 C 
ENDBRANCH  72  73
ENDBRANCH  67  72
ENDBRANCH  62  65
ENDBRANCH  60  61
ENDBRANCH  59  60
ENDBRANCH  58  59
ENDBRANCH   1  58
TORSDOF 15
ENDMDL
