MODEL 1
REMARK VINA RESULT:     -11.7      0.000      0.000
REMARK SMILES Cc1ccc(-c2nc(C)c(C(=O)N3CCC(C(=O)NCCCCCCNC(=O)c4ccc(-c5c6nc(c(-c7ccccc7)c7ccc([nH]7)c(-c7ccccc7)c7nc(c(-c8ccccc8)c8ccc5[nH]8)C=C7)C=C6)cc4)CC3)s2)o1
REMARK SMILES IDX 22 1 21 2 20 3 19 4 17 5 18 6 16 8 11 9 12 10 13 11 14 12
REMARK SMILES IDX 78 13 15 14 77 15 10 16 6 17 7 18 79 19 8 20 9 21 5 22 1 23
REMARK SMILES IDX 2 24 3 25 80 26 4 27 23 28 24 29 25 30 26 31 27 32 28 34
REMARK SMILES IDX 29 35 30 36 76 37 31 38 75 39 32 40 33 41 34 42 69 43 35 44
REMARK SMILES IDX 74 45 68 46 70 47 36 48 73 49 67 50 66 51 37 53 59 54 44 55
REMARK SMILES IDX 58 56 45 57 48 58 57 59 71 60 46 61 47 62 56 64 72 65 49 66
REMARK SMILES IDX 38 67 39 68 43 69 40 70 42 71 41 72 60 73 61 74 65 75 62 76
REMARK SMILES IDX 64 77 63 78 50 79 51 80 55 81 52 82 54 83 53 84
REMARK H PARENT 19 7 26 33 70 52 48 63
REMARK Flexibility Score: inf
ROOT
ATOM      1  C   UNL A   1      34.743  32.495  27.921  1.00  0.00     0.002 C 
ENDROOT
BRANCH   1   2
ATOM      2  C   UNL A   1      34.576  31.007  28.240  1.00  0.00     0.021 C 
BRANCH   2   3
ATOM      3  C   UNL A   1      33.352  30.367  27.589  1.00  0.00     0.116 C 
BRANCH   3   4
ATOM      4  N   UNL A   1      33.487  30.318  26.144  1.00  0.00    -0.356 N 
ATOM      5  C   UNL A   1      33.183  29.337  25.253  1.00  0.00     0.223 C 
ATOM      6  O   UNL A   1      33.427  29.540  24.062  1.00  0.00    -0.275 OA
ATOM      7  H   UNL A   1      33.863  31.134  25.740  1.00  0.00     0.163 HD
BRANCH   5   8
ATOM      8  C   UNL A   1      32.541  28.032  25.694  1.00  0.00     0.082 C 
ATOM      9  C   UNL A   1      31.520  24.381  24.108  1.00  0.00     0.265 C 
ATOM     10  O   UNL A   1      31.055  24.689  23.009  1.00  0.00    -0.268 OA
ATOM     11  N   UNL A   1      31.682  25.367  25.079  1.00  0.00    -0.338 N 
ATOM     12  C   UNL A   1      30.660  26.390  25.228  1.00  0.00     0.120 C 
ATOM     13  C   UNL A   1      32.883  25.524  25.886  1.00  0.00     0.120 C 
ATOM     14  C   UNL A   1      31.196  27.791  24.993  1.00  0.00     0.035 C 
ATOM     15  C   UNL A   1      33.542  26.869  25.609  1.00  0.00     0.035 C 
BRANCH   9  16
ATOM     16  C   UNL A   1      31.802  23.002  24.490  1.00  0.00     0.115 A 
ATOM     17  C   UNL A   1      32.410  20.647  24.382  1.00  0.00     0.159 A 
ATOM     18  N   UNL A   1      31.662  20.868  25.437  1.00  0.00    -0.237 NA
ATOM     19  S   UNL A   1      32.819  22.038  23.476  1.00  0.00    -0.105 S 
ATOM     20  C   UNL A   1      31.287  22.200  25.501  1.00  0.00     0.062 A 
ATOM     21  C   UNL A   1      30.332  22.543  26.587  1.00  0.00     0.068 C 
BRANCH  17  22
ATOM     22  C   UNL A   1      32.787  19.314  24.007  1.00  0.00     0.162 A 
ATOM     23  C   UNL A   1      34.802  16.457  24.811  1.00  0.00     0.087 C 
ATOM     24  C   UNL A   1      33.864  17.382  24.144  1.00  0.00     0.101 A 
ATOM     25  C   UNL A   1      33.081  17.305  23.016  1.00  0.00     0.046 A 
ATOM     26  O   UNL A   1      33.702  18.593  24.737  1.00  0.00    -0.459 OA
ATOM     27  C   UNL A   1      32.379  18.535  22.935  1.00  0.00     0.054 A 
ENDBRANCH  17  22
ENDBRANCH   9  16
ENDBRANCH   5   8
ENDBRANCH   3   4
ENDBRANCH   2   3
ENDBRANCH   1   2
BRANCH   1  28
ATOM     28  C   UNL A   1      34.426  33.446  29.080  1.00  0.00     0.002 C 
BRANCH  28  29
ATOM     29  C   UNL A   1      33.262  34.410  28.834  1.00  0.00     0.021 C 
BRANCH  29  30
ATOM     30  C   UNL A   1      33.437  35.797  29.445  1.00  0.00     0.116 C 
BRANCH  30  31
ATOM     31  N   UNL A   1      32.545  36.017  30.570  1.00  0.00    -0.352 N 
ATOM     32  C   UNL A   1      32.644  35.583  31.866  1.00  0.00     0.251 C 
ATOM     33  H   UNL A   1      31.747  36.560  30.370  1.00  0.00     0.163 HD
ATOM     34  O   UNL A   1      31.695  35.720  32.632  1.00  0.00    -0.269 OA
BRANCH  32  35
ATOM     35  C   UNL A   1      33.882  34.931  32.341  1.00  0.00     0.039 A 
ATOM     36  C   UNL A   1      33.794  33.640  32.870  1.00  0.00     0.014 A 
ATOM     37  C   UNL A   1      35.117  35.586  32.295  1.00  0.00     0.014 A 
ATOM     38  C   UNL A   1      34.949  32.987  33.300  1.00  0.00     0.010 A 
ATOM     39  C   UNL A   1      36.279  34.908  32.662  1.00  0.00     0.010 A 
ATOM     40  C   UNL A   1      36.206  33.603  33.170  1.00  0.00    -0.014 A 
BRANCH  40  41
ATOM     41  C   UNL A   1      37.442  32.873  33.543  1.00  0.00     0.031 A 
ATOM     42  C   UNL A   1      38.049  31.860  32.615  1.00  0.00     0.074 A 
ATOM     43  C   UNL A   1      38.003  33.105  34.746  1.00  0.00     0.049 A 
ATOM     44  N   UNL A   1      39.144  31.157  32.766  1.00  0.00    -0.248 NA
ATOM     45  C   UNL A   1      37.327  31.586  31.363  1.00  0.00     0.031 C 
ATOM     46  C   UNL A   1      37.478  34.020  35.761  1.00  0.00     0.029 A 
ATOM     47  N   UNL A   1      39.140  32.592  35.315  1.00  0.00    -0.354 N 
ATOM     48  C   UNL A   1      39.239  30.356  31.634  1.00  0.00     0.074 A 
ATOM     49  C   UNL A   1      38.064  30.621  30.832  1.00  0.00     0.031 C 
ATOM     50  C   UNL A   1      38.310  34.030  36.814  1.00  0.00     0.029 A 
ATOM     51  C   UNL A   1      39.408  33.103  36.561  1.00  0.00     0.049 A 
ATOM     52  H   UNL A   1      39.710  31.921  34.872  1.00  0.00     0.167 HD
ATOM     53  C   UNL A   1      40.224  29.497  31.283  1.00  0.00     0.031 A 
ATOM     54  C   UNL A   1      40.427  32.859  37.404  1.00  0.00     0.031 A 
ATOM     55  C   UNL A   1      41.389  29.226  32.084  1.00  0.00     0.049 A 
ATOM     56  C   UNL A   1      41.510  31.904  36.993  1.00  0.00     0.074 A 
ATOM     57  C   UNL A   1      42.467  28.407  31.793  1.00  0.00     0.029 A 
ATOM     58  N   UNL A   1      41.627  29.765  33.339  1.00  0.00    -0.354 N 
ATOM     59  N   UNL A   1      41.625  31.214  35.883  1.00  0.00    -0.248 NA
ATOM     60  C   UNL A   1      42.612  31.708  37.943  1.00  0.00     0.031 C 
ATOM     61  C   UNL A   1      43.332  28.413  32.894  1.00  0.00     0.029 A 
ATOM     62  C   UNL A   1      42.820  29.278  33.846  1.00  0.00     0.049 A 
ATOM     63  H   UNL A   1      41.033  30.400  33.801  1.00  0.00     0.167 HD
ATOM     64  C   UNL A   1      42.817  30.513  35.995  1.00  0.00     0.074 A 
ATOM     65  C   UNL A   1      43.403  30.885  37.268  1.00  0.00     0.031 C 
ATOM     66  C   UNL A   1      43.378  29.638  35.125  1.00  0.00     0.031 A 
BRANCH  53  67
ATOM     67  C   UNL A   1      40.074  28.779  29.969  1.00  0.00    -0.014 A 
ATOM     68  C   UNL A   1      39.483  27.507  29.900  1.00  0.00     0.009 A 
ATOM     69  C   UNL A   1      40.507  29.391  28.782  1.00  0.00     0.009 A 
ATOM     70  C   UNL A   1      39.367  26.845  28.676  1.00  0.00     0.001 A 
ATOM     71  C   UNL A   1      40.362  28.738  27.556  1.00  0.00     0.001 A 
ATOM     72  C   UNL A   1      39.802  27.462  27.505  1.00  0.00     0.000 A 
ENDBRANCH  53  67
BRANCH  54  73
ATOM     73  C   UNL A   1      40.482  33.554  38.716  1.00  0.00    -0.014 A 
ATOM     74  C   UNL A   1      41.152  34.779  38.847  1.00  0.00     0.009 A 
ATOM     75  C   UNL A   1      39.850  33.001  39.840  1.00  0.00     0.009 A 
ATOM     76  C   UNL A   1      41.209  35.425  40.083  1.00  0.00     0.001 A 
ATOM     77  C   UNL A   1      39.885  33.663  41.069  1.00  0.00     0.001 A 
ATOM     78  C   UNL A   1      40.571  34.870  41.191  1.00  0.00     0.000 A 
ENDBRANCH  54  73
BRANCH  66  79
ATOM     79  C   UNL A   1      44.694  29.034  35.524  1.00  0.00    -0.014 A 
ATOM     80  C   UNL A   1      44.753  27.820  36.227  1.00  0.00     0.009 A 
ATOM     81  C   UNL A   1      45.891  29.682  35.185  1.00  0.00     0.009 A 
ATOM     82  C   UNL A   1      45.984  27.291  36.621  1.00  0.00     0.001 A 
ATOM     83  C   UNL A   1      47.122  29.135  35.553  1.00  0.00     0.001 A 
ATOM     84  C   UNL A   1      47.166  27.946  36.281  1.00  0.00     0.000 A 
ENDBRANCH  66  79
ENDBRANCH  40  41
ENDBRANCH  32  35
ENDBRANCH  30  31
ENDBRANCH  29  30
ENDBRANCH  28  29
ENDBRANCH   1  28
TORSDOF 15
ENDMDL
MODEL 2
REMARK VINA RESULT:     -11.4      2.786      6.486
REMARK SMILES Cc1ccc(-c2nc(C)c(C(=O)N3CCC(C(=O)NCCCCCCNC(=O)c4ccc(-c5c6nc(c(-c7ccccc7)c7ccc([nH]7)c(-c7ccccc7)c7nc(c(-c8ccccc8)c8ccc5[nH]8)C=C7)C=C6)cc4)CC3)s2)o1
REMARK SMILES IDX 22 1 21 2 20 3 19 4 17 5 18 6 16 8 11 9 12 10 13 11 14 12
REMARK SMILES IDX 78 13 15 14 77 15 10 16 6 17 7 18 79 19 8 20 9 21 5 22 1 23
REMARK SMILES IDX 2 24 3 25 80 26 4 27 23 28 24 29 25 30 26 31 27 32 28 34
REMARK SMILES IDX 29 35 30 36 76 37 31 38 75 39 32 40 33 41 34 42 69 43 35 44
REMARK SMILES IDX 74 45 68 46 70 47 36 48 73 49 67 50 66 51 37 53 59 54 44 55
REMARK SMILES IDX 58 56 45 57 48 58 57 59 71 60 46 61 47 62 56 64 72 65 49 66
REMARK SMILES IDX 38 67 39 68 43 69 40 70 42 71 41 72 60 73 61 74 65 75 62 76
REMARK SMILES IDX 64 77 63 78 50 79 51 80 55 81 52 82 54 83 53 84
REMARK H PARENT 19 7 26 33 70 52 48 63
REMARK Flexibility Score: inf
ROOT
ATOM      1  C   UNL A   1      32.227  28.853  27.159  1.00  0.00     0.002 C 
ENDROOT
BRANCH   1   2
ATOM      2  C   UNL A   1      31.485  28.627  25.839  1.00  0.00     0.021 C 
BRANCH   2   3
ATOM      3  C   UNL A   1      32.102  29.357  24.649  1.00  0.00     0.116 C 
BRANCH   3   4
ATOM      4  N   UNL A   1      31.130  29.551  23.586  1.00  0.00    -0.356 N 
ATOM      5  C   UNL A   1      30.769  28.748  22.550  1.00  0.00     0.223 C 
ATOM      6  O   UNL A   1      29.924  29.171  21.758  1.00  0.00    -0.275 OA
ATOM      7  H   UNL A   1      30.651  30.411  23.623  1.00  0.00     0.163 HD
BRANCH   5   8
ATOM      8  C   UNL A   1      31.364  27.361  22.372  1.00  0.00     0.082 C 
ATOM      9  C   UNL A   1      33.517  24.605  24.528  1.00  0.00     0.265 C 
ATOM     10  O   UNL A   1      34.346  25.310  25.108  1.00  0.00    -0.268 OA
ATOM     11  N   UNL A   1      32.809  25.134  23.451  1.00  0.00    -0.338 N 
ATOM     12  C   UNL A   1      33.499  25.993  22.503  1.00  0.00     0.120 C 
ATOM     13  C   UNL A   1      31.372  24.988  23.273  1.00  0.00     0.120 C 
ATOM     14  C   UNL A   1      32.898  27.386  22.431  1.00  0.00     0.035 C 
ATOM     15  C   UNL A   1      30.687  26.348  23.310  1.00  0.00     0.035 C 
BRANCH   9  16
ATOM     16  C   UNL A   1      33.323  23.194  24.840  1.00  0.00     0.115 A 
ATOM     17  C   UNL A   1      33.190  20.772  24.629  1.00  0.00     0.159 A 
ATOM     18  N   UNL A   1      32.438  21.177  25.626  1.00  0.00    -0.237 NA
ATOM     19  S   UNL A   1      34.098  22.000  23.858  1.00  0.00    -0.105 S 
ATOM     20  C   UNL A   1      32.483  22.556  25.745  1.00  0.00     0.062 A 
ATOM     21  C   UNL A   1      31.570  23.139  26.763  1.00  0.00     0.068 C 
BRANCH  17  22
ATOM     22  C   UNL A   1      33.179  19.403  24.200  1.00  0.00     0.162 A 
ATOM     23  C   UNL A   1      34.380  16.082  24.828  1.00  0.00     0.087 C 
ATOM     24  C   UNL A   1      33.701  17.250  24.233  1.00  0.00     0.101 A 
ATOM     25  C   UNL A   1      32.883  17.429  23.142  1.00  0.00     0.046 A 
ATOM     26  O   UNL A   1      33.894  18.435  24.865  1.00  0.00    -0.459 OA
ATOM     27  C   UNL A   1      32.535  18.804  23.128  1.00  0.00     0.054 A 
ENDBRANCH  17  22
ENDBRANCH   9  16
ENDBRANCH   5   8
ENDBRANCH   3   4
ENDBRANCH   2   3
ENDBRANCH   1   2
BRANCH   1  28
ATOM     28  C   UNL A   1      32.911  30.218  27.292  1.00  0.00     0.002 C 
BRANCH  28  29
ATOM     29  C   UNL A   1      31.964  31.417  27.381  1.00  0.00     0.021 C 
BRANCH  29  30
ATOM     30  C   UNL A   1      32.429  32.661  26.629  1.00  0.00     0.116 C 
BRANCH  30  31
ATOM     31  N   UNL A   1      32.290  33.867  27.426  1.00  0.00    -0.352 N 
ATOM     32  C   UNL A   1      33.048  34.318  28.475  1.00  0.00     0.251 C 
ATOM     33  H   UNL A   1      31.537  34.450  27.173  1.00  0.00     0.163 HD
ATOM     34  O   UNL A   1      32.664  35.275  29.141  1.00  0.00    -0.269 OA
BRANCH  32  35
ATOM     35  C   UNL A   1      34.316  33.643  28.824  1.00  0.00     0.039 A 
ATOM     36  C   UNL A   1      35.428  33.850  28.004  1.00  0.00     0.014 A 
ATOM     37  C   UNL A   1      34.409  32.792  29.931  1.00  0.00     0.014 A 
ATOM     38  C   UNL A   1      36.646  33.250  28.323  1.00  0.00     0.010 A 
ATOM     39  C   UNL A   1      35.642  32.248  30.287  1.00  0.00     0.010 A 
ATOM     40  C   UNL A   1      36.771  32.469  29.486  1.00  0.00    -0.014 A 
BRANCH  40  41
ATOM     41  C   UNL A   1      38.088  31.907  29.873  1.00  0.00     0.031 A 
ATOM     42  C   UNL A   1      39.009  32.659  30.792  1.00  0.00     0.074 A 
ATOM     43  C   UNL A   1      38.469  30.719  29.365  1.00  0.00     0.049 A 
ATOM     44  N   UNL A   1      40.178  32.301  31.260  1.00  0.00    -0.248 NA
ATOM     45  C   UNL A   1      38.570  33.994  31.228  1.00  0.00     0.031 C 
ATOM     46  C   UNL A   1      37.693  29.917  28.417  1.00  0.00     0.029 A 
ATOM     47  N   UNL A   1      39.604  29.978  29.578  1.00  0.00    -0.354 N 
ATOM     48  C   UNL A   1      40.616  33.365  32.040  1.00  0.00     0.074 A 
ATOM     49  C   UNL A   1      39.611  34.402  31.938  1.00  0.00     0.031 C 
ATOM     50  C   UNL A   1      38.357  28.781  28.157  1.00  0.00     0.029 A 
ATOM     51  C   UNL A   1      39.617  28.787  28.896  1.00  0.00     0.049 A 
ATOM     52  H   UNL A   1      40.338  30.274  30.163  1.00  0.00     0.167 HD
ATOM     53  C   UNL A   1      41.738  33.461  32.791  1.00  0.00     0.031 A 
ATOM     54  C   UNL A   1      40.535  27.804  28.871  1.00  0.00     0.031 A 
ATOM     55  C   UNL A   1      42.741  32.434  32.887  1.00  0.00     0.049 A 
ATOM     56  C   UNL A   1      41.771  27.932  29.714  1.00  0.00     0.074 A 
ATOM     57  C   UNL A   1      43.891  32.418  33.658  1.00  0.00     0.029 A 
ATOM     58  N   UNL A   1      42.718  31.239  32.183  1.00  0.00    -0.354 N 
ATOM     59  N   UNL A   1      42.132  28.911  30.507  1.00  0.00    -0.248 NA
ATOM     60  C   UNL A   1      42.717  26.809  29.669  1.00  0.00     0.031 C 
ATOM     61  C   UNL A   1      44.588  31.235  33.383  1.00  0.00     0.029 A 
ATOM     62  C   UNL A   1      43.844  30.490  32.483  1.00  0.00     0.049 A 
ATOM     63  H   UNL A   1      42.005  30.965  31.562  1.00  0.00     0.167 HD
ATOM     64  C   UNL A   1      43.339  28.518  31.068  1.00  0.00     0.074 A 
ATOM     65  C   UNL A   1      43.633  27.199  30.545  1.00  0.00     0.031 C 
ATOM     66  C   UNL A   1      44.135  29.190  31.936  1.00  0.00     0.031 A 
BRANCH  53  67
ATOM     67  C   UNL A   1      41.939  34.736  33.565  1.00  0.00    -0.014 A 
ATOM     68  C   UNL A   1      41.359  34.914  34.832  1.00  0.00     0.009 A 
ATOM     69  C   UNL A   1      42.735  35.762  33.034  1.00  0.00     0.009 A 
ATOM     70  C   UNL A   1      41.537  36.109  35.532  1.00  0.00     0.001 A 
ATOM     71  C   UNL A   1      42.936  36.944  33.750  1.00  0.00     0.001 A 
ATOM     72  C   UNL A   1      42.330  37.121  34.992  1.00  0.00     0.000 A 
ENDBRANCH  53  67
BRANCH  54  73
ATOM     73  C   UNL A   1      40.304  26.599  28.034  1.00  0.00    -0.014 A 
ATOM     74  C   UNL A   1      40.826  26.522  26.734  1.00  0.00     0.009 A 
ATOM     75  C   UNL A   1      39.571  25.514  28.538  1.00  0.00     0.009 A 
ATOM     76  C   UNL A   1      40.598  25.391  25.948  1.00  0.00     0.001 A 
ATOM     77  C   UNL A   1      39.368  24.373  27.759  1.00  0.00     0.001 A 
ATOM     78  C   UNL A   1      39.875  24.316  26.462  1.00  0.00     0.000 A 
ENDBRANCH  54  73
BRANCH  66  79
ATOM     79  C   UNL A   1      45.394  28.497  32.376  1.00  0.00    -0.014 A 
ATOM     80  C   UNL A   1      45.391  27.606  33.461  1.00  0.00     0.009 A 
ATOM     81  C   UNL A   1      46.596  28.730  31.691  1.00  0.00     0.009 A 
ATOM     82  C   UNL A   1      46.577  26.998  33.879  1.00  0.00     0.001 A 
ATOM     83  C   UNL A   1      47.774  28.097  32.092  1.00  0.00     0.001 A 
ATOM     84  C   UNL A   1      47.765  27.242  33.192  1.00  0.00     0.000 A 
ENDBRANCH  66  79
ENDBRANCH  40  41
ENDBRANCH  32  35
ENDBRANCH  30  31
ENDBRANCH  29  30
ENDBRANCH  28  29
ENDBRANCH   1  28
TORSDOF 15
ENDMDL
MODEL 3
REMARK VINA RESULT:     -11.1      0.695      5.775
REMARK SMILES Cc1ccc(-c2nc(C)c(C(=O)N3CCC(C(=O)NCCCCCCNC(=O)c4ccc(-c5c6nc(c(-c7ccccc7)c7ccc([nH]7)c(-c7ccccc7)c7nc(c(-c8ccccc8)c8ccc5[nH]8)C=C7)C=C6)cc4)CC3)s2)o1
REMARK SMILES IDX 22 1 21 2 20 3 19 4 17 5 18 6 16 8 11 9 12 10 13 11 14 12
REMARK SMILES IDX 78 13 15 14 77 15 10 16 6 17 7 18 79 19 8 20 9 21 5 22 1 23
REMARK SMILES IDX 2 24 3 25 80 26 4 27 23 28 24 29 25 30 26 31 27 32 28 34
REMARK SMILES IDX 29 35 30 36 76 37 31 38 75 39 32 40 33 41 34 42 69 43 35 44
REMARK SMILES IDX 74 45 68 46 70 47 36 48 73 49 67 50 66 51 37 53 59 54 44 55
REMARK SMILES IDX 58 56 45 57 48 58 57 59 71 60 46 61 47 62 56 64 72 65 49 66
REMARK SMILES IDX 38 67 39 68 43 69 40 70 42 71 41 72 60 73 61 74 65 75 62 76
REMARK SMILES IDX 64 77 63 78 50 79 51 80 55 81 52 82 54 83 53 84
REMARK H PARENT 19 7 26 33 70 52 48 63
REMARK Flexibility Score: inf
ROOT
ATOM      1  C   UNL A   1      34.830  32.454  27.638  1.00  0.00     0.002 C 
ENDROOT
BRANCH   1   2
ATOM      2  C   UNL A   1      34.397  31.157  28.326  1.00  0.00     0.021 C 
BRANCH   2   3
ATOM      3  C   UNL A   1      33.234  30.448  27.636  1.00  0.00     0.116 C 
BRANCH   3   4
ATOM      4  N   UNL A   1      33.429  30.389  26.198  1.00  0.00    -0.356 N 
ATOM      5  C   UNL A   1      33.173  29.398  25.303  1.00  0.00     0.223 C 
ATOM      6  O   UNL A   1      33.464  29.595  24.122  1.00  0.00    -0.275 OA
ATOM      7  H   UNL A   1      33.813  31.206  25.804  1.00  0.00     0.163 HD
BRANCH   5   8
ATOM      8  C   UNL A   1      32.527  28.089  25.728  1.00  0.00     0.082 C 
ATOM      9  C   UNL A   1      31.542  24.443  24.109  1.00  0.00     0.265 C 
ATOM     10  O   UNL A   1      31.092  24.755  23.005  1.00  0.00    -0.268 OA
ATOM     11  N   UNL A   1      31.686  25.425  25.088  1.00  0.00    -0.338 N 
ATOM     12  C   UNL A   1      30.659  26.444  25.225  1.00  0.00     0.120 C 
ATOM     13  C   UNL A   1      32.874  25.581  25.913  1.00  0.00     0.120 C 
ATOM     14  C   UNL A   1      31.194  27.848  25.005  1.00  0.00     0.035 C 
ATOM     15  C   UNL A   1      33.534  26.929  25.653  1.00  0.00     0.035 C 
BRANCH   9  16
ATOM     16  C   UNL A   1      31.821  23.063  24.488  1.00  0.00     0.115 A 
ATOM     17  C   UNL A   1      32.427  20.707  24.377  1.00  0.00     0.159 A 
ATOM     18  N   UNL A   1      31.677  20.928  25.431  1.00  0.00    -0.237 NA
ATOM     19  S   UNL A   1      32.840  22.101  23.475  1.00  0.00    -0.105 S 
ATOM     20  C   UNL A   1      31.303  22.259  25.497  1.00  0.00     0.062 A 
ATOM     21  C   UNL A   1      30.346  22.601  26.582  1.00  0.00     0.068 C 
BRANCH  17  22
ATOM     22  C   UNL A   1      32.803  19.375  24.000  1.00  0.00     0.162 A 
ATOM     23  C   UNL A   1      34.770  16.493  24.834  1.00  0.00     0.087 C 
ATOM     24  C   UNL A   1      33.859  17.433  24.150  1.00  0.00     0.101 A 
ATOM     25  C   UNL A   1      33.110  17.373  22.998  1.00  0.00     0.046 A 
ATOM     26  O   UNL A   1      33.691  18.639  24.750  1.00  0.00    -0.459 OA
ATOM     27  C   UNL A   1      32.421  18.610  22.909  1.00  0.00     0.054 A 
ENDBRANCH  17  22
ENDBRANCH   9  16
ENDBRANCH   5   8
ENDBRANCH   3   4
ENDBRANCH   2   3
ENDBRANCH   1   2
BRANCH   1  28
ATOM     28  C   UNL A   1      34.754  33.709  28.514  1.00  0.00     0.002 C 
BRANCH  28  29
ATOM     29  C   UNL A   1      33.351  34.297  28.690  1.00  0.00     0.021 C 
BRANCH  29  30
ATOM     30  C   UNL A   1      33.317  35.745  29.171  1.00  0.00     0.116 C 
BRANCH  30  31
ATOM     31  N   UNL A   1      32.594  35.891  30.422  1.00  0.00    -0.352 N 
ATOM     32  C   UNL A   1      32.835  35.322  31.645  1.00  0.00     0.251 C 
ATOM     33  H   UNL A   1      31.813  36.489  30.386  1.00  0.00     0.163 HD
ATOM     34  O   UNL A   1      32.004  35.424  32.543  1.00  0.00    -0.269 OA
BRANCH  32  35
ATOM     35  C   UNL A   1      34.083  34.565  31.884  1.00  0.00     0.039 A 
ATOM     36  C   UNL A   1      35.299  35.247  31.806  1.00  0.00     0.014 A 
ATOM     37  C   UNL A   1      34.064  33.193  32.156  1.00  0.00     0.014 A 
ATOM     38  C   UNL A   1      36.492  34.567  32.054  1.00  0.00     0.010 A 
ATOM     39  C   UNL A   1      35.249  32.530  32.471  1.00  0.00     0.010 A 
ATOM     40  C   UNL A   1      36.474  33.210  32.421  1.00  0.00    -0.014 A 
BRANCH  40  41
ATOM     41  C   UNL A   1      37.734  32.511  32.773  1.00  0.00     0.031 A 
ATOM     42  C   UNL A   1      38.438  32.797  34.070  1.00  0.00     0.074 A 
ATOM     43  C   UNL A   1      38.265  31.634  31.900  1.00  0.00     0.049 A 
ATOM     44  N   UNL A   1      39.528  32.254  34.552  1.00  0.00    -0.248 NA
ATOM     45  C   UNL A   1      37.856  33.840  34.928  1.00  0.00     0.031 C 
ATOM     46  C   UNL A   1      37.711  31.312  30.583  1.00  0.00     0.029 A 
ATOM     47  N   UNL A   1      39.385  30.849  31.991  1.00  0.00    -0.354 N 
ATOM     48  C   UNL A   1      39.763  32.890  35.765  1.00  0.00     0.074 A 
ATOM     49  C   UNL A   1      38.734  33.896  35.919  1.00  0.00     0.031 C 
ATOM     50  C   UNL A   1      38.473  30.372  30.004  1.00  0.00     0.029 A 
ATOM     51  C   UNL A   1      39.584  30.047  30.894  1.00  0.00     0.049 A 
ATOM     52  H   UNL A   1      39.990  30.860  32.768  1.00  0.00     0.167 HD
ATOM     53  C   UNL A   1      40.732  32.645  36.678  1.00  0.00     0.031 A 
ATOM     54  C   UNL A   1      40.548  29.145  30.634  1.00  0.00     0.031 A 
ATOM     55  C   UNL A   1      41.761  31.650  36.523  1.00  0.00     0.049 A 
ATOM     56  C   UNL A   1      41.610  28.887  31.663  1.00  0.00     0.074 A 
ATOM     57  C   UNL A   1      42.760  31.294  37.413  1.00  0.00     0.029 A 
ATOM     58  N   UNL A   1      41.927  30.855  35.399  1.00  0.00    -0.354 N 
ATOM     59  N   UNL A   1      41.772  29.443  32.839  1.00  0.00    -0.248 NA
ATOM     60  C   UNL A   1      42.612  27.866  31.333  1.00  0.00     0.031 C 
ATOM     61  C   UNL A   1      43.559  30.317  36.807  1.00  0.00     0.029 A 
ATOM     62  C   UNL A   1      43.026  30.027  35.562  1.00  0.00     0.049 A 
ATOM     63  H   UNL A   1      41.349  30.878  34.603  1.00  0.00     0.167 HD
ATOM     64  C   UNL A   1      42.885  28.829  33.397  1.00  0.00     0.074 A 
ATOM     65  C   UNL A   1      43.340  27.839  32.441  1.00  0.00     0.031 C 
ATOM     66  C   UNL A   1      43.480  29.064  34.592  1.00  0.00     0.031 A 
BRANCH  53  67
ATOM     67  C   UNL A   1      40.723  33.480  37.930  1.00  0.00    -0.014 A 
ATOM     68  C   UNL A   1      41.477  34.662  38.019  1.00  0.00     0.009 A 
ATOM     69  C   UNL A   1      39.936  33.094  39.026  1.00  0.00     0.009 A 
ATOM     70  C   UNL A   1      41.475  35.417  39.193  1.00  0.00     0.001 A 
ATOM     71  C   UNL A   1      39.913  33.868  40.188  1.00  0.00     0.001 A 
ATOM     72  C   UNL A   1      40.690  35.022  40.275  1.00  0.00     0.000 A 
ENDBRANCH  53  67
BRANCH  54  73
ATOM     73  C   UNL A   1      40.533  28.399  29.350  1.00  0.00    -0.014 A 
ATOM     74  C   UNL A   1      41.195  28.907  28.222  1.00  0.00     0.009 A 
ATOM     75  C   UNL A   1      39.867  27.168  29.250  1.00  0.00     0.009 A 
ATOM     76  C   UNL A   1      41.171  28.208  27.014  1.00  0.00     0.001 A 
ATOM     77  C   UNL A   1      39.868  26.458  28.048  1.00  0.00     0.001 A 
ATOM     78  C   UNL A   1      40.514  26.982  26.929  1.00  0.00     0.000 A 
ENDBRANCH  54  73
BRANCH  66  79
ATOM     79  C   UNL A   1      44.681  28.227  34.928  1.00  0.00    -0.014 A 
ATOM     80  C   UNL A   1      44.542  26.954  35.506  1.00  0.00     0.009 A 
ATOM     81  C   UNL A   1      45.969  28.711  34.655  1.00  0.00     0.009 A 
ATOM     82  C   UNL A   1      45.670  26.205  35.844  1.00  0.00     0.001 A 
ATOM     83  C   UNL A   1      47.095  27.946  34.966  1.00  0.00     0.001 A 
ATOM     84  C   UNL A   1      46.944  26.699  35.571  1.00  0.00     0.000 A 
ENDBRANCH  66  79
ENDBRANCH  40  41
ENDBRANCH  32  35
ENDBRANCH  30  31
ENDBRANCH  29  30
ENDBRANCH  28  29
ENDBRANCH   1  28
TORSDOF 15
ENDMDL
