MODEL 1
REMARK VINA RESULT:     -11.5      0.000      0.000
REMARK SMILES COc1ccc(/N=C/c2ccc(-c3ccc(C)c(C(=O)NCCCCCCNC(=O)c4ccc(-c5c6nc(c(-c7ccccc7)c7ccc([nH]7)c(-c7ccccc7)c7nc(c(-c8ccccc8)c8ccc5[nH]8)C=C7)C=C6)cc4)c3)o2)cc1
REMARK SMILES IDX 23 1 22 2 21 3 19 4 20 5 18 7 13 8 14 9 79 10 15 11 16 12
REMARK SMILES IDX 17 13 12 14 9 15 10 16 80 17 11 18 8 19 7 20 6 21 3 22 4 23
REMARK SMILES IDX 82 24 5 25 81 26 2 27 1 28 24 29 25 30 26 31 27 32 28 33
REMARK SMILES IDX 29 34 30 36 31 37 32 38 78 39 33 40 77 41 34 42 35 43 36 44
REMARK SMILES IDX 71 45 37 46 76 47 70 48 72 49 38 50 75 51 69 52 68 53 39 55
REMARK SMILES IDX 61 56 46 57 60 58 47 59 50 60 59 61 73 62 48 63 49 64 58 66
REMARK SMILES IDX 74 67 51 68 40 69 41 70 45 71 42 72 44 73 43 74 62 75 63 76
REMARK SMILES IDX 67 77 64 78 66 79 65 80 52 81 53 82 57 83 54 84 56 85 55 86
REMARK H PARENT 21 6 28 35 72 54 50 65
REMARK Flexibility Score: inf
ROOT
ATOM      1  C   UNL A   1      33.212  28.985  27.097  1.00  0.00     0.021 C 
ENDROOT
BRANCH   1   2
ATOM      2  C   UNL A   1      33.772  27.747  26.408  1.00  0.00     0.116 C 
BRANCH   2   3
ATOM      3  N   UNL A   1      34.018  27.895  24.982  1.00  0.00    -0.352 N 
ATOM      4  C   UNL A   1      33.444  27.304  23.870  1.00  0.00     0.251 C 
ATOM      5  O   UNL A   1      33.798  27.726  22.771  1.00  0.00    -0.269 OA
ATOM      6  H   UNL A   1      34.730  28.540  24.766  1.00  0.00     0.163 HD
BRANCH   4   7
ATOM      7  C   UNL A   1      32.456  26.177  23.981  1.00  0.00     0.043 A 
ATOM      8  C   UNL A   1      32.149  23.743  24.071  1.00  0.00     0.018 A 
ATOM      9  C   UNL A   1      30.793  23.905  23.811  1.00  0.00     0.012 A 
ATOM     10  C   UNL A   1      32.938  24.888  24.242  1.00  0.00     0.026 A 
ATOM     11  C   UNL A   1      30.251  25.192  23.739  1.00  0.00     0.005 A 
ATOM     12  C   UNL A   1      31.065  26.344  23.815  1.00  0.00    -0.038 A 
ATOM     13  C   UNL A   1      30.343  27.664  23.753  1.00  0.00     0.045 C 
BRANCH   8  14
ATOM     14  C   UNL A   1      32.790  22.437  24.131  1.00  0.00     0.134 A 
ATOM     15  C   UNL A   1      34.438  21.073  24.657  1.00  0.00     0.145 A 
ATOM     16  C   UNL A   1      33.379  20.284  24.252  1.00  0.00     0.052 A 
ATOM     17  O   UNL A   1      34.082  22.394  24.587  1.00  0.00    -0.455 OA
ATOM     18  C   UNL A   1      32.326  21.157  23.914  1.00  0.00     0.051 A 
BRANCH  15  19
ATOM     19  C   UNL A   1      35.763  20.703  25.080  1.00  0.00     0.158 C 
ATOM     20  N   UNL A   1      36.710  21.573  24.944  1.00  0.00    -0.253 NA
BRANCH  20  21
ATOM     21  C   UNL A   1      38.005  21.304  25.397  1.00  0.00     0.063 A 
ATOM     22  C   UNL A   1      40.488  20.528  26.477  1.00  0.00     0.119 A 
ATOM     23  C   UNL A   1      39.722  19.619  25.749  1.00  0.00     0.048 A 
ATOM     24  C   UNL A   1      40.028  21.836  26.639  1.00  0.00     0.048 A 
ATOM     25  C   UNL A   1      38.487  20.004  25.225  1.00  0.00     0.032 A 
ATOM     26  C   UNL A   1      38.787  22.219  26.106  1.00  0.00     0.032 A 
BRANCH  22  27
ATOM     27  O   UNL A   1      41.674  20.040  26.953  1.00  0.00    -0.497 OA
ATOM     28  C   UNL A   1      42.321  19.078  26.127  1.00  0.00     0.278 C 
ENDBRANCH  22  27
ENDBRANCH  20  21
ENDBRANCH  15  19
ENDBRANCH   8  14
ENDBRANCH   4   7
ENDBRANCH   2   3
ENDBRANCH   1   2
BRANCH   1  29
ATOM     29  C   UNL A   1      31.784  29.390  26.733  1.00  0.00     0.002 C 
BRANCH  29  30
ATOM     30  C   UNL A   1      31.628  30.617  25.831  1.00  0.00     0.002 C 
BRANCH  30  31
ATOM     31  C   UNL A   1      31.401  31.956  26.536  1.00  0.00     0.021 C 
BRANCH  31  32
ATOM     32  C   UNL A   1      32.631  32.575  27.188  1.00  0.00     0.116 C 
BRANCH  32  33
ATOM     33  N   UNL A   1      32.413  33.946  27.617  1.00  0.00    -0.352 N 
ATOM     34  C   UNL A   1      33.056  34.671  28.591  1.00  0.00     0.251 C 
ATOM     35  H   UNL A   1      31.699  34.426  27.139  1.00  0.00     0.163 HD
ATOM     36  O   UNL A   1      32.630  35.770  28.924  1.00  0.00    -0.269 OA
BRANCH  34  37
ATOM     37  C   UNL A   1      34.253  34.113  29.259  1.00  0.00     0.039 A 
ATOM     38  C   UNL A   1      34.080  33.313  30.393  1.00  0.00     0.014 A 
ATOM     39  C   UNL A   1      35.538  34.383  28.780  1.00  0.00     0.014 A 
ATOM     40  C   UNL A   1      35.192  32.736  31.009  1.00  0.00     0.010 A 
ATOM     41  C   UNL A   1      36.636  33.743  29.347  1.00  0.00     0.010 A 
ATOM     42  C   UNL A   1      36.477  32.921  30.472  1.00  0.00    -0.014 A 
BRANCH  42  43
ATOM     43  C   UNL A   1      37.662  32.261  31.074  1.00  0.00     0.031 A 
ATOM     44  C   UNL A   1      38.253  32.783  32.354  1.00  0.00     0.074 A 
ATOM     45  C   UNL A   1      38.243  31.224  30.439  1.00  0.00     0.049 A 
ATOM     46  N   UNL A   1      39.298  32.355  33.018  1.00  0.00    -0.248 NA
ATOM     47  C   UNL A   1      37.600  33.956  32.953  1.00  0.00     0.031 C 
ATOM     48  C   UNL A   1      37.786  30.639  29.177  1.00  0.00     0.029 A 
ATOM     49  N   UNL A   1      39.342  30.474  30.775  1.00  0.00    -0.354 N 
ATOM     50  C   UNL A   1      39.434  33.215  34.101  1.00  0.00     0.074 A 
ATOM     51  C   UNL A   1      38.404  34.221  33.971  1.00  0.00     0.031 C 
ATOM     52  C   UNL A   1      38.569  29.593  28.870  1.00  0.00     0.029 A 
ATOM     53  C   UNL A   1      39.610  29.463  29.885  1.00  0.00     0.049 A 
ATOM     54  H   UNL A   1      39.887  30.645  31.577  1.00  0.00     0.167 HD
ATOM     55  C   UNL A   1      40.322  33.162  35.123  1.00  0.00     0.031 A 
ATOM     56  C   UNL A   1      40.581  28.531  29.888  1.00  0.00     0.031 A 
ATOM     57  C   UNL A   1      41.352  32.164  35.247  1.00  0.00     0.049 A 
ATOM     58  C   UNL A   1      41.585  28.520  31.007  1.00  0.00     0.074 A 
ATOM     59  C   UNL A   1      42.268  31.989  36.270  1.00  0.00     0.029 A 
ATOM     60  N   UNL A   1      41.610  31.176  34.307  1.00  0.00    -0.354 N 
ATOM     61  N   UNL A   1      41.657  29.294  32.062  1.00  0.00    -0.248 NA
ATOM     62  C   UNL A   1      42.636  27.496  30.935  1.00  0.00     0.031 C 
ATOM     63  C   UNL A   1      43.122  30.937  35.917  1.00  0.00     0.029 A 
ATOM     64  C   UNL A   1      42.694  30.412  34.708  1.00  0.00     0.049 A 
ATOM     65  H   UNL A   1      41.098  31.039  33.478  1.00  0.00     0.167 HD
ATOM     66  C   UNL A   1      42.741  28.832  32.797  1.00  0.00     0.074 A 
ATOM     67  C   UNL A   1      43.287  27.702  32.071  1.00  0.00     0.031 C 
ATOM     68  C   UNL A   1      43.236  29.297  33.971  1.00  0.00     0.031 A 
BRANCH  55  69
ATOM     69  C   UNL A   1      40.227  34.240  36.170  1.00  0.00    -0.014 A 
ATOM     70  C   UNL A   1      39.411  34.091  37.305  1.00  0.00     0.009 A 
ATOM     71  C   UNL A   1      40.956  35.429  36.016  1.00  0.00     0.009 A 
ATOM     72  C   UNL A   1      39.282  35.132  38.227  1.00  0.00     0.001 A 
ATOM     73  C   UNL A   1      40.853  36.453  36.958  1.00  0.00     0.001 A 
ATOM     74  C   UNL A   1      40.005  36.311  38.054  1.00  0.00     0.000 A 
ENDBRANCH  55  69
BRANCH  56  75
ATOM     75  C   UNL A   1      40.625  27.505  28.814  1.00  0.00    -0.014 A 
ATOM     76  C   UNL A   1      39.789  26.380  28.881  1.00  0.00     0.009 A 
ATOM     77  C   UNL A   1      41.484  27.648  27.714  1.00  0.00     0.009 A 
ATOM     78  C   UNL A   1      39.824  25.410  27.877  1.00  0.00     0.001 A 
ATOM     79  C   UNL A   1      41.497  26.690  26.697  1.00  0.00     0.001 A 
ATOM     80  C   UNL A   1      40.674  25.569  26.783  1.00  0.00     0.000 A 
ENDBRANCH  56  75
BRANCH  68  81
ATOM     81  C   UNL A   1      44.407  28.562  34.562  1.00  0.00    -0.014 A 
ATOM     82  C   UNL A   1      44.230  27.432  35.377  1.00  0.00     0.009 A 
ATOM     83  C   UNL A   1      45.712  28.991  34.270  1.00  0.00     0.009 A 
ATOM     84  C   UNL A   1      45.336  26.771  35.916  1.00  0.00     0.001 A 
ATOM     85  C   UNL A   1      46.815  28.308  34.783  1.00  0.00     0.001 A 
ATOM     86  C   UNL A   1      46.626  27.205  35.613  1.00  0.00     0.000 A 
ENDBRANCH  68  81
ENDBRANCH  42  43
ENDBRANCH  34  37
ENDBRANCH  32  33
ENDBRANCH  31  32
ENDBRANCH  30  31
ENDBRANCH  29  30
ENDBRANCH   1  29
TORSDOF 17
ENDMDL
MODEL 2
REMARK VINA RESULT:     -11.2      1.496      5.961
REMARK SMILES COc1ccc(/N=C/c2ccc(-c3ccc(C)c(C(=O)NCCCCCCNC(=O)c4ccc(-c5c6nc(c(-c7ccccc7)c7ccc([nH]7)c(-c7ccccc7)c7nc(c(-c8ccccc8)c8ccc5[nH]8)C=C7)C=C6)cc4)c3)o2)cc1
REMARK SMILES IDX 23 1 22 2 21 3 19 4 20 5 18 7 13 8 14 9 79 10 15 11 16 12
REMARK SMILES IDX 17 13 12 14 9 15 10 16 80 17 11 18 8 19 7 20 6 21 3 22 4 23
REMARK SMILES IDX 82 24 5 25 81 26 2 27 1 28 24 29 25 30 26 31 27 32 28 33
REMARK SMILES IDX 29 34 30 36 31 37 32 38 78 39 33 40 77 41 34 42 35 43 36 44
REMARK SMILES IDX 71 45 37 46 76 47 70 48 72 49 38 50 75 51 69 52 68 53 39 55
REMARK SMILES IDX 61 56 46 57 60 58 47 59 50 60 59 61 73 62 48 63 49 64 58 66
REMARK SMILES IDX 74 67 51 68 40 69 41 70 45 71 42 72 44 73 43 74 62 75 63 76
REMARK SMILES IDX 67 77 64 78 66 79 65 80 52 81 53 82 57 83 54 84 56 85 55 86
REMARK H PARENT 21 6 28 35 72 54 50 65
REMARK Flexibility Score: inf
ROOT
ATOM      1  C   UNL A   1      33.021  28.482  27.084  1.00  0.00     0.021 C 
ENDROOT
BRANCH   1   2
ATOM      2  C   UNL A   1      33.962  28.523  25.887  1.00  0.00     0.116 C 
BRANCH   2   3
ATOM      3  N   UNL A   1      33.388  28.052  24.636  1.00  0.00    -0.352 N 
ATOM      4  C   UNL A   1      32.836  26.839  24.262  1.00  0.00     0.251 C 
ATOM      5  O   UNL A   1      32.325  26.782  23.146  1.00  0.00    -0.269 OA
ATOM      6  H   UNL A   1      33.393  28.725  23.917  1.00  0.00     0.163 HD
BRANCH   4   7
ATOM      7  C   UNL A   1      32.876  25.630  25.153  1.00  0.00     0.043 A 
ATOM      8  C   UNL A   1      34.121  23.610  25.784  1.00  0.00     0.018 A 
ATOM      9  C   UNL A   1      32.997  23.125  26.443  1.00  0.00     0.012 A 
ATOM     10  C   UNL A   1      34.067  24.896  25.230  1.00  0.00     0.026 A 
ATOM     11  C   UNL A   1      31.856  23.925  26.548  1.00  0.00     0.005 A 
ATOM     12  C   UNL A   1      31.770  25.180  25.905  1.00  0.00    -0.038 A 
ATOM     13  C   UNL A   1      30.494  25.947  26.128  1.00  0.00     0.045 C 
BRANCH   8  14
ATOM     14  C   UNL A   1      35.334  22.825  25.610  1.00  0.00     0.134 A 
ATOM     15  C   UNL A   1      37.508  22.498  25.751  1.00  0.00     0.145 A 
ATOM     16  C   UNL A   1      36.944  21.285  25.406  1.00  0.00     0.052 A 
ATOM     17  O   UNL A   1      36.527  23.444  25.880  1.00  0.00    -0.455 OA
ATOM     18  C   UNL A   1      35.554  21.495  25.313  1.00  0.00     0.051 A 
BRANCH  15  19
ATOM     19  C   UNL A   1      38.888  22.856  25.948  1.00  0.00     0.158 C 
ATOM     20  N   UNL A   1      39.608  22.105  26.716  1.00  0.00    -0.253 NA
BRANCH  20  21
ATOM     21  C   UNL A   1      40.972  22.356  26.896  1.00  0.00     0.063 A 
ATOM     22  C   UNL A   1      43.772  22.595  27.097  1.00  0.00     0.119 A 
ATOM     23  C   UNL A   1      43.160  22.514  25.848  1.00  0.00     0.048 A 
ATOM     24  C   UNL A   1      42.980  22.588  28.247  1.00  0.00     0.048 A 
ATOM     25  C   UNL A   1      41.774  22.385  25.751  1.00  0.00     0.032 A 
ATOM     26  C   UNL A   1      41.586  22.462  28.145  1.00  0.00     0.032 A 
BRANCH  22  27
ATOM     27  O   UNL A   1      45.134  22.708  27.072  1.00  0.00    -0.497 OA
ATOM     28  C   UNL A   1      45.670  23.855  27.722  1.00  0.00     0.278 C 
ENDBRANCH  22  27
ENDBRANCH  20  21
ENDBRANCH  15  19
ENDBRANCH   8  14
ENDBRANCH   4   7
ENDBRANCH   2   3
ENDBRANCH   1   2
BRANCH   1  29
ATOM     29  C   UNL A   1      31.733  29.296  26.977  1.00  0.00     0.002 C 
BRANCH  29  30
ATOM     30  C   UNL A   1      31.776  30.536  26.080  1.00  0.00     0.002 C 
BRANCH  30  31
ATOM     31  C   UNL A   1      31.536  31.881  26.768  1.00  0.00     0.021 C 
BRANCH  31  32
ATOM     32  C   UNL A   1      32.784  32.609  27.251  1.00  0.00     0.116 C 
BRANCH  32  33
ATOM     33  N   UNL A   1      32.525  33.990  27.621  1.00  0.00    -0.352 N 
ATOM     34  C   UNL A   1      33.097  34.753  28.610  1.00  0.00     0.251 C 
ATOM     35  H   UNL A   1      31.839  34.446  27.083  1.00  0.00     0.163 HD
ATOM     36  O   UNL A   1      32.640  35.857  28.880  1.00  0.00    -0.269 OA
BRANCH  34  37
ATOM     37  C   UNL A   1      34.255  34.230  29.370  1.00  0.00     0.039 A 
ATOM     38  C   UNL A   1      34.019  33.513  30.547  1.00  0.00     0.014 A 
ATOM     39  C   UNL A   1      35.564  34.454  28.936  1.00  0.00     0.014 A 
ATOM     40  C   UNL A   1      35.093  32.969  31.253  1.00  0.00     0.010 A 
ATOM     41  C   UNL A   1      36.626  33.843  29.596  1.00  0.00     0.010 A 
ATOM     42  C   UNL A   1      36.404  33.103  30.766  1.00  0.00    -0.014 A 
BRANCH  42  43
ATOM     43  C   UNL A   1      37.551  32.474  31.467  1.00  0.00     0.031 A 
ATOM     44  C   UNL A   1      38.278  31.314  30.845  1.00  0.00     0.074 A 
ATOM     45  C   UNL A   1      37.906  32.912  32.691  1.00  0.00     0.049 A 
ATOM     46  N   UNL A   1      39.285  30.622  31.315  1.00  0.00    -0.248 NA
ATOM     47  C   UNL A   1      37.791  30.855  29.536  1.00  0.00     0.031 C 
ATOM     48  C   UNL A   1      37.265  34.011  33.417  1.00  0.00     0.029 A 
ATOM     49  N   UNL A   1      38.899  32.488  33.537  1.00  0.00    -0.354 N 
ATOM     50  C   UNL A   1      39.541  29.638  30.367  1.00  0.00     0.074 A 
ATOM     51  C   UNL A   1      38.546  29.787  29.328  1.00  0.00     0.031 C 
ATOM     52  C   UNL A   1      37.911  34.203  34.578  1.00  0.00     0.029 A 
ATOM     53  C   UNL A   1      38.978  33.215  34.700  1.00  0.00     0.049 A 
ATOM     54  H   UNL A   1      39.497  31.733  33.332  1.00  0.00     0.167 HD
ATOM     55  C   UNL A   1      40.526  28.708  30.351  1.00  0.00     0.031 A 
ATOM     56  C   UNL A   1      39.818  33.102  35.745  1.00  0.00     0.031 A 
ATOM     57  C   UNL A   1      41.511  28.556  31.390  1.00  0.00     0.049 A 
ATOM     58  C   UNL A   1      40.874  32.032  35.728  1.00  0.00     0.074 A 
ATOM     59  C   UNL A   1      42.582  27.681  31.444  1.00  0.00     0.029 A 
ATOM     60  N   UNL A   1      41.536  29.292  32.566  1.00  0.00    -0.354 N 
ATOM     61  N   UNL A   1      41.149  31.157  34.792  1.00  0.00    -0.248 NA
ATOM     62  C   UNL A   1      41.739  31.944  36.912  1.00  0.00     0.031 C 
ATOM     63  C   UNL A   1      43.215  27.842  32.682  1.00  0.00     0.029 A 
ATOM     64  C   UNL A   1      42.582  28.866  33.369  1.00  0.00     0.049 A 
ATOM     65  H   UNL A   1      40.904  30.010  32.796  1.00  0.00     0.167 HD
ATOM     66  C   UNL A   1      42.240  30.434  35.258  1.00  0.00     0.074 A 
ATOM     67  C   UNL A   1      42.580  30.985  36.556  1.00  0.00     0.031 C 
ATOM     68  C   UNL A   1      42.904  29.413  34.663  1.00  0.00     0.031 A 
BRANCH  55  69
ATOM     69  C   UNL A   1      40.558  27.765  29.177  1.00  0.00    -0.014 A 
ATOM     70  C   UNL A   1      41.369  28.015  28.056  1.00  0.00     0.009 A 
ATOM     71  C   UNL A   1      39.758  26.612  29.185  1.00  0.00     0.009 A 
ATOM     72  C   UNL A   1      41.330  27.166  26.947  1.00  0.00     0.001 A 
ATOM     73  C   UNL A   1      39.749  25.745  28.091  1.00  0.00     0.001 A 
ATOM     74  C   UNL A   1      40.522  26.031  26.967  1.00  0.00     0.000 A 
ENDBRANCH  55  69
BRANCH  56  75
ATOM     75  C   UNL A   1      39.720  34.057  36.880  1.00  0.00    -0.014 A 
ATOM     76  C   UNL A   1      39.000  33.708  38.033  1.00  0.00     0.009 A 
ATOM     77  C   UNL A   1      40.353  35.308  36.827  1.00  0.00     0.009 A 
ATOM     78  C   UNL A   1      38.901  34.600  39.103  1.00  0.00     0.001 A 
ATOM     79  C   UNL A   1      40.276  36.186  37.910  1.00  0.00     0.001 A 
ATOM     80  C   UNL A   1      39.544  35.836  39.043  1.00  0.00     0.000 A 
ENDBRANCH  56  75
BRANCH  68  81
ATOM     81  C   UNL A   1      44.088  28.845  35.395  1.00  0.00    -0.014 A 
ATOM     82  C   UNL A   1      43.953  27.772  36.291  1.00  0.00     0.009 A 
ATOM     83  C   UNL A   1      45.368  29.372  35.156  1.00  0.00     0.009 A 
ATOM     84  C   UNL A   1      45.070  27.266  36.960  1.00  0.00     0.001 A 
ATOM     85  C   UNL A   1      46.486  28.843  35.801  1.00  0.00     0.001 A 
ATOM     86  C   UNL A   1      46.334  27.797  36.710  1.00  0.00     0.000 A 
ENDBRANCH  68  81
ENDBRANCH  42  43
ENDBRANCH  34  37
ENDBRANCH  32  33
ENDBRANCH  31  32
ENDBRANCH  30  31
ENDBRANCH  29  30
ENDBRANCH   1  29
TORSDOF 17
ENDMDL
MODEL 3
REMARK VINA RESULT:     -11.1      4.063     10.583
REMARK SMILES COc1ccc(/N=C/c2ccc(-c3ccc(C)c(C(=O)NCCCCCCNC(=O)c4ccc(-c5c6nc(c(-c7ccccc7)c7ccc([nH]7)c(-c7ccccc7)c7nc(c(-c8ccccc8)c8ccc5[nH]8)C=C7)C=C6)cc4)c3)o2)cc1
REMARK SMILES IDX 23 1 22 2 21 3 19 4 20 5 18 7 13 8 14 9 79 10 15 11 16 12
REMARK SMILES IDX 17 13 12 14 9 15 10 16 80 17 11 18 8 19 7 20 6 21 3 22 4 23
REMARK SMILES IDX 82 24 5 25 81 26 2 27 1 28 24 29 25 30 26 31 27 32 28 33
REMARK SMILES IDX 29 34 30 36 31 37 32 38 78 39 33 40 77 41 34 42 35 43 36 44
REMARK SMILES IDX 71 45 37 46 76 47 70 48 72 49 38 50 75 51 69 52 68 53 39 55
REMARK SMILES IDX 61 56 46 57 60 58 47 59 50 60 59 61 73 62 48 63 49 64 58 66
REMARK SMILES IDX 74 67 51 68 40 69 41 70 45 71 42 72 44 73 43 74 62 75 63 76
REMARK SMILES IDX 67 77 64 78 66 79 65 80 52 81 53 82 57 83 54 84 56 85 55 86
REMARK H PARENT 21 6 28 35 72 54 50 65
REMARK Flexibility Score: inf
ROOT
ATOM      1  C   UNL A   1      36.068  23.110  24.897  1.00  0.00     0.021 C 
ENDROOT
BRANCH   1   2
ATOM      2  C   UNL A   1      34.561  23.116  24.671  1.00  0.00     0.116 C 
BRANCH   2   3
ATOM      3  N   UNL A   1      33.758  23.164  25.883  1.00  0.00    -0.352 N 
ATOM      4  C   UNL A   1      32.621  23.878  26.220  1.00  0.00     0.251 C 
ATOM      5  O   UNL A   1      32.101  23.615  27.302  1.00  0.00    -0.269 OA
ATOM      6  H   UNL A   1      34.086  22.576  26.601  1.00  0.00     0.163 HD
BRANCH   4   7
ATOM      7  C   UNL A   1      32.052  24.948  25.332  1.00  0.00     0.043 A 
ATOM      8  C   UNL A   1      31.599  27.347  25.073  1.00  0.00     0.018 A 
ATOM      9  C   UNL A   1      30.732  27.069  24.022  1.00  0.00     0.012 A 
ATOM     10  C   UNL A   1      32.314  26.287  25.647  1.00  0.00     0.026 A 
ATOM     11  C   UNL A   1      30.603  25.756  23.560  1.00  0.00     0.005 A 
ATOM     12  C   UNL A   1      31.249  24.677  24.204  1.00  0.00    -0.038 A 
ATOM     13  C   UNL A   1      31.044  23.322  23.580  1.00  0.00     0.045 C 
BRANCH   8  14
ATOM     14  C   UNL A   1      31.765  28.683  25.626  1.00  0.00     0.134 A 
ATOM     15  C   UNL A   1      32.816  30.204  26.824  1.00  0.00     0.145 A 
ATOM     16  C   UNL A   1      31.826  30.862  26.122  1.00  0.00     0.052 A 
ATOM     17  O   UNL A   1      32.786  28.869  26.522  1.00  0.00    -0.455 OA
ATOM     18  C   UNL A   1      31.151  29.889  25.359  1.00  0.00     0.051 A 
BRANCH  15  19
ATOM     19  C   UNL A   1      33.775  30.709  27.771  1.00  0.00     0.158 C 
ATOM     20  N   UNL A   1      34.073  31.967  27.722  1.00  0.00    -0.253 NA
BRANCH  20  21
ATOM     21  C   UNL A   1      34.944  32.537  28.655  1.00  0.00     0.063 A 
ATOM     22  C   UNL A   1      36.916  33.485  30.430  1.00  0.00     0.119 A 
ATOM     23  C   UNL A   1      37.139  33.504  29.055  1.00  0.00     0.048 A 
ATOM     24  C   UNL A   1      35.693  33.021  30.918  1.00  0.00     0.048 A 
ATOM     25  C   UNL A   1      36.165  33.024  28.179  1.00  0.00     0.032 A 
ATOM     26  C   UNL A   1      34.715  32.543  30.033  1.00  0.00     0.032 A 
BRANCH  22  27
ATOM     27  O   UNL A   1      37.943  33.968  31.193  1.00  0.00    -0.497 OA
ATOM     28  C   UNL A   1      39.242  33.500  30.847  1.00  0.00     0.278 C 
ENDBRANCH  22  27
ENDBRANCH  20  21
ENDBRANCH  15  19
ENDBRANCH   8  14
ENDBRANCH   4   7
ENDBRANCH   2   3
ENDBRANCH   1   2
BRANCH   1  29
ATOM     29  C   UNL A   1      36.852  21.951  24.284  1.00  0.00     0.002 C 
BRANCH  29  30
ATOM     30  C   UNL A   1      36.699  20.585  24.959  1.00  0.00     0.002 C 
BRANCH  30  31
ATOM     31  C   UNL A   1      37.920  19.665  24.917  1.00  0.00     0.021 C 
BRANCH  31  32
ATOM     32  C   UNL A   1      39.019  19.977  25.926  1.00  0.00     0.116 C 
BRANCH  32  33
ATOM     33  N   UNL A   1      40.119  19.030  25.874  1.00  0.00    -0.352 N 
ATOM     34  C   UNL A   1      41.470  19.252  25.993  1.00  0.00     0.251 C 
ATOM     35  H   UNL A   1      39.859  18.092  25.732  1.00  0.00     0.163 HD
ATOM     36  O   UNL A   1      42.265  18.348  25.765  1.00  0.00    -0.269 OA
BRANCH  34  37
ATOM     37  C   UNL A   1      41.968  20.592  26.375  1.00  0.00     0.039 A 
ATOM     38  C   UNL A   1      42.493  21.423  25.380  1.00  0.00     0.014 A 
ATOM     39  C   UNL A   1      41.931  21.025  27.703  1.00  0.00     0.014 A 
ATOM     40  C   UNL A   1      42.923  22.710  25.709  1.00  0.00     0.010 A 
ATOM     41  C   UNL A   1      42.285  22.335  28.014  1.00  0.00     0.010 A 
ATOM     42  C   UNL A   1      42.793  23.188  27.024  1.00  0.00    -0.014 A 
BRANCH  42  43
ATOM     43  C   UNL A   1      43.183  24.575  27.379  1.00  0.00     0.031 A 
ATOM     44  C   UNL A   1      44.618  25.012  27.270  1.00  0.00     0.074 A 
ATOM     45  C   UNL A   1      42.254  25.429  27.852  1.00  0.00     0.049 A 
ATOM     46  N   UNL A   1      45.152  26.173  27.555  1.00  0.00    -0.248 NA
ATOM     47  C   UNL A   1      45.581  24.005  26.803  1.00  0.00     0.031 C 
ATOM     48  C   UNL A   1      40.834  25.121  28.033  1.00  0.00     0.029 A 
ATOM     49  N   UNL A   1      42.368  26.733  28.263  1.00  0.00    -0.354 N 
ATOM     50  C   UNL A   1      46.514  26.029  27.318  1.00  0.00     0.074 A 
ATOM     51  C   UNL A   1      46.729  24.654  26.924  1.00  0.00     0.031 C 
ATOM     52  C   UNL A   1      40.201  26.220  28.474  1.00  0.00     0.029 A 
ATOM     53  C   UNL A   1      41.175  27.292  28.651  1.00  0.00     0.049 A 
ATOM     54  H   UNL A   1      43.222  27.221  28.279  1.00  0.00     0.167 HD
ATOM     55  C   UNL A   1      47.495  26.959  27.400  1.00  0.00     0.031 A 
ATOM     56  C   UNL A   1      40.895  28.531  29.096  1.00  0.00     0.031 A 
ATOM     57  C   UNL A   1      47.281  28.326  27.799  1.00  0.00     0.049 A 
ATOM     58  C   UNL A   1      42.007  29.535  29.224  1.00  0.00     0.074 A 
ATOM     59  C   UNL A   1      48.197  29.361  27.863  1.00  0.00     0.029 A 
ATOM     60  N   UNL A   1      46.063  28.843  28.215  1.00  0.00    -0.354 N 
ATOM     61  N   UNL A   1      43.277  29.405  28.927  1.00  0.00    -0.248 NA
ATOM     62  C   UNL A   1      41.639  30.859  29.743  1.00  0.00     0.031 C 
ATOM     63  C   UNL A   1      47.547  30.488  28.382  1.00  0.00     0.029 A 
ATOM     64  C   UNL A   1      46.211  30.174  28.573  1.00  0.00     0.049 A 
ATOM     65  H   UNL A   1      45.218  28.340  28.251  1.00  0.00     0.167 HD
ATOM     66  C   UNL A   1      43.855  30.640  29.191  1.00  0.00     0.074 A 
ATOM     67  C   UNL A   1      42.792  31.507  29.661  1.00  0.00     0.031 C 
ATOM     68  C   UNL A   1      45.148  31.023  29.051  1.00  0.00     0.031 A 
BRANCH  55  69
ATOM     69  C   UNL A   1      48.895  26.509  27.076  1.00  0.00    -0.014 A 
ATOM     70  C   UNL A   1      49.388  26.534  25.759  1.00  0.00     0.009 A 
ATOM     71  C   UNL A   1      49.733  26.043  28.100  1.00  0.00     0.009 A 
ATOM     72  C   UNL A   1      50.664  26.045  25.470  1.00  0.00     0.001 A 
ATOM     73  C   UNL A   1      51.022  25.589  27.813  1.00  0.00     0.001 A 
ATOM     74  C   UNL A   1      51.480  25.576  26.497  1.00  0.00     0.000 A 
ENDBRANCH  55  69
BRANCH  56  75
ATOM     75  C   UNL A   1      39.491  28.904  29.413  1.00  0.00    -0.014 A 
ATOM     76  C   UNL A   1      39.045  28.894  30.744  1.00  0.00     0.009 A 
ATOM     77  C   UNL A   1      38.599  29.286  28.400  1.00  0.00     0.009 A 
ATOM     78  C   UNL A   1      37.728  29.241  31.051  1.00  0.00     0.001 A 
ATOM     79  C   UNL A   1      37.290  29.660  28.714  1.00  0.00     0.001 A 
ATOM     80  C   UNL A   1      36.853  29.630  30.037  1.00  0.00     0.000 A 
ENDBRANCH  56  75
BRANCH  68  81
ATOM     81  C   UNL A   1      45.480  32.453  29.377  1.00  0.00    -0.014 A 
ATOM     82  C   UNL A   1      45.356  33.473  28.420  1.00  0.00     0.009 A 
ATOM     83  C   UNL A   1      45.892  32.789  30.677  1.00  0.00     0.009 A 
ATOM     84  C   UNL A   1      45.675  34.793  28.749  1.00  0.00     0.001 A 
ATOM     85  C   UNL A   1      46.178  34.113  31.012  1.00  0.00     0.001 A 
ATOM     86  C   UNL A   1      46.078  35.112  30.045  1.00  0.00     0.000 A 
ENDBRANCH  68  81
ENDBRANCH  42  43
ENDBRANCH  34  37
ENDBRANCH  32  33
ENDBRANCH  31  32
ENDBRANCH  30  31
ENDBRANCH  29  30
ENDBRANCH   1  29
TORSDOF 17
ENDMDL
