MODEL 1
REMARK VINA RESULT:     -13.0      0.000      0.000
REMARK SMILES O=C(NCCCCCCNC(=O)[C@@H]1CCCN1C(=O)[C@@H]1CCCN1C(=O)OCC1c2ccccc2-c2ccccc21)c1ccc(-c2c3nc(c(-c4ccccc4)c4ccc([nH]4)c(-c4ccccc4)c4nc(c(-c5ccccc5)c5ccc2[nH]5)C=C4)C=C3)cc1
REMARK SMILES IDX 8 1 7 2 6 3 5 4 4 5 3 6 1 7 2 8 42 10 43 11 89 12 44 13
REMARK SMILES IDX 88 14 45 15 46 16 47 17 82 18 48 19 87 20 81 21 83 22 49 23
REMARK SMILES IDX 86 24 80 25 79 26 50 28 72 29 57 30 71 31 58 32 61 33 70 34
REMARK SMILES IDX 84 35 59 36 60 37 69 39 85 40 62 41 51 42 52 43 56 44 53 45
REMARK SMILES IDX 55 46 54 47 73 48 74 49 78 50 75 51 77 52 76 53 63 54 64 55
REMARK SMILES IDX 68 56 65 57 67 58 66 59 9 60 10 61 11 62 12 64 13 65 14 66
REMARK SMILES IDX 17 67 15 68 16 69 18 70 19 71 20 72 21 73 24 74 22 75 23 76
REMARK SMILES IDX 25 77 26 78 27 79 28 80 29 81 30 82 41 83 31 84 35 85 36 86
REMARK SMILES IDX 40 87 32 88 34 89 37 90 39 91 33 92 38 93
REMARK H PARENT 3 9 83 27 61 38 10 63
REMARK Flexibility Score: inf
ROOT
ATOM      1  C   UNL A   1      35.661  32.390  27.932  1.00  0.00     0.021 C 
ENDROOT
BRANCH   1   2
ATOM      2  C   UNL A   1      35.126  33.715  28.844  1.00  0.00     0.002 C 
BRANCH   2   3
ATOM      3  C   UNL A   1      34.734  34.970  28.038  1.00  0.00     0.002 C 
BRANCH   3   4
ATOM      4  C   UNL A   1      33.822  35.941  28.805  1.00  0.00     0.021 C 
BRANCH   4   5
ATOM      5  C   UNL A   1      32.893  35.230  29.776  1.00  0.00     0.116 C 
BRANCH   5   6
ATOM      6  N   UNL A   1      32.499  36.139  30.848  1.00  0.00    -0.352 N 
ATOM      7  O   UNL A   1      32.076  36.547  33.038  1.00  0.00    -0.269 OA
ATOM      8  C   UNL A   1      32.761  36.001  32.185  1.00  0.00     0.251 C 
ATOM      9  H   UNL A   1      31.989  36.938  30.581  1.00  0.00     0.163 HD
BRANCH   8  10
ATOM     10  C   UNL A   1      33.925  35.182  32.545  1.00  0.00     0.039 A 
ATOM     11  C   UNL A   1      35.196  35.740  32.370  1.00  0.00     0.014 A 
ATOM     12  C   UNL A   1      33.760  33.872  32.985  1.00  0.00     0.014 A 
ATOM     13  C   UNL A   1      36.309  34.937  32.495  1.00  0.00     0.010 A 
ATOM     14  C   UNL A   1      34.894  33.104  33.244  1.00  0.00     0.010 A 
ATOM     15  C   UNL A   1      36.171  33.632  32.992  1.00  0.00    -0.014 A 
BRANCH  15  16
ATOM     16  C   UNL A   1      37.398  32.897  33.357  1.00  0.00     0.031 A 
ATOM     17  C   UNL A   1      38.100  33.143  34.655  1.00  0.00     0.074 A 
ATOM     18  C   UNL A   1      37.852  31.978  32.482  1.00  0.00     0.049 A 
ATOM     19  N   UNL A   1      39.190  32.582  35.112  1.00  0.00    -0.248 NA
ATOM     20  C   UNL A   1      37.516  34.151  35.553  1.00  0.00     0.031 C 
ATOM     21  C   UNL A   1      37.230  31.662  31.189  1.00  0.00     0.029 A 
ATOM     22  N   UNL A   1      38.919  31.126  32.551  1.00  0.00    -0.354 N 
ATOM     23  C   UNL A   1      39.439  33.185  36.336  1.00  0.00     0.074 A 
ATOM     24  C   UNL A   1      38.402  34.174  36.539  1.00  0.00     0.031 C 
ATOM     25  C   UNL A   1      37.887  30.644  30.621  1.00  0.00     0.029 A 
ATOM     26  C   UNL A   1      39.030  30.306  31.455  1.00  0.00     0.049 A 
ATOM     27  H   UNL A   1      39.545  31.102  33.310  1.00  0.00     0.167 HD
ATOM     28  C   UNL A   1      40.445  32.930  37.205  1.00  0.00     0.031 A 
ATOM     29  C   UNL A   1      39.971  29.404  31.134  1.00  0.00     0.031 A 
ATOM     30  C   UNL A   1      41.478  31.953  36.971  1.00  0.00     0.049 A 
ATOM     31  C   UNL A   1      41.107  29.195  32.085  1.00  0.00     0.074 A 
ATOM     32  C   UNL A   1      42.532  31.599  37.795  1.00  0.00     0.029 A 
ATOM     33  N   UNL A   1      41.593  31.181  35.822  1.00  0.00    -0.354 N 
ATOM     34  N   UNL A   1      41.318  29.750  33.254  1.00  0.00    -0.248 NA
ATOM     35  C   UNL A   1      42.138  28.237  31.672  1.00  0.00     0.031 C 
ATOM     36  C   UNL A   1      43.326  30.670  37.113  1.00  0.00     0.029 A 
ATOM     37  C   UNL A   1      42.721  30.381  35.899  1.00  0.00     0.049 A 
ATOM     38  H   UNL A   1      40.965  31.200  35.065  1.00  0.00     0.167 HD
ATOM     39  C   UNL A   1      42.493  29.190  33.731  1.00  0.00     0.074 A 
ATOM     40  C   UNL A   1      42.934  28.237  32.732  1.00  0.00     0.031 C 
ATOM     41  C   UNL A   1      43.149  29.445  34.889  1.00  0.00     0.031 A 
BRANCH  28  42
ATOM     42  C   UNL A   1      40.505  33.758  38.462  1.00  0.00    -0.014 A 
ATOM     43  C   UNL A   1      41.205  34.974  38.512  1.00  0.00     0.009 A 
ATOM     44  C   UNL A   1      39.826  33.322  39.611  1.00  0.00     0.009 A 
ATOM     45  C   UNL A   1      41.259  35.712  39.697  1.00  0.00     0.001 A 
ATOM     46  C   UNL A   1      39.852  34.080  40.783  1.00  0.00     0.001 A 
ATOM     47  C   UNL A   1      40.579  35.267  40.830  1.00  0.00     0.000 A 
ENDBRANCH  28  42
BRANCH  29  48
ATOM     48  C   UNL A   1      39.880  28.666  29.848  1.00  0.00    -0.014 A 
ATOM     49  C   UNL A   1      39.330  27.378  29.801  1.00  0.00     0.009 A 
ATOM     50  C   UNL A   1      40.324  29.260  28.655  1.00  0.00     0.009 A 
ATOM     51  C   UNL A   1      39.251  26.689  28.589  1.00  0.00     0.001 A 
ATOM     52  C   UNL A   1      40.209  28.584  27.440  1.00  0.00     0.001 A 
ATOM     53  C   UNL A   1      39.684  27.294  27.410  1.00  0.00     0.000 A 
ENDBRANCH  29  48
BRANCH  41  54
ATOM     54  C   UNL A   1      44.395  28.644  35.151  1.00  0.00    -0.014 A 
ATOM     55  C   UNL A   1      45.661  29.105  34.758  1.00  0.00     0.009 A 
ATOM     56  C   UNL A   1      44.297  27.416  35.824  1.00  0.00     0.009 A 
ATOM     57  C   UNL A   1      46.797  28.331  34.997  1.00  0.00     0.001 A 
ATOM     58  C   UNL A   1      45.439  26.665  36.096  1.00  0.00     0.001 A 
ATOM     59  C   UNL A   1      46.687  27.117  35.672  1.00  0.00     0.000 A 
ENDBRANCH  41  54
ENDBRANCH  15  16
ENDBRANCH   8  10
ENDBRANCH   5   6
ENDBRANCH   4   5
ENDBRANCH   3   4
ENDBRANCH   2   3
ENDBRANCH   1   2
BRANCH   1  60
ATOM     60  C   UNL A   1      34.962  30.363  27.486  1.00  0.00     0.116 C 
BRANCH  60  61
ATOM     61  N   UNL A   1      34.228  29.227  28.093  1.00  0.00    -0.354 N 
ATOM     62  C   UNL A   1      33.135  28.766  27.360  1.00  0.00     0.242 C 
ATOM     63  H   UNL A   1      34.493  28.827  28.954  1.00  0.00     0.163 HD
ATOM     64  O   UNL A   1      32.577  27.735  27.738  1.00  0.00    -0.273 OA
BRANCH  62  65
ATOM     65  C   UNL A   1      32.531  29.742  26.226  1.00  0.00     0.174 C 
ATOM     66  C   UNL A   1      31.651  30.747  26.985  1.00  0.00     0.037 C 
ATOM     67  N   UNL A   1      31.685  29.468  24.984  1.00  0.00    -0.329 N 
ATOM     68  C   UNL A   1      31.002  31.582  25.910  1.00  0.00     0.024 C 
ATOM     69  C   UNL A   1      30.838  30.637  24.741  1.00  0.00     0.120 C 
BRANCH  67  70
ATOM     70  C   UNL A   1      31.762  28.632  23.863  1.00  0.00     0.246 C 
ATOM     71  O   UNL A   1      30.897  28.754  22.973  1.00  0.00    -0.272 OA
BRANCH  70  72
ATOM     72  C   UNL A   1      32.688  27.356  23.682  1.00  0.00     0.178 C 
ATOM     73  C   UNL A   1      33.308  27.233  21.759  1.00  0.00     0.037 C 
ATOM     74  N   UNL A   1      32.069  25.613  24.173  1.00  0.00    -0.296 N 
ATOM     75  C   UNL A   1      32.768  25.413  21.086  1.00  0.00     0.024 C 
ATOM     76  C   UNL A   1      32.060  24.374  22.689  1.00  0.00     0.124 C 
BRANCH  74  77
ATOM     77  C   UNL A   1      31.732  25.310  25.458  1.00  0.00     0.410 C 
ATOM     78  O   UNL A   1      30.615  25.474  25.927  1.00  0.00    -0.224 OA
BRANCH  77  79
ATOM     79  O   UNL A   1      32.836  24.912  26.145  1.00  0.00    -0.448 OA
BRANCH  79  80
ATOM     80  C   UNL A   1      32.984  23.494  26.315  1.00  0.00     0.248 C 
BRANCH  80  81
ATOM     81  C   UNL A   1      33.844  22.797  25.234  1.00  0.00     0.088 C 
ATOM     82  C   UNL A   1      35.354  22.828  25.495  1.00  0.00    -0.029 A 
ATOM     83  C   UNL A   1      33.621  21.312  24.938  1.00  0.00    -0.029 A 
ATOM     84  C   UNL A   1      36.157  23.898  25.865  1.00  0.00     0.005 A 
ATOM     85  C   UNL A   1      35.919  21.564  25.226  1.00  0.00    -0.014 A 
ATOM     86  C   UNL A   1      34.860  20.632  24.908  1.00  0.00    -0.014 A 
ATOM     87  C   UNL A   1      32.445  20.620  24.697  1.00  0.00     0.005 A 
ATOM     88  C   UNL A   1      37.533  23.686  25.991  1.00  0.00     0.000 A 
ATOM     89  C   UNL A   1      37.288  21.363  25.318  1.00  0.00     0.009 A 
ATOM     90  C   UNL A   1      34.921  19.262  24.686  1.00  0.00     0.009 A 
ATOM     91  C   UNL A   1      32.499  19.233  24.529  1.00  0.00     0.000 A 
ATOM     92  C   UNL A   1      38.094  22.429  25.718  1.00  0.00     0.001 A 
ATOM     93  C   UNL A   1      33.727  18.559  24.525  1.00  0.00     0.001 A 
ENDBRANCH  80  81
ENDBRANCH  79  80
ENDBRANCH  77  79
ENDBRANCH  74  77
ENDBRANCH  70  72
ENDBRANCH  67  70
ENDBRANCH  62  65
ENDBRANCH  60  61
ENDBRANCH   1  60
TORSDOF 19
ENDMDL
MODEL 2
REMARK VINA RESULT:     -13.0      6.008     11.852
REMARK SMILES O=C(NCCCCCCNC(=O)[C@@H]1CCCN1C(=O)[C@@H]1CCCN1C(=O)OCC1c2ccccc2-c2ccccc21)c1ccc(-c2c3nc(c(-c4ccccc4)c4ccc([nH]4)c(-c4ccccc4)c4nc(c(-c5ccccc5)c5ccc2[nH]5)C=C4)C=C3)cc1
REMARK SMILES IDX 8 1 7 2 6 3 5 4 4 5 3 6 1 7 2 8 42 10 43 11 89 12 44 13
REMARK SMILES IDX 88 14 45 15 46 16 47 17 82 18 48 19 87 20 81 21 83 22 49 23
REMARK SMILES IDX 86 24 80 25 79 26 50 28 72 29 57 30 71 31 58 32 61 33 70 34
REMARK SMILES IDX 84 35 59 36 60 37 69 39 85 40 62 41 51 42 52 43 56 44 53 45
REMARK SMILES IDX 55 46 54 47 73 48 74 49 78 50 75 51 77 52 76 53 63 54 64 55
REMARK SMILES IDX 68 56 65 57 67 58 66 59 9 60 10 61 11 62 12 64 13 65 14 66
REMARK SMILES IDX 17 67 15 68 16 69 18 70 19 71 20 72 21 73 24 74 22 75 23 76
REMARK SMILES IDX 25 77 26 78 27 79 28 80 29 81 30 82 41 83 31 84 35 85 36 86
REMARK SMILES IDX 40 87 32 88 34 89 37 90 39 91 33 92 38 93
REMARK H PARENT 3 9 83 27 61 38 10 63
REMARK Flexibility Score: inf
ROOT
ATOM      1  C   UNL A   1      41.113  22.678  26.821  1.00  0.00     0.021 C 
ENDROOT
BRANCH   1   2
ATOM      2  C   UNL A   1      42.041  21.438  27.510  1.00  0.00     0.002 C 
BRANCH   2   3
ATOM      3  C   UNL A   1      41.408  20.033  27.484  1.00  0.00     0.002 C 
BRANCH   3   4
ATOM      4  C   UNL A   1      42.140  19.039  26.567  1.00  0.00     0.021 C 
BRANCH   4   5
ATOM      5  C   UNL A   1      42.640  19.684  25.283  1.00  0.00     0.116 C 
BRANCH   5   6
ATOM      6  N   UNL A   1      43.911  19.085  24.885  1.00  0.00    -0.352 N 
ATOM      7  O   UNL A   1      45.862  19.175  23.735  1.00  0.00    -0.269 OA
ATOM      8  C   UNL A   1      45.019  19.739  24.418  1.00  0.00     0.251 C 
ATOM      9  H   UNL A   1      43.977  18.106  24.960  1.00  0.00     0.163 HD
BRANCH   8  10
ATOM     10  C   UNL A   1      45.159  21.150  24.798  1.00  0.00     0.039 A 
ATOM     11  C   UNL A   1      45.550  21.438  26.109  1.00  0.00     0.014 A 
ATOM     12  C   UNL A   1      44.848  22.161  23.893  1.00  0.00     0.014 A 
ATOM     13  C   UNL A   1      45.490  22.738  26.563  1.00  0.00     0.010 A 
ATOM     14  C   UNL A   1      44.922  23.487  24.318  1.00  0.00     0.010 A 
ATOM     15  C   UNL A   1      45.235  23.778  25.656  1.00  0.00    -0.014 A 
BRANCH  15  16
ATOM     16  C   UNL A   1      45.433  25.165  26.120  1.00  0.00     0.031 A 
ATOM     17  C   UNL A   1      46.774  25.826  26.056  1.00  0.00     0.074 A 
ATOM     18  C   UNL A   1      44.353  25.822  26.587  1.00  0.00     0.049 A 
ATOM     19  N   UNL A   1      47.106  27.034  26.432  1.00  0.00    -0.248 NA
ATOM     20  C   UNL A   1      47.888  25.034  25.512  1.00  0.00     0.031 C 
ATOM     21  C   UNL A   1      42.999  25.261  26.683  1.00  0.00     0.029 A 
ATOM     22  N   UNL A   1      44.212  27.103  27.042  1.00  0.00    -0.354 N 
ATOM     23  C   UNL A   1      48.469  27.140  26.197  1.00  0.00     0.074 A 
ATOM     24  C   UNL A   1      48.908  25.866  25.671  1.00  0.00     0.031 C 
ATOM     25  C   UNL A   1      42.157  26.212  27.103  1.00  0.00     0.029 A 
ATOM     26  C   UNL A   1      42.923  27.411  27.402  1.00  0.00     0.049 A 
ATOM     27  H   UNL A   1      44.959  27.741  27.105  1.00  0.00     0.167 HD
ATOM     28  C   UNL A   1      49.273  28.210  26.405  1.00  0.00     0.031 A 
ATOM     29  C   UNL A   1      42.415  28.527  27.950  1.00  0.00     0.031 A 
ATOM     30  C   UNL A   1      48.816  29.463  26.949  1.00  0.00     0.049 A 
ATOM     31  C   UNL A   1      43.344  29.666  28.231  1.00  0.00     0.074 A 
ATOM     32  C   UNL A   1      49.542  30.618  27.181  1.00  0.00     0.029 A 
ATOM     33  N   UNL A   1      47.514  29.721  27.359  1.00  0.00    -0.354 N 
ATOM     34  N   UNL A   1      44.627  29.767  27.978  1.00  0.00    -0.248 NA
ATOM     35  C   UNL A   1      42.757  30.845  28.876  1.00  0.00     0.031 C 
ATOM     36  C   UNL A   1      48.697  31.547  27.799  1.00  0.00     0.029 A 
ATOM     37  C   UNL A   1      47.424  31.003  27.876  1.00  0.00     0.049 A 
ATOM     38  H   UNL A   1      46.765  29.086  27.290  1.00  0.00     0.167 HD
ATOM     39  C   UNL A   1      44.998  31.031  28.409  1.00  0.00     0.074 A 
ATOM     40  C   UNL A   1      43.798  31.665  28.918  1.00  0.00     0.031 C 
ATOM     41  C   UNL A   1      46.222  31.613  28.387  1.00  0.00     0.031 A 
BRANCH  28  42
ATOM     42  C   UNL A   1      50.738  28.049  26.093  1.00  0.00    -0.014 A 
ATOM     43  C   UNL A   1      51.643  27.547  27.040  1.00  0.00     0.009 A 
ATOM     44  C   UNL A   1      51.214  28.386  24.815  1.00  0.00     0.009 A 
ATOM     45  C   UNL A   1      53.001  27.426  26.728  1.00  0.00     0.001 A 
ATOM     46  C   UNL A   1      52.564  28.230  24.495  1.00  0.00     0.001 A 
ATOM     47  C   UNL A   1      53.458  27.763  25.455  1.00  0.00     0.000 A 
ENDBRANCH  28  42
BRANCH  29  48
ATOM     48  C   UNL A   1      40.971  28.593  28.288  1.00  0.00    -0.014 A 
ATOM     49  C   UNL A   1      40.044  29.100  27.368  1.00  0.00     0.009 A 
ATOM     50  C   UNL A   1      40.509  28.125  29.530  1.00  0.00     0.009 A 
ATOM     51  C   UNL A   1      38.688  29.163  27.694  1.00  0.00     0.001 A 
ATOM     52  C   UNL A   1      39.148  28.154  29.838  1.00  0.00     0.001 A 
ATOM     53  C   UNL A   1      38.240  28.685  28.925  1.00  0.00     0.000 A 
ENDBRANCH  29  48
BRANCH  41  54
ATOM     54  C   UNL A   1      46.308  33.026  28.896  1.00  0.00    -0.014 A 
ATOM     55  C   UNL A   1      46.602  33.307  30.239  1.00  0.00     0.009 A 
ATOM     56  C   UNL A   1      46.113  34.093  28.005  1.00  0.00     0.009 A 
ATOM     57  C   UNL A   1      46.656  34.627  30.687  1.00  0.00     0.001 A 
ATOM     58  C   UNL A   1      46.207  35.411  28.447  1.00  0.00     0.001 A 
ATOM     59  C   UNL A   1      46.466  35.678  29.791  1.00  0.00     0.000 A 
ENDBRANCH  41  54
ENDBRANCH  15  16
ENDBRANCH   8  10
ENDBRANCH   5   6
ENDBRANCH   4   5
ENDBRANCH   3   4
ENDBRANCH   2   3
ENDBRANCH   1   2
BRANCH   1  60
ATOM     60  C   UNL A   1      39.003  23.028  26.347  1.00  0.00     0.116 C 
BRANCH  60  61
ATOM     61  N   UNL A   1      38.113  23.983  25.644  1.00  0.00    -0.354 N 
ATOM     62  C   UNL A   1      36.792  23.564  25.492  1.00  0.00     0.242 C 
ATOM     63  H   UNL A   1      38.433  24.853  25.308  1.00  0.00     0.163 HD
ATOM     64  O   UNL A   1      35.974  24.371  25.050  1.00  0.00    -0.273 OA
BRANCH  62  65
ATOM     65  C   UNL A   1      36.484  21.990  25.669  1.00  0.00     0.174 C 
ATOM     66  C   UNL A   1      37.287  21.293  24.560  1.00  0.00     0.037 C 
ATOM     67  N   UNL A   1      35.180  21.193  25.653  1.00  0.00    -0.329 N 
ATOM     68  C   UNL A   1      36.905  19.838  24.662  1.00  0.00     0.024 C 
ATOM     69  C   UNL A   1      35.470  19.854  25.139  1.00  0.00     0.120 C 
BRANCH  67  70
ATOM     70  C   UNL A   1      33.943  21.250  26.307  1.00  0.00     0.246 C 
ATOM     71  O   UNL A   1      33.922  21.110  27.545  1.00  0.00    -0.272 OA
BRANCH  70  72
ATOM     72  C   UNL A   1      32.504  21.232  25.637  1.00  0.00     0.178 C 
ATOM     73  C   UNL A   1      32.638  20.497  23.757  1.00  0.00     0.037 C 
ATOM     74  N   UNL A   1      31.449  22.825  25.532  1.00  0.00    -0.296 N 
ATOM     75  C   UNL A   1      31.841  21.881  22.530  1.00  0.00     0.024 C 
ATOM     76  C   UNL A   1      31.008  23.314  23.714  1.00  0.00     0.124 C 
BRANCH  74  77
ATOM     77  C   UNL A   1      31.030  23.481  26.651  1.00  0.00     0.410 C 
ATOM     78  O   UNL A   1      30.193  23.042  27.426  1.00  0.00    -0.224 OA
BRANCH  77  79
ATOM     79  O   UNL A   1      31.599  24.715  26.705  1.00  0.00    -0.448 OA
BRANCH  79  80
ATOM     80  C   UNL A   1      30.764  25.803  26.278  1.00  0.00     0.248 C 
BRANCH  80  81
ATOM     81  C   UNL A   1      31.456  26.823  25.342  1.00  0.00     0.088 C 
ATOM     82  C   UNL A   1      30.501  27.655  24.479  1.00  0.00    -0.029 A 
ATOM     83  C   UNL A   1      32.344  27.915  25.945  1.00  0.00    -0.029 A 
ATOM     84  C   UNL A   1      29.424  27.234  23.710  1.00  0.00     0.005 A 
ATOM     85  C   UNL A   1      30.901  29.007  24.478  1.00  0.00    -0.014 A 
ATOM     86  C   UNL A   1      32.012  29.172  25.389  1.00  0.00    -0.014 A 
ATOM     87  C   UNL A   1      33.362  27.817  26.880  1.00  0.00     0.005 A 
ATOM     88  C   UNL A   1      28.730  28.187  22.959  1.00  0.00     0.000 A 
ATOM     89  C   UNL A   1      30.234  29.945  23.705  1.00  0.00     0.009 A 
ATOM     90  C   UNL A   1      32.660  30.330  25.798  1.00  0.00     0.009 A 
ATOM     91  C   UNL A   1      33.977  28.988  27.333  1.00  0.00     0.000 A 
ATOM     92  C   UNL A   1      29.133  29.531  22.954  1.00  0.00     0.001 A 
ATOM     93  C   UNL A   1      33.628  30.235  26.799  1.00  0.00     0.001 A 
ENDBRANCH  80  81
ENDBRANCH  79  80
ENDBRANCH  77  79
ENDBRANCH  74  77
ENDBRANCH  70  72
ENDBRANCH  67  70
ENDBRANCH  62  65
ENDBRANCH  60  61
ENDBRANCH   1  60
TORSDOF 19
ENDMDL
MODEL 3
REMARK VINA RESULT:     -12.5      2.100      3.319
REMARK SMILES O=C(NCCCCCCNC(=O)[C@@H]1CCCN1C(=O)[C@@H]1CCCN1C(=O)OCC1c2ccccc2-c2ccccc21)c1ccc(-c2c3nc(c(-c4ccccc4)c4ccc([nH]4)c(-c4ccccc4)c4nc(c(-c5ccccc5)c5ccc2[nH]5)C=C4)C=C3)cc1
REMARK SMILES IDX 8 1 7 2 6 3 5 4 4 5 3 6 1 7 2 8 42 10 43 11 89 12 44 13
REMARK SMILES IDX 88 14 45 15 46 16 47 17 82 18 48 19 87 20 81 21 83 22 49 23
REMARK SMILES IDX 86 24 80 25 79 26 50 28 72 29 57 30 71 31 58 32 61 33 70 34
REMARK SMILES IDX 84 35 59 36 60 37 69 39 85 40 62 41 51 42 52 43 56 44 53 45
REMARK SMILES IDX 55 46 54 47 73 48 74 49 78 50 75 51 77 52 76 53 63 54 64 55
REMARK SMILES IDX 68 56 65 57 67 58 66 59 9 60 10 61 11 62 12 64 13 65 14 66
REMARK SMILES IDX 17 67 15 68 16 69 18 70 19 71 20 72 21 73 24 74 22 75 23 76
REMARK SMILES IDX 25 77 26 78 27 79 28 80 29 81 30 82 41 83 31 84 35 85 36 86
REMARK SMILES IDX 40 87 32 88 34 89 37 90 39 91 33 92 38 93
REMARK H PARENT 3 9 83 27 61 38 10 63
REMARK Flexibility Score: inf
ROOT
ATOM      1  C   UNL A   1      31.560  31.050  26.523  1.00  0.00     0.021 C 
ENDROOT
BRANCH   1   2
ATOM      2  C   UNL A   1      32.546  31.987  27.534  1.00  0.00     0.002 C 
BRANCH   2   3
ATOM      3  C   UNL A   1      32.335  33.513  27.450  1.00  0.00     0.002 C 
BRANCH   3   4
ATOM      4  C   UNL A   1      33.481  34.333  28.065  1.00  0.00     0.021 C 
BRANCH   4   5
ATOM      5  C   UNL A   1      34.049  33.695  29.323  1.00  0.00     0.116 C 
BRANCH   5   6
ATOM      6  N   UNL A   1      33.757  34.532  30.483  1.00  0.00    -0.352 N 
ATOM      7  O   UNL A   1      33.566  34.803  32.726  1.00  0.00    -0.269 OA
ATOM      8  C   UNL A   1      34.165  34.325  31.773  1.00  0.00     0.251 C 
ATOM      9  H   UNL A   1      33.205  35.331  30.320  1.00  0.00     0.163 HD
BRANCH   8  10
ATOM     10  C   UNL A   1      35.377  33.516  31.958  1.00  0.00     0.039 A 
ATOM     11  C   UNL A   1      36.584  34.030  31.474  1.00  0.00     0.014 A 
ATOM     12  C   UNL A   1      35.304  32.253  32.538  1.00  0.00     0.014 A 
ATOM     13  C   UNL A   1      37.698  33.219  31.439  1.00  0.00     0.010 A 
ATOM     14  C   UNL A   1      36.465  31.488  32.625  1.00  0.00     0.010 A 
ATOM     15  C   UNL A   1      37.664  31.966  32.068  1.00  0.00    -0.014 A 
BRANCH  15  16
ATOM     16  C   UNL A   1      38.938  31.240  32.236  1.00  0.00     0.031 A 
ATOM     17  C   UNL A   1      39.856  31.528  33.382  1.00  0.00     0.074 A 
ATOM     18  C   UNL A   1      39.235  30.291  31.327  1.00  0.00     0.049 A 
ATOM     19  N   UNL A   1      41.012  30.980  33.658  1.00  0.00    -0.248 NA
ATOM     20  C   UNL A   1      39.436  32.568  34.334  1.00  0.00     0.031 C 
ATOM     21  C   UNL A   1      38.396  29.933  30.175  1.00  0.00     0.029 A 
ATOM     22  N   UNL A   1      40.299  29.439  31.236  1.00  0.00    -0.354 N 
ATOM     23  C   UNL A   1      41.470  31.624  34.799  1.00  0.00     0.074 A 
ATOM     24  C   UNL A   1      40.482  32.622  35.147  1.00  0.00     0.031 C 
ATOM     25  C   UNL A   1      38.946  28.895  29.535  1.00  0.00     0.029 A 
ATOM     26  C   UNL A   1      40.219  28.582  30.166  1.00  0.00     0.049 A 
ATOM     27  H   UNL A   1      41.049  29.438  31.874  1.00  0.00     0.167 HD
ATOM     28  C   UNL A   1      42.614  31.396  35.486  1.00  0.00     0.031 A 
ATOM     29  C   UNL A   1      41.092  27.667  29.715  1.00  0.00     0.031 A 
ATOM     30  C   UNL A   1      43.593  30.409  35.107  1.00  0.00     0.049 A 
ATOM     31  C   UNL A   1      42.379  27.487  30.458  1.00  0.00     0.074 A 
ATOM     32  C   UNL A   1      44.777  30.080  35.744  1.00  0.00     0.029 A 
ATOM     33  N   UNL A   1      43.507  29.598  33.982  1.00  0.00    -0.354 N 
ATOM     34  N   UNL A   1      42.790  28.081  31.552  1.00  0.00    -0.248 NA
ATOM     35  C   UNL A   1      43.324  26.513  29.903  1.00  0.00     0.031 C 
ATOM     36  C   UNL A   1      45.441  29.126  34.965  1.00  0.00     0.029 A 
ATOM     37  C   UNL A   1      44.634  28.798  33.887  1.00  0.00     0.049 A 
ATOM     38  H   UNL A   1      42.755  29.593  33.347  1.00  0.00     0.167 HD
ATOM     39  C   UNL A   1      44.032  27.535  31.833  1.00  0.00     0.074 A 
ATOM     40  C   UNL A   1      44.294  26.547  30.805  1.00  0.00     0.031 C 
ATOM     41  C   UNL A   1      44.881  27.827  32.849  1.00  0.00     0.031 A 
BRANCH  28  42
ATOM     42  C   UNL A   1      42.891  32.266  36.683  1.00  0.00    -0.014 A 
ATOM     43  C   UNL A   1      43.537  33.506  36.561  1.00  0.00     0.009 A 
ATOM     44  C   UNL A   1      42.475  31.843  37.957  1.00  0.00     0.009 A 
ATOM     45  C   UNL A   1      43.797  34.285  37.692  1.00  0.00     0.001 A 
ATOM     46  C   UNL A   1      42.705  32.639  39.080  1.00  0.00     0.001 A 
ATOM     47  C   UNL A   1      43.377  33.853  38.949  1.00  0.00     0.000 A 
ENDBRANCH  28  42
BRANCH  29  48
ATOM     48  C   UNL A   1      40.779  26.886  28.491  1.00  0.00    -0.014 A 
ATOM     49  C   UNL A   1      41.285  27.279  27.245  1.00  0.00     0.009 A 
ATOM     50  C   UNL A   1      39.989  25.727  28.569  1.00  0.00     0.009 A 
ATOM     51  C   UNL A   1      40.982  26.543  26.097  1.00  0.00     0.001 A 
ATOM     52  C   UNL A   1      39.721  24.972  27.427  1.00  0.00     0.001 A 
ATOM     53  C   UNL A   1      40.207  25.388  26.190  1.00  0.00     0.000 A 
ENDBRANCH  29  48
BRANCH  41  54
ATOM     54  C   UNL A   1      46.156  27.032  32.915  1.00  0.00    -0.014 A 
ATOM     55  C   UNL A   1      46.230  25.817  33.613  1.00  0.00     0.009 A 
ATOM     56  C   UNL A   1      47.296  27.501  32.242  1.00  0.00     0.009 A 
ATOM     57  C   UNL A   1      47.432  25.111  33.673  1.00  0.00     0.001 A 
ATOM     58  C   UNL A   1      48.484  26.772  32.270  1.00  0.00     0.001 A 
ATOM     59  C   UNL A   1      48.555  25.584  32.996  1.00  0.00     0.000 A 
ENDBRANCH  41  54
ENDBRANCH  15  16
ENDBRANCH   8  10
ENDBRANCH   5   6
ENDBRANCH   4   5
ENDBRANCH   3   4
ENDBRANCH   2   3
ENDBRANCH   1   2
BRANCH   1  60
ATOM     60  C   UNL A   1      31.825  29.755  24.776  1.00  0.00     0.116 C 
BRANCH  60  61
ATOM     61  N   UNL A   1      32.863  29.278  23.830  1.00  0.00    -0.354 N 
ATOM     62  C   UNL A   1      32.406  28.985  22.546  1.00  0.00     0.242 C 
ATOM     63  H   UNL A   1      33.807  29.174  24.092  1.00  0.00     0.163 HD
ATOM     64  O   UNL A   1      33.242  28.727  21.678  1.00  0.00    -0.273 OA
BRANCH  62  65
ATOM     65  C   UNL A   1      30.820  28.764  22.349  1.00  0.00     0.174 C 
ATOM     66  C   UNL A   1      30.220  30.176  22.284  1.00  0.00     0.037 C 
ATOM     67  N   UNL A   1      29.778  28.024  23.187  1.00  0.00    -0.329 N 
ATOM     68  C   UNL A   1      28.729  29.960  22.215  1.00  0.00     0.024 C 
ATOM     69  C   UNL A   1      28.490  28.697  23.012  1.00  0.00     0.120 C 
BRANCH  67  70
ATOM     70  C   UNL A   1      29.632  26.742  23.733  1.00  0.00     0.246 C 
ATOM     71  O   UNL A   1      28.483  26.346  24.011  1.00  0.00    -0.272 OA
BRANCH  70  72
ATOM     72  C   UNL A   1      30.784  25.797  24.277  1.00  0.00     0.178 C 
ATOM     73  C   UNL A   1      31.177  26.248  26.210  1.00  0.00     0.037 C 
ATOM     74  N   UNL A   1      32.473  25.689  23.383  1.00  0.00    -0.296 N 
ATOM     75  C   UNL A   1      33.146  26.659  26.326  1.00  0.00     0.024 C 
ATOM     76  C   UNL A   1      33.955  26.199  24.514  1.00  0.00     0.124 C 
BRANCH  74  77
ATOM     77  C   UNL A   1      32.574  25.241  22.100  1.00  0.00     0.410 C 
ATOM     78  O   UNL A   1      31.854  25.619  21.187  1.00  0.00    -0.224 OA
BRANCH  77  79
ATOM     79  O   UNL A   1      33.506  24.254  22.026  1.00  0.00    -0.448 OA
BRANCH  79  80
ATOM     80  C   UNL A   1      33.013  22.918  22.216  1.00  0.00     0.248 C 
BRANCH  80  81
ATOM     81  C   UNL A   1      33.449  22.248  23.541  1.00  0.00     0.088 C 
ATOM     82  C   UNL A   1      34.813  22.701  24.072  1.00  0.00    -0.029 A 
ATOM     83  C   UNL A   1      32.574  22.407  24.787  1.00  0.00    -0.029 A 
ATOM     84  C   UNL A   1      36.019  22.826  23.395  1.00  0.00     0.005 A 
ATOM     85  C   UNL A   1      34.741  22.929  25.462  1.00  0.00    -0.014 A 
ATOM     86  C   UNL A   1      33.371  22.772  25.896  1.00  0.00    -0.014 A 
ATOM     87  C   UNL A   1      31.208  22.230  24.943  1.00  0.00     0.005 A 
ATOM     88  C   UNL A   1      37.151  23.210  24.119  1.00  0.00     0.000 A 
ATOM     89  C   UNL A   1      35.872  23.276  26.185  1.00  0.00     0.009 A 
ATOM     90  C   UNL A   1      32.803  23.005  27.142  1.00  0.00     0.009 A 
ATOM     91  C   UNL A   1      30.627  22.517  26.181  1.00  0.00     0.000 A 
ATOM     92  C   UNL A   1      37.080  23.431  25.502  1.00  0.00     0.001 A 
ATOM     93  C   UNL A   1      31.417  22.903  27.272  1.00  0.00     0.001 A 
ENDBRANCH  80  81
ENDBRANCH  79  80
ENDBRANCH  77  79
ENDBRANCH  74  77
ENDBRANCH  70  72
ENDBRANCH  67  70
ENDBRANCH  62  65
ENDBRANCH  60  61
ENDBRANCH   1  60
TORSDOF 19
ENDMDL
