MODEL 1
REMARK VINA RESULT:      -8.1      0.000      0.000
REMARK SMILES CC(C)(O)CC[C@@H](C(=O)NCCCCCCNC(=O)c1ccc(-c2c3nc(c(-c4ccccc4)c4ccc([nH]4)c(-c4ccccc4)c4nc(c(-c5ccccc5)c5ccc2[nH]5)C=C4)C=C3)cc1)[C@@H]1CCS(=O)(=O)C1
REMARK SMILES IDX 12 1 11 2 10 3 8 4 9 5 7 7 6 8 5 9 2 10 1 11 3 12 4 13 68 15
REMARK SMILES IDX 69 16 74 17 70 18 71 19 72 20 73 21 13 22 14 23 15 24 16 25
REMARK SMILES IDX 17 26 18 27 19 29 20 30 21 31 67 32 22 33 66 34 23 35 24 36
REMARK SMILES IDX 25 37 60 38 26 39 65 40 59 41 61 42 27 43 64 44 58 45 57 46
REMARK SMILES IDX 28 48 50 49 35 50 49 51 36 52 39 53 48 54 62 55 37 56 38 57
REMARK SMILES IDX 47 59 63 60 40 61 29 62 30 63 34 64 31 65 33 66 32 67 51 68
REMARK SMILES IDX 52 69 56 70 53 71 55 72 54 73 41 74 42 75 46 76 43 77 45 78
REMARK SMILES IDX 44 79
REMARK H PARENT 10 6 4 14 17 28 61 47 39 58
REMARK Flexibility Score: inf
ROOT
ATOM      1  C   UNL A   1      35.533  35.039  32.608  1.00  0.00     0.021 C 
ENDROOT
BRANCH   1   2
ATOM      2  C   UNL A   1      36.331  34.393  33.742  1.00  0.00     0.116 C 
BRANCH   2   3
ATOM      3  N   UNL A   1      36.355  32.966  33.575  1.00  0.00    -0.356 N 
ATOM      4  C   UNL A   1      37.294  32.032  33.832  1.00  0.00     0.223 C 
ATOM      5  O   UNL A   1      37.000  30.900  33.454  1.00  0.00    -0.275 OA
ATOM      6  H   UNL A   1      35.524  32.598  33.198  1.00  0.00     0.163 HD
BRANCH   4   7
ATOM      7  C   UNL A   1      38.585  32.300  34.624  1.00  0.00     0.082 C 
BRANCH   7   8
ATOM      8  C   UNL A   1      39.814  31.421  34.262  1.00  0.00     0.017 C 
BRANCH   8   9
ATOM      9  C   UNL A   1      39.782  29.888  34.342  1.00  0.00     0.035 C 
BRANCH   9  10
ATOM     10  C   UNL A   1      40.123  29.003  33.114  1.00  0.00     0.059 C 
ATOM     11  C   UNL A   1      39.007  28.155  32.506  1.00  0.00     0.042 C 
ATOM     12  C   UNL A   1      41.306  28.092  33.487  1.00  0.00     0.042 C 
BRANCH  10  13
ATOM     13  O   UNL A   1      40.566  29.886  32.076  1.00  0.00    -0.390 OA
ATOM     14  H   UNL A   1      39.847  30.494  31.840  1.00  0.00     0.211 HD
ENDBRANCH  10  13
ENDBRANCH   9  10
ENDBRANCH   8   9
ENDBRANCH   7   8
BRANCH   7  15
ATOM     15  C   UNL A   1      38.328  32.125  36.179  1.00  0.00     0.017 C 
ATOM     16  C   UNL A   1      37.471  33.208  36.885  1.00  0.00     0.021 C 
ATOM     17  C   UNL A   1      39.586  31.876  37.033  1.00  0.00     0.141 C 
ATOM     18  C   UNL A   1      38.357  34.175  37.662  1.00  0.00     0.137 C 
ATOM     19  S   UNL A   1      39.723  33.194  38.235  1.00  0.00     0.150 S 
ATOM     20  O   UNL A   1      40.970  33.898  38.044  1.00  0.00    -0.229 OA
ATOM     21  O   UNL A   1      39.355  32.649  39.532  1.00  0.00    -0.229 OA
ENDBRANCH   7  15
ENDBRANCH   4   7
ENDBRANCH   2   3
ENDBRANCH   1   2
BRANCH   1  22
ATOM     22  C   UNL A   1      34.266  35.739  33.097  1.00  0.00     0.002 C 
BRANCH  22  23
ATOM     23  C   UNL A   1      33.103  35.691  32.098  1.00  0.00     0.002 C 
BRANCH  23  24
ATOM     24  C   UNL A   1      33.069  36.840  31.085  1.00  0.00     0.021 C 
BRANCH  24  25
ATOM     25  C   UNL A   1      33.626  36.484  29.711  1.00  0.00     0.116 C 
BRANCH  25  26
ATOM     26  N   UNL A   1      32.780  35.521  29.024  1.00  0.00    -0.352 N 
ATOM     27  C   UNL A   1      33.107  34.315  28.464  1.00  0.00     0.251 C 
ATOM     28  H   UNL A   1      31.831  35.774  28.953  1.00  0.00     0.163 HD
ATOM     29  O   UNL A   1      32.326  33.757  27.700  1.00  0.00    -0.269 OA
BRANCH  27  30
ATOM     30  C   UNL A   1      34.406  33.688  28.778  1.00  0.00     0.039 A 
ATOM     31  C   UNL A   1      35.512  33.979  27.977  1.00  0.00     0.014 A 
ATOM     32  C   UNL A   1      34.523  32.790  29.843  1.00  0.00     0.014 A 
ATOM     33  C   UNL A   1      36.747  33.402  28.271  1.00  0.00     0.010 A 
ATOM     34  C   UNL A   1      35.771  32.278  30.181  1.00  0.00     0.010 A 
ATOM     35  C   UNL A   1      36.892  32.567  29.391  1.00  0.00    -0.014 A 
BRANCH  35  36
ATOM     36  C   UNL A   1      38.205  31.973  29.743  1.00  0.00     0.031 A 
ATOM     37  C   UNL A   1      39.187  32.753  30.572  1.00  0.00     0.074 A 
ATOM     38  C   UNL A   1      38.534  30.756  29.268  1.00  0.00     0.049 A 
ATOM     39  N   UNL A   1      40.404  32.430  30.932  1.00  0.00    -0.248 NA
ATOM     40  C   UNL A   1      38.756  34.082  31.038  1.00  0.00     0.031 C 
ATOM     41  C   UNL A   1      37.681  29.914  28.427  1.00  0.00     0.029 A 
ATOM     42  N   UNL A   1      39.681  30.019  29.422  1.00  0.00    -0.354 N 
ATOM     43  C   UNL A   1      40.886  33.518  31.648  1.00  0.00     0.074 A 
ATOM     44  C   UNL A   1      39.854  34.531  31.627  1.00  0.00     0.031 C 
ATOM     45  C   UNL A   1      38.322  28.764  28.164  1.00  0.00     0.029 A 
ATOM     46  C   UNL A   1      39.646  28.806  28.777  1.00  0.00     0.049 A 
ATOM     47  H   UNL A   1      40.455  30.329  29.945  1.00  0.00     0.167 HD
ATOM     48  C   UNL A   1      42.074  33.656  32.285  1.00  0.00     0.031 A 
ATOM     49  C   UNL A   1      40.579  27.841  28.683  1.00  0.00     0.031 A 
ATOM     50  C   UNL A   1      43.096  32.643  32.311  1.00  0.00     0.049 A 
ATOM     51  C   UNL A   1      41.900  28.028  29.377  1.00  0.00     0.074 A 
ATOM     52  C   UNL A   1      44.313  32.665  32.969  1.00  0.00     0.029 A 
ATOM     53  N   UNL A   1      43.021  31.430  31.645  1.00  0.00    -0.354 N 
ATOM     54  N   UNL A   1      42.315  29.036  30.106  1.00  0.00    -0.248 NA
ATOM     55  C   UNL A   1      42.876  26.937  29.245  1.00  0.00     0.031 C 
ATOM     56  C   UNL A   1      45.000  31.488  32.655  1.00  0.00     0.029 A 
ATOM     57  C   UNL A   1      44.182  30.705  31.856  1.00  0.00     0.049 A 
ATOM     58  H   UNL A   1      42.256  31.128  31.104  1.00  0.00     0.167 HD
ATOM     59  C   UNL A   1      43.586  28.687  30.546  1.00  0.00     0.074 A 
ATOM     60  C   UNL A   1      43.866  27.369  30.014  1.00  0.00     0.031 C 
ATOM     61  C   UNL A   1      44.444  29.394  31.322  1.00  0.00     0.031 A 
BRANCH  48  62
ATOM     62  C   UNL A   1      42.334  34.955  32.996  1.00  0.00    -0.014 A 
ATOM     63  C   UNL A   1      43.111  35.967  32.406  1.00  0.00     0.009 A 
ATOM     64  C   UNL A   1      41.765  35.187  34.258  1.00  0.00     0.009 A 
ATOM     65  C   UNL A   1      43.343  37.166  33.084  1.00  0.00     0.001 A 
ATOM     66  C   UNL A   1      41.973  36.400  34.918  1.00  0.00     0.001 A 
ATOM     67  C   UNL A   1      42.769  37.384  34.335  1.00  0.00     0.000 A 
ENDBRANCH  48  62
BRANCH  49  68
ATOM     68  C   UNL A   1      40.297  26.602  27.910  1.00  0.00    -0.014 A 
ATOM     69  C   UNL A   1      39.637  25.520  28.512  1.00  0.00     0.009 A 
ATOM     70  C   UNL A   1      40.699  26.490  26.570  1.00  0.00     0.009 A 
ATOM     71  C   UNL A   1      39.413  24.340  27.798  1.00  0.00     0.001 A 
ATOM     72  C   UNL A   1      40.446  25.321  25.849  1.00  0.00     0.001 A 
ATOM     73  C   UNL A   1      39.813  24.243  26.466  1.00  0.00     0.000 A 
ENDBRANCH  49  68
BRANCH  61  74
ATOM     74  C   UNL A   1      45.748  28.738  31.680  1.00  0.00    -0.014 A 
ATOM     75  C   UNL A   1      46.900  28.920  30.898  1.00  0.00     0.009 A 
ATOM     76  C   UNL A   1      45.834  27.960  32.846  1.00  0.00     0.009 A 
ATOM     77  C   UNL A   1      48.101  28.307  31.259  1.00  0.00     0.001 A 
ATOM     78  C   UNL A   1      47.043  27.376  33.222  1.00  0.00     0.001 A 
ATOM     79  C   UNL A   1      48.173  27.542  32.423  1.00  0.00     0.000 A 
ENDBRANCH  61  74
ENDBRANCH  35  36
ENDBRANCH  27  30
ENDBRANCH  25  26
ENDBRANCH  24  25
ENDBRANCH  23  24
ENDBRANCH  22  23
ENDBRANCH   1  22
TORSDOF 18
ENDMDL
MODEL 2
REMARK VINA RESULT:      -8.1      5.906     11.494
REMARK SMILES CC(C)(O)CC[C@@H](C(=O)NCCCCCCNC(=O)c1ccc(-c2c3nc(c(-c4ccccc4)c4ccc([nH]4)c(-c4ccccc4)c4nc(c(-c5ccccc5)c5ccc2[nH]5)C=C4)C=C3)cc1)[C@@H]1CCS(=O)(=O)C1
REMARK SMILES IDX 12 1 11 2 10 3 8 4 9 5 7 7 6 8 5 9 2 10 1 11 3 12 4 13 68 15
REMARK SMILES IDX 69 16 74 17 70 18 71 19 72 20 73 21 13 22 14 23 15 24 16 25
REMARK SMILES IDX 17 26 18 27 19 29 20 30 21 31 67 32 22 33 66 34 23 35 24 36
REMARK SMILES IDX 25 37 60 38 26 39 65 40 59 41 61 42 27 43 64 44 58 45 57 46
REMARK SMILES IDX 28 48 50 49 35 50 49 51 36 52 39 53 48 54 62 55 37 56 38 57
REMARK SMILES IDX 47 59 63 60 40 61 29 62 30 63 34 64 31 65 33 66 32 67 51 68
REMARK SMILES IDX 52 69 56 70 53 71 55 72 54 73 41 74 42 75 46 76 43 77 45 78
REMARK SMILES IDX 44 79
REMARK H PARENT 10 6 4 14 17 28 61 47 39 58
REMARK Flexibility Score: inf
ROOT
ATOM      1  C   UNL A   1      36.619  22.973  25.736  1.00  0.00     0.021 C 
ENDROOT
BRANCH   1   2
ATOM      2  C   UNL A   1      35.709  24.143  25.358  1.00  0.00     0.116 C 
BRANCH   2   3
ATOM      3  N   UNL A   1      35.186  23.949  24.033  1.00  0.00    -0.356 N 
ATOM      4  C   UNL A   1      34.051  24.358  23.431  1.00  0.00     0.223 C 
ATOM      5  O   UNL A   1      33.884  23.904  22.301  1.00  0.00    -0.275 OA
ATOM      6  H   UNL A   1      35.772  23.413  23.451  1.00  0.00     0.163 HD
BRANCH   4   7
ATOM      7  C   UNL A   1      33.076  25.386  24.030  1.00  0.00     0.082 C 
BRANCH   7   8
ATOM      8  C   UNL A   1      31.947  24.824  24.937  1.00  0.00     0.017 C 
BRANCH   8   9
ATOM      9  C   UNL A   1      32.197  24.390  26.389  1.00  0.00     0.035 C 
BRANCH   9  10
ATOM     10  C   UNL A   1      32.187  22.895  26.803  1.00  0.00     0.059 C 
ATOM     11  C   UNL A   1      33.357  22.371  27.635  1.00  0.00     0.042 C 
ATOM     12  C   UNL A   1      32.045  22.040  25.532  1.00  0.00     0.042 C 
BRANCH  10  13
ATOM     13  O   UNL A   1      31.009  22.693  27.596  1.00  0.00    -0.390 OA
ATOM     14  H   UNL A   1      30.627  21.825  27.391  1.00  0.00     0.211 HD
ENDBRANCH  10  13
ENDBRANCH   9  10
ENDBRANCH   8   9
ENDBRANCH   7   8
BRANCH   7  15
ATOM     15  C   UNL A   1      32.378  26.224  22.879  1.00  0.00     0.017 C 
ATOM     16  C   UNL A   1      33.215  27.342  22.205  1.00  0.00     0.021 C 
ATOM     17  C   UNL A   1      30.996  26.805  23.231  1.00  0.00     0.141 C 
ATOM     18  C   UNL A   1      32.816  28.713  22.740  1.00  0.00     0.137 C 
ATOM     19  S   UNL A   1      31.077  28.587  23.085  1.00  0.00     0.150 S 
ATOM     20  O   UNL A   1      30.766  29.194  24.359  1.00  0.00    -0.229 OA
ATOM     21  O   UNL A   1      30.364  28.965  21.876  1.00  0.00    -0.229 OA
ENDBRANCH   7  15
ENDBRANCH   4   7
ENDBRANCH   2   3
ENDBRANCH   1   2
BRANCH   1  22
ATOM     22  C   UNL A   1      36.883  22.023  24.569  1.00  0.00     0.002 C 
BRANCH  22  23
ATOM     23  C   UNL A   1      36.610  20.549  24.892  1.00  0.00     0.002 C 
BRANCH  23  24
ATOM     24  C   UNL A   1      37.852  19.654  24.941  1.00  0.00     0.021 C 
BRANCH  24  25
ATOM     25  C   UNL A   1      39.032  20.257  25.696  1.00  0.00     0.116 C 
BRANCH  25  26
ATOM     26  N   UNL A   1      40.122  19.304  25.831  1.00  0.00    -0.352 N 
ATOM     27  C   UNL A   1      41.450  19.527  26.085  1.00  0.00     0.251 C 
ATOM     28  H   UNL A   1      39.868  18.359  25.726  1.00  0.00     0.163 HD
ATOM     29  O   UNL A   1      42.271  18.634  25.908  1.00  0.00    -0.269 OA
BRANCH  27  30
ATOM     30  C   UNL A   1      41.892  20.849  26.571  1.00  0.00     0.039 A 
ATOM     31  C   UNL A   1      42.316  21.805  25.645  1.00  0.00     0.014 A 
ATOM     32  C   UNL A   1      41.917  21.133  27.939  1.00  0.00     0.014 A 
ATOM     33  C   UNL A   1      42.725  23.062  26.091  1.00  0.00     0.010 A 
ATOM     34  C   UNL A   1      42.250  22.411  28.375  1.00  0.00     0.010 A 
ATOM     35  C   UNL A   1      42.670  23.383  27.457  1.00  0.00    -0.014 A 
BRANCH  35  36
ATOM     36  C   UNL A   1      43.066  24.726  27.948  1.00  0.00     0.031 A 
ATOM     37  C   UNL A   1      42.016  25.770  28.215  1.00  0.00     0.074 A 
ATOM     38  C   UNL A   1      44.371  25.023  28.097  1.00  0.00     0.049 A 
ATOM     39  N   UNL A   1      42.167  27.015  28.590  1.00  0.00    -0.248 NA
ATOM     40  C   UNL A   1      40.614  25.369  28.012  1.00  0.00     0.031 C 
ATOM     41  C   UNL A   1      45.485  24.108  27.839  1.00  0.00     0.029 A 
ATOM     42  N   UNL A   1      44.982  26.185  28.498  1.00  0.00    -0.354 N 
ATOM     43  C   UNL A   1      40.886  27.548  28.649  1.00  0.00     0.074 A 
ATOM     44  C   UNL A   1      39.974  26.510  28.222  1.00  0.00     0.031 C 
ATOM     45  C   UNL A   1      46.640  24.734  28.115  1.00  0.00     0.029 A 
ATOM     46  C   UNL A   1      46.353  26.105  28.525  1.00  0.00     0.049 A 
ATOM     47  H   UNL A   1      44.484  26.999  28.742  1.00  0.00     0.167 HD
ATOM     48  C   UNL A   1      40.499  28.785  29.044  1.00  0.00     0.031 A 
ATOM     49  C   UNL A   1      47.275  27.034  28.837  1.00  0.00     0.031 A 
ATOM     50  C   UNL A   1      41.407  29.814  29.476  1.00  0.00     0.049 A 
ATOM     51  C   UNL A   1      46.821  28.408  29.247  1.00  0.00     0.074 A 
ATOM     52  C   UNL A   1      41.112  31.082  29.943  1.00  0.00     0.029 A 
ATOM     53  N   UNL A   1      42.788  29.691  29.489  1.00  0.00    -0.354 N 
ATOM     54  N   UNL A   1      45.602  28.876  29.362  1.00  0.00    -0.248 NA
ATOM     55  C   UNL A   1      47.873  29.378  29.583  1.00  0.00     0.031 C 
ATOM     56  C   UNL A   1      42.318  31.749  30.185  1.00  0.00     0.029 A 
ATOM     57  C   UNL A   1      43.360  30.873  29.932  1.00  0.00     0.049 A 
ATOM     58  H   UNL A   1      43.287  28.886  29.224  1.00  0.00     0.167 HD
ATOM     59  C   UNL A   1      45.738  30.182  29.814  1.00  0.00     0.074 A 
ATOM     60  C   UNL A   1      47.158  30.427  29.967  1.00  0.00     0.031 C 
ATOM     61  C   UNL A   1      44.775  31.098  30.081  1.00  0.00     0.031 A 
BRANCH  48  62
ATOM     62  C   UNL A   1      39.028  29.095  29.014  1.00  0.00    -0.014 A 
ATOM     63  C   UNL A   1      38.224  28.932  30.156  1.00  0.00     0.009 A 
ATOM     64  C   UNL A   1      38.442  29.592  27.841  1.00  0.00     0.009 A 
ATOM     65  C   UNL A   1      36.860  29.224  30.109  1.00  0.00     0.001 A 
ATOM     66  C   UNL A   1      37.083  29.914  27.806  1.00  0.00     0.001 A 
ATOM     67  C   UNL A   1      36.292  29.720  28.936  1.00  0.00     0.000 A 
ENDBRANCH  48  62
BRANCH  49  68
ATOM     68  C   UNL A   1      48.722  26.697  28.785  1.00  0.00    -0.014 A 
ATOM     69  C   UNL A   1      49.383  26.211  29.923  1.00  0.00     0.009 A 
ATOM     70  C   UNL A   1      49.455  26.874  27.601  1.00  0.00     0.009 A 
ATOM     71  C   UNL A   1      50.752  25.937  29.886  1.00  0.00     0.001 A 
ATOM     72  C   UNL A   1      50.817  26.569  27.557  1.00  0.00     0.001 A 
ATOM     73  C   UNL A   1      51.467  26.112  28.702  1.00  0.00     0.000 A 
ENDBRANCH  49  68
BRANCH  61  74
ATOM     74  C   UNL A   1      45.221  32.433  30.608  1.00  0.00    -0.014 A 
ATOM     75  C   UNL A   1      45.482  33.511  29.747  1.00  0.00     0.009 A 
ATOM     76  C   UNL A   1      45.338  32.626  31.993  1.00  0.00     0.009 A 
ATOM     77  C   UNL A   1      45.885  34.744  30.264  1.00  0.00     0.001 A 
ATOM     78  C   UNL A   1      45.709  33.867  32.508  1.00  0.00     0.001 A 
ATOM     79  C   UNL A   1      45.992  34.923  31.643  1.00  0.00     0.000 A 
ENDBRANCH  61  74
ENDBRANCH  35  36
ENDBRANCH  27  30
ENDBRANCH  25  26
ENDBRANCH  24  25
ENDBRANCH  23  24
ENDBRANCH  22  23
ENDBRANCH   1  22
TORSDOF 18
ENDMDL
MODEL 3
REMARK VINA RESULT:      -8.0      5.445     11.293
REMARK SMILES CC(C)(O)CC[C@@H](C(=O)NCCCCCCNC(=O)c1ccc(-c2c3nc(c(-c4ccccc4)c4ccc([nH]4)c(-c4ccccc4)c4nc(c(-c5ccccc5)c5ccc2[nH]5)C=C4)C=C3)cc1)[C@@H]1CCS(=O)(=O)C1
REMARK SMILES IDX 12 1 11 2 10 3 8 4 9 5 7 7 6 8 5 9 2 10 1 11 3 12 4 13 68 15
REMARK SMILES IDX 69 16 74 17 70 18 71 19 72 20 73 21 13 22 14 23 15 24 16 25
REMARK SMILES IDX 17 26 18 27 19 29 20 30 21 31 67 32 22 33 66 34 23 35 24 36
REMARK SMILES IDX 25 37 60 38 26 39 65 40 59 41 61 42 27 43 64 44 58 45 57 46
REMARK SMILES IDX 28 48 50 49 35 50 49 51 36 52 39 53 48 54 62 55 37 56 38 57
REMARK SMILES IDX 47 59 63 60 40 61 29 62 30 63 34 64 31 65 33 66 32 67 51 68
REMARK SMILES IDX 52 69 56 70 53 71 55 72 54 73 41 74 42 75 46 76 43 77 45 78
REMARK SMILES IDX 44 79
REMARK H PARENT 10 6 4 14 17 28 61 47 39 58
REMARK Flexibility Score: inf
ROOT
ATOM      1  C   UNL A   1      35.570  22.795  25.513  1.00  0.00     0.021 C 
ENDROOT
BRANCH   1   2
ATOM      2  C   UNL A   1      34.775  23.397  26.674  1.00  0.00     0.116 C 
BRANCH   2   3
ATOM      3  N   UNL A   1      33.389  23.510  26.311  1.00  0.00    -0.356 N 
ATOM      4  C   UNL A   1      32.596  24.572  26.062  1.00  0.00     0.223 C 
ATOM      5  O   UNL A   1      31.412  24.290  25.885  1.00  0.00    -0.275 OA
ATOM      6  H   UNL A   1      32.929  22.644  26.230  1.00  0.00     0.163 HD
BRANCH   4   7
ATOM      7  C   UNL A   1      33.105  26.014  25.898  1.00  0.00     0.082 C 
BRANCH   7   8
ATOM      8  C   UNL A   1      32.255  27.129  26.567  1.00  0.00     0.017 C 
BRANCH   8   9
ATOM      9  C   UNL A   1      32.890  28.358  27.235  1.00  0.00     0.035 C 
BRANCH   9  10
ATOM     10  C   UNL A   1      32.973  29.726  26.508  1.00  0.00     0.059 C 
ATOM     11  C   UNL A   1      33.155  30.982  27.359  1.00  0.00     0.042 C 
ATOM     12  C   UNL A   1      31.720  29.886  25.629  1.00  0.00     0.042 C 
BRANCH  10  13
ATOM     13  O   UNL A   1      34.109  29.665  25.636  1.00  0.00    -0.390 OA
ATOM     14  H   UNL A   1      34.544  28.803  25.733  1.00  0.00     0.211 HD
ENDBRANCH  10  13
ENDBRANCH   9  10
ENDBRANCH   8   9
ENDBRANCH   7   8
BRANCH   7  15
ATOM     15  C   UNL A   1      33.237  26.384  24.362  1.00  0.00     0.017 C 
ATOM     16  C   UNL A   1      31.940  26.785  23.613  1.00  0.00     0.021 C 
ATOM     17  C   UNL A   1      33.993  25.357  23.498  1.00  0.00     0.141 C 
ATOM     18  C   UNL A   1      31.428  25.628  22.762  1.00  0.00     0.137 C 
ATOM     19  S   UNL A   1      32.887  24.772  22.218  1.00  0.00     0.150 S 
ATOM     20  O   UNL A   1      32.714  23.343  22.340  1.00  0.00    -0.229 OA
ATOM     21  O   UNL A   1      33.305  25.376  20.963  1.00  0.00    -0.229 OA
ENDBRANCH   7  15
ENDBRANCH   4   7
ENDBRANCH   2   3
ENDBRANCH   1   2
BRANCH   1  22
ATOM     22  C   UNL A   1      35.917  21.322  25.731  1.00  0.00     0.002 C 
BRANCH  22  23
ATOM     23  C   UNL A   1      36.677  20.682  24.563  1.00  0.00     0.002 C 
BRANCH  23  24
ATOM     24  C   UNL A   1      37.751  19.667  24.966  1.00  0.00     0.021 C 
BRANCH  24  25
ATOM     25  C   UNL A   1      38.929  20.265  25.727  1.00  0.00     0.116 C 
BRANCH  25  26
ATOM     26  N   UNL A   1      40.026  19.319  25.844  1.00  0.00    -0.352 N 
ATOM     27  C   UNL A   1      41.353  19.547  26.097  1.00  0.00     0.251 C 
ATOM     28  H   UNL A   1      39.778  18.373  25.725  1.00  0.00     0.163 HD
ATOM     29  O   UNL A   1      42.180  18.663  25.902  1.00  0.00    -0.269 OA
BRANCH  27  30
ATOM     30  C   UNL A   1      41.787  20.865  26.601  1.00  0.00     0.039 A 
ATOM     31  C   UNL A   1      42.238  21.824  25.692  1.00  0.00     0.014 A 
ATOM     32  C   UNL A   1      41.778  21.140  27.971  1.00  0.00     0.014 A 
ATOM     33  C   UNL A   1      42.640  23.077  26.155  1.00  0.00     0.010 A 
ATOM     34  C   UNL A   1      42.105  22.414  28.423  1.00  0.00     0.010 A 
ATOM     35  C   UNL A   1      42.552  23.390  27.522  1.00  0.00    -0.014 A 
BRANCH  35  36
ATOM     36  C   UNL A   1      42.940  24.730  28.030  1.00  0.00     0.031 A 
ATOM     37  C   UNL A   1      41.887  25.775  28.278  1.00  0.00     0.074 A 
ATOM     38  C   UNL A   1      44.242  25.021  28.212  1.00  0.00     0.049 A 
ATOM     39  N   UNL A   1      42.032  27.017  28.664  1.00  0.00    -0.248 NA
ATOM     40  C   UNL A   1      40.489  25.380  28.038  1.00  0.00     0.031 C 
ATOM     41  C   UNL A   1      45.359  24.104  27.976  1.00  0.00     0.029 A 
ATOM     42  N   UNL A   1      44.846  26.178  28.635  1.00  0.00    -0.354 N 
ATOM     43  C   UNL A   1      40.752  27.554  28.695  1.00  0.00     0.074 A 
ATOM     44  C   UNL A   1      39.848  26.522  28.240  1.00  0.00     0.031 C 
ATOM     45  C   UNL A   1      46.509  24.724  28.285  1.00  0.00     0.029 A 
ATOM     46  C   UNL A   1      46.216  26.094  28.696  1.00  0.00     0.049 A 
ATOM     47  H   UNL A   1      44.345  26.992  28.873  1.00  0.00     0.167 HD
ATOM     48  C   UNL A   1      40.360  28.790  29.089  1.00  0.00     0.031 A 
ATOM     49  C   UNL A   1      47.133  27.018  29.036  1.00  0.00     0.031 A 
ATOM     50  C   UNL A   1      41.261  29.813  29.549  1.00  0.00     0.049 A 
ATOM     51  C   UNL A   1      46.674  28.391  29.443  1.00  0.00     0.074 A 
ATOM     52  C   UNL A   1      40.958  31.079  30.017  1.00  0.00     0.029 A 
ATOM     53  N   UNL A   1      42.640  29.686  29.595  1.00  0.00    -0.354 N 
ATOM     54  N   UNL A   1      45.454  28.862  29.531  1.00  0.00    -0.248 NA
ATOM     55  C   UNL A   1      47.721  29.355  29.811  1.00  0.00     0.031 C 
ATOM     56  C   UNL A   1      42.160  31.741  30.292  1.00  0.00     0.029 A 
ATOM     57  C   UNL A   1      43.205  30.862  30.059  1.00  0.00     0.049 A 
ATOM     58  H   UNL A   1      43.143  28.880  29.337  1.00  0.00     0.167 HD
ATOM     59  C   UNL A   1      45.583  30.165  29.995  1.00  0.00     0.074 A 
ATOM     60  C   UNL A   1      47.000  30.404  30.183  1.00  0.00     0.031 C 
ATOM     61  C   UNL A   1      44.616  31.082  30.243  1.00  0.00     0.031 A 
BRANCH  48  62
ATOM     62  C   UNL A   1      38.891  29.105  29.025  1.00  0.00    -0.014 A 
ATOM     63  C   UNL A   1      38.072  28.998  30.162  1.00  0.00     0.009 A 
ATOM     64  C   UNL A   1      38.323  29.551  27.822  1.00  0.00     0.009 A 
ATOM     65  C   UNL A   1      36.709  29.293  30.083  1.00  0.00     0.001 A 
ATOM     66  C   UNL A   1      36.967  29.877  27.755  1.00  0.00     0.001 A 
ATOM     67  C   UNL A   1      36.160  29.738  28.882  1.00  0.00     0.000 A 
ENDBRANCH  48  62
BRANCH  49  68
ATOM     68  C   UNL A   1      48.581  26.676  29.017  1.00  0.00    -0.014 A 
ATOM     69  C   UNL A   1      49.193  26.104  30.142  1.00  0.00     0.009 A 
ATOM     70  C   UNL A   1      49.360  26.934  27.878  1.00  0.00     0.009 A 
ATOM     71  C   UNL A   1      50.562  25.826  30.139  1.00  0.00     0.001 A 
ATOM     72  C   UNL A   1      50.722  26.625  27.866  1.00  0.00     0.001 A 
ATOM     73  C   UNL A   1      51.324  26.082  29.000  1.00  0.00     0.000 A 
ENDBRANCH  49  68
BRANCH  61  74
ATOM     74  C   UNL A   1      45.054  32.413  30.789  1.00  0.00    -0.014 A 
ATOM     75  C   UNL A   1      45.364  33.487  29.940  1.00  0.00     0.009 A 
ATOM     76  C   UNL A   1      45.112  32.604  32.179  1.00  0.00     0.009 A 
ATOM     77  C   UNL A   1      45.758  34.716  30.474  1.00  0.00     0.001 A 
ATOM     78  C   UNL A   1      45.474  33.842  32.709  1.00  0.00     0.001 A 
ATOM     79  C   UNL A   1      45.807  34.894  31.857  1.00  0.00     0.000 A 
ENDBRANCH  61  74
ENDBRANCH  35  36
ENDBRANCH  27  30
ENDBRANCH  25  26
ENDBRANCH  24  25
ENDBRANCH  23  24
ENDBRANCH  22  23
ENDBRANCH   1  22
TORSDOF 18
ENDMDL
