MODEL 1
REMARK VINA RESULT:     -11.5      0.000      0.000
REMARK SMILES Cc1ccc(C(=O)NCCCCCCNC(=O)c2ccc(-c3c4nc(c(-c5ccccc5)c5ccc([nH]5)c(-c5ccccc5)c5nc(c(-c6ccccc6)c6ccc3[nH]6)C=C5)C=C4)cc2)cc1/[NH+]=C1\NCCS1
REMARK SMILES IDX 12 1 11 2 10 3 9 4 8 5 6 6 7 7 5 9 1 10 2 11 3 12 67 13 4 14
REMARK SMILES IDX 66 15 68 16 69 17 70 19 73 20 71 21 72 23 13 24 14 25 15 26
REMARK SMILES IDX 16 27 17 29 18 30 19 31 65 32 20 33 64 34 21 35 22 36 23 37
REMARK SMILES IDX 58 38 24 39 63 40 57 41 59 42 25 43 62 44 56 45 55 46 26 48
REMARK SMILES IDX 48 49 33 50 47 51 34 52 37 53 46 54 60 55 35 56 36 57 45 59
REMARK SMILES IDX 61 60 38 61 27 62 28 63 32 64 29 65 31 66 30 67 49 68 50 69
REMARK SMILES IDX 54 70 51 71 53 72 52 73 39 74 40 75 44 76 41 77 43 78 42 79
REMARK H PARENT 8 8 68 18 70 22 15 28 59 47 37 58
REMARK Flexibility Score: inf
ROOT
ATOM      1  C   UNL A   1      33.397  35.887  28.773  1.00  0.00     0.002 C 
ENDROOT
BRANCH   1   2
ATOM      2  C   UNL A   1      32.932  34.422  28.664  1.00  0.00     0.002 C 
BRANCH   2   3
ATOM      3  C   UNL A   1      33.879  33.448  27.938  1.00  0.00     0.021 C 
BRANCH   3   4
ATOM      4  C   UNL A   1      33.294  32.054  27.689  1.00  0.00     0.116 C 
BRANCH   4   5
ATOM      5  N   UNL A   1      34.344  31.075  27.498  1.00  0.00    -0.352 N 
ATOM      6  C   UNL A   1      34.407  29.829  26.933  1.00  0.00     0.251 C 
ATOM      7  O   UNL A   1      35.526  29.310  26.889  1.00  0.00    -0.269 OA
ATOM      8  H   UNL A   1      35.211  31.373  27.855  1.00  0.00     0.163 HD
BRANCH   6   9
ATOM      9  C   UNL A   1      33.255  29.077  26.348  1.00  0.00     0.044 A 
ATOM     10  C   UNL A   1      29.958  26.611  24.972  1.00  0.00     0.049 C 
ATOM     11  C   UNL A   1      31.102  27.481  25.418  1.00  0.00    -0.004 A 
ATOM     12  C   UNL A   1      31.691  27.226  26.662  1.00  0.00     0.008 A 
ATOM     13  C   UNL A   1      31.561  28.573  24.662  1.00  0.00     0.129 A 
ATOM     14  C   UNL A   1      32.762  28.004  27.108  1.00  0.00     0.014 A 
ATOM     15  C   UNL A   1      32.611  29.373  25.147  1.00  0.00     0.065 A 
BRANCH  13  16
ATOM     16  N   UNL A   1      31.065  28.858  23.381  1.00  0.00    -0.235 N 
ATOM     17  C   UNL A   1      30.229  29.821  23.230  1.00  0.00     0.309 C 
ATOM     18  H   UNL A   1      31.355  28.326  22.606  1.00  0.00     0.313 HD
ATOM     19  N   UNL A   1      29.692  30.697  24.123  1.00  0.00    -0.268 N 
ATOM     20  S   UNL A   1      29.595  30.138  21.617  1.00  0.00    -0.035 SA
ATOM     21  C   UNL A   1      28.838  31.732  23.597  1.00  0.00     0.246 C 
ATOM     22  H   UNL A   1      29.879  30.625  25.088  1.00  0.00     0.305 HD
ATOM     23  C   UNL A   1      28.274  31.201  22.281  1.00  0.00     0.128 C 
ENDBRANCH  13  16
ENDBRANCH   6   9
ENDBRANCH   4   5
ENDBRANCH   3   4
ENDBRANCH   2   3
ENDBRANCH   1   2
BRANCH   1  24
ATOM     24  C   UNL A   1      32.988  36.634  30.045  1.00  0.00     0.021 C 
BRANCH  24  25
ATOM     25  C   UNL A   1      32.639  35.722  31.216  1.00  0.00     0.116 C 
BRANCH  25  26
ATOM     26  N   UNL A   1      33.332  36.062  32.454  1.00  0.00    -0.352 N 
ATOM     27  C   UNL A   1      34.376  35.401  33.085  1.00  0.00     0.251 C 
ATOM     28  H   UNL A   1      33.013  36.876  32.907  1.00  0.00     0.163 HD
ATOM     29  O   UNL A   1      34.835  35.818  34.129  1.00  0.00    -0.269 OA
BRANCH  27  30
ATOM     30  C   UNL A   1      35.009  34.249  32.394  1.00  0.00     0.039 A 
ATOM     31  C   UNL A   1      35.153  33.061  33.118  1.00  0.00     0.014 A 
ATOM     32  C   UNL A   1      35.632  34.405  31.158  1.00  0.00     0.014 A 
ATOM     33  C   UNL A   1      36.121  32.141  32.722  1.00  0.00     0.010 A 
ATOM     34  C   UNL A   1      36.650  33.537  30.812  1.00  0.00     0.010 A 
ATOM     35  C   UNL A   1      36.944  32.449  31.637  1.00  0.00    -0.014 A 
BRANCH  35  36
ATOM     36  C   UNL A   1      38.208  31.766  31.396  1.00  0.00     0.031 A 
ATOM     37  C   UNL A   1      38.241  30.463  30.700  1.00  0.00     0.074 A 
ATOM     38  C   UNL A   1      39.369  32.299  31.840  1.00  0.00     0.049 A 
ATOM     39  N   UNL A   1      39.105  29.537  30.959  1.00  0.00    -0.248 NA
ATOM     40  C   UNL A   1      37.278  30.090  29.669  1.00  0.00     0.031 C 
ATOM     41  C   UNL A   1      40.724  31.835  31.538  1.00  0.00     0.029 A 
ATOM     42  N   UNL A   1      39.598  33.290  32.780  1.00  0.00    -0.354 N 
ATOM     43  C   UNL A   1      39.013  28.611  29.950  1.00  0.00     0.074 A 
ATOM     44  C   UNL A   1      37.803  28.943  29.229  1.00  0.00     0.031 C 
ATOM     45  C   UNL A   1      41.557  32.295  32.487  1.00  0.00     0.029 A 
ATOM     46  C   UNL A   1      40.740  32.940  33.499  1.00  0.00     0.049 A 
ATOM     47  H   UNL A   1      39.053  34.098  32.915  1.00  0.00     0.167 HD
ATOM     48  C   UNL A   1      40.044  27.759  29.702  1.00  0.00     0.031 A 
ATOM     49  C   UNL A   1      40.760  32.634  34.830  1.00  0.00     0.031 A 
ATOM     50  C   UNL A   1      41.175  27.959  30.600  1.00  0.00     0.049 A 
ATOM     51  C   UNL A   1      41.340  31.260  35.130  1.00  0.00     0.074 A 
ATOM     52  C   UNL A   1      42.389  28.610  30.453  1.00  0.00     0.029 A 
ATOM     53  N   UNL A   1      41.027  27.709  31.959  1.00  0.00    -0.354 N 
ATOM     54  N   UNL A   1      41.482  30.318  34.239  1.00  0.00    -0.248 NA
ATOM     55  C   UNL A   1      41.744  30.818  36.463  1.00  0.00     0.031 C 
ATOM     56  C   UNL A   1      42.963  28.775  31.739  1.00  0.00     0.029 A 
ATOM     57  C   UNL A   1      42.105  28.209  32.664  1.00  0.00     0.049 A 
ATOM     58  H   UNL A   1      40.261  27.241  32.363  1.00  0.00     0.167 HD
ATOM     59  C   UNL A   1      41.973  29.182  34.831  1.00  0.00     0.074 A 
ATOM     60  C   UNL A   1      42.132  29.552  36.225  1.00  0.00     0.031 C 
ATOM     61  C   UNL A   1      42.187  28.040  34.110  1.00  0.00     0.031 A 
BRANCH  48  62
ATOM     62  C   UNL A   1      40.112  26.989  28.412  1.00  0.00    -0.014 A 
ATOM     63  C   UNL A   1      39.511  25.722  28.314  1.00  0.00     0.009 A 
ATOM     64  C   UNL A   1      40.811  27.445  27.281  1.00  0.00     0.009 A 
ATOM     65  C   UNL A   1      39.693  24.906  27.192  1.00  0.00     0.001 A 
ATOM     66  C   UNL A   1      41.030  26.618  26.172  1.00  0.00     0.001 A 
ATOM     67  C   UNL A   1      40.481  25.341  26.134  1.00  0.00     0.000 A 
ENDBRANCH  48  62
BRANCH  49  68
ATOM     68  C   UNL A   1      39.683  33.269  35.634  1.00  0.00    -0.014 A 
ATOM     69  C   UNL A   1      38.415  32.658  35.661  1.00  0.00     0.009 A 
ATOM     70  C   UNL A   1      39.983  34.235  36.604  1.00  0.00     0.009 A 
ATOM     71  C   UNL A   1      37.517  32.917  36.699  1.00  0.00     0.001 A 
ATOM     72  C   UNL A   1      39.074  34.503  37.636  1.00  0.00     0.001 A 
ATOM     73  C   UNL A   1      37.860  33.819  37.704  1.00  0.00     0.000 A 
ENDBRANCH  49  68
BRANCH  61  74
ATOM     74  C   UNL A   1      42.557  26.667  34.633  1.00  0.00    -0.014 A 
ATOM     75  C   UNL A   1      41.697  25.797  35.313  1.00  0.00     0.009 A 
ATOM     76  C   UNL A   1      43.849  26.158  34.343  1.00  0.00     0.009 A 
ATOM     77  C   UNL A   1      42.109  24.514  35.705  1.00  0.00     0.001 A 
ATOM     78  C   UNL A   1      44.250  24.867  34.694  1.00  0.00     0.001 A 
ATOM     79  C   UNL A   1      43.379  24.045  35.387  1.00  0.00     0.000 A 
ENDBRANCH  61  74
ENDBRANCH  35  36
ENDBRANCH  27  30
ENDBRANCH  25  26
ENDBRANCH  24  25
ENDBRANCH   1  24
TORSDOF 14
ENDMDL
MODEL 2
REMARK VINA RESULT:     -11.5      3.884      5.296
REMARK SMILES Cc1ccc(C(=O)NCCCCCCNC(=O)c2ccc(-c3c4nc(c(-c5ccccc5)c5ccc([nH]5)c(-c5ccccc5)c5nc(c(-c6ccccc6)c6ccc3[nH]6)C=C5)C=C4)cc2)cc1/[NH+]=C1\NCCS1
REMARK SMILES IDX 12 1 11 2 10 3 9 4 8 5 6 6 7 7 5 9 1 10 2 11 3 12 67 13 4 14
REMARK SMILES IDX 66 15 68 16 69 17 70 19 73 20 71 21 72 23 13 24 14 25 15 26
REMARK SMILES IDX 16 27 17 29 18 30 19 31 65 32 20 33 64 34 21 35 22 36 23 37
REMARK SMILES IDX 58 38 24 39 63 40 57 41 59 42 25 43 62 44 56 45 55 46 26 48
REMARK SMILES IDX 48 49 33 50 47 51 34 52 37 53 46 54 60 55 35 56 36 57 45 59
REMARK SMILES IDX 61 60 38 61 27 62 28 63 32 64 29 65 31 66 30 67 49 68 50 69
REMARK SMILES IDX 54 70 51 71 53 72 52 73 39 74 40 75 44 76 41 77 43 78 42 79
REMARK H PARENT 8 8 68 18 70 22 15 28 59 47 37 58
REMARK Flexibility Score: inf
ROOT
ATOM      1  C   UNL A   1      33.150  28.808  27.422  1.00  0.00     0.002 C 
ENDROOT
BRANCH   1   2
ATOM      2  C   UNL A   1      32.013  27.994  26.776  1.00  0.00     0.002 C 
BRANCH   2   3
ATOM      3  C   UNL A   1      32.360  26.565  26.317  1.00  0.00     0.021 C 
BRANCH   3   4
ATOM      4  C   UNL A   1      31.235  25.844  25.565  1.00  0.00     0.116 C 
BRANCH   4   5
ATOM      5  N   UNL A   1      30.598  24.852  26.408  1.00  0.00    -0.352 N 
ATOM      6  C   UNL A   1      30.911  23.577  26.797  1.00  0.00     0.251 C 
ATOM      7  O   UNL A   1      30.137  23.053  27.604  1.00  0.00    -0.269 OA
ATOM      8  H   UNL A   1      29.747  25.167  26.788  1.00  0.00     0.163 HD
BRANCH   6   9
ATOM      9  C   UNL A   1      32.107  22.798  26.355  1.00  0.00     0.044 A 
ATOM     10  C   UNL A   1      35.822  20.824  25.287  1.00  0.00     0.049 C 
ATOM     11  C   UNL A   1      34.520  21.491  25.632  1.00  0.00    -0.004 A 
ATOM     12  C   UNL A   1      34.527  22.529  26.570  1.00  0.00     0.008 A 
ATOM     13  C   UNL A   1      33.289  21.072  25.094  1.00  0.00     0.129 A 
ATOM     14  C   UNL A   1      33.339  23.182  26.910  1.00  0.00     0.014 A 
ATOM     15  C   UNL A   1      32.098  21.711  25.482  1.00  0.00     0.065 A 
BRANCH  13  16
ATOM     16  N   UNL A   1      33.204  20.080  24.106  1.00  0.00    -0.235 N 
ATOM     17  C   UNL A   1      33.082  18.852  24.457  1.00  0.00     0.309 C 
ATOM     18  H   UNL A   1      33.236  20.324  23.153  1.00  0.00     0.313 HD
ATOM     19  N   UNL A   1      33.001  18.269  25.684  1.00  0.00    -0.268 N 
ATOM     20  S   UNL A   1      33.010  17.621  23.197  1.00  0.00    -0.035 SA
ATOM     21  C   UNL A   1      32.774  16.845  25.723  1.00  0.00     0.246 C 
ATOM     22  H   UNL A   1      33.095  18.796  26.510  1.00  0.00     0.305 HD
ATOM     23  C   UNL A   1      33.299  16.287  24.402  1.00  0.00     0.128 C 
ENDBRANCH  13  16
ENDBRANCH   6   9
ENDBRANCH   4   5
ENDBRANCH   3   4
ENDBRANCH   2   3
ENDBRANCH   1   2
BRANCH   1  24
ATOM     24  C   UNL A   1      33.602  30.059  26.662  1.00  0.00     0.021 C 
BRANCH  24  25
ATOM     25  C   UNL A   1      34.387  31.051  27.513  1.00  0.00     0.116 C 
BRANCH  25  26
ATOM     26  N   UNL A   1      33.621  32.231  27.899  1.00  0.00    -0.352 N 
ATOM     27  C   UNL A   1      33.917  33.196  28.851  1.00  0.00     0.251 C 
ATOM     28  H   UNL A   1      32.773  32.361  27.415  1.00  0.00     0.163 HD
ATOM     29  O   UNL A   1      33.156  34.120  29.056  1.00  0.00    -0.269 OA
BRANCH  27  30
ATOM     30  C   UNL A   1      35.241  33.153  29.520  1.00  0.00     0.039 A 
ATOM     31  C   UNL A   1      36.298  33.832  28.907  1.00  0.00     0.014 A 
ATOM     32  C   UNL A   1      35.477  32.295  30.592  1.00  0.00     0.014 A 
ATOM     33  C   UNL A   1      37.606  33.454  29.201  1.00  0.00     0.010 A 
ATOM     34  C   UNL A   1      36.768  31.859  30.824  1.00  0.00     0.010 A 
ATOM     35  C   UNL A   1      37.822  32.384  30.072  1.00  0.00    -0.014 A 
BRANCH  35  36
ATOM     36  C   UNL A   1      39.091  31.671  30.134  1.00  0.00     0.031 A 
ATOM     37  C   UNL A   1      39.255  30.362  29.470  1.00  0.00     0.074 A 
ATOM     38  C   UNL A   1      40.129  32.183  30.834  1.00  0.00     0.049 A 
ATOM     39  N   UNL A   1      40.013  29.419  29.926  1.00  0.00    -0.248 NA
ATOM     40  C   UNL A   1      38.549  30.001  28.244  1.00  0.00     0.031 C 
ATOM     41  C   UNL A   1      41.506  31.687  30.857  1.00  0.00     0.029 A 
ATOM     42  N   UNL A   1      40.157  33.177  31.798  1.00  0.00    -0.354 N 
ATOM     43  C   UNL A   1      40.136  28.487  28.926  1.00  0.00     0.074 A 
ATOM     44  C   UNL A   1      39.135  28.838  27.942  1.00  0.00     0.031 C 
ATOM     45  C   UNL A   1      42.106  32.137  31.972  1.00  0.00     0.029 A 
ATOM     46  C   UNL A   1      41.092  32.808  32.764  1.00  0.00     0.049 A 
ATOM     47  H   UNL A   1      39.614  33.998  31.800  1.00  0.00     0.167 HD
ATOM     48  C   UNL A   1      41.176  27.610  28.927  1.00  0.00     0.031 A 
ATOM     49  C   UNL A   1      40.795  32.514  34.065  1.00  0.00     0.031 A 
ATOM     50  C   UNL A   1      42.072  27.793  30.063  1.00  0.00     0.049 A 
ATOM     51  C   UNL A   1      41.257  31.130  34.496  1.00  0.00     0.074 A 
ATOM     52  C   UNL A   1      43.302  28.416  30.201  1.00  0.00     0.029 A 
ATOM     53  N   UNL A   1      41.606  27.559  31.352  1.00  0.00    -0.354 N 
ATOM     54  N   UNL A   1      41.580  30.177  33.666  1.00  0.00    -0.248 NA
ATOM     55  C   UNL A   1      41.330  30.692  35.888  1.00  0.00     0.031 C 
ATOM     56  C   UNL A   1      43.565  28.580  31.583  1.00  0.00     0.029 A 
ATOM     57  C   UNL A   1      42.503  28.042  32.286  1.00  0.00     0.049 A 
ATOM     58  H   UNL A   1      40.756  27.112  31.569  1.00  0.00     0.167 HD
ATOM     59  C   UNL A   1      41.894  29.036  34.360  1.00  0.00     0.074 A 
ATOM     60  C   UNL A   1      41.733  29.415  35.751  1.00  0.00     0.031 C 
ATOM     61  C   UNL A   1      42.242  27.883  33.712  1.00  0.00     0.031 A 
BRANCH  48  62
ATOM     62  C   UNL A   1      41.524  26.828  27.691  1.00  0.00    -0.014 A 
ATOM     63  C   UNL A   1      41.142  25.479  27.579  1.00  0.00     0.009 A 
ATOM     64  C   UNL A   1      42.282  27.359  26.635  1.00  0.00     0.009 A 
ATOM     65  C   UNL A   1      41.586  24.673  26.526  1.00  0.00     0.001 A 
ATOM     66  C   UNL A   1      42.764  26.548  25.599  1.00  0.00     0.001 A 
ATOM     67  C   UNL A   1      42.426  25.200  25.552  1.00  0.00     0.000 A 
ENDBRANCH  48  62
BRANCH  49  68
ATOM     68  C   UNL A   1      39.576  33.179  34.594  1.00  0.00    -0.014 A 
ATOM     69  C   UNL A   1      38.317  32.694  34.192  1.00  0.00     0.009 A 
ATOM     70  C   UNL A   1      39.644  34.025  35.709  1.00  0.00     0.009 A 
ATOM     71  C   UNL A   1      37.175  32.950  34.954  1.00  0.00     0.001 A 
ATOM     72  C   UNL A   1      38.494  34.291  36.463  1.00  0.00     0.001 A 
ATOM     73  C   UNL A   1      37.269  33.725  36.107  1.00  0.00     0.000 A 
ENDBRANCH  49  68
BRANCH  61  74
ATOM     74  C   UNL A   1      42.449  26.507  34.312  1.00  0.00    -0.014 A 
ATOM     75  C   UNL A   1      41.530  25.826  35.117  1.00  0.00     0.009 A 
ATOM     76  C   UNL A   1      43.623  25.789  33.969  1.00  0.00     0.009 A 
ATOM     77  C   UNL A   1      41.780  24.523  35.577  1.00  0.00     0.001 A 
ATOM     78  C   UNL A   1      43.857  24.478  34.389  1.00  0.00     0.001 A 
ATOM     79  C   UNL A   1      42.936  23.845  35.205  1.00  0.00     0.000 A 
ENDBRANCH  61  74
ENDBRANCH  35  36
ENDBRANCH  27  30
ENDBRANCH  25  26
ENDBRANCH  24  25
ENDBRANCH   1  24
TORSDOF 14
ENDMDL
MODEL 3
REMARK VINA RESULT:     -11.3      4.177      6.208
REMARK SMILES Cc1ccc(C(=O)NCCCCCCNC(=O)c2ccc(-c3c4nc(c(-c5ccccc5)c5ccc([nH]5)c(-c5ccccc5)c5nc(c(-c6ccccc6)c6ccc3[nH]6)C=C5)C=C4)cc2)cc1/[NH+]=C1\NCCS1
REMARK SMILES IDX 12 1 11 2 10 3 9 4 8 5 6 6 7 7 5 9 1 10 2 11 3 12 67 13 4 14
REMARK SMILES IDX 66 15 68 16 69 17 70 19 73 20 71 21 72 23 13 24 14 25 15 26
REMARK SMILES IDX 16 27 17 29 18 30 19 31 65 32 20 33 64 34 21 35 22 36 23 37
REMARK SMILES IDX 58 38 24 39 63 40 57 41 59 42 25 43 62 44 56 45 55 46 26 48
REMARK SMILES IDX 48 49 33 50 47 51 34 52 37 53 46 54 60 55 35 56 36 57 45 59
REMARK SMILES IDX 61 60 38 61 27 62 28 63 32 64 29 65 31 66 30 67 49 68 50 69
REMARK SMILES IDX 54 70 51 71 53 72 52 73 39 74 40 75 44 76 41 77 43 78 42 79
REMARK H PARENT 8 8 68 18 70 22 15 28 59 47 37 58
REMARK Flexibility Score: inf
ROOT
ATOM      1  C   UNL A   1      32.096  29.875  25.459  1.00  0.00     0.002 C 
ENDROOT
BRANCH   1   2
ATOM      2  C   UNL A   1      31.282  28.595  25.195  1.00  0.00     0.002 C 
BRANCH   2   3
ATOM      3  C   UNL A   1      32.082  27.323  24.859  1.00  0.00     0.021 C 
BRANCH   3   4
ATOM      4  C   UNL A   1      32.617  26.563  26.078  1.00  0.00     0.116 C 
BRANCH   4   5
ATOM      5  N   UNL A   1      31.639  25.613  26.570  1.00  0.00    -0.352 N 
ATOM      6  C   UNL A   1      31.591  24.249  26.676  1.00  0.00     0.251 C 
ATOM      7  O   UNL A   1      30.590  23.784  27.229  1.00  0.00    -0.269 OA
ATOM      8  H   UNL A   1      30.822  26.049  26.905  1.00  0.00     0.163 HD
BRANCH   6   9
ATOM      9  C   UNL A   1      32.649  23.301  26.213  1.00  0.00     0.044 A 
ATOM     10  C   UNL A   1      36.008  20.804  25.061  1.00  0.00     0.049 C 
ATOM     11  C   UNL A   1      34.826  21.653  25.437  1.00  0.00    -0.004 A 
ATOM     12  C   UNL A   1      35.018  22.711  26.333  1.00  0.00     0.008 A 
ATOM     13  C   UNL A   1      33.526  21.390  24.969  1.00  0.00     0.129 A 
ATOM     14  C   UNL A   1      33.947  23.530  26.699  1.00  0.00     0.014 A 
ATOM     15  C   UNL A   1      32.451  22.197  25.383  1.00  0.00     0.065 A 
BRANCH  13  16
ATOM     16  N   UNL A   1      33.260  20.388  24.024  1.00  0.00    -0.235 N 
ATOM     17  C   UNL A   1      33.054  19.185  24.423  1.00  0.00     0.309 C 
ATOM     18  H   UNL A   1      33.231  20.605  23.064  1.00  0.00     0.313 HD
ATOM     19  N   UNL A   1      33.027  18.642  25.671  1.00  0.00    -0.268 N 
ATOM     20  S   UNL A   1      32.755  17.938  23.214  1.00  0.00    -0.035 SA
ATOM     21  C   UNL A   1      32.670  17.249  25.774  1.00  0.00     0.246 C 
ATOM     22  H   UNL A   1      33.243  19.178  26.468  1.00  0.00     0.305 HD
ATOM     23  C   UNL A   1      33.022  16.611  24.432  1.00  0.00     0.128 C 
ENDBRANCH  13  16
ENDBRANCH   6   9
ENDBRANCH   4   5
ENDBRANCH   3   4
ENDBRANCH   2   3
ENDBRANCH   1   2
BRANCH   1  24
ATOM     24  C   UNL A   1      32.323  30.241  26.929  1.00  0.00     0.021 C 
BRANCH  24  25
ATOM     25  C   UNL A   1      33.742  29.982  27.422  1.00  0.00     0.116 C 
BRANCH  25  26
ATOM     26  N   UNL A   1      34.297  31.070  28.218  1.00  0.00    -0.352 N 
ATOM     27  C   UNL A   1      35.523  31.148  28.864  1.00  0.00     0.251 C 
ATOM     28  H   UNL A   1      33.720  31.862  28.311  1.00  0.00     0.163 HD
ATOM     29  O   UNL A   1      35.828  32.135  29.501  1.00  0.00    -0.269 OA
BRANCH  27  30
ATOM     30  C   UNL A   1      36.508  30.057  28.654  1.00  0.00     0.039 A 
ATOM     31  C   UNL A   1      36.792  29.224  29.741  1.00  0.00     0.014 A 
ATOM     32  C   UNL A   1      37.280  29.997  27.497  1.00  0.00     0.014 A 
ATOM     33  C   UNL A   1      37.995  28.524  29.760  1.00  0.00     0.010 A 
ATOM     34  C   UNL A   1      38.512  29.373  27.549  1.00  0.00     0.010 A 
ATOM     35  C   UNL A   1      38.899  28.702  28.712  1.00  0.00    -0.014 A 
BRANCH  35  36
ATOM     36  C   UNL A   1      40.307  28.344  28.824  1.00  0.00     0.031 A 
ATOM     37  C   UNL A   1      40.808  27.068  28.273  1.00  0.00     0.074 A 
ATOM     38  C   UNL A   1      41.171  29.161  29.468  1.00  0.00     0.049 A 
ATOM     39  N   UNL A   1      41.775  26.392  28.802  1.00  0.00    -0.248 NA
ATOM     40  C   UNL A   1      40.234  26.436  27.089  1.00  0.00     0.031 C 
ATOM     41  C   UNL A   1      42.628  29.037  29.522  1.00  0.00     0.029 A 
ATOM     42  N   UNL A   1      40.932  30.208  30.343  1.00  0.00    -0.354 N 
ATOM     43  C   UNL A   1      42.145  25.440  27.885  1.00  0.00     0.074 A 
ATOM     44  C   UNL A   1      41.101  25.440  26.883  1.00  0.00     0.031 C 
ATOM     45  C   UNL A   1      43.079  29.718  30.589  1.00  0.00     0.029 A 
ATOM     46  C   UNL A   1      41.917  30.174  31.328  1.00  0.00     0.049 A 
ATOM     47  H   UNL A   1      40.198  30.861  30.279  1.00  0.00     0.167 HD
ATOM     48  C   UNL A   1      43.374  24.861  27.953  1.00  0.00     0.031 A 
ATOM     49  C   UNL A   1      41.687  29.926  32.652  1.00  0.00     0.031 A 
ATOM     50  C   UNL A   1      44.178  25.362  29.061  1.00  0.00     0.049 A 
ATOM     51  C   UNL A   1      42.480  28.747  33.197  1.00  0.00     0.074 A 
ATOM     52  C   UNL A   1      45.207  26.288  29.134  1.00  0.00     0.029 A 
ATOM     53  N   UNL A   1      43.770  25.128  30.369  1.00  0.00    -0.354 N 
ATOM     54  N   UNL A   1      43.046  27.841  32.449  1.00  0.00    -0.248 NA
ATOM     55  C   UNL A   1      42.643  28.463  34.621  1.00  0.00     0.031 C 
ATOM     56  C   UNL A   1      45.401  26.630  30.495  1.00  0.00     0.029 A 
ATOM     57  C   UNL A   1      44.501  25.902  31.250  1.00  0.00     0.049 A 
ATOM     58  H   UNL A   1      43.059  24.500  30.631  1.00  0.00     0.167 HD
ATOM     59  C   UNL A   1      43.631  26.881  33.236  1.00  0.00     0.074 A 
ATOM     60  C   UNL A   1      43.360  27.324  34.591  1.00  0.00     0.031 C 
ATOM     61  C   UNL A   1      44.270  25.805  32.687  1.00  0.00     0.031 A 
BRANCH  48  62
ATOM     62  C   UNL A   1      43.926  24.090  26.786  1.00  0.00    -0.014 A 
ATOM     63  C   UNL A   1      44.182  22.713  26.907  1.00  0.00     0.009 A 
ATOM     64  C   UNL A   1      44.269  24.690  25.563  1.00  0.00     0.009 A 
ATOM     65  C   UNL A   1      44.847  21.997  25.907  1.00  0.00     0.001 A 
ATOM     66  C   UNL A   1      44.971  23.989  24.574  1.00  0.00     0.001 A 
ATOM     67  C   UNL A   1      45.272  22.643  24.753  1.00  0.00     0.000 A 
ENDBRANCH  48  62
BRANCH  49  68
ATOM     68  C   UNL A   1      40.331  30.301  33.133  1.00  0.00    -0.014 A 
ATOM     69  C   UNL A   1      40.003  31.667  33.220  1.00  0.00     0.009 A 
ATOM     70  C   UNL A   1      39.295  29.358  33.174  1.00  0.00     0.009 A 
ATOM     71  C   UNL A   1      38.669  32.083  33.225  1.00  0.00     0.001 A 
ATOM     72  C   UNL A   1      37.959  29.779  33.194  1.00  0.00     0.001 A 
ATOM     73  C   UNL A   1      37.647  31.139  33.183  1.00  0.00     0.000 A 
ENDBRANCH  49  68
BRANCH  61  74
ATOM     74  C   UNL A   1      44.812  24.583  33.401  1.00  0.00    -0.014 A 
ATOM     75  C   UNL A   1      46.124  24.426  33.861  1.00  0.00     0.009 A 
ATOM     76  C   UNL A   1      43.913  23.535  33.725  1.00  0.00     0.009 A 
ATOM     77  C   UNL A   1      46.522  23.282  34.572  1.00  0.00     0.001 A 
ATOM     78  C   UNL A   1      44.293  22.414  34.467  1.00  0.00     0.001 A 
ATOM     79  C   UNL A   1      45.606  22.283  34.884  1.00  0.00     0.000 A 
ENDBRANCH  61  74
ENDBRANCH  35  36
ENDBRANCH  27  30
ENDBRANCH  25  26
ENDBRANCH  24  25
ENDBRANCH   1  24
TORSDOF 14
ENDMDL
