MODEL 1
REMARK VINA RESULT:     -11.7      0.000      0.000
REMARK SMILES COc1ccc(Cl)cc1Nc1ncnc2sc(C(=O)NCCCCCCNC(=O)c3ccc(-c4c5nc(c(-c6ccccc6)c6ccc([nH]6)c(-c6ccccc6)c6nc(c(-c7ccccc7)c7ccc4[nH]7)C=C6)C=C5)cc3)c(C)c12
REMARK SMILES IDX 23 1 22 2 21 3 20 4 18 5 19 6 17 8 11 9 12 10 80 11 13 12
REMARK SMILES IDX 15 13 78 14 14 15 16 16 79 17 10 18 9 20 3 21 4 22 5 23 8 24
REMARK SMILES IDX 6 25 7 26 2 27 1 28 24 29 25 30 26 31 27 32 28 33 29 35
REMARK SMILES IDX 30 36 31 37 77 38 32 39 76 40 33 41 34 42 35 43 70 44 36 45
REMARK SMILES IDX 75 46 69 47 71 48 37 49 74 50 68 51 67 52 38 54 60 55 45 56
REMARK SMILES IDX 59 57 46 58 49 59 58 60 72 61 47 62 48 63 57 65 73 66 50 67
REMARK SMILES IDX 39 68 40 69 44 70 41 71 43 72 42 73 61 74 62 75 66 76 63 77
REMARK SMILES IDX 65 78 64 79 51 80 52 81 56 82 53 83 55 84 54 85
REMARK H PARENT 20 7 10 19 27 34 71 53 49 64
REMARK Flexibility Score: inf
ROOT
ATOM      1  C   UNL A   1      39.974  21.663  26.530  1.00  0.00     0.002 C 
ENDROOT
BRANCH   1   2
ATOM      2  C   UNL A   1      39.355  23.067  26.471  1.00  0.00     0.021 C 
BRANCH   2   3
ATOM      3  C   UNL A   1      37.875  23.063  26.084  1.00  0.00     0.116 C 
BRANCH   3   4
ATOM      4  N   UNL A   1      37.482  21.758  25.593  1.00  0.00    -0.351 N 
ATOM      5  C   UNL A   1      36.281  21.131  25.370  1.00  0.00     0.261 C 
ATOM      6  O   UNL A   1      36.409  19.973  24.963  1.00  0.00    -0.268 OA
ATOM      7  H   UNL A   1      38.254  21.189  25.368  1.00  0.00     0.163 HD
BRANCH   5   8
ATOM      8  C   UNL A   1      34.967  21.764  25.532  1.00  0.00     0.098 A 
ATOM      9  C   UNL A   1      32.263  24.284  24.860  1.00  0.00     0.142 A 
ATOM     10  N   UNL A   1      31.300  24.676  25.730  1.00  0.00    -0.219 NA
ATOM     11  C   UNL A   1      33.135  23.240  25.244  1.00  0.00     0.058 A 
ATOM     12  C   UNL A   1      31.169  24.037  26.897  1.00  0.00     0.225 A 
ATOM     13  C   UNL A   1      32.870  22.673  26.475  1.00  0.00     0.129 A 
ATOM     14  C   UNL A   1      34.338  22.657  24.653  1.00  0.00    -0.014 A 
ATOM     15  N   UNL A   1      31.899  23.016  27.337  1.00  0.00    -0.225 NA
ATOM     16  S   UNL A   1      33.919  21.405  26.837  1.00  0.00    -0.110 S 
ATOM     17  C   UNL A   1      34.852  23.075  23.304  1.00  0.00     0.047 C 
BRANCH   9  18
ATOM     18  N   UNL A   1      32.402  24.979  23.662  1.00  0.00    -0.337 N 
ATOM     19  H   UNL A   1      32.147  24.486  22.848  1.00  0.00     0.168 HD
BRANCH  18  20
ATOM     20  C   UNL A   1      32.861  26.296  23.464  1.00  0.00     0.084 A 
ATOM     21  C   UNL A   1      33.466  26.646  22.239  1.00  0.00     0.142 A 
ATOM     22  C   UNL A   1      33.926  27.951  22.034  1.00  0.00     0.050 A 
ATOM     23  C   UNL A   1      33.811  28.904  23.051  1.00  0.00     0.024 A 
ATOM     24  C   UNL A   1      32.741  27.270  24.466  1.00  0.00     0.050 A 
ATOM     25  C   UNL A   1      33.223  28.558  24.262  1.00  0.00     0.043 A 
ATOM     26  Cl  UNL A   1      33.099  29.723  25.523  1.00  0.00    -0.084 Cl
BRANCH  21  27
ATOM     27  O   UNL A   1      33.527  25.647  21.296  1.00  0.00    -0.495 OA
ATOM     28  C   UNL A   1      32.504  25.661  20.306  1.00  0.00     0.278 C 
ENDBRANCH  21  27
ENDBRANCH  18  20
ENDBRANCH   9  18
ENDBRANCH   5   8
ENDBRANCH   3   4
ENDBRANCH   2   3
ENDBRANCH   1   2
BRANCH   1  29
ATOM     29  C   UNL A   1      40.999  21.440  27.655  1.00  0.00     0.002 C 
BRANCH  29  30
ATOM     30  C   UNL A   1      42.175  20.510  27.321  1.00  0.00     0.021 C 
BRANCH  30  31
ATOM     31  C   UNL A   1      42.126  19.973  25.901  1.00  0.00     0.116 C 
BRANCH  31  32
ATOM     32  N   UNL A   1      43.463  19.836  25.327  1.00  0.00    -0.352 N 
ATOM     33  C   UNL A   1      44.339  20.823  24.940  1.00  0.00     0.251 C 
ATOM     34  H   UNL A   1      43.782  18.912  25.202  1.00  0.00     0.163 HD
ATOM     35  O   UNL A   1      45.263  20.583  24.166  1.00  0.00    -0.269 OA
BRANCH  33  36
ATOM     36  C   UNL A   1      44.160  22.178  25.478  1.00  0.00     0.039 A 
ATOM     37  C   UNL A   1      43.233  23.067  24.926  1.00  0.00     0.014 A 
ATOM     38  C   UNL A   1      44.946  22.549  26.567  1.00  0.00     0.014 A 
ATOM     39  C   UNL A   1      43.063  24.313  25.522  1.00  0.00     0.010 A 
ATOM     40  C   UNL A   1      44.660  23.698  27.250  1.00  0.00     0.010 A 
ATOM     41  C   UNL A   1      43.778  24.614  26.690  1.00  0.00    -0.014 A 
BRANCH  41  42
ATOM     42  C   UNL A   1      43.551  25.852  27.419  1.00  0.00     0.031 A 
ATOM     43  C   UNL A   1      44.480  26.955  27.061  1.00  0.00     0.074 A 
ATOM     44  C   UNL A   1      42.433  26.053  28.150  1.00  0.00     0.049 A 
ATOM     45  N   UNL A   1      45.346  27.538  27.819  1.00  0.00    -0.248 NA
ATOM     46  C   UNL A   1      44.541  27.374  25.649  1.00  0.00     0.031 C 
ATOM     47  C   UNL A   1      41.278  25.156  28.304  1.00  0.00     0.029 A 
ATOM     48  N   UNL A   1      42.025  27.172  28.805  1.00  0.00    -0.354 N 
ATOM     49  C   UNL A   1      45.923  28.533  27.038  1.00  0.00     0.074 A 
ATOM     50  C   UNL A   1      45.533  28.264  25.677  1.00  0.00     0.031 C 
ATOM     51  C   UNL A   1      40.223  25.852  28.781  1.00  0.00     0.029 A 
ATOM     52  C   UNL A   1      40.674  27.184  29.136  1.00  0.00     0.049 A 
ATOM     53  H   UNL A   1      42.634  27.913  29.025  1.00  0.00     0.167 HD
ATOM     54  C   UNL A   1      46.451  29.658  27.594  1.00  0.00     0.031 A 
ATOM     55  C   UNL A   1      39.974  28.230  29.638  1.00  0.00     0.031 A 
ATOM     56  C   UNL A   1      46.655  29.508  29.011  1.00  0.00     0.049 A 
ATOM     57  C   UNL A   1      40.959  29.181  30.196  1.00  0.00     0.074 A 
ATOM     58  C   UNL A   1      47.411  28.666  29.802  1.00  0.00     0.029 A 
ATOM     59  N   UNL A   1      45.688  30.037  29.832  1.00  0.00    -0.354 N 
ATOM     60  N   UNL A   1      41.706  28.919  31.228  1.00  0.00    -0.248 NA
ATOM     61  C   UNL A   1      41.421  30.265  29.347  1.00  0.00     0.031 C 
ATOM     62  C   UNL A   1      46.584  28.377  30.928  1.00  0.00     0.029 A 
ATOM     63  C   UNL A   1      45.403  29.113  30.804  1.00  0.00     0.049 A 
ATOM     64  H   UNL A   1      45.273  30.925  29.739  1.00  0.00     0.167 HD
ATOM     65  C   UNL A   1      42.937  29.479  30.920  1.00  0.00     0.074 A 
ATOM     66  C   UNL A   1      42.665  30.397  29.815  1.00  0.00     0.031 C 
ATOM     67  C   UNL A   1      44.093  28.931  31.395  1.00  0.00     0.031 A 
BRANCH  54  68
ATOM     68  C   UNL A   1      46.377  31.011  26.934  1.00  0.00    -0.014 A 
ATOM     69  C   UNL A   1      47.528  31.815  26.885  1.00  0.00     0.009 A 
ATOM     70  C   UNL A   1      45.157  31.632  26.596  1.00  0.00     0.009 A 
ATOM     71  C   UNL A   1      47.453  33.174  26.547  1.00  0.00     0.001 A 
ATOM     72  C   UNL A   1      45.083  32.974  26.217  1.00  0.00     0.001 A 
ATOM     73  C   UNL A   1      46.231  33.751  26.213  1.00  0.00     0.000 A 
ENDBRANCH  54  68
BRANCH  55  74
ATOM     74  C   UNL A   1      38.560  28.611  29.431  1.00  0.00    -0.014 A 
ATOM     75  C   UNL A   1      37.728  28.869  30.534  1.00  0.00     0.009 A 
ATOM     76  C   UNL A   1      38.113  29.022  28.163  1.00  0.00     0.009 A 
ATOM     77  C   UNL A   1      36.524  29.568  30.381  1.00  0.00     0.001 A 
ATOM     78  C   UNL A   1      36.908  29.718  28.011  1.00  0.00     0.001 A 
ATOM     79  C   UNL A   1      36.123  30.009  29.123  1.00  0.00     0.000 A 
ENDBRANCH  55  74
BRANCH  67  80
ATOM     80  C   UNL A   1      43.979  27.865  32.462  1.00  0.00    -0.014 A 
ATOM     81  C   UNL A   1      43.986  26.485  32.184  1.00  0.00     0.009 A 
ATOM     82  C   UNL A   1      44.016  28.268  33.805  1.00  0.00     0.009 A 
ATOM     83  C   UNL A   1      44.010  25.543  33.220  1.00  0.00     0.001 A 
ATOM     84  C   UNL A   1      44.062  27.330  34.838  1.00  0.00     0.001 A 
ATOM     85  C   UNL A   1      44.056  25.967  34.546  1.00  0.00     0.000 A 
ENDBRANCH  67  80
ENDBRANCH  41  42
ENDBRANCH  33  36
ENDBRANCH  31  32
ENDBRANCH  30  31
ENDBRANCH  29  30
ENDBRANCH   1  29
TORSDOF 16
ENDMDL
MODEL 2
REMARK VINA RESULT:     -11.5      3.795      8.963
REMARK SMILES COc1ccc(Cl)cc1Nc1ncnc2sc(C(=O)NCCCCCCNC(=O)c3ccc(-c4c5nc(c(-c6ccccc6)c6ccc([nH]6)c(-c6ccccc6)c6nc(c(-c7ccccc7)c7ccc4[nH]7)C=C6)C=C5)cc3)c(C)c12
REMARK SMILES IDX 23 1 22 2 21 3 20 4 18 5 19 6 17 8 11 9 12 10 80 11 13 12
REMARK SMILES IDX 15 13 78 14 14 15 16 16 79 17 10 18 9 20 3 21 4 22 5 23 8 24
REMARK SMILES IDX 6 25 7 26 2 27 1 28 24 29 25 30 26 31 27 32 28 33 29 35
REMARK SMILES IDX 30 36 31 37 77 38 32 39 76 40 33 41 34 42 35 43 70 44 36 45
REMARK SMILES IDX 75 46 69 47 71 48 37 49 74 50 68 51 67 52 38 54 60 55 45 56
REMARK SMILES IDX 59 57 46 58 49 59 58 60 72 61 47 62 48 63 57 65 73 66 50 67
REMARK SMILES IDX 39 68 40 69 44 70 41 71 43 72 42 73 61 74 62 75 66 76 63 77
REMARK SMILES IDX 65 78 64 79 51 80 52 81 56 82 53 83 55 84 54 85
REMARK H PARENT 20 7 10 19 27 34 71 53 49 64
REMARK Flexibility Score: inf
ROOT
ATOM      1  C   UNL A   1      32.319  30.002  27.215  1.00  0.00     0.002 C 
ENDROOT
BRANCH   1   2
ATOM      2  C   UNL A   1      33.849  30.040  27.107  1.00  0.00     0.021 C 
BRANCH   2   3
ATOM      3  C   UNL A   1      34.432  28.868  26.315  1.00  0.00     0.116 C 
BRANCH   3   4
ATOM      4  N   UNL A   1      33.803  28.772  25.014  1.00  0.00    -0.351 N 
ATOM      5  C   UNL A   1      33.068  27.811  24.365  1.00  0.00     0.261 C 
ATOM      6  O   UNL A   1      32.745  28.141  23.220  1.00  0.00    -0.268 OA
ATOM      7  H   UNL A   1      33.934  29.582  24.468  1.00  0.00     0.163 HD
BRANCH   5   8
ATOM      8  C   UNL A   1      32.643  26.541  24.963  1.00  0.00     0.098 A 
ATOM      9  C   UNL A   1      32.116  22.824  25.116  1.00  0.00     0.142 A 
ATOM     10  N   UNL A   1      31.167  22.179  25.838  1.00  0.00    -0.219 NA
ATOM     11  C   UNL A   1      32.242  24.224  25.264  1.00  0.00     0.058 A 
ATOM     12  C   UNL A   1      30.415  22.870  26.700  1.00  0.00     0.225 A 
ATOM     13  C   UNL A   1      31.400  24.796  26.198  1.00  0.00     0.129 A 
ATOM     14  C   UNL A   1      33.027  25.248  24.577  1.00  0.00    -0.014 A 
ATOM     15  N   UNL A   1      30.480  24.175  26.953  1.00  0.00    -0.225 NA
ATOM     16  S   UNL A   1      31.646  26.456  26.351  1.00  0.00    -0.110 S 
ATOM     17  C   UNL A   1      34.040  24.907  23.521  1.00  0.00     0.047 C 
BRANCH   9  18
ATOM     18  N   UNL A   1      32.871  22.093  24.203  1.00  0.00    -0.337 N 
ATOM     19  H   UNL A   1      32.573  22.135  23.266  1.00  0.00     0.168 HD
BRANCH  18  20
ATOM     20  C   UNL A   1      34.010  21.300  24.450  1.00  0.00     0.084 A 
ATOM     21  C   UNL A   1      33.882  19.895  24.500  1.00  0.00     0.142 A 
ATOM     22  C   UNL A   1      35.006  19.100  24.746  1.00  0.00     0.050 A 
ATOM     23  C   UNL A   1      36.252  19.694  24.968  1.00  0.00     0.024 A 
ATOM     24  C   UNL A   1      35.271  21.875  24.660  1.00  0.00     0.050 A 
ATOM     25  C   UNL A   1      36.378  21.078  24.928  1.00  0.00     0.043 A 
ATOM     26  Cl  UNL A   1      37.906  21.813  25.222  1.00  0.00    -0.084 Cl
BRANCH  21  27
ATOM     27  O   UNL A   1      32.621  19.402  24.261  1.00  0.00    -0.495 OA
ATOM     28  C   UNL A   1      32.373  18.077  24.720  1.00  0.00     0.278 C 
ENDBRANCH  21  27
ENDBRANCH  18  20
ENDBRANCH   9  18
ENDBRANCH   5   8
ENDBRANCH   3   4
ENDBRANCH   2   3
ENDBRANCH   1   2
BRANCH   1  29
ATOM     29  C   UNL A   1      31.565  30.947  26.262  1.00  0.00     0.002 C 
BRANCH  29  30
ATOM     30  C   UNL A   1      31.362  32.385  26.760  1.00  0.00     0.021 C 
BRANCH  30  31
ATOM     31  C   UNL A   1      32.661  33.076  27.137  1.00  0.00     0.116 C 
BRANCH  31  32
ATOM     32  N   UNL A   1      32.423  34.292  27.913  1.00  0.00    -0.352 N 
ATOM     33  C   UNL A   1      33.062  34.724  29.051  1.00  0.00     0.251 C 
ATOM     34  H   UNL A   1      31.710  34.881  27.575  1.00  0.00     0.163 HD
ATOM     35  O   UNL A   1      32.546  35.562  29.788  1.00  0.00    -0.269 OA
BRANCH  33  36
ATOM     36  C   UNL A   1      34.386  34.176  29.372  1.00  0.00     0.039 A 
ATOM     37  C   UNL A   1      34.611  33.447  30.543  1.00  0.00     0.014 A 
ATOM     38  C   UNL A   1      35.416  34.402  28.461  1.00  0.00     0.014 A 
ATOM     39  C   UNL A   1      35.870  32.896  30.758  1.00  0.00     0.010 A 
ATOM     40  C   UNL A   1      36.595  33.723  28.589  1.00  0.00     0.010 A 
ATOM     41  C   UNL A   1      36.854  33.035  29.769  1.00  0.00    -0.014 A 
BRANCH  41  42
ATOM     42  C   UNL A   1      38.147  32.380  29.888  1.00  0.00     0.031 A 
ATOM     43  C   UNL A   1      38.143  30.942  29.514  1.00  0.00     0.074 A 
ATOM     44  C   UNL A   1      39.288  33.082  30.061  1.00  0.00     0.049 A 
ATOM     45  N   UNL A   1      38.393  29.927  30.270  1.00  0.00    -0.248 NA
ATOM     46  C   UNL A   1      37.680  30.582  28.161  1.00  0.00     0.031 C 
ATOM     47  C   UNL A   1      39.455  34.542  30.107  1.00  0.00     0.029 A 
ATOM     48  N   UNL A   1      40.573  32.638  30.094  1.00  0.00    -0.354 N 
ATOM     49  C   UNL A   1      38.314  28.811  29.443  1.00  0.00     0.074 A 
ATOM     50  C   UNL A   1      37.693  29.250  28.220  1.00  0.00     0.031 C 
ATOM     51  C   UNL A   1      40.753  34.858  29.908  1.00  0.00     0.029 A 
ATOM     52  C   UNL A   1      41.529  33.632  29.905  1.00  0.00     0.049 A 
ATOM     53  H   UNL A   1      40.807  31.694  30.238  1.00  0.00     0.167 HD
ATOM     54  C   UNL A   1      39.010  27.674  29.715  1.00  0.00     0.031 A 
ATOM     55  C   UNL A   1      42.859  33.449  29.729  1.00  0.00     0.031 A 
ATOM     56  C   UNL A   1      39.496  27.656  31.071  1.00  0.00     0.049 A 
ATOM     57  C   UNL A   1      43.179  32.092  30.223  1.00  0.00     0.074 A 
ATOM     58  C   UNL A   1      38.905  27.688  32.318  1.00  0.00     0.029 A 
ATOM     59  N   UNL A   1      40.806  28.027  31.259  1.00  0.00    -0.354 N 
ATOM     60  N   UNL A   1      43.087  31.743  31.473  1.00  0.00    -0.248 NA
ATOM     61  C   UNL A   1      43.191  31.000  29.267  1.00  0.00     0.031 C 
ATOM     62  C   UNL A   1      39.756  28.516  33.108  1.00  0.00     0.029 A 
ATOM     63  C   UNL A   1      40.856  28.884  32.329  1.00  0.00     0.049 A 
ATOM     64  H   UNL A   1      41.575  27.729  30.721  1.00  0.00     0.167 HD
ATOM     65  C   UNL A   1      42.582  30.451  31.438  1.00  0.00     0.074 A 
ATOM     66  C   UNL A   1      42.786  30.006  30.062  1.00  0.00     0.031 C 
ATOM     67  C   UNL A   1      41.791  29.983  32.448  1.00  0.00     0.031 A 
BRANCH  54  68
ATOM     68  C   UNL A   1      39.601  26.797  28.641  1.00  0.00    -0.014 A 
ATOM     69  C   UNL A   1      40.490  27.356  27.709  1.00  0.00     0.009 A 
ATOM     70  C   UNL A   1      39.109  25.507  28.351  1.00  0.00     0.009 A 
ATOM     71  C   UNL A   1      40.841  26.672  26.537  1.00  0.00     0.001 A 
ATOM     72  C   UNL A   1      39.490  24.804  27.206  1.00  0.00     0.001 A 
ATOM     73  C   UNL A   1      40.341  25.396  26.287  1.00  0.00     0.000 A 
ENDBRANCH  54  68
BRANCH  55  74
ATOM     74  C   UNL A   1      43.824  34.226  28.922  1.00  0.00    -0.014 A 
ATOM     75  C   UNL A   1      43.721  34.246  27.521  1.00  0.00     0.009 A 
ATOM     76  C   UNL A   1      44.648  35.189  29.532  1.00  0.00     0.009 A 
ATOM     77  C   UNL A   1      44.367  35.232  26.763  1.00  0.00     0.001 A 
ATOM     78  C   UNL A   1      45.296  36.172  28.775  1.00  0.00     0.001 A 
ATOM     79  C   UNL A   1      45.139  36.206  27.392  1.00  0.00     0.000 A 
ENDBRANCH  55  74
BRANCH  67  80
ATOM     80  C   UNL A   1      41.697  30.812  33.709  1.00  0.00    -0.014 A 
ATOM     81  C   UNL A   1      40.788  31.875  33.874  1.00  0.00     0.009 A 
ATOM     82  C   UNL A   1      42.449  30.409  34.823  1.00  0.00     0.009 A 
ATOM     83  C   UNL A   1      40.654  32.521  35.108  1.00  0.00     0.001 A 
ATOM     84  C   UNL A   1      42.300  31.040  36.059  1.00  0.00     0.001 A 
ATOM     85  C   UNL A   1      41.404  32.097  36.202  1.00  0.00     0.000 A 
ENDBRANCH  67  80
ENDBRANCH  41  42
ENDBRANCH  33  36
ENDBRANCH  31  32
ENDBRANCH  30  31
ENDBRANCH  29  30
ENDBRANCH   1  29
TORSDOF 16
ENDMDL
MODEL 3
REMARK VINA RESULT:     -11.4      1.471      1.834
REMARK SMILES COc1ccc(Cl)cc1Nc1ncnc2sc(C(=O)NCCCCCCNC(=O)c3ccc(-c4c5nc(c(-c6ccccc6)c6ccc([nH]6)c(-c6ccccc6)c6nc(c(-c7ccccc7)c7ccc4[nH]7)C=C6)C=C5)cc3)c(C)c12
REMARK SMILES IDX 23 1 22 2 21 3 20 4 18 5 19 6 17 8 11 9 12 10 80 11 13 12
REMARK SMILES IDX 15 13 78 14 14 15 16 16 79 17 10 18 9 20 3 21 4 22 5 23 8 24
REMARK SMILES IDX 6 25 7 26 2 27 1 28 24 29 25 30 26 31 27 32 28 33 29 35
REMARK SMILES IDX 30 36 31 37 77 38 32 39 76 40 33 41 34 42 35 43 70 44 36 45
REMARK SMILES IDX 75 46 69 47 71 48 37 49 74 50 68 51 67 52 38 54 60 55 45 56
REMARK SMILES IDX 59 57 46 58 49 59 58 60 72 61 47 62 48 63 57 65 73 66 50 67
REMARK SMILES IDX 39 68 40 69 44 70 41 71 43 72 42 73 61 74 62 75 66 76 63 77
REMARK SMILES IDX 65 78 64 79 51 80 52 81 56 82 53 83 55 84 54 85
REMARK H PARENT 20 7 10 19 27 34 71 53 49 64
REMARK Flexibility Score: inf
ROOT
ATOM      1  C   UNL A   1      39.615  21.895  26.452  1.00  0.00     0.002 C 
ENDROOT
BRANCH   1   2
ATOM      2  C   UNL A   1      38.929  23.269  26.424  1.00  0.00     0.021 C 
BRANCH   2   3
ATOM      3  C   UNL A   1      37.437  23.195  26.097  1.00  0.00     0.116 C 
BRANCH   3   4
ATOM      4  N   UNL A   1      37.230  23.195  24.664  1.00  0.00    -0.351 N 
ATOM      5  C   UNL A   1      36.127  23.169  23.847  1.00  0.00     0.261 C 
ATOM      6  O   UNL A   1      36.415  23.149  22.647  1.00  0.00    -0.268 OA
ATOM      7  H   UNL A   1      38.075  23.217  24.159  1.00  0.00     0.163 HD
BRANCH   5   8
ATOM      8  C   UNL A   1      34.739  23.221  24.319  1.00  0.00     0.098 A 
ATOM      9  C   UNL A   1      31.786  24.646  26.153  1.00  0.00     0.142 A 
ATOM     10  N   UNL A   1      30.736  23.946  26.647  1.00  0.00    -0.219 NA
ATOM     11  C   UNL A   1      32.757  23.959  25.390  1.00  0.00     0.058 A 
ATOM     12  C   UNL A   1      30.621  22.645  26.361  1.00  0.00     0.225 A 
ATOM     13  C   UNL A   1      32.497  22.620  25.173  1.00  0.00     0.129 A 
ATOM     14  C   UNL A   1      34.053  24.334  24.827  1.00  0.00    -0.014 A 
ATOM     15  N   UNL A   1      31.446  21.912  25.618  1.00  0.00    -0.225 NA
ATOM     16  S   UNL A   1      33.674  21.885  24.215  1.00  0.00    -0.110 S 
ATOM     17  C   UNL A   1      34.583  25.737  24.902  1.00  0.00     0.047 C 
BRANCH   9  18
ATOM     18  N   UNL A   1      31.903  25.994  26.483  1.00  0.00    -0.337 N 
ATOM     19  H   UNL A   1      32.299  26.188  27.363  1.00  0.00     0.168 HD
BRANCH  18  20
ATOM     20  C   UNL A   1      31.528  27.116  25.717  1.00  0.00     0.084 A 
ATOM     21  C   UNL A   1      32.146  28.361  25.959  1.00  0.00     0.142 A 
ATOM     22  C   UNL A   1      31.779  29.481  25.205  1.00  0.00     0.050 A 
ATOM     23  C   UNL A   1      30.784  29.375  24.229  1.00  0.00     0.024 A 
ATOM     24  C   UNL A   1      30.543  27.027  24.724  1.00  0.00     0.050 A 
ATOM     25  C   UNL A   1      30.168  28.151  23.996  1.00  0.00     0.043 A 
ATOM     26  Cl  UNL A   1      28.926  28.023  22.811  1.00  0.00    -0.084 Cl
BRANCH  21  27
ATOM     27  O   UNL A   1      33.120  28.366  26.930  1.00  0.00    -0.495 OA
ATOM     28  C   UNL A   1      34.168  29.313  26.756  1.00  0.00     0.278 C 
ENDBRANCH  21  27
ENDBRANCH  18  20
ENDBRANCH   9  18
ENDBRANCH   5   8
ENDBRANCH   3   4
ENDBRANCH   2   3
ENDBRANCH   1   2
BRANCH   1  29
ATOM     29  C   UNL A   1      40.703  21.722  27.527  1.00  0.00     0.002 C 
BRANCH  29  30
ATOM     30  C   UNL A   1      41.737  20.617  27.266  1.00  0.00     0.021 C 
BRANCH  30  31
ATOM     31  C   UNL A   1      41.746  20.136  25.825  1.00  0.00     0.116 C 
BRANCH  31  32
ATOM     32  N   UNL A   1      43.105  19.895  25.344  1.00  0.00    -0.352 N 
ATOM     33  C   UNL A   1      44.082  20.811  25.030  1.00  0.00     0.251 C 
ATOM     34  H   UNL A   1      43.356  18.949  25.229  1.00  0.00     0.163 HD
ATOM     35  O   UNL A   1      45.036  20.502  24.318  1.00  0.00    -0.269 OA
BRANCH  33  36
ATOM     36  C   UNL A   1      43.975  22.172  25.571  1.00  0.00     0.039 A 
ATOM     37  C   UNL A   1      43.100  23.111  25.018  1.00  0.00     0.014 A 
ATOM     38  C   UNL A   1      44.776  22.496  26.664  1.00  0.00     0.014 A 
ATOM     39  C   UNL A   1      42.996  24.363  25.617  1.00  0.00     0.010 A 
ATOM     40  C   UNL A   1      44.551  23.657  27.349  1.00  0.00     0.010 A 
ATOM     41  C   UNL A   1      43.722  24.622  26.788  1.00  0.00    -0.014 A 
BRANCH  41  42
ATOM     42  C   UNL A   1      43.560  25.869  27.521  1.00  0.00     0.031 A 
ATOM     43  C   UNL A   1      44.546  26.921  27.165  1.00  0.00     0.074 A 
ATOM     44  C   UNL A   1      42.454  26.127  28.251  1.00  0.00     0.049 A 
ATOM     45  N   UNL A   1      45.441  27.456  27.925  1.00  0.00    -0.248 NA
ATOM     46  C   UNL A   1      44.630  27.341  25.754  1.00  0.00     0.031 C 
ATOM     47  C   UNL A   1      41.253  25.291  28.403  1.00  0.00     0.029 A 
ATOM     48  N   UNL A   1      42.105  27.264  28.908  1.00  0.00    -0.354 N 
ATOM     49  C   UNL A   1      46.071  28.422  27.146  1.00  0.00     0.074 A 
ATOM     50  C   UNL A   1      45.667  28.177  25.785  1.00  0.00     0.031 C 
ATOM     51  C   UNL A   1      40.235  26.040  28.881  1.00  0.00     0.029 A 
ATOM     52  C   UNL A   1      40.756  27.346  29.239  1.00  0.00     0.049 A 
ATOM     53  H   UNL A   1      42.752  27.971  29.131  1.00  0.00     0.167 HD
ATOM     54  C   UNL A   1      46.656  29.516  27.706  1.00  0.00     0.031 A 
ATOM     55  C   UNL A   1      40.112  28.426  29.743  1.00  0.00     0.031 A 
ATOM     56  C   UNL A   1      46.852  29.352  29.123  1.00  0.00     0.049 A 
ATOM     57  C   UNL A   1      41.145  29.323  30.303  1.00  0.00     0.074 A 
ATOM     58  C   UNL A   1      47.561  28.469  29.912  1.00  0.00     0.029 A 
ATOM     59  N   UNL A   1      45.913  29.930  29.944  1.00  0.00    -0.354 N 
ATOM     60  N   UNL A   1      41.877  29.020  31.335  1.00  0.00    -0.248 NA
ATOM     61  C   UNL A   1      41.664  30.384  29.458  1.00  0.00     0.031 C 
ATOM     62  C   UNL A   1      46.720  28.222  31.036  1.00  0.00     0.029 A 
ATOM     63  C   UNL A   1      45.579  29.019  30.914  1.00  0.00     0.049 A 
ATOM     64  H   UNL A   1      45.545  30.838  29.852  1.00  0.00     0.167 HD
ATOM     65  C   UNL A   1      43.135  29.515  31.029  1.00  0.00     0.074 A 
ATOM     66  C   UNL A   1      42.913  30.448  29.927  1.00  0.00     0.031 C 
ATOM     67  C   UNL A   1      44.261  28.906  31.504  1.00  0.00     0.031 A 
BRANCH  54  68
ATOM     68  C   UNL A   1      46.655  30.873  27.048  1.00  0.00    -0.014 A 
ATOM     69  C   UNL A   1      47.848  31.611  26.994  1.00  0.00     0.009 A 
ATOM     70  C   UNL A   1      45.469  31.561  26.719  1.00  0.00     0.009 A 
ATOM     71  C   UNL A   1      47.847  32.972  26.659  1.00  0.00     0.001 A 
ATOM     72  C   UNL A   1      45.468  32.907  26.343  1.00  0.00     0.001 A 
ATOM     73  C   UNL A   1      46.657  33.618  26.334  1.00  0.00     0.000 A 
ENDBRANCH  54  68
BRANCH  55  74
ATOM     74  C   UNL A   1      38.720  28.882  29.537  1.00  0.00    -0.014 A 
ATOM     75  C   UNL A   1      37.817  28.908  30.613  1.00  0.00     0.009 A 
ATOM     76  C   UNL A   1      38.366  29.579  28.368  1.00  0.00     0.009 A 
ATOM     77  C   UNL A   1      36.634  29.656  30.544  1.00  0.00     0.001 A 
ATOM     78  C   UNL A   1      37.183  30.323  28.298  1.00  0.00     0.001 A 
ATOM     79  C   UNL A   1      36.327  30.378  29.394  1.00  0.00     0.000 A 
ENDBRANCH  55  74
BRANCH  67  80
ATOM     80  C   UNL A   1      44.090  27.844  32.568  1.00  0.00    -0.014 A 
ATOM     81  C   UNL A   1      44.017  26.467  32.287  1.00  0.00     0.009 A 
ATOM     82  C   UNL A   1      44.155  28.241  33.912  1.00  0.00     0.009 A 
ATOM     83  C   UNL A   1      43.992  25.523  33.320  1.00  0.00     0.001 A 
ATOM     84  C   UNL A   1      44.151  27.298  34.942  1.00  0.00     0.001 A 
ATOM     85  C   UNL A   1      44.067  25.939  34.647  1.00  0.00     0.000 A 
ENDBRANCH  67  80
ENDBRANCH  41  42
ENDBRANCH  33  36
ENDBRANCH  31  32
ENDBRANCH  30  31
ENDBRANCH  29  30
ENDBRANCH   1  29
TORSDOF 16
ENDMDL
