MODEL 1
REMARK VINA RESULT:     -10.5      0.000      0.000
REMARK SMILES O=C(NCCCCCCNC(=O)c1cccnc1SCC(=O)c1ccccc1Cl)c1ccc(-c2c3nc(c(-c4ccccc4)c4ccc([nH]4)c(-c4ccccc4)c4nc(c(-c5ccccc5)c5ccc2[nH]5)C=C4)C=C3)cc1
REMARK SMILES IDX 7 1 6 2 5 3 4 4 3 5 1 6 2 7 30 9 31 10 77 11 32 12 76 13
REMARK SMILES IDX 33 14 34 15 35 16 70 17 36 18 75 19 69 20 71 21 37 22 74 23
REMARK SMILES IDX 68 24 67 25 38 27 60 28 45 29 59 30 46 31 49 32 58 33 72 34
REMARK SMILES IDX 47 35 48 36 57 38 73 39 50 40 39 41 40 42 44 43 41 44 43 45
REMARK SMILES IDX 42 46 61 47 62 48 66 49 63 50 65 51 64 52 51 53 52 54 56 55
REMARK SMILES IDX 53 56 55 57 54 58 8 59 9 60 10 61 11 62 12 64 13 65 14 66
REMARK SMILES IDX 18 67 15 68 17 69 16 70 19 71 20 72 21 73 22 74 23 75 24 76
REMARK SMILES IDX 28 77 25 78 27 79 29 80 26 81
REMARK H PARENT 3 8 71 26 49 37 10 63
REMARK Flexibility Score: inf
ROOT
ATOM      1  C   UNL A   1      36.252  22.021  24.315  1.00  0.00     0.002 C 
ENDROOT
BRANCH   1   2
ATOM      2  C   UNL A   1      36.397  20.650  24.981  1.00  0.00     0.002 C 
BRANCH   2   3
ATOM      3  C   UNL A   1      37.722  19.916  24.785  1.00  0.00     0.021 C 
BRANCH   3   4
ATOM      4  C   UNL A   1      38.834  20.265  25.763  1.00  0.00     0.116 C 
BRANCH   4   5
ATOM      5  N   UNL A   1      39.973  19.366  25.691  1.00  0.00    -0.352 N 
ATOM      6  O   UNL A   1      42.145  18.750  25.791  1.00  0.00    -0.269 OA
ATOM      7  C   UNL A   1      41.286  19.607  26.014  1.00  0.00     0.251 C 
ATOM      8  H   UNL A   1      39.777  18.459  25.364  1.00  0.00     0.163 HD
BRANCH   7   9
ATOM      9  C   UNL A   1      41.690  20.907  26.601  1.00  0.00     0.039 A 
ATOM     10  C   UNL A   1      41.682  21.108  27.982  1.00  0.00     0.014 A 
ATOM     11  C   UNL A   1      42.094  21.943  25.752  1.00  0.00     0.014 A 
ATOM     12  C   UNL A   1      41.934  22.374  28.501  1.00  0.00     0.010 A 
ATOM     13  C   UNL A   1      42.427  23.196  26.280  1.00  0.00     0.010 A 
ATOM     14  C   UNL A   1      42.318  23.431  27.658  1.00  0.00    -0.014 A 
BRANCH  14  15
ATOM     15  C   UNL A   1      42.656  24.744  28.266  1.00  0.00     0.031 A 
ATOM     16  C   UNL A   1      44.076  25.130  28.573  1.00  0.00     0.074 A 
ATOM     17  C   UNL A   1      41.660  25.628  28.479  1.00  0.00     0.049 A 
ATOM     18  N   UNL A   1      44.540  26.279  29.000  1.00  0.00    -0.248 NA
ATOM     19  C   UNL A   1      45.109  24.101  28.383  1.00  0.00     0.031 C 
ATOM     20  C   UNL A   1      40.237  25.365  28.243  1.00  0.00     0.029 A 
ATOM     21  N   UNL A   1      41.693  26.932  28.898  1.00  0.00    -0.354 N 
ATOM     22  C   UNL A   1      45.911  26.109  29.143  1.00  0.00     0.074 A 
ATOM     23  C   UNL A   1      46.204  24.739  28.777  1.00  0.00     0.031 C 
ATOM     24  C   UNL A   1      39.543  26.492  28.455  1.00  0.00     0.029 A 
ATOM     25  C   UNL A   1      40.462  27.540  28.883  1.00  0.00     0.049 A 
ATOM     26  H   UNL A   1      42.518  27.388  29.183  1.00  0.00     0.167 HD
ATOM     27  C   UNL A   1      46.841  27.012  29.536  1.00  0.00     0.031 A 
ATOM     28  C   UNL A   1      40.107  28.804  29.174  1.00  0.00     0.031 A 
ATOM     29  C   UNL A   1      46.555  28.375  29.902  1.00  0.00     0.049 A 
ATOM     30  C   UNL A   1      41.159  29.787  29.586  1.00  0.00     0.074 A 
ATOM     31  C   UNL A   1      47.437  29.362  30.310  1.00  0.00     0.029 A 
ATOM     32  N   UNL A   1      45.293  28.944  29.899  1.00  0.00    -0.354 N 
ATOM     33  N   UNL A   1      42.453  29.611  29.695  1.00  0.00    -0.248 NA
ATOM     34  C   UNL A   1      40.701  31.145  29.914  1.00  0.00     0.031 C 
ATOM     35  C   UNL A   1      46.701  30.523  30.583  1.00  0.00     0.029 A 
ATOM     36  C   UNL A   1      45.369  30.266  30.307  1.00  0.00     0.049 A 
ATOM     37  H   UNL A   1      44.463  28.478  29.644  1.00  0.00     0.167 HD
ATOM     38  C   UNL A   1      42.965  30.832  30.111  1.00  0.00     0.074 A 
ATOM     39  C   UNL A   1      41.847  31.749  30.197  1.00  0.00     0.031 C 
ATOM     40  C   UNL A   1      44.245  31.159  30.405  1.00  0.00     0.031 A 
BRANCH  27  41
ATOM     41  C   UNL A   1      48.269  26.549  29.609  1.00  0.00    -0.014 A 
ATOM     42  C   UNL A   1      49.105  26.606  28.483  1.00  0.00     0.009 A 
ATOM     43  C   UNL A   1      48.800  26.104  30.829  1.00  0.00     0.009 A 
ATOM     44  C   UNL A   1      50.441  26.207  28.574  1.00  0.00     0.001 A 
ATOM     45  C   UNL A   1      50.140  25.724  30.921  1.00  0.00     0.001 A 
ATOM     46  C   UNL A   1      50.957  25.770  29.793  1.00  0.00     0.000 A 
ENDBRANCH  27  41
BRANCH  28  47
ATOM     47  C   UNL A   1      38.681  29.207  29.078  1.00  0.00    -0.014 A 
ATOM     48  C   UNL A   1      37.836  29.113  30.192  1.00  0.00     0.009 A 
ATOM     49  C   UNL A   1      38.168  29.708  27.871  1.00  0.00     0.009 A 
ATOM     50  C   UNL A   1      36.497  29.500  30.096  1.00  0.00     0.001 A 
ATOM     51  C   UNL A   1      36.837  30.118  27.785  1.00  0.00     0.001 A 
ATOM     52  C   UNL A   1      36.001  30.007  28.895  1.00  0.00     0.000 A 
ENDBRANCH  28  47
BRANCH  40  53
ATOM     53  C   UNL A   1      44.492  32.569  30.854  1.00  0.00    -0.014 A 
ATOM     54  C   UNL A   1      44.775  33.580  29.922  1.00  0.00     0.009 A 
ATOM     55  C   UNL A   1      44.437  32.891  32.218  1.00  0.00     0.009 A 
ATOM     56  C   UNL A   1      45.034  34.882  30.352  1.00  0.00     0.001 A 
ATOM     57  C   UNL A   1      44.676  34.199  32.643  1.00  0.00     0.001 A 
ATOM     58  C   UNL A   1      44.984  35.190  31.712  1.00  0.00     0.000 A 
ENDBRANCH  40  53
ENDBRANCH  14  15
ENDBRANCH   7   9
ENDBRANCH   4   5
ENDBRANCH   3   4
ENDBRANCH   2   3
ENDBRANCH   1   2
BRANCH   1  59
ATOM     59  C   UNL A   1      36.012  23.232  25.224  1.00  0.00     0.021 C 
BRANCH  59  60
ATOM     60  C   UNL A   1      35.279  22.981  26.535  1.00  0.00     0.116 C 
BRANCH  60  61
ATOM     61  N   UNL A   1      34.014  23.676  26.664  1.00  0.00    -0.352 N 
ATOM     62  C   UNL A   1      32.784  23.105  26.496  1.00  0.00     0.254 C 
ATOM     63  H   UNL A   1      34.043  24.634  26.890  1.00  0.00     0.163 HD
ATOM     64  O   UNL A   1      31.800  23.454  27.157  1.00  0.00    -0.269 OA
BRANCH  62  65
ATOM     65  C   UNL A   1      32.622  21.982  25.587  1.00  0.00     0.072 A 
ATOM     66  C   UNL A   1      32.982  20.729  26.111  1.00  0.00     0.018 A 
ATOM     67  C   UNL A   1      32.188  22.086  24.271  1.00  0.00     0.109 A 
ATOM     68  C   UNL A   1      32.938  19.604  25.305  1.00  0.00     0.021 A 
ATOM     69  N   UNL A   1      32.135  20.968  23.489  1.00  0.00    -0.249 NA
ATOM     70  C   UNL A   1      32.502  19.771  24.008  1.00  0.00     0.112 A 
BRANCH  67  71
ATOM     71  S   UNL A   1      31.955  23.545  23.287  1.00  0.00    -0.097 SA
BRANCH  71  72
ATOM     72  C   UNL A   1      33.281  24.765  23.440  1.00  0.00     0.157 C 
BRANCH  72  73
ATOM     73  C   UNL A   1      33.091  26.247  23.570  1.00  0.00     0.174 C 
ATOM     74  O   UNL A   1      32.878  26.917  22.553  1.00  0.00    -0.293 OA
BRANCH  73  75
ATOM     75  C   UNL A   1      32.773  26.891  24.886  1.00  0.00     0.037 A 
ATOM     76  C   UNL A   1      33.851  27.566  25.499  1.00  0.00     0.013 A 
ATOM     77  C   UNL A   1      31.543  26.883  25.551  1.00  0.00     0.051 A 
ATOM     78  C   UNL A   1      33.711  28.211  26.731  1.00  0.00     0.001 A 
ATOM     79  C   UNL A   1      31.410  27.524  26.797  1.00  0.00     0.021 A 
ATOM     80  Cl  UNL A   1      30.133  26.093  24.971  1.00  0.00    -0.084 Cl
ATOM     81  C   UNL A   1      32.488  28.186  27.384  1.00  0.00     0.002 A 
ENDBRANCH  73  75
ENDBRANCH  72  73
ENDBRANCH  71  72
ENDBRANCH  67  71
ENDBRANCH  62  65
ENDBRANCH  60  61
ENDBRANCH  59  60
ENDBRANCH   1  59
TORSDOF 17
ENDMDL
MODEL 2
REMARK VINA RESULT:     -10.5      3.552      8.836
REMARK SMILES O=C(NCCCCCCNC(=O)c1cccnc1SCC(=O)c1ccccc1Cl)c1ccc(-c2c3nc(c(-c4ccccc4)c4ccc([nH]4)c(-c4ccccc4)c4nc(c(-c5ccccc5)c5ccc2[nH]5)C=C4)C=C3)cc1
REMARK SMILES IDX 7 1 6 2 5 3 4 4 3 5 1 6 2 7 30 9 31 10 77 11 32 12 76 13
REMARK SMILES IDX 33 14 34 15 35 16 70 17 36 18 75 19 69 20 71 21 37 22 74 23
REMARK SMILES IDX 68 24 67 25 38 27 60 28 45 29 59 30 46 31 49 32 58 33 72 34
REMARK SMILES IDX 47 35 48 36 57 38 73 39 50 40 39 41 40 42 44 43 41 44 43 45
REMARK SMILES IDX 42 46 61 47 62 48 66 49 63 50 65 51 64 52 51 53 52 54 56 55
REMARK SMILES IDX 53 56 55 57 54 58 8 59 9 60 10 61 11 62 12 64 13 65 14 66
REMARK SMILES IDX 18 67 15 68 17 69 16 70 19 71 20 72 21 73 22 74 23 75 24 76
REMARK SMILES IDX 28 77 25 78 27 79 29 80 26 81
REMARK H PARENT 3 8 71 26 49 37 10 63
REMARK Flexibility Score: inf
ROOT
ATOM      1  C   UNL A   1      33.088  29.715  26.953  1.00  0.00     0.002 C 
ENDROOT
BRANCH   1   2
ATOM      2  C   UNL A   1      31.793  30.294  26.377  1.00  0.00     0.002 C 
BRANCH   2   3
ATOM      3  C   UNL A   1      31.520  31.777  26.624  1.00  0.00     0.021 C 
BRANCH   3   4
ATOM      4  C   UNL A   1      32.736  32.643  26.915  1.00  0.00     0.116 C 
BRANCH   4   5
ATOM      5  N   UNL A   1      32.416  33.879  27.608  1.00  0.00    -0.352 N 
ATOM      6  O   UNL A   1      32.625  35.505  29.163  1.00  0.00    -0.269 OA
ATOM      7  C   UNL A   1      33.103  34.507  28.619  1.00  0.00     0.251 C 
ATOM      8  H   UNL A   1      31.592  34.329  27.313  1.00  0.00     0.163 HD
BRANCH   7   9
ATOM      9  C   UNL A   1      34.404  33.974  29.088  1.00  0.00     0.039 A 
ATOM     10  C   UNL A   1      35.606  34.411  28.529  1.00  0.00     0.014 A 
ATOM     11  C   UNL A   1      34.422  33.023  30.114  1.00  0.00     0.014 A 
ATOM     12  C   UNL A   1      36.802  33.800  28.889  1.00  0.00     0.010 A 
ATOM     13  C   UNL A   1      35.635  32.466  30.536  1.00  0.00     0.010 A 
ATOM     14  C   UNL A   1      36.833  32.827  29.903  1.00  0.00    -0.014 A 
BRANCH  14  15
ATOM     15  C   UNL A   1      38.145  32.260  30.311  1.00  0.00     0.031 A 
ATOM     16  C   UNL A   1      38.955  32.867  31.423  1.00  0.00     0.074 A 
ATOM     17  C   UNL A   1      38.574  31.135  29.705  1.00  0.00     0.049 A 
ATOM     18  N   UNL A   1      40.063  32.423  31.966  1.00  0.00    -0.248 NA
ATOM     19  C   UNL A   1      38.470  34.130  31.998  1.00  0.00     0.031 C 
ATOM     20  C   UNL A   1      37.890  30.462  28.597  1.00  0.00     0.029 A 
ATOM     21  N   UNL A   1      39.659  30.337  29.960  1.00  0.00    -0.354 N 
ATOM     22  C   UNL A   1      40.413  33.356  32.934  1.00  0.00     0.074 A 
ATOM     23  C   UNL A   1      39.412  34.402  32.891  1.00  0.00     0.031 C 
ATOM     24  C   UNL A   1      38.532  29.320  28.315  1.00  0.00     0.029 A 
ATOM     25  C   UNL A   1      39.694  29.203  29.188  1.00  0.00     0.049 A 
ATOM     26  H   UNL A   1      40.346  30.556  30.631  1.00  0.00     0.167 HD
ATOM     27  C   UNL A   1      41.468  33.340  33.785  1.00  0.00     0.031 A 
ATOM     28  C   UNL A   1      40.560  28.173  29.183  1.00  0.00     0.031 A 
ATOM     29  C   UNL A   1      42.466  32.303  33.832  1.00  0.00     0.049 A 
ATOM     30  C   UNL A   1      41.705  28.172  30.149  1.00  0.00     0.074 A 
ATOM     31  C   UNL A   1      43.568  32.203  34.664  1.00  0.00     0.029 A 
ATOM     32  N   UNL A   1      42.480  31.185  33.015  1.00  0.00    -0.354 N 
ATOM     33  N   UNL A   1      42.007  29.054  31.070  1.00  0.00    -0.248 NA
ATOM     34  C   UNL A   1      42.629  27.030  30.075  1.00  0.00     0.031 C 
ATOM     35  C   UNL A   1      44.267  31.036  34.330  1.00  0.00     0.029 A 
ATOM     36  C   UNL A   1      43.577  30.394  33.315  1.00  0.00     0.049 A 
ATOM     37  H   UNL A   1      41.810  30.982  32.322  1.00  0.00     0.167 HD
ATOM     38  C   UNL A   1      43.158  28.579  31.681  1.00  0.00     0.074 A 
ATOM     39  C   UNL A   1      43.478  27.314  31.053  1.00  0.00     0.031 C 
ATOM     40  C   UNL A   1      43.890  29.148  32.668  1.00  0.00     0.031 A 
BRANCH  27  41
ATOM     41  C   UNL A   1      41.609  34.496  34.735  1.00  0.00    -0.014 A 
ATOM     42  C   UNL A   1      42.302  35.658  34.360  1.00  0.00     0.009 A 
ATOM     43  C   UNL A   1      40.998  34.444  35.997  1.00  0.00     0.009 A 
ATOM     44  C   UNL A   1      42.395  36.739  35.240  1.00  0.00     0.001 A 
ATOM     45  C   UNL A   1      41.077  35.533  36.867  1.00  0.00     0.001 A 
ATOM     46  C   UNL A   1      41.780  36.676  36.491  1.00  0.00     0.000 A 
ENDBRANCH  27  41
BRANCH  28  47
ATOM     47  C   UNL A   1      40.366  27.055  28.226  1.00  0.00    -0.014 A 
ATOM     48  C   UNL A   1      39.592  25.940  28.578  1.00  0.00     0.009 A 
ATOM     49  C   UNL A   1      40.940  27.111  26.947  1.00  0.00     0.009 A 
ATOM     50  C   UNL A   1      39.408  24.895  27.671  1.00  0.00     0.001 A 
ATOM     51  C   UNL A   1      40.733  26.078  26.033  1.00  0.00     0.001 A 
ATOM     52  C   UNL A   1      39.974  24.967  26.398  1.00  0.00     0.000 A 
ENDBRANCH  28  47
BRANCH  40  53
ATOM     53  C   UNL A   1      45.111  28.399  33.115  1.00  0.00    -0.014 A 
ATOM     54  C   UNL A   1      46.358  28.634  32.514  1.00  0.00     0.009 A 
ATOM     55  C   UNL A   1      45.016  27.455  34.148  1.00  0.00     0.009 A 
ATOM     56  C   UNL A   1      47.481  27.909  32.916  1.00  0.00     0.001 A 
ATOM     57  C   UNL A   1      46.145  26.747  34.561  1.00  0.00     0.001 A 
ATOM     58  C   UNL A   1      47.373  26.967  33.939  1.00  0.00     0.000 A 
ENDBRANCH  40  53
ENDBRANCH  14  15
ENDBRANCH   7   9
ENDBRANCH   4   5
ENDBRANCH   3   4
ENDBRANCH   2   3
ENDBRANCH   1   2
BRANCH   1  59
ATOM     59  C   UNL A   1      33.949  28.844  26.032  1.00  0.00     0.021 C 
BRANCH  59  60
ATOM     60  C   UNL A   1      33.412  27.463  25.681  1.00  0.00     0.116 C 
BRANCH  60  61
ATOM     61  N   UNL A   1      33.843  26.954  24.395  1.00  0.00    -0.352 N 
ATOM     62  C   UNL A   1      33.255  27.248  23.197  1.00  0.00     0.254 C 
ATOM     63  H   UNL A   1      34.621  26.350  24.383  1.00  0.00     0.163 HD
ATOM     64  O   UNL A   1      33.905  27.352  22.151  1.00  0.00    -0.269 OA
BRANCH  62  65
ATOM     65  C   UNL A   1      31.834  27.549  23.140  1.00  0.00     0.072 A 
ATOM     66  C   UNL A   1      31.515  28.891  22.872  1.00  0.00     0.018 A 
ATOM     67  C   UNL A   1      30.820  26.626  23.368  1.00  0.00     0.109 A 
ATOM     68  C   UNL A   1      30.192  29.300  22.872  1.00  0.00     0.021 A 
ATOM     69  N   UNL A   1      29.518  27.037  23.351  1.00  0.00    -0.249 NA
ATOM     70  C   UNL A   1      29.232  28.339  23.107  1.00  0.00     0.112 A 
BRANCH  67  71
ATOM     71  S   UNL A   1      30.942  24.972  24.001  1.00  0.00    -0.097 SA
BRANCH  71  72
ATOM     72  C   UNL A   1      31.950  23.862  22.990  1.00  0.00     0.157 C 
BRANCH  72  73
ATOM     73  C   UNL A   1      32.863  22.793  23.515  1.00  0.00     0.174 C 
ATOM     74  O   UNL A   1      32.649  21.616  23.205  1.00  0.00    -0.293 OA
BRANCH  73  75
ATOM     75  C   UNL A   1      34.217  23.113  24.073  1.00  0.00     0.037 A 
ATOM     76  C   UNL A   1      35.289  22.968  23.165  1.00  0.00     0.013 A 
ATOM     77  C   UNL A   1      34.514  23.528  25.374  1.00  0.00     0.051 A 
ATOM     78  C   UNL A   1      36.611  23.224  23.539  1.00  0.00     0.001 A 
ATOM     79  C   UNL A   1      35.848  23.774  25.749  1.00  0.00     0.021 A 
ATOM     80  Cl  UNL A   1      33.346  23.733  26.617  1.00  0.00    -0.084 Cl
ATOM     81  C   UNL A   1      36.892  23.624  24.837  1.00  0.00     0.002 A 
ENDBRANCH  73  75
ENDBRANCH  72  73
ENDBRANCH  71  72
ENDBRANCH  67  71
ENDBRANCH  62  65
ENDBRANCH  60  61
ENDBRANCH  59  60
ENDBRANCH   1  59
TORSDOF 17
ENDMDL
MODEL 3
REMARK VINA RESULT:     -10.4      1.825      2.982
REMARK SMILES O=C(NCCCCCCNC(=O)c1cccnc1SCC(=O)c1ccccc1Cl)c1ccc(-c2c3nc(c(-c4ccccc4)c4ccc([nH]4)c(-c4ccccc4)c4nc(c(-c5ccccc5)c5ccc2[nH]5)C=C4)C=C3)cc1
REMARK SMILES IDX 7 1 6 2 5 3 4 4 3 5 1 6 2 7 30 9 31 10 77 11 32 12 76 13
REMARK SMILES IDX 33 14 34 15 35 16 70 17 36 18 75 19 69 20 71 21 37 22 74 23
REMARK SMILES IDX 68 24 67 25 38 27 60 28 45 29 59 30 46 31 49 32 58 33 72 34
REMARK SMILES IDX 47 35 48 36 57 38 73 39 50 40 39 41 40 42 44 43 41 44 43 45
REMARK SMILES IDX 42 46 61 47 62 48 66 49 63 50 65 51 64 52 51 53 52 54 56 55
REMARK SMILES IDX 53 56 55 57 54 58 8 59 9 60 10 61 11 62 12 64 13 65 14 66
REMARK SMILES IDX 18 67 15 68 17 69 16 70 19 71 20 72 21 73 22 74 23 75 24 76
REMARK SMILES IDX 28 77 25 78 27 79 29 80 26 81
REMARK H PARENT 3 8 71 26 49 37 10 63
REMARK Flexibility Score: inf
ROOT
ATOM      1  C   UNL A   1      36.022  22.632  24.594  1.00  0.00     0.002 C 
ENDROOT
BRANCH   1   2
ATOM      2  C   UNL A   1      35.964  21.147  24.963  1.00  0.00     0.002 C 
BRANCH   2   3
ATOM      3  C   UNL A   1      37.237  20.328  24.759  1.00  0.00     0.021 C 
BRANCH   3   4
ATOM      4  C   UNL A   1      38.428  20.710  25.625  1.00  0.00     0.116 C 
BRANCH   4   5
ATOM      5  N   UNL A   1      39.504  19.735  25.594  1.00  0.00    -0.352 N 
ATOM      6  O   UNL A   1      41.621  18.968  25.782  1.00  0.00    -0.269 OA
ATOM      7  C   UNL A   1      40.816  19.882  25.976  1.00  0.00     0.251 C 
ATOM      8  H   UNL A   1      39.260  18.845  25.252  1.00  0.00     0.163 HD
BRANCH   7   9
ATOM      9  C   UNL A   1      41.283  21.148  26.589  1.00  0.00     0.039 A 
ATOM     10  C   UNL A   1      41.247  21.335  27.972  1.00  0.00     0.014 A 
ATOM     11  C   UNL A   1      41.776  22.165  25.764  1.00  0.00     0.014 A 
ATOM     12  C   UNL A   1      41.563  22.578  28.512  1.00  0.00     0.010 A 
ATOM     13  C   UNL A   1      42.171  23.389  26.316  1.00  0.00     0.010 A 
ATOM     14  C   UNL A   1      42.037  23.617  27.693  1.00  0.00    -0.014 A 
BRANCH  14  15
ATOM     15  C   UNL A   1      42.439  24.900  28.326  1.00  0.00     0.031 A 
ATOM     16  C   UNL A   1      43.879  25.222  28.610  1.00  0.00     0.074 A 
ATOM     17  C   UNL A   1      41.483  25.815  28.584  1.00  0.00     0.049 A 
ATOM     18  N   UNL A   1      44.396  26.342  29.056  1.00  0.00    -0.248 NA
ATOM     19  C   UNL A   1      44.867  24.160  28.372  1.00  0.00     0.031 C 
ATOM     20  C   UNL A   1      40.046  25.613  28.374  1.00  0.00     0.029 A 
ATOM     21  N   UNL A   1      41.576  27.106  29.035  1.00  0.00    -0.354 N 
ATOM     22  C   UNL A   1      45.762  26.115  29.163  1.00  0.00     0.074 A 
ATOM     23  C   UNL A   1      45.994  24.745  28.756  1.00  0.00     0.031 C 
ATOM     24  C   UNL A   1      39.401  26.760  28.629  1.00  0.00     0.029 A 
ATOM     25  C   UNL A   1      40.369  27.761  29.063  1.00  0.00     0.049 A 
ATOM     26  H   UNL A   1      42.424  27.522  29.312  1.00  0.00     0.167 HD
ATOM     27  C   UNL A   1      46.735  26.971  29.558  1.00  0.00     0.031 A 
ATOM     28  C   UNL A   1      40.069  29.030  29.393  1.00  0.00     0.031 A 
ATOM     29  C   UNL A   1      46.511  28.335  29.964  1.00  0.00     0.049 A 
ATOM     30  C   UNL A   1      41.168  29.960  29.806  1.00  0.00     0.074 A 
ATOM     31  C   UNL A   1      47.438  29.277  30.377  1.00  0.00     0.029 A 
ATOM     32  N   UNL A   1      45.271  28.952  30.004  1.00  0.00    -0.354 N 
ATOM     33  N   UNL A   1      42.456  29.732  29.881  1.00  0.00    -0.248 NA
ATOM     34  C   UNL A   1      40.771  31.326  30.178  1.00  0.00     0.031 C 
ATOM     35  C   UNL A   1      46.755  30.457  30.695  1.00  0.00     0.029 A 
ATOM     36  C   UNL A   1      45.408  30.258  30.443  1.00  0.00     0.049 A 
ATOM     37  H   UNL A   1      44.419  28.525  29.756  1.00  0.00     0.167 HD
ATOM     38  C   UNL A   1      43.024  30.921  30.315  1.00  0.00     0.074 A 
ATOM     39  C   UNL A   1      41.945  31.878  30.450  1.00  0.00     0.031 C 
ATOM     40  C   UNL A   1      44.322  31.191  30.589  1.00  0.00     0.031 A 
BRANCH  27  41
ATOM     41  C   UNL A   1      48.146  26.453  29.587  1.00  0.00    -0.014 A 
ATOM     42  C   UNL A   1      49.024  26.689  28.518  1.00  0.00     0.009 A 
ATOM     43  C   UNL A   1      48.617  25.768  30.717  1.00  0.00     0.009 A 
ATOM     44  C   UNL A   1      50.343  26.233  28.573  1.00  0.00     0.001 A 
ATOM     45  C   UNL A   1      49.942  25.330  30.778  1.00  0.00     0.001 A 
ATOM     46  C   UNL A   1      50.801  25.557  29.705  1.00  0.00     0.000 A 
ENDBRANCH  27  41
BRANCH  28  47
ATOM     47  C   UNL A   1      38.659  29.489  29.339  1.00  0.00    -0.014 A 
ATOM     48  C   UNL A   1      37.796  29.272  30.422  1.00  0.00     0.009 A 
ATOM     49  C   UNL A   1      38.179  30.166  28.207  1.00  0.00     0.009 A 
ATOM     50  C   UNL A   1      36.472  29.713  30.367  1.00  0.00     0.001 A 
ATOM     51  C   UNL A   1      36.863  30.628  28.166  1.00  0.00     0.001 A 
ATOM     52  C   UNL A   1      36.008  30.395  29.242  1.00  0.00     0.000 A 
ENDBRANCH  28  47
BRANCH  40  53
ATOM     53  C   UNL A   1      44.633  32.579  31.067  1.00  0.00    -0.014 A 
ATOM     54  C   UNL A   1      44.628  32.884  32.437  1.00  0.00     0.009 A 
ATOM     55  C   UNL A   1      44.939  33.587  30.142  1.00  0.00     0.009 A 
ATOM     56  C   UNL A   1      44.887  34.186  32.869  1.00  0.00     0.001 A 
ATOM     57  C   UNL A   1      45.218  34.883  30.579  1.00  0.00     0.001 A 
ATOM     58  C   UNL A   1      45.183  35.183  31.940  1.00  0.00     0.000 A 
ENDBRANCH  40  53
ENDBRANCH  14  15
ENDBRANCH   7   9
ENDBRANCH   4   5
ENDBRANCH   3   4
ENDBRANCH   2   3
ENDBRANCH   1   2
BRANCH   1  59
ATOM     59  C   UNL A   1      35.542  23.645  25.639  1.00  0.00     0.021 C 
BRANCH  59  60
ATOM     60  C   UNL A   1      34.081  24.069  25.575  1.00  0.00     0.116 C 
BRANCH  60  61
ATOM     61  N   UNL A   1      33.703  24.758  24.358  1.00  0.00    -0.352 N 
ATOM     62  C   UNL A   1      33.491  26.103  24.251  1.00  0.00     0.254 C 
ATOM     63  H   UNL A   1      33.590  24.214  23.545  1.00  0.00     0.163 HD
ATOM     64  O   UNL A   1      33.776  26.736  23.229  1.00  0.00    -0.269 OA
BRANCH  62  65
ATOM     65  C   UNL A   1      33.006  26.856  25.397  1.00  0.00     0.072 A 
ATOM     66  C   UNL A   1      33.987  27.570  26.104  1.00  0.00     0.018 A 
ATOM     67  C   UNL A   1      31.687  26.869  25.833  1.00  0.00     0.109 A 
ATOM     68  C   UNL A   1      33.645  28.259  27.256  1.00  0.00     0.021 A 
ATOM     69  N   UNL A   1      31.357  27.564  26.961  1.00  0.00    -0.249 NA
ATOM     70  C   UNL A   1      32.321  28.233  27.639  1.00  0.00     0.112 A 
BRANCH  67  71
ATOM     71  S   UNL A   1      30.331  25.848  25.313  1.00  0.00    -0.097 SA
BRANCH  71  72
ATOM     72  C   UNL A   1      29.478  26.442  23.833  1.00  0.00     0.157 C 
BRANCH  72  73
ATOM     73  C   UNL A   1      29.897  27.615  22.997  1.00  0.00     0.174 C 
ATOM     74  O   UNL A   1      30.492  27.412  21.933  1.00  0.00    -0.293 OA
BRANCH  73  75
ATOM     75  C   UNL A   1      29.305  28.978  23.195  1.00  0.00     0.037 A 
ATOM     76  C   UNL A   1      28.023  29.162  22.633  1.00  0.00     0.013 A 
ATOM     77  C   UNL A   1      29.888  30.060  23.863  1.00  0.00     0.051 A 
ATOM     78  C   UNL A   1      27.344  30.380  22.730  1.00  0.00     0.001 A 
ATOM     79  C   UNL A   1      29.205  31.287  23.949  1.00  0.00     0.021 A 
ATOM     80  Cl  UNL A   1      31.446  30.027  24.584  1.00  0.00    -0.084 Cl
ATOM     81  C   UNL A   1      27.939  31.448  23.386  1.00  0.00     0.002 A 
ENDBRANCH  73  75
ENDBRANCH  72  73
ENDBRANCH  71  72
ENDBRANCH  67  71
ENDBRANCH  62  65
ENDBRANCH  60  61
ENDBRANCH  59  60
ENDBRANCH   1  59
TORSDOF 17
ENDMDL
