MODEL 1
REMARK VINA RESULT:     -11.4      0.000      0.000
REMARK SMILES NS(=O)(=O)c1ccc(N2N=C(C(=O)NCCCCCCNC(=O)c3ccc(-c4c5nc(c(-c6ccccc6)c6ccc([nH]6)c(-c6ccccc6)c6nc(c(-c7ccccc7)c7ccc4[nH]7)C=C6)C=C5)cc3)C[C@H]2c2ccco2)cc1
REMARK SMILES IDX 17 1 16 2 15 3 14 4 12 5 13 6 11 8 9 9 10 10 73 11 72 12
REMARK SMILES IDX 8 13 5 14 6 15 80 16 7 17 79 18 2 19 3 20 4 21 1 22 74 25
REMARK SMILES IDX 75 26 78 27 76 28 77 29 18 30 19 31 20 32 21 33 22 34 23 36
REMARK SMILES IDX 24 37 25 38 71 39 26 40 70 41 27 42 28 43 29 44 64 45 30 46
REMARK SMILES IDX 69 47 63 48 65 49 31 50 68 51 62 52 61 53 32 55 54 56 39 57
REMARK SMILES IDX 53 58 40 59 43 60 52 61 66 62 41 63 42 64 51 66 67 67 44 68
REMARK SMILES IDX 33 69 34 70 38 71 35 72 37 73 36 74 55 75 56 76 60 77 57 78
REMARK SMILES IDX 59 79 58 80 45 81 46 82 50 83 47 84 49 85 48 86
REMARK H PARENT 14 7 1 23 1 24 21 35 65 54 43 65
REMARK Flexibility Score: inf
ROOT
ATOM      1  C   UNL A   1      31.241  28.957  24.061  1.00  0.00     0.002 C 
ENDROOT
BRANCH   1   2
ATOM      2  C   UNL A   1      31.687  27.588  23.541  1.00  0.00     0.021 C 
BRANCH   2   3
ATOM      3  C   UNL A   1      30.634  26.495  23.690  1.00  0.00     0.116 C 
BRANCH   3   4
ATOM      4  N   UNL A   1      30.542  26.048  25.064  1.00  0.00    -0.351 N 
ATOM      5  C   UNL A   1      31.110  25.023  25.774  1.00  0.00     0.267 C 
ATOM      6  O   UNL A   1      30.724  24.852  26.928  1.00  0.00    -0.268 OA
ATOM      7  H   UNL A   1      29.938  26.602  25.608  1.00  0.00     0.163 HD
BRANCH   5   8
ATOM      8  C   UNL A   1      32.216  24.130  25.236  1.00  0.00     0.128 C 
ATOM      9  N   UNL A   1      33.354  22.350  24.962  1.00  0.00    -0.254 N 
ATOM     10  N   UNL A   1      32.152  22.839  25.365  1.00  0.00    -0.171 NA
ATOM     11  C   UNL A   1      34.237  23.352  24.358  1.00  0.00     0.180 C 
ATOM     12  C   UNL A   1      33.444  24.644  24.565  1.00  0.00     0.099 C 
BRANCH   9  13
ATOM     13  C   UNL A   1      33.529  20.986  24.775  1.00  0.00     0.060 A 
ATOM     14  C   UNL A   1      33.819  18.214  24.469  1.00  0.00     0.082 A 
ATOM     15  C   UNL A   1      34.946  19.004  24.702  1.00  0.00     0.024 A 
ATOM     16  C   UNL A   1      32.558  18.795  24.347  1.00  0.00     0.024 A 
ATOM     17  C   UNL A   1      34.795  20.388  24.847  1.00  0.00     0.029 A 
ATOM     18  C   UNL A   1      32.426  20.173  24.490  1.00  0.00     0.029 A 
BRANCH  14  19
ATOM     19  S   UNL A   1      33.976  16.465  24.304  1.00  0.00     0.238 S 
ATOM     20  O   UNL A   1      34.968  16.008  25.247  1.00  0.00    -0.207 OA
ATOM     21  O   UNL A   1      34.005  16.116  22.902  1.00  0.00    -0.207 OA
BRANCH  19  22
ATOM     22  N   UNL A   1      32.498  15.896  24.871  1.00  0.00    -0.225 NA
ATOM     23  H   UNL A   1      32.651  15.315  25.695  1.00  0.00     0.137 HD
ATOM     24  H   UNL A   1      32.046  15.342  24.144  1.00  0.00     0.137 HD
ENDBRANCH  19  22
ENDBRANCH  14  19
ENDBRANCH   9  13
BRANCH  11  25
ATOM     25  C   UNL A   1      35.647  23.454  24.863  1.00  0.00     0.128 A 
ATOM     26  C   UNL A   1      36.876  23.351  24.236  1.00  0.00     0.048 A 
ATOM     27  O   UNL A   1      35.841  23.711  26.193  1.00  0.00    -0.467 OA
ATOM     28  C   UNL A   1      37.861  23.526  25.237  1.00  0.00     0.042 A 
ATOM     29  C   UNL A   1      37.180  23.762  26.406  1.00  0.00     0.195 A 
ENDBRANCH  11  25
ENDBRANCH   5   8
ENDBRANCH   3   4
ENDBRANCH   2   3
ENDBRANCH   1   2
BRANCH   1  30
ATOM     30  C   UNL A   1      31.905  29.399  25.370  1.00  0.00     0.002 C 
BRANCH  30  31
ATOM     31  C   UNL A   1      33.247  28.730  25.676  1.00  0.00     0.021 C 
BRANCH  31  32
ATOM     32  C   UNL A   1      33.675  28.813  27.136  1.00  0.00     0.116 C 
BRANCH  32  33
ATOM     33  N   UNL A   1      33.643  30.176  27.636  1.00  0.00    -0.352 N 
ATOM     34  C   UNL A   1      34.577  30.852  28.377  1.00  0.00     0.251 C 
ATOM     35  H   UNL A   1      32.833  30.688  27.410  1.00  0.00     0.163 HD
ATOM     36  O   UNL A   1      34.296  31.929  28.892  1.00  0.00    -0.269 OA
BRANCH  34  37
ATOM     37  C   UNL A   1      35.921  30.271  28.570  1.00  0.00     0.039 A 
ATOM     38  C   UNL A   1      36.827  30.302  27.508  1.00  0.00     0.014 A 
ATOM     39  C   UNL A   1      36.283  29.693  29.790  1.00  0.00     0.014 A 
ATOM     40  C   UNL A   1      38.116  29.797  27.686  1.00  0.00     0.010 A 
ATOM     41  C   UNL A   1      37.592  29.264  29.990  1.00  0.00     0.010 A 
ATOM     42  C   UNL A   1      38.518  29.303  28.938  1.00  0.00    -0.014 A 
BRANCH  42  43
ATOM     43  C   UNL A   1      39.905  28.829  29.164  1.00  0.00     0.031 A 
ATOM     44  C   UNL A   1      40.937  29.751  29.751  1.00  0.00     0.074 A 
ATOM     45  C   UNL A   1      40.254  27.587  28.778  1.00  0.00     0.049 A 
ATOM     46  N   UNL A   1      42.207  29.530  29.982  1.00  0.00    -0.248 NA
ATOM     47  C   UNL A   1      40.491  31.109  30.100  1.00  0.00     0.031 C 
ATOM     48  C   UNL A   1      39.358  26.611  28.151  1.00  0.00     0.029 A 
ATOM     49  N   UNL A   1      41.459  26.934  28.849  1.00  0.00    -0.354 N 
ATOM     50  C   UNL A   1      42.713  30.723  30.481  1.00  0.00     0.074 A 
ATOM     51  C   UNL A   1      41.628  31.680  30.470  1.00  0.00     0.031 C 
ATOM     52  C   UNL A   1      40.038  25.478  27.919  1.00  0.00     0.029 A 
ATOM     53  C   UNL A   1      41.424  25.659  28.338  1.00  0.00     0.049 A 
ATOM     54  H   UNL A   1      42.271  27.340  29.229  1.00  0.00     0.167 HD
ATOM     55  C   UNL A   1      43.965  30.995  30.921  1.00  0.00     0.031 A 
ATOM     56  C   UNL A   1      42.400  24.741  28.210  1.00  0.00     0.031 A 
ATOM     57  C   UNL A   1      45.041  30.040  30.932  1.00  0.00     0.049 A 
ATOM     58  C   UNL A   1      43.783  25.066  28.700  1.00  0.00     0.074 A 
ATOM     59  C   UNL A   1      46.326  30.195  31.426  1.00  0.00     0.029 A 
ATOM     60  N   UNL A   1      44.964  28.755  30.416  1.00  0.00    -0.354 N 
ATOM     61  N   UNL A   1      44.226  26.171  29.249  1.00  0.00    -0.248 NA
ATOM     62  C   UNL A   1      44.797  24.011  28.565  1.00  0.00     0.031 C 
ATOM     63  C   UNL A   1      47.044  29.029  31.145  1.00  0.00     0.029 A 
ATOM     64  C   UNL A   1      46.188  28.120  30.543  1.00  0.00     0.049 A 
ATOM     65  H   UNL A   1      44.157  28.354  30.019  1.00  0.00     0.167 HD
ATOM     66  C   UNL A   1      45.562  25.937  29.547  1.00  0.00     0.074 A 
ATOM     67  C   UNL A   1      45.851  24.579  29.133  1.00  0.00     0.031 C 
ATOM     68  C   UNL A   1      46.467  26.772  30.115  1.00  0.00     0.031 A 
BRANCH  55  69
ATOM     69  C   UNL A   1      44.240  32.395  31.402  1.00  0.00    -0.014 A 
ATOM     70  C   UNL A   1      44.063  32.759  32.748  1.00  0.00     0.009 A 
ATOM     71  C   UNL A   1      44.700  33.362  30.496  1.00  0.00     0.009 A 
ATOM     72  C   UNL A   1      44.291  34.073  33.162  1.00  0.00     0.001 A 
ATOM     73  C   UNL A   1      44.962  34.666  30.920  1.00  0.00     0.001 A 
ATOM     74  C   UNL A   1      44.744  35.024  32.249  1.00  0.00     0.000 A 
ENDBRANCH  55  69
BRANCH  56  75
ATOM     75  C   UNL A   1      42.092  23.421  27.599  1.00  0.00    -0.014 A 
ATOM     76  C   UNL A   1      41.535  22.389  28.367  1.00  0.00     0.009 A 
ATOM     77  C   UNL A   1      42.336  23.198  26.234  1.00  0.00     0.009 A 
ATOM     78  C   UNL A   1      41.245  21.152  27.785  1.00  0.00     0.001 A 
ATOM     79  C   UNL A   1      42.015  21.970  25.648  1.00  0.00     0.001 A 
ATOM     80  C   UNL A   1      41.478  20.947  26.426  1.00  0.00     0.000 A 
ENDBRANCH  56  75
BRANCH  68  81
ATOM     81  C   UNL A   1      47.852  26.232  30.347  1.00  0.00    -0.014 A 
ATOM     82  C   UNL A   1      48.816  26.226  29.328  1.00  0.00     0.009 A 
ATOM     83  C   UNL A   1      48.207  25.762  31.621  1.00  0.00     0.009 A 
ATOM     84  C   UNL A   1      50.097  25.726  29.571  1.00  0.00     0.001 A 
ATOM     85  C   UNL A   1      49.498  25.296  31.871  1.00  0.00     0.001 A 
ATOM     86  C   UNL A   1      50.439  25.268  30.843  1.00  0.00     0.000 A 
ENDBRANCH  68  81
ENDBRANCH  42  43
ENDBRANCH  34  37
ENDBRANCH  32  33
ENDBRANCH  31  32
ENDBRANCH  30  31
ENDBRANCH   1  30
TORSDOF 17
ENDMDL
MODEL 2
REMARK VINA RESULT:     -10.9      3.027      7.163
REMARK SMILES NS(=O)(=O)c1ccc(N2N=C(C(=O)NCCCCCCNC(=O)c3ccc(-c4c5nc(c(-c6ccccc6)c6ccc([nH]6)c(-c6ccccc6)c6nc(c(-c7ccccc7)c7ccc4[nH]7)C=C6)C=C5)cc3)C[C@H]2c2ccco2)cc1
REMARK SMILES IDX 17 1 16 2 15 3 14 4 12 5 13 6 11 8 9 9 10 10 73 11 72 12
REMARK SMILES IDX 8 13 5 14 6 15 80 16 7 17 79 18 2 19 3 20 4 21 1 22 74 25
REMARK SMILES IDX 75 26 78 27 76 28 77 29 18 30 19 31 20 32 21 33 22 34 23 36
REMARK SMILES IDX 24 37 25 38 71 39 26 40 70 41 27 42 28 43 29 44 64 45 30 46
REMARK SMILES IDX 69 47 63 48 65 49 31 50 68 51 62 52 61 53 32 55 54 56 39 57
REMARK SMILES IDX 53 58 40 59 43 60 52 61 66 62 41 63 42 64 51 66 67 67 44 68
REMARK SMILES IDX 33 69 34 70 38 71 35 72 37 73 36 74 55 75 56 76 60 77 57 78
REMARK SMILES IDX 59 79 58 80 45 81 46 82 50 83 47 84 49 85 48 86
REMARK H PARENT 14 7 1 23 1 24 21 35 65 54 43 65
REMARK Flexibility Score: inf
ROOT
ATOM      1  C   UNL A   1      31.076  28.641  24.626  1.00  0.00     0.002 C 
ENDROOT
BRANCH   1   2
ATOM      2  C   UNL A   1      31.788  28.161  23.359  1.00  0.00     0.021 C 
BRANCH   2   3
ATOM      3  C   UNL A   1      32.683  26.944  23.574  1.00  0.00     0.116 C 
BRANCH   3   4
ATOM      4  N   UNL A   1      32.758  26.138  22.374  1.00  0.00    -0.351 N 
ATOM      5  C   UNL A   1      33.239  24.886  22.093  1.00  0.00     0.267 C 
ATOM      6  O   UNL A   1      33.250  24.534  20.917  1.00  0.00    -0.268 OA
ATOM      7  H   UNL A   1      32.382  26.589  21.585  1.00  0.00     0.163 HD
BRANCH   5   8
ATOM      8  C   UNL A   1      33.703  23.900  23.153  1.00  0.00     0.128 C 
ATOM      9  N   UNL A   1      35.035  22.590  24.177  1.00  0.00    -0.254 N 
ATOM     10  N   UNL A   1      34.965  23.624  23.299  1.00  0.00    -0.171 NA
ATOM     11  C   UNL A   1      33.755  22.247  24.804  1.00  0.00     0.180 C 
ATOM     12  C   UNL A   1      32.781  23.166  24.065  1.00  0.00     0.099 C 
BRANCH   9  13
ATOM     13  C   UNL A   1      36.257  22.203  24.708  1.00  0.00     0.060 A 
ATOM     14  C   UNL A   1      38.768  21.498  25.740  1.00  0.00     0.082 A 
ATOM     15  C   UNL A   1      38.055  20.577  24.971  1.00  0.00     0.024 A 
ATOM     16  C   UNL A   1      38.226  22.749  26.032  1.00  0.00     0.024 A 
ATOM     17  C   UNL A   1      36.799  20.933  24.465  1.00  0.00     0.029 A 
ATOM     18  C   UNL A   1      36.975  23.085  25.524  1.00  0.00     0.029 A 
BRANCH  14  19
ATOM     19  S   UNL A   1      40.363  21.087  26.372  1.00  0.00     0.238 S 
ATOM     20  O   UNL A   1      40.327  21.216  27.808  1.00  0.00    -0.207 OA
ATOM     21  O   UNL A   1      41.378  21.708  25.552  1.00  0.00    -0.207 OA
BRANCH  19  22
ATOM     22  N   UNL A   1      40.484  19.440  26.055  1.00  0.00    -0.225 NA
ATOM     23  H   UNL A   1      39.573  19.081  25.768  1.00  0.00     0.137 HD
ATOM     24  H   UNL A   1      40.791  18.953  26.898  1.00  0.00     0.137 HD
ENDBRANCH  19  22
ENDBRANCH  14  19
ENDBRANCH   9  13
BRANCH  11  25
ATOM     25  C   UNL A   1      33.318  20.811  24.789  1.00  0.00     0.128 A 
ATOM     26  C   UNL A   1      33.322  19.821  25.755  1.00  0.00     0.048 A 
ATOM     27  O   UNL A   1      32.787  20.308  23.632  1.00  0.00    -0.467 OA
ATOM     28  C   UNL A   1      32.795  18.656  25.148  1.00  0.00     0.042 A 
ATOM     29  C   UNL A   1      32.467  19.010  23.863  1.00  0.00     0.195 A 
ENDBRANCH  11  25
ENDBRANCH   5   8
ENDBRANCH   3   4
ENDBRANCH   2   3
ENDBRANCH   1   2
BRANCH   1  30
ATOM     30  C   UNL A   1      32.001  29.198  25.714  1.00  0.00     0.002 C 
BRANCH  30  31
ATOM     31  C   UNL A   1      31.620  30.582  26.246  1.00  0.00     0.021 C 
BRANCH  31  32
ATOM     32  C   UNL A   1      32.736  31.303  26.990  1.00  0.00     0.116 C 
BRANCH  32  33
ATOM     33  N   UNL A   1      32.403  32.691  27.260  1.00  0.00    -0.352 N 
ATOM     34  C   UNL A   1      33.033  33.592  28.078  1.00  0.00     0.251 C 
ATOM     35  H   UNL A   1      31.611  33.033  26.786  1.00  0.00     0.163 HD
ATOM     36  O   UNL A   1      32.496  34.660  28.350  1.00  0.00    -0.269 OA
BRANCH  34  37
ATOM     37  C   UNL A   1      34.356  33.266  28.647  1.00  0.00     0.039 A 
ATOM     38  C   UNL A   1      34.418  32.491  29.808  1.00  0.00     0.014 A 
ATOM     39  C   UNL A   1      35.529  33.727  28.044  1.00  0.00     0.014 A 
ATOM     40  C   UNL A   1      35.661  32.136  30.335  1.00  0.00     0.010 A 
ATOM     41  C   UNL A   1      36.766  33.306  28.524  1.00  0.00     0.010 A 
ATOM     42  C   UNL A   1      36.844  32.515  29.679  1.00  0.00    -0.014 A 
BRANCH  42  43
ATOM     43  C   UNL A   1      38.170  32.086  30.186  1.00  0.00     0.031 A 
ATOM     44  C   UNL A   1      38.863  30.893  29.589  1.00  0.00     0.074 A 
ATOM     45  C   UNL A   1      38.723  32.731  31.232  1.00  0.00     0.049 A 
ATOM     46  N   UNL A   1      40.003  30.344  29.927  1.00  0.00    -0.248 NA
ATOM     47  C   UNL A   1      38.172  30.210  28.484  1.00  0.00     0.031 C 
ATOM     48  C   UNL A   1      38.129  33.873  31.932  1.00  0.00     0.029 A 
ATOM     49  N   UNL A   1      39.904  32.514  31.893  1.00  0.00    -0.354 N 
ATOM     50  C   UNL A   1      40.154  29.244  29.094  1.00  0.00     0.074 A 
ATOM     51  C   UNL A   1      38.966  29.171  28.271  1.00  0.00     0.031 C 
ATOM     52  C   UNL A   1      38.961  34.270  32.906  1.00  0.00     0.029 A 
ATOM     53  C   UNL A   1      40.123  33.388  32.931  1.00  0.00     0.049 A 
ATOM     54  H   UNL A   1      40.536  31.799  31.649  1.00  0.00     0.167 HD
ATOM     55  C   UNL A   1      41.192  28.378  29.012  1.00  0.00     0.031 A 
ATOM     56  C   UNL A   1      41.139  33.465  33.810  1.00  0.00     0.031 A 
ATOM     57  C   UNL A   1      42.373  28.455  29.830  1.00  0.00     0.049 A 
ATOM     58  C   UNL A   1      42.278  32.492  33.704  1.00  0.00     0.074 A 
ATOM     59  C   UNL A   1      43.513  27.671  29.775  1.00  0.00     0.029 A 
ATOM     60  N   UNL A   1      42.561  29.361  30.863  1.00  0.00    -0.354 N 
ATOM     61  N   UNL A   1      42.447  31.508  32.854  1.00  0.00    -0.248 NA
ATOM     62  C   UNL A   1      43.374  32.649  34.671  1.00  0.00     0.031 C 
ATOM     63  C   UNL A   1      44.359  28.058  30.818  1.00  0.00     0.029 A 
ATOM     64  C   UNL A   1      43.781  29.131  31.477  1.00  0.00     0.049 A 
ATOM     65  H   UNL A   1      41.922  30.064  31.121  1.00  0.00     0.167 HD
ATOM     66  C   UNL A   1      43.677  30.944  33.166  1.00  0.00     0.074 A 
ATOM     67  C   UNL A   1      44.218  31.707  34.273  1.00  0.00     0.031 C 
ATOM     68  C   UNL A   1      44.302  29.889  32.586  1.00  0.00     0.031 A 
BRANCH  55  69
ATOM     69  C   UNL A   1      41.080  27.256  28.013  1.00  0.00    -0.014 A 
ATOM     70  C   UNL A   1      40.578  25.995  28.377  1.00  0.00     0.009 A 
ATOM     71  C   UNL A   1      41.467  27.471  26.682  1.00  0.00     0.009 A 
ATOM     72  C   UNL A   1      40.516  24.960  27.440  1.00  0.00     0.001 A 
ATOM     73  C   UNL A   1      41.370  26.446  25.740  1.00  0.00     0.001 A 
ATOM     74  C   UNL A   1      40.908  25.188  26.122  1.00  0.00     0.000 A 
ENDBRANCH  55  69
BRANCH  56  75
ATOM     75  C   UNL A   1      41.122  34.516  34.862  1.00  0.00    -0.014 A 
ATOM     76  C   UNL A   1      40.526  34.274  36.107  1.00  0.00     0.009 A 
ATOM     77  C   UNL A   1      41.725  35.763  34.628  1.00  0.00     0.009 A 
ATOM     78  C   UNL A   1      40.518  35.265  37.092  1.00  0.00     0.001 A 
ATOM     79  C   UNL A   1      41.743  36.740  35.626  1.00  0.00     0.001 A 
ATOM     80  C   UNL A   1      41.132  36.493  36.853  1.00  0.00     0.000 A 
ENDBRANCH  56  75
BRANCH  68  81
ATOM     81  C   UNL A   1      45.658  29.513  33.122  1.00  0.00    -0.014 A 
ATOM     82  C   UNL A   1      46.831  30.098  32.622  1.00  0.00     0.009 A 
ATOM     83  C   UNL A   1      45.754  28.588  34.173  1.00  0.00     0.009 A 
ATOM     84  C   UNL A   1      48.076  29.738  33.142  1.00  0.00     0.001 A 
ATOM     85  C   UNL A   1      46.996  28.255  34.714  1.00  0.00     0.001 A 
ATOM     86  C   UNL A   1      48.157  28.822  34.191  1.00  0.00     0.000 A 
ENDBRANCH  68  81
ENDBRANCH  42  43
ENDBRANCH  34  37
ENDBRANCH  32  33
ENDBRANCH  31  32
ENDBRANCH  30  31
ENDBRANCH   1  30
TORSDOF 17
ENDMDL
MODEL 3
REMARK VINA RESULT:     -10.8      3.414      4.933
REMARK SMILES NS(=O)(=O)c1ccc(N2N=C(C(=O)NCCCCCCNC(=O)c3ccc(-c4c5nc(c(-c6ccccc6)c6ccc([nH]6)c(-c6ccccc6)c6nc(c(-c7ccccc7)c7ccc4[nH]7)C=C6)C=C5)cc3)C[C@H]2c2ccco2)cc1
REMARK SMILES IDX 17 1 16 2 15 3 14 4 12 5 13 6 11 8 9 9 10 10 73 11 72 12
REMARK SMILES IDX 8 13 5 14 6 15 80 16 7 17 79 18 2 19 3 20 4 21 1 22 74 25
REMARK SMILES IDX 75 26 78 27 76 28 77 29 18 30 19 31 20 32 21 33 22 34 23 36
REMARK SMILES IDX 24 37 25 38 71 39 26 40 70 41 27 42 28 43 29 44 64 45 30 46
REMARK SMILES IDX 69 47 63 48 65 49 31 50 68 51 62 52 61 53 32 55 54 56 39 57
REMARK SMILES IDX 53 58 40 59 43 60 52 61 66 62 41 63 42 64 51 66 67 67 44 68
REMARK SMILES IDX 33 69 34 70 38 71 35 72 37 73 36 74 55 75 56 76 60 77 57 78
REMARK SMILES IDX 59 79 58 80 45 81 46 82 50 83 47 84 49 85 48 86
REMARK H PARENT 14 7 1 23 1 24 21 35 65 54 43 65
REMARK Flexibility Score: inf
ROOT
ATOM      1  C   UNL A   1      33.465  28.255  26.779  1.00  0.00     0.002 C 
ENDROOT
BRANCH   1   2
ATOM      2  C   UNL A   1      33.646  27.964  25.288  1.00  0.00     0.021 C 
BRANCH   2   3
ATOM      3  C   UNL A   1      32.453  27.265  24.643  1.00  0.00     0.116 C 
BRANCH   3   4
ATOM      4  N   UNL A   1      32.788  26.780  23.322  1.00  0.00    -0.351 N 
ATOM      5  C   UNL A   1      33.439  25.672  22.847  1.00  0.00     0.267 C 
ATOM      6  O   UNL A   1      33.657  25.616  21.640  1.00  0.00    -0.268 OA
ATOM      7  H   UNL A   1      32.481  27.380  22.604  1.00  0.00     0.163 HD
BRANCH   5   8
ATOM      8  C   UNL A   1      33.853  24.496  23.717  1.00  0.00     0.128 C 
ATOM      9  N   UNL A   1      35.121  22.973  24.499  1.00  0.00    -0.254 N 
ATOM     10  N   UNL A   1      35.101  24.149  23.818  1.00  0.00    -0.171 NA
ATOM     11  C   UNL A   1      33.822  22.576  25.049  1.00  0.00     0.180 C 
ATOM     12  C   UNL A   1      32.892  23.649  24.479  1.00  0.00     0.099 C 
BRANCH   9  13
ATOM     13  C   UNL A   1      36.322  22.450  24.958  1.00  0.00     0.060 A 
ATOM     14  C   UNL A   1      38.794  21.465  25.843  1.00  0.00     0.082 A 
ATOM     15  C   UNL A   1      37.931  20.627  25.134  1.00  0.00     0.024 A 
ATOM     16  C   UNL A   1      38.421  22.773  26.149  1.00  0.00     0.024 A 
ATOM     17  C   UNL A   1      36.695  21.124  24.702  1.00  0.00     0.029 A 
ATOM     18  C   UNL A   1      37.187  23.249  25.715  1.00  0.00     0.029 A 
BRANCH  14  19
ATOM     19  S   UNL A   1      40.367  20.875  26.381  1.00  0.00     0.238 S 
ATOM     20  O   UNL A   1      40.555  19.545  25.853  1.00  0.00    -0.207 OA
ATOM     21  O   UNL A   1      40.548  21.199  27.777  1.00  0.00    -0.207 OA
BRANCH  19  22
ATOM     22  N   UNL A   1      41.447  21.862  25.552  1.00  0.00    -0.225 NA
ATOM     23  H   UNL A   1      41.094  22.038  24.612  1.00  0.00     0.137 HD
ATOM     24  H   UNL A   1      42.355  21.399  25.494  1.00  0.00     0.137 HD
ENDBRANCH  19  22
ENDBRANCH  14  19
ENDBRANCH   9  13
BRANCH  11  25
ATOM     25  C   UNL A   1      33.331  21.183  24.776  1.00  0.00     0.128 A 
ATOM     26  C   UNL A   1      32.800  20.581  23.649  1.00  0.00     0.048 A 
ATOM     27  O   UNL A   1      33.398  20.264  25.788  1.00  0.00    -0.467 OA
ATOM     28  C   UNL A   1      32.507  19.243  24.002  1.00  0.00     0.042 A 
ATOM     29  C   UNL A   1      32.907  19.095  25.307  1.00  0.00     0.195 A 
ENDBRANCH  11  25
ENDBRANCH   5   8
ENDBRANCH   3   4
ENDBRANCH   2   3
ENDBRANCH   1   2
BRANCH   1  30
ATOM     30  C   UNL A   1      34.099  29.563  27.264  1.00  0.00     0.002 C 
BRANCH  30  31
ATOM     31  C   UNL A   1      33.564  30.832  26.594  1.00  0.00     0.021 C 
BRANCH  31  32
ATOM     32  C   UNL A   1      32.317  31.413  27.249  1.00  0.00     0.116 C 
BRANCH  32  33
ATOM     33  N   UNL A   1      32.346  32.865  27.279  1.00  0.00    -0.352 N 
ATOM     34  C   UNL A   1      33.189  33.704  27.961  1.00  0.00     0.251 C 
ATOM     35  H   UNL A   1      31.662  33.311  26.729  1.00  0.00     0.163 HD
ATOM     36  O   UNL A   1      32.939  34.902  28.039  1.00  0.00    -0.269 OA
BRANCH  34  37
ATOM     37  C   UNL A   1      34.392  33.157  28.621  1.00  0.00     0.039 A 
ATOM     38  C   UNL A   1      34.247  32.482  29.835  1.00  0.00     0.014 A 
ATOM     39  C   UNL A   1      35.657  33.314  28.047  1.00  0.00     0.014 A 
ATOM     40  C   UNL A   1      35.367  31.920  30.449  1.00  0.00     0.010 A 
ATOM     41  C   UNL A   1      36.759  32.685  28.620  1.00  0.00     0.010 A 
ATOM     42  C   UNL A   1      36.626  31.990  29.831  1.00  0.00    -0.014 A 
BRANCH  42  43
ATOM     43  C   UNL A   1      37.813  31.337  30.435  1.00  0.00     0.031 A 
ATOM     44  C   UNL A   1      38.276  31.726  31.812  1.00  0.00     0.074 A 
ATOM     45  C   UNL A   1      38.516  30.440  29.718  1.00  0.00     0.049 A 
ATOM     46  N   UNL A   1      39.313  31.298  32.487  1.00  0.00    -0.248 NA
ATOM     47  C   UNL A   1      37.485  32.750  32.512  1.00  0.00     0.031 C 
ATOM     48  C   UNL A   1      38.200  30.013  28.352  1.00  0.00     0.029 A 
ATOM     49  N   UNL A   1      39.647  29.731  30.034  1.00  0.00    -0.354 N 
ATOM     50  C   UNL A   1      39.311  32.013  33.677  1.00  0.00     0.074 A 
ATOM     51  C   UNL A   1      38.202  32.940  33.610  1.00  0.00     0.031 C 
ATOM     52  C   UNL A   1      39.100  29.099  27.960  1.00  0.00     0.029 A 
ATOM     53  C   UNL A   1      40.080  28.907  29.023  1.00  0.00     0.049 A 
ATOM     54  H   UNL A   1      40.106  29.807  30.902  1.00  0.00     0.167 HD
ATOM     55  C   UNL A   1      40.148  31.901  34.736  1.00  0.00     0.031 A 
ATOM     56  C   UNL A   1      41.151  28.095  28.955  1.00  0.00     0.031 A 
ATOM     57  C   UNL A   1      41.249  30.977  34.799  1.00  0.00     0.049 A 
ATOM     58  C   UNL A   1      42.070  27.990  30.140  1.00  0.00     0.074 A 
ATOM     59  C   UNL A   1      42.111  30.734  35.855  1.00  0.00     0.029 A 
ATOM     60  N   UNL A   1      41.648  30.151  33.760  1.00  0.00    -0.354 N 
ATOM     61  N   UNL A   1      42.005  28.611  31.292  1.00  0.00    -0.248 NA
ATOM     62  C   UNL A   1      43.202  27.061  30.017  1.00  0.00     0.031 C 
ATOM     63  C   UNL A   1      43.073  29.814  35.430  1.00  0.00     0.029 A 
ATOM     64  C   UNL A   1      42.768  29.427  34.135  1.00  0.00     0.049 A 
ATOM     65  H   UNL A   1      41.202  30.089  32.884  1.00  0.00     0.167 HD
ATOM     66  C   UNL A   1      43.071  28.132  32.042  1.00  0.00     0.074 A 
ATOM     67  C   UNL A   1      43.756  27.156  31.218  1.00  0.00     0.031 C 
ATOM     68  C   UNL A   1      43.447  28.468  33.300  1.00  0.00     0.031 A 
BRANCH  55  69
ATOM     69  C   UNL A   1      39.915  32.825  35.902  1.00  0.00    -0.014 A 
ATOM     70  C   UNL A   1      39.048  32.480  36.952  1.00  0.00     0.009 A 
ATOM     71  C   UNL A   1      40.589  34.055  35.958  1.00  0.00     0.009 A 
ATOM     72  C   UNL A   1      38.823  33.369  38.006  1.00  0.00     0.001 A 
ATOM     73  C   UNL A   1      40.389  34.926  37.030  1.00  0.00     0.001 A 
ATOM     74  C   UNL A   1      39.496  34.589  38.045  1.00  0.00     0.000 A 
ENDBRANCH  55  69
BRANCH  56  75
ATOM     75  C   UNL A   1      41.400  27.310  27.718  1.00  0.00    -0.014 A 
ATOM     76  C   UNL A   1      42.208  27.824  26.694  1.00  0.00     0.009 A 
ATOM     77  C   UNL A   1      40.846  26.028  27.567  1.00  0.00     0.009 A 
ATOM     78  C   UNL A   1      42.441  27.078  25.535  1.00  0.00     0.001 A 
ATOM     79  C   UNL A   1      41.107  25.272  26.422  1.00  0.00     0.001 A 
ATOM     80  C   UNL A   1      41.897  25.802  25.403  1.00  0.00     0.000 A 
ENDBRANCH  56  75
BRANCH  68  81
ATOM     81  C   UNL A   1      44.642  27.756  33.876  1.00  0.00    -0.014 A 
ATOM     82  C   UNL A   1      45.934  28.293  33.775  1.00  0.00     0.009 A 
ATOM     83  C   UNL A   1      44.460  26.548  34.567  1.00  0.00     0.009 A 
ATOM     84  C   UNL A   1      47.024  27.616  34.326  1.00  0.00     0.001 A 
ATOM     85  C   UNL A   1      45.546  25.890  35.146  1.00  0.00     0.001 A 
ATOM     86  C   UNL A   1      46.829  26.419  35.016  1.00  0.00     0.000 A 
ENDBRANCH  68  81
ENDBRANCH  42  43
ENDBRANCH  34  37
ENDBRANCH  32  33
ENDBRANCH  31  32
ENDBRANCH  30  31
ENDBRANCH   1  30
TORSDOF 17
ENDMDL
