MODEL 1
REMARK VINA RESULT:     -10.9      0.000      0.000
REMARK SMILES O=C(NCCCCCCNC(=O)c1cccnc1C[N@@H+]1CCC[C@H]1c1ccccn1)c1ccc(-c2c3nc(c(-c4ccccc4)c4ccc([nH]4)c(-c4ccccc4)c4nc(c(-c5ccccc5)c5ccc2[nH]5)C=C4)C=C3)cc1
REMARK SMILES IDX 7 1 6 2 5 3 4 4 3 5 1 6 2 7 31 9 32 10 78 11 33 12 77 13
REMARK SMILES IDX 34 14 35 15 36 16 71 17 37 18 76 19 70 20 72 21 38 22 75 23
REMARK SMILES IDX 69 24 68 25 39 27 61 28 46 29 60 30 47 31 50 32 59 33 73 34
REMARK SMILES IDX 48 35 49 36 58 38 74 39 51 40 40 41 41 42 45 43 42 44 44 45
REMARK SMILES IDX 43 46 62 47 63 48 67 49 64 50 66 51 65 52 52 53 53 54 57 55
REMARK SMILES IDX 54 56 56 57 55 58 8 59 9 60 10 61 11 62 12 64 13 65 14 66
REMARK SMILES IDX 18 67 15 68 17 69 16 70 19 71 20 72 21 73 24 74 22 76 23 77
REMARK SMILES IDX 25 78 26 79 30 80 27 81 29 82 28 83
REMARK H PARENT 3 8 72 26 50 37 10 63 20 75
REMARK Flexibility Score: inf
ROOT
ATOM      1  C   UNL A   1      32.632  29.253  25.701  1.00  0.00     0.002 C 
ENDROOT
BRANCH   1   2
ATOM      2  C   UNL A   1      31.406  30.087  25.326  1.00  0.00     0.002 C 
BRANCH   2   3
ATOM      3  C   UNL A   1      31.156  31.325  26.189  1.00  0.00     0.021 C 
BRANCH   3   4
ATOM      4  C   UNL A   1      32.391  31.902  26.873  1.00  0.00     0.116 C 
BRANCH   4   5
ATOM      5  N   UNL A   1      32.203  33.279  27.291  1.00  0.00    -0.352 N 
ATOM      6  O   UNL A   1      32.571  35.152  28.490  1.00  0.00    -0.269 OA
ATOM      7  C   UNL A   1      32.973  34.052  28.124  1.00  0.00     0.251 C 
ATOM      8  H   UNL A   1      31.407  33.725  26.922  1.00  0.00     0.163 HD
BRANCH   7   9
ATOM      9  C   UNL A   1      34.279  33.553  28.604  1.00  0.00     0.039 A 
ATOM     10  C   UNL A   1      35.470  33.899  27.959  1.00  0.00     0.014 A 
ATOM     11  C   UNL A   1      34.307  32.755  29.751  1.00  0.00     0.014 A 
ATOM     12  C   UNL A   1      36.680  33.366  28.400  1.00  0.00     0.010 A 
ATOM     13  C   UNL A   1      35.526  32.269  30.227  1.00  0.00     0.010 A 
ATOM     14  C   UNL A   1      36.719  32.554  29.543  1.00  0.00    -0.014 A 
BRANCH  14  15
ATOM     15  C   UNL A   1      38.011  32.045  30.062  1.00  0.00     0.031 A 
ATOM     16  C   UNL A   1      38.598  30.767  29.539  1.00  0.00     0.074 A 
ATOM     17  C   UNL A   1      38.632  32.721  31.046  1.00  0.00     0.049 A 
ATOM     18  N   UNL A   1      39.668  30.128  29.939  1.00  0.00    -0.248 NA
ATOM     19  C   UNL A   1      37.885  30.115  28.431  1.00  0.00     0.031 C 
ATOM     20  C   UNL A   1      38.158  33.973  31.639  1.00  0.00     0.029 A 
ATOM     21  N   UNL A   1      39.786  32.440  31.732  1.00  0.00    -0.354 N 
ATOM     22  C   UNL A   1      39.744  28.987  29.151  1.00  0.00     0.074 A 
ATOM     23  C   UNL A   1      38.602  29.014  28.260  1.00  0.00     0.031 C 
ATOM     24  C   UNL A   1      39.014  34.353  32.599  1.00  0.00     0.029 A 
ATOM     25  C   UNL A   1      40.064  33.346  32.724  1.00  0.00     0.049 A 
ATOM     26  H   UNL A   1      40.359  31.664  31.532  1.00  0.00     0.167 HD
ATOM     27  C   UNL A   1      40.678  28.006  29.171  1.00  0.00     0.031 A 
ATOM     28  C   UNL A   1      41.035  33.355  33.655  1.00  0.00     0.031 A 
ATOM     29  C   UNL A   1      41.808  27.980  30.062  1.00  0.00     0.049 A 
ATOM     30  C   UNL A   1      42.038  32.240  33.683  1.00  0.00     0.074 A 
ATOM     31  C   UNL A   1      42.835  27.053  30.126  1.00  0.00     0.029 A 
ATOM     32  N   UNL A   1      42.054  28.918  31.052  1.00  0.00    -0.354 N 
ATOM     33  N   UNL A   1      42.123  31.192  32.902  1.00  0.00    -0.248 NA
ATOM     34  C   UNL A   1      43.080  32.312  34.717  1.00  0.00     0.031 C 
ATOM     35  C   UNL A   1      43.675  27.405  31.187  1.00  0.00     0.029 A 
ATOM     36  C   UNL A   1      43.199  28.578  31.752  1.00  0.00     0.049 A 
ATOM     37  H   UNL A   1      41.496  29.710  31.232  1.00  0.00     0.167 HD
ATOM     38  C   UNL A   1      43.236  30.486  33.336  1.00  0.00     0.074 A 
ATOM     39  C   UNL A   1      43.800  31.231  34.445  1.00  0.00     0.031 C 
ATOM     40  C   UNL A   1      43.746  29.327  32.854  1.00  0.00     0.031 A 
BRANCH  27  41
ATOM     41  C   UNL A   1      40.490  26.856  28.222  1.00  0.00    -0.014 A 
ATOM     42  C   UNL A   1      39.715  25.738  28.570  1.00  0.00     0.009 A 
ATOM     43  C   UNL A   1      41.084  26.902  26.951  1.00  0.00     0.009 A 
ATOM     44  C   UNL A   1      39.570  24.673  27.678  1.00  0.00     0.001 A 
ATOM     45  C   UNL A   1      40.916  25.848  26.051  1.00  0.00     0.001 A 
ATOM     46  C   UNL A   1      40.170  24.730  26.419  1.00  0.00     0.000 A 
ENDBRANCH  27  41
BRANCH  28  47
ATOM     47  C   UNL A   1      41.075  34.458  34.647  1.00  0.00    -0.014 A 
ATOM     48  C   UNL A   1      40.381  34.352  35.860  1.00  0.00     0.009 A 
ATOM     49  C   UNL A   1      41.860  35.597  34.406  1.00  0.00     0.009 A 
ATOM     50  C   UNL A   1      40.470  35.370  36.813  1.00  0.00     0.001 A 
ATOM     51  C   UNL A   1      41.965  36.601  35.369  1.00  0.00     0.001 A 
ATOM     52  C   UNL A   1      41.267  36.488  36.571  1.00  0.00     0.000 A 
ENDBRANCH  28  47
BRANCH  40  53
ATOM     53  C   UNL A   1      44.996  28.804  33.500  1.00  0.00    -0.014 A 
ATOM     54  C   UNL A   1      46.265  29.212  33.064  1.00  0.00     0.009 A 
ATOM     55  C   UNL A   1      44.896  27.938  34.600  1.00  0.00     0.009 A 
ATOM     56  C   UNL A   1      47.414  28.748  33.710  1.00  0.00     0.001 A 
ATOM     57  C   UNL A   1      46.045  27.493  35.255  1.00  0.00     0.001 A 
ATOM     58  C   UNL A   1      47.302  27.895  34.807  1.00  0.00     0.000 A 
ENDBRANCH  40  53
ENDBRANCH  14  15
ENDBRANCH   7   9
ENDBRANCH   4   5
ENDBRANCH   3   4
ENDBRANCH   2   3
ENDBRANCH   1   2
BRANCH   1  59
ATOM     59  C   UNL A   1      32.369  28.050  26.615  1.00  0.00     0.021 C 
BRANCH  59  60
ATOM     60  C   UNL A   1      31.067  27.297  26.352  1.00  0.00     0.116 C 
BRANCH  60  61
ATOM     61  N   UNL A   1      31.217  25.863  26.515  1.00  0.00    -0.352 N 
ATOM     62  C   UNL A   1      31.605  24.923  25.600  1.00  0.00     0.253 C 
ATOM     63  H   UNL A   1      31.008  25.517  27.413  1.00  0.00     0.163 HD
ATOM     64  O   UNL A   1      31.634  23.734  25.897  1.00  0.00    -0.269 OA
BRANCH  62  65
ATOM     65  C   UNL A   1      32.037  25.344  24.258  1.00  0.00     0.067 A 
ATOM     66  C   UNL A   1      31.054  25.597  23.291  1.00  0.00     0.017 A 
ATOM     67  C   UNL A   1      33.377  25.586  23.952  1.00  0.00     0.107 A 
ATOM     68  C   UNL A   1      31.427  26.069  22.039  1.00  0.00     0.021 A 
ATOM     69  N   UNL A   1      33.737  26.073  22.726  1.00  0.00    -0.254 NA
ATOM     70  C   UNL A   1      32.770  26.298  21.809  1.00  0.00     0.111 A 
BRANCH  67  71
ATOM     71  C   UNL A   1      34.512  25.337  24.940  1.00  0.00     0.321 C 
BRANCH  71  72
ATOM     72  N   UNL A   1      34.872  23.933  25.247  1.00  0.00    -0.322 N 
ATOM     73  C   UNL A   1      36.086  23.790  26.050  1.00  0.00     0.263 C 
ATOM     74  C   UNL A   1      35.004  23.079  24.052  1.00  0.00     0.234 C 
ATOM     75  H   UNL A   1      34.076  23.613  25.799  1.00  0.00     0.349 HD
ATOM     76  C   UNL A   1      37.184  23.276  25.133  1.00  0.00     0.068 C 
ATOM     77  C   UNL A   1      36.503  22.879  23.832  1.00  0.00     0.078 C 
BRANCH  74  78
ATOM     78  C   UNL A   1      34.255  21.750  24.158  1.00  0.00     0.098 A 
ATOM     79  C   UNL A   1      34.834  20.614  24.729  1.00  0.00     0.030 A 
ATOM     80  N   UNL A   1      33.004  21.715  23.622  1.00  0.00    -0.255 NA
ATOM     81  C   UNL A   1      34.113  19.423  24.769  1.00  0.00     0.004 A 
ATOM     82  C   UNL A   1      32.323  20.549  23.687  1.00  0.00     0.111 A 
ATOM     83  C   UNL A   1      32.831  19.387  24.241  1.00  0.00     0.020 A 
ENDBRANCH  74  78
ENDBRANCH  71  72
ENDBRANCH  67  71
ENDBRANCH  62  65
ENDBRANCH  60  61
ENDBRANCH  59  60
ENDBRANCH   1  59
TORSDOF 16
ENDMDL
MODEL 2
REMARK VINA RESULT:     -10.9      4.172      9.342
REMARK SMILES O=C(NCCCCCCNC(=O)c1cccnc1C[N@@H+]1CCC[C@H]1c1ccccn1)c1ccc(-c2c3nc(c(-c4ccccc4)c4ccc([nH]4)c(-c4ccccc4)c4nc(c(-c5ccccc5)c5ccc2[nH]5)C=C4)C=C3)cc1
REMARK SMILES IDX 7 1 6 2 5 3 4 4 3 5 1 6 2 7 31 9 32 10 78 11 33 12 77 13
REMARK SMILES IDX 34 14 35 15 36 16 71 17 37 18 76 19 70 20 72 21 38 22 75 23
REMARK SMILES IDX 69 24 68 25 39 27 61 28 46 29 60 30 47 31 50 32 59 33 73 34
REMARK SMILES IDX 48 35 49 36 58 38 74 39 51 40 40 41 41 42 45 43 42 44 44 45
REMARK SMILES IDX 43 46 62 47 63 48 67 49 64 50 66 51 65 52 52 53 53 54 57 55
REMARK SMILES IDX 54 56 56 57 55 58 8 59 9 60 10 61 11 62 12 64 13 65 14 66
REMARK SMILES IDX 18 67 15 68 17 69 16 70 19 71 20 72 21 73 24 74 22 76 23 77
REMARK SMILES IDX 25 78 26 79 30 80 27 81 29 82 28 83
REMARK H PARENT 3 8 72 26 50 37 10 63 20 75
REMARK Flexibility Score: inf
ROOT
ATOM      1  C   UNL A   1      37.767  22.009  25.259  1.00  0.00     0.002 C 
ENDROOT
BRANCH   1   2
ATOM      2  C   UNL A   1      37.329  20.637  24.740  1.00  0.00     0.002 C 
BRANCH   2   3
ATOM      3  C   UNL A   1      38.340  19.504  24.926  1.00  0.00     0.021 C 
BRANCH   3   4
ATOM      4  C   UNL A   1      39.366  19.722  26.033  1.00  0.00     0.116 C 
BRANCH   4   5
ATOM      5  N   UNL A   1      40.539  18.881  25.878  1.00  0.00    -0.352 N 
ATOM      6  O   UNL A   1      42.728  18.395  25.657  1.00  0.00    -0.269 OA
ATOM      7  C   UNL A   1      41.868  19.208  25.976  1.00  0.00     0.251 C 
ATOM      8  H   UNL A   1      40.354  17.936  25.672  1.00  0.00     0.163 HD
BRANCH   7   9
ATOM      9  C   UNL A   1      42.269  20.551  26.446  1.00  0.00     0.039 A 
ATOM     10  C   UNL A   1      42.304  20.863  27.809  1.00  0.00     0.014 A 
ATOM     11  C   UNL A   1      42.658  21.501  25.498  1.00  0.00     0.014 A 
ATOM     12  C   UNL A   1      42.630  22.155  28.218  1.00  0.00     0.010 A 
ATOM     13  C   UNL A   1      43.041  22.778  25.912  1.00  0.00     0.010 A 
ATOM     14  C   UNL A   1      43.010  23.120  27.274  1.00  0.00    -0.014 A 
BRANCH  14  15
ATOM     15  C   UNL A   1      43.431  24.473  27.707  1.00  0.00     0.031 A 
ATOM     16  C   UNL A   1      42.413  25.517  28.063  1.00  0.00     0.074 A 
ATOM     17  C   UNL A   1      44.743  24.773  27.733  1.00  0.00     0.049 A 
ATOM     18  N   UNL A   1      42.597  26.774  28.376  1.00  0.00    -0.248 NA
ATOM     19  C   UNL A   1      41.004  25.096  28.059  1.00  0.00     0.031 C 
ATOM     20  C   UNL A   1      45.827  23.846  27.404  1.00  0.00     0.029 A 
ATOM     21  N   UNL A   1      45.385  25.948  28.033  1.00  0.00    -0.354 N 
ATOM     22  C   UNL A   1      41.329  27.303  28.578  1.00  0.00     0.074 A 
ATOM     23  C   UNL A   1      40.383  26.232  28.339  1.00  0.00     0.031 C 
ATOM     24  C   UNL A   1      47.000  24.486  27.521  1.00  0.00     0.029 A 
ATOM     25  C   UNL A   1      46.747  25.878  27.880  1.00  0.00     0.049 A 
ATOM     26  H   UNL A   1      44.915  26.761  28.328  1.00  0.00     0.167 HD
ATOM     27  C   UNL A   1      40.985  28.566  28.928  1.00  0.00     0.031 A 
ATOM     28  C   UNL A   1      47.689  26.833  27.982  1.00  0.00     0.031 A 
ATOM     29  C   UNL A   1      41.928  29.628  29.160  1.00  0.00     0.049 A 
ATOM     30  C   UNL A   1      47.284  28.233  28.336  1.00  0.00     0.074 A 
ATOM     31  C   UNL A   1      41.679  30.929  29.565  1.00  0.00     0.029 A 
ATOM     32  N   UNL A   1      43.300  29.516  28.995  1.00  0.00    -0.354 N 
ATOM     33  N   UNL A   1      46.085  28.707  28.570  1.00  0.00    -0.248 NA
ATOM     34  C   UNL A   1      48.360  29.227  28.444  1.00  0.00     0.031 C 
ATOM     35  C   UNL A   1      42.897  31.616  29.598  1.00  0.00     0.029 A 
ATOM     36  C   UNL A   1      43.909  30.731  29.262  1.00  0.00     0.049 A 
ATOM     37  H   UNL A   1      43.771  28.694  28.727  1.00  0.00     0.167 HD
ATOM     38  C   UNL A   1      46.261  30.050  28.870  1.00  0.00     0.074 A 
ATOM     39  C   UNL A   1      47.685  30.313  28.797  1.00  0.00     0.031 C 
ATOM     40  C   UNL A   1      45.325  30.978  29.182  1.00  0.00     0.031 A 
BRANCH  27  41
ATOM     41  C   UNL A   1      39.519  28.874  29.044  1.00  0.00    -0.014 A 
ATOM     42  C   UNL A   1      38.827  28.699  30.254  1.00  0.00     0.009 A 
ATOM     43  C   UNL A   1      38.823  29.366  27.929  1.00  0.00     0.009 A 
ATOM     44  C   UNL A   1      37.460  28.975  30.332  1.00  0.00     0.001 A 
ATOM     45  C   UNL A   1      37.463  29.666  28.017  1.00  0.00     0.001 A 
ATOM     46  C   UNL A   1      36.780  29.459  29.214  1.00  0.00     0.000 A 
ENDBRANCH  27  41
BRANCH  28  47
ATOM     47  C   UNL A   1      49.107  26.479  27.721  1.00  0.00    -0.014 A 
ATOM     48  C   UNL A   1      49.621  26.508  26.418  1.00  0.00     0.009 A 
ATOM     49  C   UNL A   1      49.967  26.170  28.787  1.00  0.00     0.009 A 
ATOM     50  C   UNL A   1      50.970  26.230  26.186  1.00  0.00     0.001 A 
ATOM     51  C   UNL A   1      51.319  25.916  28.555  1.00  0.00     0.001 A 
ATOM     52  C   UNL A   1      51.819  25.943  27.254  1.00  0.00     0.000 A 
ENDBRANCH  28  47
BRANCH  40  53
ATOM     53  C   UNL A   1      45.810  32.363  29.501  1.00  0.00    -0.014 A 
ATOM     54  C   UNL A   1      45.900  33.348  28.507  1.00  0.00     0.009 A 
ATOM     55  C   UNL A   1      46.120  32.699  30.829  1.00  0.00     0.009 A 
ATOM     56  C   UNL A   1      46.310  34.643  28.835  1.00  0.00     0.001 A 
ATOM     57  C   UNL A   1      46.508  33.999  31.155  1.00  0.00     0.001 A 
ATOM     58  C   UNL A   1      46.607  34.967  30.158  1.00  0.00     0.000 A 
ENDBRANCH  40  53
ENDBRANCH  14  15
ENDBRANCH   7   9
ENDBRANCH   4   5
ENDBRANCH   3   4
ENDBRANCH   2   3
ENDBRANCH   1   2
BRANCH   1  59
ATOM     59  C   UNL A   1      37.025  23.215  24.671  1.00  0.00     0.021 C 
BRANCH  59  60
ATOM     60  C   UNL A   1      36.112  23.962  25.641  1.00  0.00     0.116 C 
BRANCH  60  61
ATOM     61  N   UNL A   1      35.583  23.096  26.678  1.00  0.00    -0.352 N 
ATOM     62  C   UNL A   1      34.404  22.403  26.709  1.00  0.00     0.253 C 
ATOM     63  H   UNL A   1      36.155  22.992  27.473  1.00  0.00     0.163 HD
ATOM     64  O   UNL A   1      34.089  21.747  27.695  1.00  0.00    -0.269 OA
BRANCH  62  65
ATOM     65  C   UNL A   1      33.523  22.406  25.532  1.00  0.00     0.067 A 
ATOM     66  C   UNL A   1      33.575  21.312  24.656  1.00  0.00     0.017 A 
ATOM     67  C   UNL A   1      32.579  23.412  25.313  1.00  0.00     0.107 A 
ATOM     68  C   UNL A   1      32.701  21.251  23.579  1.00  0.00     0.021 A 
ATOM     69  N   UNL A   1      31.705  23.335  24.264  1.00  0.00    -0.254 NA
ATOM     70  C   UNL A   1      31.785  22.275  23.431  1.00  0.00     0.111 A 
BRANCH  67  71
ATOM     71  C   UNL A   1      32.452  24.639  26.212  1.00  0.00     0.321 C 
BRANCH  71  72
ATOM     72  N   UNL A   1      32.496  25.975  25.574  1.00  0.00    -0.322 N 
ATOM     73  C   UNL A   1      33.790  26.647  25.687  1.00  0.00     0.263 C 
ATOM     74  C   UNL A   1      31.452  26.898  26.056  1.00  0.00     0.234 C 
ATOM     75  H   UNL A   1      32.324  25.760  24.592  1.00  0.00     0.349 HD
ATOM     76  C   UNL A   1      33.638  27.764  26.707  1.00  0.00     0.068 C 
ATOM     77  C   UNL A   1      32.149  27.885  26.991  1.00  0.00     0.078 C 
BRANCH  74  78
ATOM     78  C   UNL A   1      30.691  27.607  24.934  1.00  0.00     0.098 A 
ATOM     79  C   UNL A   1      29.730  26.954  24.159  1.00  0.00     0.030 A 
ATOM     80  N   UNL A   1      31.032  28.904  24.697  1.00  0.00    -0.255 NA
ATOM     81  C   UNL A   1      29.093  27.645  23.131  1.00  0.00     0.004 A 
ATOM     82  C   UNL A   1      30.388  29.553  23.701  1.00  0.00     0.111 A 
ATOM     83  C   UNL A   1      29.424  28.971  22.896  1.00  0.00     0.020 A 
ENDBRANCH  74  78
ENDBRANCH  71  72
ENDBRANCH  67  71
ENDBRANCH  62  65
ENDBRANCH  60  61
ENDBRANCH  59  60
ENDBRANCH   1  59
TORSDOF 16
ENDMDL
MODEL 3
REMARK VINA RESULT:     -10.9      3.681      9.017
REMARK SMILES O=C(NCCCCCCNC(=O)c1cccnc1C[N@@H+]1CCC[C@H]1c1ccccn1)c1ccc(-c2c3nc(c(-c4ccccc4)c4ccc([nH]4)c(-c4ccccc4)c4nc(c(-c5ccccc5)c5ccc2[nH]5)C=C4)C=C3)cc1
REMARK SMILES IDX 7 1 6 2 5 3 4 4 3 5 1 6 2 7 31 9 32 10 78 11 33 12 77 13
REMARK SMILES IDX 34 14 35 15 36 16 71 17 37 18 76 19 70 20 72 21 38 22 75 23
REMARK SMILES IDX 69 24 68 25 39 27 61 28 46 29 60 30 47 31 50 32 59 33 73 34
REMARK SMILES IDX 48 35 49 36 58 38 74 39 51 40 40 41 41 42 45 43 42 44 44 45
REMARK SMILES IDX 43 46 62 47 63 48 67 49 64 50 66 51 65 52 52 53 53 54 57 55
REMARK SMILES IDX 54 56 56 57 55 58 8 59 9 60 10 61 11 62 12 64 13 65 14 66
REMARK SMILES IDX 18 67 15 68 17 69 16 70 19 71 20 72 21 73 24 74 22 76 23 77
REMARK SMILES IDX 25 78 26 79 30 80 27 81 29 82 28 83
REMARK H PARENT 3 8 72 26 50 37 10 63 20 75
REMARK Flexibility Score: inf
ROOT
ATOM      1  C   UNL A   1      36.615  21.884  24.515  1.00  0.00     0.002 C 
ENDROOT
BRANCH   1   2
ATOM      2  C   UNL A   1      36.422  20.438  24.975  1.00  0.00     0.002 C 
BRANCH   2   3
ATOM      3  C   UNL A   1      37.679  19.564  24.962  1.00  0.00     0.021 C 
BRANCH   3   4
ATOM      4  C   UNL A   1      38.910  20.185  25.614  1.00  0.00     0.116 C 
BRANCH   4   5
ATOM      5  N   UNL A   1      40.019  19.253  25.708  1.00  0.00    -0.352 N 
ATOM      6  O   UNL A   1      42.162  18.597  25.942  1.00  0.00    -0.269 OA
ATOM      7  C   UNL A   1      41.322  19.481  26.074  1.00  0.00     0.251 C 
ATOM      8  H   UNL A   1      39.806  18.322  25.474  1.00  0.00     0.163 HD
BRANCH   7   9
ATOM      9  C   UNL A   1      41.725  20.799  26.608  1.00  0.00     0.039 A 
ATOM     10  C   UNL A   1      41.747  21.050  27.983  1.00  0.00     0.014 A 
ATOM     11  C   UNL A   1      42.128  21.789  25.706  1.00  0.00     0.014 A 
ATOM     12  C   UNL A   1      42.075  22.320  28.453  1.00  0.00     0.010 A 
ATOM     13  C   UNL A   1      42.512  23.044  26.181  1.00  0.00     0.010 A 
ATOM     14  C   UNL A   1      42.469  23.325  27.557  1.00  0.00    -0.014 A 
BRANCH  14  15
ATOM     15  C   UNL A   1      42.891  24.655  28.055  1.00  0.00     0.031 A 
ATOM     16  C   UNL A   1      41.877  25.720  28.355  1.00  0.00     0.074 A 
ATOM     17  C   UNL A   1      44.205  24.916  28.191  1.00  0.00     0.049 A 
ATOM     18  N   UNL A   1      42.071  26.965  28.711  1.00  0.00    -0.248 NA
ATOM     19  C   UNL A   1      40.463  25.341  28.229  1.00  0.00     0.031 C 
ATOM     20  C   UNL A   1      45.286  23.965  27.925  1.00  0.00     0.029 A 
ATOM     21  N   UNL A   1      44.853  26.064  28.568  1.00  0.00    -0.354 N 
ATOM     22  C   UNL A   1      40.806  27.526  28.826  1.00  0.00     0.074 A 
ATOM     23  C   UNL A   1      39.853  26.489  28.488  1.00  0.00     0.031 C 
ATOM     24  C   UNL A   1      46.463  24.567  28.150  1.00  0.00     0.029 A 
ATOM     25  C   UNL A   1      46.220  25.958  28.521  1.00  0.00     0.049 A 
ATOM     26  H   UNL A   1      44.384  26.884  28.846  1.00  0.00     0.167 HD
ATOM     27  C   UNL A   1      40.470  28.790  29.179  1.00  0.00     0.031 A 
ATOM     28  C   UNL A   1      47.178  26.882  28.721  1.00  0.00     0.031 A 
ATOM     29  C   UNL A   1      41.421  29.819  29.510  1.00  0.00     0.049 A 
ATOM     30  C   UNL A   1      46.785  28.285  29.076  1.00  0.00     0.074 A 
ATOM     31  C   UNL A   1      41.177  31.117  29.925  1.00  0.00     0.029 A 
ATOM     32  N   UNL A   1      42.798  29.670  29.450  1.00  0.00    -0.354 N 
ATOM     33  N   UNL A   1      45.585  28.789  29.225  1.00  0.00    -0.248 NA
ATOM     34  C   UNL A   1      47.876  29.244  29.291  1.00  0.00     0.031 C 
ATOM     35  C   UNL A   1      42.407  31.768  30.070  1.00  0.00     0.029 A 
ATOM     36  C   UNL A   1      43.418  30.860  29.793  1.00  0.00     0.049 A 
ATOM     37  H   UNL A   1      43.266  28.840  29.200  1.00  0.00     0.167 HD
ATOM     38  C   UNL A   1      45.773  30.119  29.571  1.00  0.00     0.074 A 
ATOM     39  C   UNL A   1      47.206  30.342  29.616  1.00  0.00     0.031 C 
ATOM     40  C   UNL A   1      44.842  31.067  29.831  1.00  0.00     0.031 A 
BRANCH  27  41
ATOM     41  C   UNL A   1      39.009  29.139  29.186  1.00  0.00    -0.014 A 
ATOM     42  C   UNL A   1      38.356  29.580  28.024  1.00  0.00     0.009 A 
ATOM     43  C   UNL A   1      38.270  29.006  30.372  1.00  0.00     0.009 A 
ATOM     44  C   UNL A   1      37.000  29.916  28.060  1.00  0.00     0.001 A 
ATOM     45  C   UNL A   1      36.909  29.318  30.399  1.00  0.00     0.001 A 
ATOM     46  C   UNL A   1      36.279  29.783  29.247  1.00  0.00     0.000 A 
ENDBRANCH  27  41
BRANCH  28  47
ATOM     47  C   UNL A   1      48.602  26.492  28.563  1.00  0.00    -0.014 A 
ATOM     48  C   UNL A   1      49.232  26.583  27.315  1.00  0.00     0.009 A 
ATOM     49  C   UNL A   1      49.351  26.085  29.679  1.00  0.00     0.009 A 
ATOM     50  C   UNL A   1      50.587  26.269  27.185  1.00  0.00     0.001 A 
ATOM     51  C   UNL A   1      50.710  25.796  29.551  1.00  0.00     0.001 A 
ATOM     52  C   UNL A   1      51.326  25.884  28.304  1.00  0.00     0.000 A 
ENDBRANCH  28  47
BRANCH  40  53
ATOM     53  C   UNL A   1      45.338  32.430  30.221  1.00  0.00    -0.014 A 
ATOM     54  C   UNL A   1      45.533  33.434  29.261  1.00  0.00     0.009 A 
ATOM     55  C   UNL A   1      45.553  32.727  31.576  1.00  0.00     0.009 A 
ATOM     56  C   UNL A   1      45.951  34.708  29.651  1.00  0.00     0.001 A 
ATOM     57  C   UNL A   1      45.950  34.007  31.964  1.00  0.00     0.001 A 
ATOM     58  C   UNL A   1      46.152  34.995  31.001  1.00  0.00     0.000 A 
ENDBRANCH  40  53
ENDBRANCH  14  15
ENDBRANCH   7   9
ENDBRANCH   4   5
ENDBRANCH   3   4
ENDBRANCH   2   3
ENDBRANCH   1   2
BRANCH   1  59
ATOM     59  C   UNL A   1      36.380  22.963  25.580  1.00  0.00     0.021 C 
BRANCH  59  60
ATOM     60  C   UNL A   1      35.492  24.128  25.149  1.00  0.00     0.116 C 
BRANCH  60  61
ATOM     61  N   UNL A   1      34.335  24.288  26.010  1.00  0.00    -0.352 N 
ATOM     62  C   UNL A   1      33.088  23.735  25.896  1.00  0.00     0.253 C 
ATOM     63  H   UNL A   1      34.466  24.878  26.788  1.00  0.00     0.163 HD
ATOM     64  O   UNL A   1      32.204  24.016  26.698  1.00  0.00    -0.269 OA
BRANCH  62  65
ATOM     65  C   UNL A   1      32.815  22.760  24.831  1.00  0.00     0.067 A 
ATOM     66  C   UNL A   1      32.937  21.395  25.128  1.00  0.00     0.017 A 
ATOM     67  C   UNL A   1      32.352  23.147  23.571  1.00  0.00     0.107 A 
ATOM     68  C   UNL A   1      32.612  20.450  24.164  1.00  0.00     0.021 A 
ATOM     69  N   UNL A   1      32.010  22.211  22.635  1.00  0.00    -0.254 NA
ATOM     70  C   UNL A   1      32.148  20.904  22.945  1.00  0.00     0.111 A 
BRANCH  67  71
ATOM     71  C   UNL A   1      32.189  24.607  23.160  1.00  0.00     0.321 C 
BRANCH  71  72
ATOM     72  N   UNL A   1      31.567  25.538  24.131  1.00  0.00    -0.322 N 
ATOM     73  C   UNL A   1      30.113  25.413  24.227  1.00  0.00     0.263 C 
ATOM     74  C   UNL A   1      31.895  26.955  23.889  1.00  0.00     0.234 C 
ATOM     75  H   UNL A   1      31.979  25.246  25.017  1.00  0.00     0.349 HD
ATOM     76  C   UNL A   1      29.503  26.623  23.537  1.00  0.00     0.068 C 
ATOM     77  C   UNL A   1      30.650  27.583  23.264  1.00  0.00     0.078 C 
BRANCH  74  78
ATOM     78  C   UNL A   1      32.351  27.704  25.143  1.00  0.00     0.098 A 
ATOM     79  C   UNL A   1      31.539  28.642  25.784  1.00  0.00     0.030 A 
ATOM     80  N   UNL A   1      33.614  27.443  25.579  1.00  0.00    -0.255 NA
ATOM     81  C   UNL A   1      32.021  29.315  26.903  1.00  0.00     0.004 A 
ATOM     82  C   UNL A   1      34.050  28.101  26.676  1.00  0.00     0.111 A 
ATOM     83  C   UNL A   1      33.301  29.040  27.363  1.00  0.00     0.020 A 
ENDBRANCH  74  78
ENDBRANCH  71  72
ENDBRANCH  67  71
ENDBRANCH  62  65
ENDBRANCH  60  61
ENDBRANCH  59  60
ENDBRANCH   1  59
TORSDOF 16
ENDMDL
