MODEL 1
REMARK VINA RESULT:     -11.1      0.000      0.000
REMARK SMILES O=C(NCCCCCCNC(=O)C1(NC(=O)c2ccncc2Cl)CCCCC1)c1ccc(-c2c3nc(c(-c4ccccc4)c4ccc([nH]4)c(-c4ccccc4)c4nc(c(-c5ccccc5)c5ccc2[nH]5)C=C4)C=C3)cc1
REMARK SMILES IDX 6 1 5 2 4 3 3 4 1 5 2 6 29 8 30 9 76 10 31 11 75 12 32 13
REMARK SMILES IDX 33 14 34 15 69 16 35 17 74 18 68 19 70 20 36 21 73 22 67 23
REMARK SMILES IDX 66 24 37 26 59 27 44 28 58 29 45 30 48 31 57 32 71 33 46 34
REMARK SMILES IDX 47 35 56 37 72 38 49 39 38 40 39 41 43 42 40 43 42 44 41 45
REMARK SMILES IDX 60 46 61 47 65 48 62 49 64 50 63 51 50 52 51 53 55 54 52 55
REMARK SMILES IDX 54 56 53 57 7 58 8 59 9 60 10 61 11 62 12 64 13 65 24 66
REMARK SMILES IDX 28 67 25 68 27 69 26 70 14 71 15 72 16 74 17 75 18 76 22 77
REMARK SMILES IDX 19 78 21 79 23 80 20 81
REMARK H PARENT 3 7 70 25 48 36 10 63 14 73
REMARK Flexibility Score: inf
ROOT
ATOM      1  C   UNL A   1      31.392  30.526  25.687  1.00  0.00     0.002 C 
ENDROOT
BRANCH   1   2
ATOM      2  C   UNL A   1      31.220  31.843  26.445  1.00  0.00     0.021 C 
BRANCH   2   3
ATOM      3  C   UNL A   1      32.516  32.378  27.039  1.00  0.00     0.116 C 
BRANCH   3   4
ATOM      4  N   UNL A   1      32.354  33.727  27.554  1.00  0.00    -0.352 N 
ATOM      5  O   UNL A   1      32.762  35.432  28.978  1.00  0.00    -0.269 OA
ATOM      6  C   UNL A   1      33.125  34.376  28.484  1.00  0.00     0.251 C 
ATOM      7  H   UNL A   1      31.596  34.239  27.189  1.00  0.00     0.163 HD
BRANCH   6   8
ATOM      8  C   UNL A   1      34.407  33.763  28.885  1.00  0.00     0.039 A 
ATOM      9  C   UNL A   1      35.556  33.983  28.122  1.00  0.00     0.014 A 
ATOM     10  C   UNL A   1      34.451  32.962  30.028  1.00  0.00     0.014 A 
ATOM     11  C   UNL A   1      36.733  33.324  28.446  1.00  0.00     0.010 A 
ATOM     12  C   UNL A   1      35.655  32.360  30.396  1.00  0.00     0.010 A 
ATOM     13  C   UNL A   1      36.800  32.530  29.603  1.00  0.00    -0.014 A 
BRANCH  13  14
ATOM     14  C   UNL A   1      38.108  31.974  30.017  1.00  0.00     0.031 A 
ATOM     15  C   UNL A   1      39.000  32.704  30.978  1.00  0.00     0.074 A 
ATOM     16  C   UNL A   1      38.476  30.780  29.513  1.00  0.00     0.049 A 
ATOM     17  N   UNL A   1      40.169  32.345  31.443  1.00  0.00    -0.248 NA
ATOM     18  C   UNL A   1      38.525  34.003  31.479  1.00  0.00     0.031 C 
ATOM     19  C   UNL A   1      37.689  29.987  28.563  1.00  0.00     0.029 A 
ATOM     20  N   UNL A   1      39.590  30.016  29.739  1.00  0.00    -0.354 N 
ATOM     21  C   UNL A   1      40.581  33.378  32.273  1.00  0.00     0.074 A 
ATOM     22  C   UNL A   1      39.544  34.387  32.238  1.00  0.00     0.031 C 
ATOM     23  C   UNL A   1      38.323  28.830  28.325  1.00  0.00     0.029 A 
ATOM     24  C   UNL A   1      39.585  28.828  29.050  1.00  0.00     0.049 A 
ATOM     25  H   UNL A   1      40.323  30.291  30.336  1.00  0.00     0.167 HD
ATOM     26  C   UNL A   1      41.723  33.473  32.996  1.00  0.00     0.031 A 
ATOM     27  C   UNL A   1      40.506  27.849  28.993  1.00  0.00     0.031 A 
ATOM     28  C   UNL A   1      42.749  32.464  33.026  1.00  0.00     0.049 A 
ATOM     29  C   UNL A   1      41.769  27.996  29.786  1.00  0.00     0.074 A 
ATOM     30  C   UNL A   1      43.927  32.453  33.753  1.00  0.00     0.029 A 
ATOM     31  N   UNL A   1      42.723  31.288  32.291  1.00  0.00    -0.354 N 
ATOM     32  N   UNL A   1      42.126  28.965  30.594  1.00  0.00    -0.248 NA
ATOM     33  C   UNL A   1      42.756  26.917  29.657  1.00  0.00     0.031 C 
ATOM     34  C   UNL A   1      44.635  31.293  33.423  1.00  0.00     0.029 A 
ATOM     35  C   UNL A   1      43.875  30.557  32.529  1.00  0.00     0.049 A 
ATOM     36  H   UNL A   1      41.993  31.014  31.690  1.00  0.00     0.167 HD
ATOM     37  C   UNL A   1      43.374  28.606  31.080  1.00  0.00     0.074 A 
ATOM     38  C   UNL A   1      43.699  27.320  30.496  1.00  0.00     0.031 C 
ATOM     39  C   UNL A   1      44.182  29.283  31.933  1.00  0.00     0.031 A 
BRANCH  26  40
ATOM     40  C   UNL A   1      41.940  34.723  33.801  1.00  0.00    -0.014 A 
ATOM     41  C   UNL A   1      42.653  35.812  33.277  1.00  0.00     0.009 A 
ATOM     42  C   UNL A   1      41.365  34.836  35.077  1.00  0.00     0.009 A 
ATOM     43  C   UNL A   1      42.802  36.983  34.026  1.00  0.00     0.001 A 
ATOM     44  C   UNL A   1      41.497  36.015  35.812  1.00  0.00     0.001 A 
ATOM     45  C   UNL A   1      42.219  37.086  35.289  1.00  0.00     0.000 A 
ENDBRANCH  26  40
BRANCH  27  46
ATOM     46  C   UNL A   1      40.268  26.660  28.137  1.00  0.00    -0.014 A 
ATOM     47  C   UNL A   1      39.491  25.588  28.600  1.00  0.00     0.009 A 
ATOM     48  C   UNL A   1      40.812  26.596  26.844  1.00  0.00     0.009 A 
ATOM     49  C   UNL A   1      39.282  24.468  27.793  1.00  0.00     0.001 A 
ATOM     50  C   UNL A   1      40.577  25.488  26.029  1.00  0.00     0.001 A 
ATOM     51  C   UNL A   1      39.820  24.421  26.508  1.00  0.00     0.000 A 
ENDBRANCH  27  46
BRANCH  39  52
ATOM     52  C   UNL A   1      45.481  28.627  32.296  1.00  0.00    -0.014 A 
ATOM     53  C   UNL A   1      46.650  28.878  31.562  1.00  0.00     0.009 A 
ATOM     54  C   UNL A   1      45.538  27.760  33.399  1.00  0.00     0.009 A 
ATOM     55  C   UNL A   1      47.846  28.246  31.906  1.00  0.00     0.001 A 
ATOM     56  C   UNL A   1      46.740  27.151  33.756  1.00  0.00     0.001 A 
ATOM     57  C   UNL A   1      47.891  27.387  33.004  1.00  0.00     0.000 A 
ENDBRANCH  39  52
ENDBRANCH  13  14
ENDBRANCH   6   8
ENDBRANCH   3   4
ENDBRANCH   2   3
ENDBRANCH   1   2
BRANCH   1  58
ATOM     58  C   UNL A   1      32.342  29.527  26.360  1.00  0.00     0.002 C 
BRANCH  58  59
ATOM     59  C   UNL A   1      31.655  28.271  26.920  1.00  0.00     0.021 C 
BRANCH  59  60
ATOM     60  C   UNL A   1      32.311  26.989  26.423  1.00  0.00     0.116 C 
BRANCH  60  61
ATOM     61  N   UNL A   1      31.612  25.853  26.985  1.00  0.00    -0.354 N 
ATOM     62  C   UNL A   1      31.727  24.520  26.749  1.00  0.00     0.245 C 
ATOM     63  H   UNL A   1      30.933  26.088  27.658  1.00  0.00     0.163 HD
ATOM     64  O   UNL A   1      30.822  23.813  27.206  1.00  0.00    -0.272 OA
BRANCH  62  65
ATOM     65  C   UNL A   1      32.918  23.915  25.941  1.00  0.00     0.119 C 
ATOM     66  C   UNL A   1      33.990  25.020  25.722  1.00  0.00     0.038 C 
ATOM     67  C   UNL A   1      33.565  22.791  26.807  1.00  0.00     0.038 C 
ATOM     68  C   UNL A   1      35.345  24.509  25.234  1.00  0.00     0.003 C 
ATOM     69  C   UNL A   1      34.926  22.301  26.315  1.00  0.00     0.003 C 
ATOM     70  C   UNL A   1      35.908  23.447  26.167  1.00  0.00     0.000 C 
BRANCH  65  71
ATOM     71  N   UNL A   1      32.482  23.360  24.624  1.00  0.00    -0.338 N 
ATOM     72  C   UNL A   1      32.229  23.970  23.410  1.00  0.00     0.253 C 
ATOM     73  H   UNL A   1      32.353  22.384  24.620  1.00  0.00     0.164 HD
ATOM     74  O   UNL A   1      32.369  23.330  22.372  1.00  0.00    -0.269 OA
BRANCH  72  75
ATOM     75  C   UNL A   1      31.521  25.261  23.333  1.00  0.00     0.061 A 
ATOM     76  C   UNL A   1      30.178  25.245  23.735  1.00  0.00     0.035 A 
ATOM     77  C   UNL A   1      32.080  26.441  22.861  1.00  0.00     0.072 A 
ATOM     78  C   UNL A   1      29.488  26.442  23.781  1.00  0.00     0.112 A 
ATOM     79  C   UNL A   1      31.311  27.592  22.972  1.00  0.00     0.132 A 
ATOM     80  Cl  UNL A   1      33.617  26.539  22.107  1.00  0.00    -0.082 Cl
ATOM     81  N   UNL A   1      30.038  27.624  23.443  1.00  0.00    -0.263 NA
ENDBRANCH  72  75
ENDBRANCH  65  71
ENDBRANCH  62  65
ENDBRANCH  60  61
ENDBRANCH  59  60
ENDBRANCH  58  59
ENDBRANCH   1  58
TORSDOF 15
ENDMDL
MODEL 2
REMARK VINA RESULT:     -11.1      0.522      5.907
REMARK SMILES O=C(NCCCCCCNC(=O)C1(NC(=O)c2ccncc2Cl)CCCCC1)c1ccc(-c2c3nc(c(-c4ccccc4)c4ccc([nH]4)c(-c4ccccc4)c4nc(c(-c5ccccc5)c5ccc2[nH]5)C=C4)C=C3)cc1
REMARK SMILES IDX 6 1 5 2 4 3 3 4 1 5 2 6 29 8 30 9 76 10 31 11 75 12 32 13
REMARK SMILES IDX 33 14 34 15 69 16 35 17 74 18 68 19 70 20 36 21 73 22 67 23
REMARK SMILES IDX 66 24 37 26 59 27 44 28 58 29 45 30 48 31 57 32 71 33 46 34
REMARK SMILES IDX 47 35 56 37 72 38 49 39 38 40 39 41 43 42 40 43 42 44 41 45
REMARK SMILES IDX 60 46 61 47 65 48 62 49 64 50 63 51 50 52 51 53 55 54 52 55
REMARK SMILES IDX 54 56 53 57 7 58 8 59 9 60 10 61 11 62 12 64 13 65 24 66
REMARK SMILES IDX 28 67 25 68 27 69 26 70 14 71 15 72 16 74 17 75 18 76 22 77
REMARK SMILES IDX 19 78 21 79 23 80 20 81
REMARK H PARENT 3 7 70 25 48 36 10 63 14 73
REMARK Flexibility Score: inf
ROOT
ATOM      1  C   UNL A   1      31.286  30.534  25.484  1.00  0.00     0.002 C 
ENDROOT
BRANCH   1   2
ATOM      2  C   UNL A   1      31.117  31.772  26.366  1.00  0.00     0.021 C 
BRANCH   2   3
ATOM      3  C   UNL A   1      32.431  32.325  26.899  1.00  0.00     0.116 C 
BRANCH   3   4
ATOM      4  N   UNL A   1      32.297  33.706  27.330  1.00  0.00    -0.352 N 
ATOM      5  O   UNL A   1      32.706  35.474  28.675  1.00  0.00    -0.269 OA
ATOM      6  C   UNL A   1      33.051  34.380  28.257  1.00  0.00     0.251 C 
ATOM      7  H   UNL A   1      31.575  34.222  26.904  1.00  0.00     0.163 HD
BRANCH   6   8
ATOM      8  C   UNL A   1      34.291  33.747  28.749  1.00  0.00     0.039 A 
ATOM      9  C   UNL A   1      35.501  33.977  28.091  1.00  0.00     0.014 A 
ATOM     10  C   UNL A   1      34.234  32.918  29.871  1.00  0.00     0.014 A 
ATOM     11  C   UNL A   1      36.643  33.301  28.496  1.00  0.00     0.010 A 
ATOM     12  C   UNL A   1      35.399  32.297  30.324  1.00  0.00     0.010 A 
ATOM     13  C   UNL A   1      36.607  32.477  29.634  1.00  0.00    -0.014 A 
BRANCH  13  14
ATOM     14  C   UNL A   1      37.873  31.901  30.143  1.00  0.00     0.031 A 
ATOM     15  C   UNL A   1      38.422  30.616  29.599  1.00  0.00     0.074 A 
ATOM     16  C   UNL A   1      38.531  32.574  31.108  1.00  0.00     0.049 A 
ATOM     17  N   UNL A   1      39.521  29.988  29.935  1.00  0.00    -0.248 NA
ATOM     18  C   UNL A   1      37.641  29.943  28.550  1.00  0.00     0.031 C 
ATOM     19  C   UNL A   1      38.082  33.831  31.715  1.00  0.00     0.029 A 
ATOM     20  N   UNL A   1      39.720  32.309  31.733  1.00  0.00    -0.354 N 
ATOM     21  C   UNL A   1      39.554  28.839  29.157  1.00  0.00     0.074 A 
ATOM     22  C   UNL A   1      38.359  28.846  28.341  1.00  0.00     0.031 C 
ATOM     23  C   UNL A   1      39.005  34.250  32.591  1.00  0.00     0.029 A 
ATOM     24  C   UNL A   1      40.076  33.264  32.654  1.00  0.00     0.049 A 
ATOM     25  H   UNL A   1      40.267  31.513  31.542  1.00  0.00     0.167 HD
ATOM     26  C   UNL A   1      40.499  27.869  29.130  1.00  0.00     0.031 A 
ATOM     27  C   UNL A   1      41.139  33.331  33.475  1.00  0.00     0.031 A 
ATOM     28  C   UNL A   1      41.686  27.870  29.945  1.00  0.00     0.049 A 
ATOM     29  C   UNL A   1      42.153  32.228  33.438  1.00  0.00     0.074 A 
ATOM     30  C   UNL A   1      42.718  26.948  29.965  1.00  0.00     0.029 A 
ATOM     31  N   UNL A   1      41.996  28.838  30.887  1.00  0.00    -0.354 N 
ATOM     32  N   UNL A   1      42.187  31.167  32.669  1.00  0.00    -0.248 NA
ATOM     33  C   UNL A   1      43.272  32.331  34.382  1.00  0.00     0.031 C 
ATOM     34  C   UNL A   1      43.630  27.333  30.954  1.00  0.00     0.029 A 
ATOM     35  C   UNL A   1      43.191  28.523  31.512  1.00  0.00     0.049 A 
ATOM     36  H   UNL A   1      41.448  29.632  31.083  1.00  0.00     0.167 HD
ATOM     37  C   UNL A   1      43.337  30.482  33.028  1.00  0.00     0.074 A 
ATOM     38  C   UNL A   1      43.985  31.261  34.064  1.00  0.00     0.031 C 
ATOM     39  C   UNL A   1      43.814  29.308  32.545  1.00  0.00     0.031 A 
BRANCH  26  40
ATOM     40  C   UNL A   1      40.281  26.705  28.205  1.00  0.00    -0.014 A 
ATOM     41  C   UNL A   1      39.469  25.622  28.575  1.00  0.00     0.009 A 
ATOM     42  C   UNL A   1      40.842  26.726  26.918  1.00  0.00     0.009 A 
ATOM     43  C   UNL A   1      39.241  24.572  27.680  1.00  0.00     0.001 A 
ATOM     44  C   UNL A   1      40.594  25.687  26.019  1.00  0.00     0.001 A 
ATOM     45  C   UNL A   1      39.799  24.609  26.402  1.00  0.00     0.000 A 
ENDBRANCH  26  40
BRANCH  27  46
ATOM     46  C   UNL A   1      41.278  34.474  34.412  1.00  0.00    -0.014 A 
ATOM     47  C   UNL A   1      42.010  35.614  34.047  1.00  0.00     0.009 A 
ATOM     48  C   UNL A   1      40.671  34.433  35.677  1.00  0.00     0.009 A 
ATOM     49  C   UNL A   1      42.147  36.680  34.938  1.00  0.00     0.001 A 
ATOM     50  C   UNL A   1      40.784  35.513  36.554  1.00  0.00     0.001 A 
ATOM     51  C   UNL A   1      41.530  36.631  36.188  1.00  0.00     0.000 A 
ENDBRANCH  27  46
BRANCH  39  52
ATOM     52  C   UNL A   1      45.110  28.818  33.122  1.00  0.00    -0.014 A 
ATOM     53  C   UNL A   1      46.341  29.200  32.566  1.00  0.00     0.009 A 
ATOM     54  C   UNL A   1      45.097  27.980  34.247  1.00  0.00     0.009 A 
ATOM     55  C   UNL A   1      47.535  28.721  33.108  1.00  0.00     0.001 A 
ATOM     56  C   UNL A   1      46.293  27.526  34.802  1.00  0.00     0.001 A 
ATOM     57  C   UNL A   1      47.510  27.889  34.226  1.00  0.00     0.000 A 
ENDBRANCH  39  52
ENDBRANCH  13  14
ENDBRANCH   6   8
ENDBRANCH   3   4
ENDBRANCH   2   3
ENDBRANCH   1   2
BRANCH   1  58
ATOM     58  C   UNL A   1      32.366  29.556  25.964  1.00  0.00     0.002 C 
BRANCH  58  59
ATOM     59  C   UNL A   1      31.834  28.371  26.786  1.00  0.00     0.021 C 
BRANCH  59  60
ATOM     60  C   UNL A   1      32.479  27.053  26.375  1.00  0.00     0.116 C 
BRANCH  60  61
ATOM     61  N   UNL A   1      31.725  25.960  26.948  1.00  0.00    -0.354 N 
ATOM     62  C   UNL A   1      31.771  24.621  26.724  1.00  0.00     0.245 C 
ATOM     63  H   UNL A   1      31.061  26.235  27.621  1.00  0.00     0.163 HD
ATOM     64  O   UNL A   1      30.833  23.965  27.189  1.00  0.00    -0.272 OA
BRANCH  62  65
ATOM     65  C   UNL A   1      32.927  23.949  25.918  1.00  0.00     0.119 C 
ATOM     66  C   UNL A   1      34.033  25.007  25.647  1.00  0.00     0.038 C 
ATOM     67  C   UNL A   1      33.549  22.831  26.812  1.00  0.00     0.038 C 
ATOM     68  C   UNL A   1      35.362  24.434  25.157  1.00  0.00     0.003 C 
ATOM     69  C   UNL A   1      34.884  22.278  26.315  1.00  0.00     0.003 C 
ATOM     70  C   UNL A   1      35.903  23.384  26.116  1.00  0.00     0.000 C 
BRANCH  65  71
ATOM     71  N   UNL A   1      32.452  23.366  24.628  1.00  0.00    -0.338 N 
ATOM     72  C   UNL A   1      32.193  23.947  23.400  1.00  0.00     0.253 C 
ATOM     73  H   UNL A   1      32.295  22.395  24.656  1.00  0.00     0.164 HD
ATOM     74  O   UNL A   1      32.295  23.272  22.379  1.00  0.00    -0.269 OA
BRANCH  72  75
ATOM     75  C   UNL A   1      31.520  25.254  23.296  1.00  0.00     0.061 A 
ATOM     76  C   UNL A   1      30.183  25.287  23.719  1.00  0.00     0.035 A 
ATOM     77  C   UNL A   1      32.103  26.405  22.782  1.00  0.00     0.072 A 
ATOM     78  C   UNL A   1      29.527  26.504  23.740  1.00  0.00     0.112 A 
ATOM     79  C   UNL A   1      31.367  27.580  22.871  1.00  0.00     0.132 A 
ATOM     80  Cl  UNL A   1      33.630  26.438  22.002  1.00  0.00    -0.082 Cl
ATOM     81  N   UNL A   1      30.104  27.660  23.360  1.00  0.00    -0.263 NA
ENDBRANCH  72  75
ENDBRANCH  65  71
ENDBRANCH  62  65
ENDBRANCH  60  61
ENDBRANCH  59  60
ENDBRANCH  58  59
ENDBRANCH   1  58
TORSDOF 15
ENDMDL
MODEL 3
REMARK VINA RESULT:     -11.0      2.996      8.361
REMARK SMILES O=C(NCCCCCCNC(=O)C1(NC(=O)c2ccncc2Cl)CCCCC1)c1ccc(-c2c3nc(c(-c4ccccc4)c4ccc([nH]4)c(-c4ccccc4)c4nc(c(-c5ccccc5)c5ccc2[nH]5)C=C4)C=C3)cc1
REMARK SMILES IDX 6 1 5 2 4 3 3 4 1 5 2 6 29 8 30 9 76 10 31 11 75 12 32 13
REMARK SMILES IDX 33 14 34 15 69 16 35 17 74 18 68 19 70 20 36 21 73 22 67 23
REMARK SMILES IDX 66 24 37 26 59 27 44 28 58 29 45 30 48 31 57 32 71 33 46 34
REMARK SMILES IDX 47 35 56 37 72 38 49 39 38 40 39 41 43 42 40 43 42 44 41 45
REMARK SMILES IDX 60 46 61 47 65 48 62 49 64 50 63 51 50 52 51 53 55 54 52 55
REMARK SMILES IDX 54 56 53 57 7 58 8 59 9 60 10 61 11 62 12 64 13 65 24 66
REMARK SMILES IDX 28 67 25 68 27 69 26 70 14 71 15 72 16 74 17 75 18 76 22 77
REMARK SMILES IDX 19 78 21 79 23 80 20 81
REMARK H PARENT 3 7 70 25 48 36 10 63 14 73
REMARK Flexibility Score: inf
ROOT
ATOM      1  C   UNL A   1      36.351  20.003  25.046  1.00  0.00     0.002 C 
ENDROOT
BRANCH   1   2
ATOM      2  C   UNL A   1      37.817  19.849  24.639  1.00  0.00     0.021 C 
BRANCH   2   3
ATOM      3  C   UNL A   1      38.798  20.239  25.735  1.00  0.00     0.116 C 
BRANCH   3   4
ATOM      4  N   UNL A   1      39.918  19.317  25.806  1.00  0.00    -0.352 N 
ATOM      5  O   UNL A   1      42.106  18.767  25.930  1.00  0.00    -0.269 OA
ATOM      6  C   UNL A   1      41.228  19.597  26.103  1.00  0.00     0.251 C 
ATOM      7  H   UNL A   1      39.712  18.373  25.617  1.00  0.00     0.163 HD
BRANCH   6   8
ATOM      8  C   UNL A   1      41.557  20.936  26.631  1.00  0.00     0.039 A 
ATOM      9  C   UNL A   1      41.425  21.201  27.996  1.00  0.00     0.014 A 
ATOM     10  C   UNL A   1      41.996  21.928  25.750  1.00  0.00     0.014 A 
ATOM     11  C   UNL A   1      41.639  22.487  28.471  1.00  0.00     0.010 A 
ATOM     12  C   UNL A   1      42.283  23.202  26.242  1.00  0.00     0.010 A 
ATOM     13  C   UNL A   1      42.098  23.491  27.602  1.00  0.00    -0.014 A 
BRANCH  13  14
ATOM     14  C   UNL A   1      42.478  24.807  28.164  1.00  0.00     0.031 A 
ATOM     15  C   UNL A   1      43.897  25.120  28.535  1.00  0.00     0.074 A 
ATOM     16  C   UNL A   1      41.509  25.730  28.324  1.00  0.00     0.049 A 
ATOM     17  N   UNL A   1      44.389  26.227  29.030  1.00  0.00    -0.248 NA
ATOM     18  C   UNL A   1      44.893  24.057  28.332  1.00  0.00     0.031 C 
ATOM     19  C   UNL A   1      40.092  25.529  28.003  1.00  0.00     0.029 A 
ATOM     20  N   UNL A   1      41.566  27.021  28.776  1.00  0.00    -0.354 N 
ATOM     21  C   UNL A   1      45.743  25.991  29.217  1.00  0.00     0.074 A 
ATOM     22  C   UNL A   1      45.997  24.629  28.797  1.00  0.00     0.031 C 
ATOM     23  C   UNL A   1      39.425  26.669  28.226  1.00  0.00     0.029 A 
ATOM     24  C   UNL A   1      40.349  27.658  28.763  1.00  0.00     0.049 A 
ATOM     25  H   UNL A   1      42.398  27.451  29.081  1.00  0.00     0.167 HD
ATOM     26  C   UNL A   1      46.687  26.836  29.697  1.00  0.00     0.031 A 
ATOM     27  C   UNL A   1      40.009  28.898  29.158  1.00  0.00     0.031 A 
ATOM     28  C   UNL A   1      46.426  28.190  30.112  1.00  0.00     0.049 A 
ATOM     29  C   UNL A   1      41.072  29.800  29.708  1.00  0.00     0.074 A 
ATOM     30  C   UNL A   1      47.322  29.135  30.582  1.00  0.00     0.029 A 
ATOM     31  N   UNL A   1      45.176  28.789  30.113  1.00  0.00    -0.354 N 
ATOM     32  N   UNL A   1      42.357  29.571  29.844  1.00  0.00    -0.248 NA
ATOM     33  C   UNL A   1      40.640  31.128  30.160  1.00  0.00     0.031 C 
ATOM     34  C   UNL A   1      46.607  30.292  30.910  1.00  0.00     0.029 A 
ATOM     35  C   UNL A   1      45.273  30.083  30.597  1.00  0.00     0.049 A 
ATOM     36  H   UNL A   1      44.343  28.359  29.813  1.00  0.00     0.167 HD
ATOM     37  C   UNL A   1      42.888  30.732  30.385  1.00  0.00     0.074 A 
ATOM     38  C   UNL A   1      41.792  31.669  30.529  1.00  0.00     0.031 C 
ATOM     39  C   UNL A   1      44.170  30.997  30.737  1.00  0.00     0.031 A 
BRANCH  26  40
ATOM     40  C   UNL A   1      48.091  26.318  29.825  1.00  0.00    -0.014 A 
ATOM     41  C   UNL A   1      48.569  25.799  31.038  1.00  0.00     0.009 A 
ATOM     42  C   UNL A   1      48.926  26.288  28.696  1.00  0.00     0.009 A 
ATOM     43  C   UNL A   1      49.864  25.278  31.122  1.00  0.00     0.001 A 
ATOM     44  C   UNL A   1      50.210  25.747  28.778  1.00  0.00     0.001 A 
ATOM     45  C   UNL A   1      50.680  25.247  29.991  1.00  0.00     0.000 A 
ENDBRANCH  26  40
BRANCH  27  46
ATOM     46  C   UNL A   1      38.596  29.342  29.064  1.00  0.00    -0.014 A 
ATOM     47  C   UNL A   1      38.094  29.885  27.873  1.00  0.00     0.009 A 
ATOM     48  C   UNL A   1      37.738  29.216  30.168  1.00  0.00     0.009 A 
ATOM     49  C   UNL A   1      36.766  30.311  27.796  1.00  0.00     0.001 A 
ATOM     50  C   UNL A   1      36.404  29.615  30.079  1.00  0.00     0.001 A 
ATOM     51  C   UNL A   1      35.922  30.172  28.897  1.00  0.00     0.000 A 
ENDBRANCH  27  46
BRANCH  39  52
ATOM     52  C   UNL A   1      44.449  32.364  31.287  1.00  0.00    -0.014 A 
ATOM     53  C   UNL A   1      44.385  32.619  32.666  1.00  0.00     0.009 A 
ATOM     54  C   UNL A   1      44.800  33.406  30.415  1.00  0.00     0.009 A 
ATOM     55  C   UNL A   1      44.633  33.901  33.157  1.00  0.00     0.001 A 
ATOM     56  C   UNL A   1      45.074  34.680  30.911  1.00  0.00     0.001 A 
ATOM     57  C   UNL A   1      44.981  34.929  32.280  1.00  0.00     0.000 A 
ENDBRANCH  39  52
ENDBRANCH  13  14
ENDBRANCH   6   8
ENDBRANCH   3   4
ENDBRANCH   2   3
ENDBRANCH   1   2
BRANCH   1  58
ATOM     58  C   UNL A   1      35.903  21.453  25.266  1.00  0.00     0.002 C 
BRANCH  58  59
ATOM     59  C   UNL A   1      35.117  21.688  26.566  1.00  0.00     0.021 C 
BRANCH  59  60
ATOM     60  C   UNL A   1      34.815  23.164  26.795  1.00  0.00     0.116 C 
BRANCH  60  61
ATOM     61  N   UNL A   1      33.443  23.303  27.230  1.00  0.00    -0.354 N 
ATOM     62  C   UNL A   1      32.332  23.736  26.578  1.00  0.00     0.245 C 
ATOM     63  H   UNL A   1      33.286  23.036  28.164  1.00  0.00     0.163 HD
ATOM     64  O   UNL A   1      31.349  23.971  27.289  1.00  0.00    -0.272 OA
BRANCH  62  65
ATOM     65  C   UNL A   1      32.298  23.937  25.031  1.00  0.00     0.119 C 
ATOM     66  C   UNL A   1      33.673  24.494  24.565  1.00  0.00     0.038 C 
ATOM     67  C   UNL A   1      32.104  22.538  24.368  1.00  0.00     0.038 C 
ATOM     68  C   UNL A   1      33.908  24.440  23.056  1.00  0.00     0.003 C 
ATOM     69  C   UNL A   1      32.356  22.498  22.862  1.00  0.00     0.003 C 
ATOM     70  C   UNL A   1      33.734  23.030  22.516  1.00  0.00     0.000 C 
BRANCH  65  71
ATOM     71  N   UNL A   1      31.203  24.860  24.606  1.00  0.00    -0.338 N 
ATOM     72  C   UNL A   1      31.178  26.230  24.425  1.00  0.00     0.253 C 
ATOM     73  H   UNL A   1      30.346  24.413  24.420  1.00  0.00     0.164 HD
ATOM     74  O   UNL A   1      30.382  26.720  23.629  1.00  0.00    -0.269 OA
BRANCH  72  75
ATOM     75  C   UNL A   1      31.863  27.140  25.361  1.00  0.00     0.061 A 
ATOM     76  C   UNL A   1      31.250  27.302  26.613  1.00  0.00     0.035 A 
ATOM     77  C   UNL A   1      33.018  27.853  25.068  1.00  0.00     0.072 A 
ATOM     78  C   UNL A   1      31.894  28.063  27.571  1.00  0.00     0.112 A 
ATOM     79  C   UNL A   1      33.598  28.570  26.107  1.00  0.00     0.132 A 
ATOM     80  Cl  UNL A   1      33.718  27.943  23.505  1.00  0.00    -0.082 Cl
ATOM     81  N   UNL A   1      33.077  28.671  27.357  1.00  0.00    -0.263 NA
ENDBRANCH  72  75
ENDBRANCH  65  71
ENDBRANCH  62  65
ENDBRANCH  60  61
ENDBRANCH  59  60
ENDBRANCH  58  59
ENDBRANCH   1  58
TORSDOF 15
ENDMDL
