MODEL 1
REMARK VINA RESULT:     -10.8      0.000      0.000
REMARK SMILES CC[C@@](C)(NS(=O)(=O)c1ccc(F)c(F)c1)C(=O)NCCCCCCNC(=O)c1ccc(-c2c3nc(c(-c4ccccc4)c4ccc([nH]4)c(-c4ccccc4)c4nc(c(-c5ccccc5)c5ccc2[nH]5)C=C4)C=C3)cc1
REMARK SMILES IDX 22 1 21 2 20 3 19 4 17 5 18 6 3 8 4 9 2 10 1 11 5 12 6 14
REMARK SMILES IDX 7 15 8 16 9 17 10 18 16 19 11 20 14 21 12 22 15 23 13 24
REMARK SMILES IDX 23 25 24 26 25 27 26 28 27 29 28 31 29 32 30 33 76 34 31 35
REMARK SMILES IDX 75 36 32 37 33 38 34 39 69 40 35 41 74 42 68 43 70 44 36 45
REMARK SMILES IDX 73 46 67 47 66 48 37 50 59 51 44 52 58 53 45 54 48 55 57 56
REMARK SMILES IDX 71 57 46 58 47 59 56 61 72 62 49 63 38 64 39 65 43 66 40 67
REMARK SMILES IDX 42 68 41 69 60 70 61 71 65 72 62 73 64 74 63 75 50 76 51 77
REMARK SMILES IDX 55 78 52 79 54 80 53 81
REMARK H PARENT 19 7 5 13 26 30 70 49 48 60
REMARK Flexibility Score: inf
ROOT
ATOM      1  C   UNL A   1      31.919  27.976  26.238  1.00  0.00     0.002 C 
ENDROOT
BRANCH   1   2
ATOM      2  C   UNL A   1      32.373  26.512  26.302  1.00  0.00     0.021 C 
BRANCH   2   3
ATOM      3  C   UNL A   1      31.925  25.531  25.200  1.00  0.00     0.116 C 
BRANCH   3   4
ATOM      4  N   UNL A   1      32.734  25.474  23.989  1.00  0.00    -0.354 N 
ATOM      5  C   UNL A   1      33.712  24.683  23.465  1.00  0.00     0.241 C 
ATOM      6  O   UNL A   1      34.026  25.004  22.307  1.00  0.00    -0.273 OA
ATOM      7  H   UNL A   1      32.511  26.213  23.378  1.00  0.00     0.163 HD
BRANCH   5   8
ATOM      8  C   UNL A   1      34.477  23.535  24.170  1.00  0.00     0.108 C 
ATOM      9  C   UNL A   1      35.437  22.810  23.219  1.00  0.00     0.040 C 
BRANCH   8  10
ATOM     10  C   UNL A   1      35.339  24.138  25.351  1.00  0.00     0.030 C 
ATOM     11  C   UNL A   1      36.670  23.481  25.684  1.00  0.00     0.006 C 
ENDBRANCH   8  10
BRANCH   8  12
ATOM     12  N   UNL A   1      33.685  22.521  24.907  1.00  0.00    -0.196 NA
ATOM     13  H   UNL A   1      33.386  23.014  25.749  1.00  0.00     0.142 HD
BRANCH  12  14
ATOM     14  S   UNL A   1      32.356  21.641  24.479  1.00  0.00     0.241 S 
ATOM     15  O   UNL A   1      31.428  21.663  25.580  1.00  0.00    -0.207 OA
ATOM     16  O   UNL A   1      31.968  22.189  23.195  1.00  0.00    -0.207 OA
BRANCH  14  17
ATOM     17  C   UNL A   1      32.827  19.951  24.189  1.00  0.00     0.085 A 
ATOM     18  C   UNL A   1      32.179  19.249  23.172  1.00  0.00     0.025 A 
ATOM     19  C   UNL A   1      33.976  19.404  24.752  1.00  0.00     0.064 A 
ATOM     20  C   UNL A   1      32.608  18.001  22.732  1.00  0.00     0.044 A 
ATOM     21  C   UNL A   1      34.424  18.158  24.299  1.00  0.00     0.160 A 
ATOM     22  C   UNL A   1      33.745  17.462  23.299  1.00  0.00     0.158 A 
ATOM     23  F   UNL A   1      35.549  17.644  24.811  1.00  0.00    -0.204 F 
ATOM     24  F   UNL A   1      34.199  16.284  22.854  1.00  0.00    -0.204 F 
ENDBRANCH  14  17
ENDBRANCH  12  14
ENDBRANCH   8  12
ENDBRANCH   5   8
ENDBRANCH   3   4
ENDBRANCH   2   3
ENDBRANCH   1   2
BRANCH   1  25
ATOM     25  C   UNL A   1      32.831  29.009  26.888  1.00  0.00     0.002 C 
BRANCH  25  26
ATOM     26  C   UNL A   1      32.312  30.441  26.824  1.00  0.00     0.021 C 
BRANCH  26  27
ATOM     27  C   UNL A   1      33.241  31.493  27.421  1.00  0.00     0.116 C 
BRANCH  27  28
ATOM     28  N   UNL A   1      32.634  32.809  27.571  1.00  0.00    -0.352 N 
ATOM     29  C   UNL A   1      33.156  33.863  28.291  1.00  0.00     0.251 C 
ATOM     30  H   UNL A   1      31.773  32.959  27.119  1.00  0.00     0.163 HD
ATOM     31  O   UNL A   1      32.571  34.929  28.419  1.00  0.00    -0.269 OA
BRANCH  29  32
ATOM     32  C   UNL A   1      34.463  33.635  28.933  1.00  0.00     0.039 A 
ATOM     33  C   UNL A   1      34.515  32.922  30.132  1.00  0.00     0.014 A 
ATOM     34  C   UNL A   1      35.622  33.948  28.220  1.00  0.00     0.014 A 
ATOM     35  C   UNL A   1      35.748  32.462  30.592  1.00  0.00     0.010 A 
ATOM     36  C   UNL A   1      36.838  33.436  28.650  1.00  0.00     0.010 A 
ATOM     37  C   UNL A   1      36.912  32.688  29.837  1.00  0.00    -0.014 A 
BRANCH  37  38
ATOM     38  C   UNL A   1      38.231  32.180  30.285  1.00  0.00     0.031 A 
ATOM     39  C   UNL A   1      38.743  30.885  29.721  1.00  0.00     0.074 A 
ATOM     40  C   UNL A   1      38.925  32.830  31.240  1.00  0.00     0.049 A 
ATOM     41  N   UNL A   1      39.819  30.212  30.039  1.00  0.00    -0.248 NA
ATOM     42  C   UNL A   1      37.916  30.244  28.684  1.00  0.00     0.031 C 
ATOM     43  C   UNL A   1      38.511  34.072  31.899  1.00  0.00     0.029 A 
ATOM     44  N   UNL A   1      40.126  32.527  31.831  1.00  0.00    -0.354 N 
ATOM     45  C   UNL A   1      39.776  29.056  29.270  1.00  0.00     0.074 A 
ATOM     46  C   UNL A   1      38.551  29.097  28.503  1.00  0.00     0.031 C 
ATOM     47  C   UNL A   1      39.455  34.434  32.785  1.00  0.00     0.029 A 
ATOM     48  C   UNL A   1      40.522  33.438  32.779  1.00  0.00     0.049 A 
ATOM     49  H   UNL A   1      40.654  31.730  31.596  1.00  0.00     0.167 HD
ATOM     50  C   UNL A   1      40.687  28.060  29.190  1.00  0.00     0.031 A 
ATOM     51  C   UNL A   1      41.623  33.464  33.554  1.00  0.00     0.031 A 
ATOM     52  C   UNL A   1      41.924  28.043  29.918  1.00  0.00     0.049 A 
ATOM     53  C   UNL A   1      42.639  32.362  33.419  1.00  0.00     0.074 A 
ATOM     54  C   UNL A   1      42.947  27.113  29.858  1.00  0.00     0.029 A 
ATOM     55  N   UNL A   1      42.310  29.010  30.833  1.00  0.00    -0.354 N 
ATOM     56  N   UNL A   1      42.617  31.310  32.637  1.00  0.00    -0.248 NA
ATOM     57  C   UNL A   1      43.841  32.460  34.261  1.00  0.00     0.031 C 
ATOM     58  C   UNL A   1      43.943  27.505  30.759  1.00  0.00     0.029 A 
ATOM     59  C   UNL A   1      43.554  28.698  31.348  1.00  0.00     0.049 A 
ATOM     60  H   UNL A   1      41.777  29.801  31.078  1.00  0.00     0.167 HD
ATOM     61  C   UNL A   1      43.812  30.641  32.868  1.00  0.00     0.074 A 
ATOM     62  C   UNL A   1      44.541  31.411  33.854  1.00  0.00     0.031 C 
ATOM     63  C   UNL A   1      44.268  29.493  32.311  1.00  0.00     0.031 A 
BRANCH  50  64
ATOM     64  C   UNL A   1      40.375  26.912  28.274  1.00  0.00    -0.014 A 
ATOM     65  C   UNL A   1      39.585  25.834  28.705  1.00  0.00     0.009 A 
ATOM     66  C   UNL A   1      40.858  26.919  26.957  1.00  0.00     0.009 A 
ATOM     67  C   UNL A   1      39.318  24.767  27.847  1.00  0.00     0.001 A 
ATOM     68  C   UNL A   1      40.566  25.862  26.092  1.00  0.00     0.001 A 
ATOM     69  C   UNL A   1      39.805  24.784  26.541  1.00  0.00     0.000 A 
ENDBRANCH  50  64
BRANCH  51  70
ATOM     70  C   UNL A   1      41.848  34.580  34.510  1.00  0.00    -0.014 A 
ATOM     71  C   UNL A   1      42.590  35.707  34.123  1.00  0.00     0.009 A 
ATOM     72  C   UNL A   1      41.354  34.513  35.821  1.00  0.00     0.009 A 
ATOM     73  C   UNL A   1      42.862  36.727  35.037  1.00  0.00     0.001 A 
ATOM     74  C   UNL A   1      41.603  35.548  36.727  1.00  0.00     0.001 A 
ATOM     75  C   UNL A   1      42.367  36.648  36.339  1.00  0.00     0.000 A 
ENDBRANCH  51  70
BRANCH  63  76
ATOM     76  C   UNL A   1      45.635  29.026  32.715  1.00  0.00    -0.014 A 
ATOM     77  C   UNL A   1      46.783  29.457  32.034  1.00  0.00     0.009 A 
ATOM     78  C   UNL A   1      45.777  28.190  33.834  1.00  0.00     0.009 A 
ATOM     79  C   UNL A   1      48.048  29.041  32.454  1.00  0.00     0.001 A 
ATOM     80  C   UNL A   1      47.043  27.795  34.265  1.00  0.00     0.001 A 
ATOM     81  C   UNL A   1      48.177  28.217  33.572  1.00  0.00     0.000 A 
ENDBRANCH  63  76
ENDBRANCH  37  38
ENDBRANCH  29  32
ENDBRANCH  27  28
ENDBRANCH  26  27
ENDBRANCH  25  26
ENDBRANCH   1  25
TORSDOF 17
ENDMDL
MODEL 2
REMARK VINA RESULT:     -10.8      0.447      5.880
REMARK SMILES CC[C@@](C)(NS(=O)(=O)c1ccc(F)c(F)c1)C(=O)NCCCCCCNC(=O)c1ccc(-c2c3nc(c(-c4ccccc4)c4ccc([nH]4)c(-c4ccccc4)c4nc(c(-c5ccccc5)c5ccc2[nH]5)C=C4)C=C3)cc1
REMARK SMILES IDX 22 1 21 2 20 3 19 4 17 5 18 6 3 8 4 9 2 10 1 11 5 12 6 14
REMARK SMILES IDX 7 15 8 16 9 17 10 18 16 19 11 20 14 21 12 22 15 23 13 24
REMARK SMILES IDX 23 25 24 26 25 27 26 28 27 29 28 31 29 32 30 33 76 34 31 35
REMARK SMILES IDX 75 36 32 37 33 38 34 39 69 40 35 41 74 42 68 43 70 44 36 45
REMARK SMILES IDX 73 46 67 47 66 48 37 50 59 51 44 52 58 53 45 54 48 55 57 56
REMARK SMILES IDX 71 57 46 58 47 59 56 61 72 62 49 63 38 64 39 65 43 66 40 67
REMARK SMILES IDX 42 68 41 69 60 70 61 71 65 72 62 73 64 74 63 75 50 76 51 77
REMARK SMILES IDX 55 78 52 79 54 80 53 81
REMARK H PARENT 19 7 5 13 26 30 70 49 48 60
REMARK Flexibility Score: inf
ROOT
ATOM      1  C   UNL A   1      31.900  28.146  25.665  1.00  0.00     0.002 C 
ENDROOT
BRANCH   1   2
ATOM      2  C   UNL A   1      31.356  26.781  26.105  1.00  0.00     0.021 C 
BRANCH   2   3
ATOM      3  C   UNL A   1      32.063  25.495  25.633  1.00  0.00     0.116 C 
BRANCH   3   4
ATOM      4  N   UNL A   1      32.815  25.567  24.386  1.00  0.00    -0.354 N 
ATOM      5  C   UNL A   1      33.761  24.835  23.734  1.00  0.00     0.241 C 
ATOM      6  O   UNL A   1      34.024  25.279  22.604  1.00  0.00    -0.273 OA
ATOM      7  H   UNL A   1      32.571  26.369  23.870  1.00  0.00     0.163 HD
BRANCH   5   8
ATOM      8  C   UNL A   1      34.547  23.613  24.273  1.00  0.00     0.108 C 
ATOM      9  C   UNL A   1      35.480  23.012  23.215  1.00  0.00     0.040 C 
BRANCH   8  10
ATOM     10  C   UNL A   1      35.443  24.074  25.493  1.00  0.00     0.030 C 
ATOM     11  C   UNL A   1      36.924  23.724  25.475  1.00  0.00     0.006 C 
ENDBRANCH   8  10
BRANCH   8  12
ATOM     12  N   UNL A   1      33.778  22.515  24.906  1.00  0.00    -0.196 NA
ATOM     13  H   UNL A   1      33.474  22.913  25.794  1.00  0.00     0.142 HD
BRANCH  12  14
ATOM     14  S   UNL A   1      32.464  21.657  24.394  1.00  0.00     0.241 S 
ATOM     15  O   UNL A   1      31.458  21.721  25.422  1.00  0.00    -0.207 OA
ATOM     16  O   UNL A   1      32.185  22.191  23.076  1.00  0.00    -0.207 OA
BRANCH  14  17
ATOM     17  C   UNL A   1      32.914  19.952  24.168  1.00  0.00     0.085 A 
ATOM     18  C   UNL A   1      32.222  19.206  23.214  1.00  0.00     0.025 A 
ATOM     19  C   UNL A   1      34.083  19.425  24.710  1.00  0.00     0.064 A 
ATOM     20  C   UNL A   1      32.627  17.936  22.818  1.00  0.00     0.044 A 
ATOM     21  C   UNL A   1      34.506  18.156  24.300  1.00  0.00     0.160 A 
ATOM     22  C   UNL A   1      33.784  17.417  23.363  1.00  0.00     0.158 A 
ATOM     23  F   UNL A   1      35.649  17.660  24.790  1.00  0.00    -0.204 F 
ATOM     24  F   UNL A   1      34.213  16.215  22.958  1.00  0.00    -0.204 F 
ENDBRANCH  14  17
ENDBRANCH  12  14
ENDBRANCH   8  12
ENDBRANCH   5   8
ENDBRANCH   3   4
ENDBRANCH   2   3
ENDBRANCH   1   2
BRANCH   1  25
ATOM     25  C   UNL A   1      32.478  29.041  26.754  1.00  0.00     0.002 C 
BRANCH  25  26
ATOM     26  C   UNL A   1      32.102  30.513  26.629  1.00  0.00     0.021 C 
BRANCH  26  27
ATOM     27  C   UNL A   1      33.113  31.490  27.219  1.00  0.00     0.116 C 
BRANCH  27  28
ATOM     28  N   UNL A   1      32.597  32.840  27.412  1.00  0.00    -0.352 N 
ATOM     29  C   UNL A   1      33.177  33.825  28.182  1.00  0.00     0.251 C 
ATOM     30  H   UNL A   1      31.757  33.067  26.952  1.00  0.00     0.163 HD
ATOM     31  O   UNL A   1      32.664  34.924  28.343  1.00  0.00    -0.269 OA
BRANCH  29  32
ATOM     32  C   UNL A   1      34.452  33.481  28.836  1.00  0.00     0.039 A 
ATOM     33  C   UNL A   1      34.428  32.757  30.029  1.00  0.00     0.014 A 
ATOM     34  C   UNL A   1      35.641  33.699  28.138  1.00  0.00     0.014 A 
ATOM     35  C   UNL A   1      35.613  32.190  30.499  1.00  0.00     0.010 A 
ATOM     36  C   UNL A   1      36.804  33.080  28.576  1.00  0.00     0.010 A 
ATOM     37  C   UNL A   1      36.800  32.320  29.758  1.00  0.00    -0.014 A 
BRANCH  37  38
ATOM     38  C   UNL A   1      38.065  31.698  30.215  1.00  0.00     0.031 A 
ATOM     39  C   UNL A   1      38.883  32.396  31.265  1.00  0.00     0.074 A 
ATOM     40  C   UNL A   1      38.515  30.564  29.644  1.00  0.00     0.049 A 
ATOM     41  N   UNL A   1      40.061  32.083  31.740  1.00  0.00    -0.248 NA
ATOM     42  C   UNL A   1      38.314  33.632  31.831  1.00  0.00     0.031 C 
ATOM     43  C   UNL A   1      37.835  29.816  28.582  1.00  0.00     0.029 A 
ATOM     44  N   UNL A   1      39.661  29.844  29.873  1.00  0.00    -0.354 N 
ATOM     45  C   UNL A   1      40.386  33.099  32.630  1.00  0.00     0.074 A 
ATOM     46  C   UNL A   1      39.306  34.059  32.597  1.00  0.00     0.031 C 
ATOM     47  C   UNL A   1      38.568  28.732  28.270  1.00  0.00     0.029 A 
ATOM     48  C   UNL A   1      39.779  28.725  29.085  1.00  0.00     0.049 A 
ATOM     49  H   UNL A   1      40.336  30.106  30.539  1.00  0.00     0.167 HD
ATOM     50  C   UNL A   1      41.475  33.213  33.422  1.00  0.00     0.031 A 
ATOM     51  C   UNL A   1      40.756  27.799  29.029  1.00  0.00     0.031 A 
ATOM     52  C   UNL A   1      42.527  32.236  33.487  1.00  0.00     0.049 A 
ATOM     53  C   UNL A   1      41.940  27.930  29.949  1.00  0.00     0.074 A 
ATOM     54  C   UNL A   1      43.641  32.223  34.306  1.00  0.00     0.029 A 
ATOM     55  N   UNL A   1      42.583  31.092  32.707  1.00  0.00    -0.354 N 
ATOM     56  N   UNL A   1      42.200  28.861  30.833  1.00  0.00    -0.248 NA
ATOM     57  C   UNL A   1      42.958  26.870  29.873  1.00  0.00     0.031 C 
ATOM     58  C   UNL A   1      44.389  31.081  34.001  1.00  0.00     0.029 A 
ATOM     59  C   UNL A   1      43.717  30.367  33.023  1.00  0.00     0.049 A 
ATOM     60  H   UNL A   1      41.915  30.835  32.031  1.00  0.00     0.167 HD
ATOM     61  C   UNL A   1      43.391  28.484  31.441  1.00  0.00     0.074 A 
ATOM     62  C   UNL A   1      43.796  27.234  30.833  1.00  0.00     0.031 C 
ATOM     63  C   UNL A   1      44.086  29.114  32.419  1.00  0.00     0.031 A 
BRANCH  50  64
ATOM     64  C   UNL A   1      41.575  34.436  34.287  1.00  0.00    -0.014 A 
ATOM     65  C   UNL A   1      42.146  35.623  33.800  1.00  0.00     0.009 A 
ATOM     66  C   UNL A   1      41.073  34.409  35.596  1.00  0.00     0.009 A 
ATOM     67  C   UNL A   1      42.247  36.747  34.622  1.00  0.00     0.001 A 
ATOM     68  C   UNL A   1      41.150  35.543  36.407  1.00  0.00     0.001 A 
ATOM     69  C   UNL A   1      41.745  36.707  35.922  1.00  0.00     0.000 A 
ENDBRANCH  50  64
BRANCH  51  70
ATOM     70  C   UNL A   1      40.653  26.648  28.094  1.00  0.00    -0.014 A 
ATOM     71  C   UNL A   1      41.184  26.737  26.798  1.00  0.00     0.009 A 
ATOM     72  C   UNL A   1      39.997  25.469  28.478  1.00  0.00     0.009 A 
ATOM     73  C   UNL A   1      41.030  25.683  25.894  1.00  0.00     0.001 A 
ATOM     74  C   UNL A   1      39.868  24.405  27.581  1.00  0.00     0.001 A 
ATOM     75  C   UNL A   1      40.374  24.517  26.287  1.00  0.00     0.000 A 
ENDBRANCH  51  70
BRANCH  63  76
ATOM     76  C   UNL A   1      45.326  28.441  32.928  1.00  0.00    -0.014 A 
ATOM     77  C   UNL A   1      46.586  28.724  32.380  1.00  0.00     0.009 A 
ATOM     78  C   UNL A   1      45.235  27.557  34.015  1.00  0.00     0.009 A 
ATOM     79  C   UNL A   1      47.730  28.115  32.898  1.00  0.00     0.001 A 
ATOM     80  C   UNL A   1      46.383  26.969  34.545  1.00  0.00     0.001 A 
ATOM     81  C   UNL A   1      47.628  27.244  33.983  1.00  0.00     0.000 A 
ENDBRANCH  63  76
ENDBRANCH  37  38
ENDBRANCH  29  32
ENDBRANCH  27  28
ENDBRANCH  26  27
ENDBRANCH  25  26
ENDBRANCH   1  25
TORSDOF 17
ENDMDL
MODEL 3
REMARK VINA RESULT:     -10.7      4.135      9.029
REMARK SMILES CC[C@@](C)(NS(=O)(=O)c1ccc(F)c(F)c1)C(=O)NCCCCCCNC(=O)c1ccc(-c2c3nc(c(-c4ccccc4)c4ccc([nH]4)c(-c4ccccc4)c4nc(c(-c5ccccc5)c5ccc2[nH]5)C=C4)C=C3)cc1
REMARK SMILES IDX 22 1 21 2 20 3 19 4 17 5 18 6 3 8 4 9 2 10 1 11 5 12 6 14
REMARK SMILES IDX 7 15 8 16 9 17 10 18 16 19 11 20 14 21 12 22 15 23 13 24
REMARK SMILES IDX 23 25 24 26 25 27 26 28 27 29 28 31 29 32 30 33 76 34 31 35
REMARK SMILES IDX 75 36 32 37 33 38 34 39 69 40 35 41 74 42 68 43 70 44 36 45
REMARK SMILES IDX 73 46 67 47 66 48 37 50 59 51 44 52 58 53 45 54 48 55 57 56
REMARK SMILES IDX 71 57 46 58 47 59 56 61 72 62 49 63 38 64 39 65 43 66 40 67
REMARK SMILES IDX 42 68 41 69 60 70 61 71 65 72 62 73 64 74 63 75 50 76 51 77
REMARK SMILES IDX 55 78 52 79 54 80 53 81
REMARK H PARENT 19 7 5 13 26 30 70 49 48 60
REMARK Flexibility Score: inf
ROOT
ATOM      1  C   UNL A   1      36.029  22.945  23.743  1.00  0.00     0.002 C 
ENDROOT
BRANCH   1   2
ATOM      2  C   UNL A   1      34.584  22.646  24.163  1.00  0.00     0.021 C 
BRANCH   2   3
ATOM      3  C   UNL A   1      33.537  23.778  24.136  1.00  0.00     0.116 C 
BRANCH   3   4
ATOM      4  N   UNL A   1      32.729  23.967  25.334  1.00  0.00    -0.354 N 
ATOM      5  C   UNL A   1      32.098  24.991  25.974  1.00  0.00     0.241 C 
ATOM      6  O   UNL A   1      31.428  24.613  26.949  1.00  0.00    -0.273 OA
ATOM      7  H   UNL A   1      32.603  23.118  25.815  1.00  0.00     0.163 HD
BRANCH   5   8
ATOM      8  C   UNL A   1      32.196  26.506  25.660  1.00  0.00     0.108 C 
ATOM      9  C   UNL A   1      31.189  27.331  26.469  1.00  0.00     0.040 C 
BRANCH   8  10
ATOM     10  C   UNL A   1      33.645  27.017  26.038  1.00  0.00     0.030 C 
ATOM     11  C   UNL A   1      33.943  28.503  25.910  1.00  0.00     0.006 C 
ENDBRANCH   8  10
BRANCH   8  12
ATOM     12  N   UNL A   1      32.125  26.928  24.241  1.00  0.00    -0.196 NA
ATOM     13  H   UNL A   1      33.048  26.698  23.874  1.00  0.00     0.142 HD
BRANCH  12  14
ATOM     14  S   UNL A   1      31.102  26.501  23.018  1.00  0.00     0.241 S 
ATOM     15  O   UNL A   1      31.873  26.389  21.806  1.00  0.00    -0.207 OA
ATOM     16  O   UNL A   1      30.397  25.345  23.534  1.00  0.00    -0.207 OA
BRANCH  14  17
ATOM     17  C   UNL A   1      29.886  27.776  22.783  1.00  0.00     0.085 A 
ATOM     18  C   UNL A   1      28.615  27.586  23.325  1.00  0.00     0.025 A 
ATOM     19  C   UNL A   1      30.232  29.041  22.316  1.00  0.00     0.064 A 
ATOM     20  C   UNL A   1      27.663  28.599  23.375  1.00  0.00     0.044 A 
ATOM     21  C   UNL A   1      29.285  30.069  22.382  1.00  0.00     0.160 A 
ATOM     22  C   UNL A   1      28.011  29.850  22.905  1.00  0.00     0.158 A 
ATOM     23  F   UNL A   1      29.625  31.296  21.969  1.00  0.00    -0.204 F 
ATOM     24  F   UNL A   1      27.122  30.848  22.989  1.00  0.00    -0.204 F 
ENDBRANCH  14  17
ENDBRANCH  12  14
ENDBRANCH   8  12
ENDBRANCH   5   8
ENDBRANCH   3   4
ENDBRANCH   2   3
ENDBRANCH   1   2
BRANCH   1  25
ATOM     25  C   UNL A   1      37.099  22.815  24.820  1.00  0.00     0.002 C 
BRANCH  25  26
ATOM     26  C   UNL A   1      37.704  21.422  24.946  1.00  0.00     0.021 C 
BRANCH  26  27
ATOM     27  C   UNL A   1      38.933  21.330  25.844  1.00  0.00     0.116 C 
BRANCH  27  28
ATOM     28  N   UNL A   1      39.687  20.091  25.700  1.00  0.00    -0.352 N 
ATOM     29  C   UNL A   1      41.016  19.911  26.018  1.00  0.00     0.251 C 
ATOM     30  H   UNL A   1      39.203  19.312  25.341  1.00  0.00     0.163 HD
ATOM     31  O   UNL A   1      41.604  18.857  25.825  1.00  0.00    -0.269 OA
BRANCH  29  32
ATOM     32  C   UNL A   1      41.718  21.076  26.586  1.00  0.00     0.039 A 
ATOM     33  C   UNL A   1      42.211  22.057  25.725  1.00  0.00     0.014 A 
ATOM     34  C   UNL A   1      41.678  21.271  27.969  1.00  0.00     0.014 A 
ATOM     35  C   UNL A   1      42.617  23.281  26.257  1.00  0.00     0.010 A 
ATOM     36  C   UNL A   1      42.025  22.512  28.485  1.00  0.00     0.010 A 
ATOM     37  C   UNL A   1      42.495  23.527  27.636  1.00  0.00    -0.014 A 
BRANCH  37  38
ATOM     38  C   UNL A   1      42.886  24.830  28.223  1.00  0.00     0.031 A 
ATOM     39  C   UNL A   1      41.829  25.873  28.452  1.00  0.00     0.074 A 
ATOM     40  C   UNL A   1      44.181  25.106  28.475  1.00  0.00     0.049 A 
ATOM     41  N   UNL A   1      41.960  27.108  28.863  1.00  0.00    -0.248 NA
ATOM     42  C   UNL A   1      40.442  25.484  28.145  1.00  0.00     0.031 C 
ATOM     43  C   UNL A   1      45.306  24.193  28.251  1.00  0.00     0.029 A 
ATOM     44  N   UNL A   1      44.770  26.243  28.969  1.00  0.00    -0.354 N 
ATOM     45  C   UNL A   1      40.681  27.650  28.828  1.00  0.00     0.074 A 
ATOM     46  C   UNL A   1      39.796  26.628  28.315  1.00  0.00     0.031 C 
ATOM     47  C   UNL A   1      46.445  24.800  28.629  1.00  0.00     0.029 A 
ATOM     48  C   UNL A   1      46.136  26.150  29.091  1.00  0.00     0.049 A 
ATOM     49  H   UNL A   1      44.262  27.049  29.213  1.00  0.00     0.167 HD
ATOM     50  C   UNL A   1      40.274  28.881  29.210  1.00  0.00     0.031 A 
ATOM     51  C   UNL A   1      47.033  27.054  29.528  1.00  0.00     0.031 A 
ATOM     52  C   UNL A   1      41.146  29.881  29.760  1.00  0.00     0.049 A 
ATOM     53  C   UNL A   1      46.549  28.405  29.982  1.00  0.00     0.074 A 
ATOM     54  C   UNL A   1      40.822  31.136  30.242  1.00  0.00     0.029 A 
ATOM     55  N   UNL A   1      42.515  29.729  29.912  1.00  0.00    -0.354 N 
ATOM     56  N   UNL A   1      45.327  28.879  30.007  1.00  0.00    -0.248 NA
ATOM     57  C   UNL A   1      47.567  29.340  30.486  1.00  0.00     0.031 C 
ATOM     58  C   UNL A   1      42.004  31.757  30.661  1.00  0.00     0.029 A 
ATOM     59  C   UNL A   1      43.053  30.871  30.477  1.00  0.00     0.049 A 
ATOM     60  H   UNL A   1      43.027  28.928  29.657  1.00  0.00     0.167 HD
ATOM     61  C   UNL A   1      45.425  30.150  30.557  1.00  0.00     0.074 A 
ATOM     62  C   UNL A   1      46.823  30.370  30.863  1.00  0.00     0.031 C 
ATOM     63  C   UNL A   1      44.444  31.055  30.792  1.00  0.00     0.031 A 
BRANCH  50  64
ATOM     64  C   UNL A   1      38.817  29.207  29.050  1.00  0.00    -0.014 A 
ATOM     65  C   UNL A   1      37.924  29.082  30.125  1.00  0.00     0.009 A 
ATOM     66  C   UNL A   1      38.336  29.665  27.814  1.00  0.00     0.009 A 
ATOM     67  C   UNL A   1      36.569  29.373  29.956  1.00  0.00     0.001 A 
ATOM     68  C   UNL A   1      36.986  29.982  27.655  1.00  0.00     0.001 A 
ATOM     69  C   UNL A   1      36.102  29.826  28.724  1.00  0.00     0.000 A 
ENDBRANCH  50  64
BRANCH  51  70
ATOM     70  C   UNL A   1      48.479  26.715  29.589  1.00  0.00    -0.014 A 
ATOM     71  C   UNL A   1      49.014  26.092  30.727  1.00  0.00     0.009 A 
ATOM     72  C   UNL A   1      49.338  27.039  28.528  1.00  0.00     0.009 A 
ATOM     73  C   UNL A   1      50.384  25.833  30.817  1.00  0.00     0.001 A 
ATOM     74  C   UNL A   1      50.703  26.753  28.608  1.00  0.00     0.001 A 
ATOM     75  C   UNL A   1      51.228  26.162  29.756  1.00  0.00     0.000 A 
ENDBRANCH  51  70
BRANCH  63  76
ATOM     76  C   UNL A   1      44.837  32.342  31.454  1.00  0.00    -0.014 A 
ATOM     77  C   UNL A   1      45.189  33.472  30.701  1.00  0.00     0.009 A 
ATOM     78  C   UNL A   1      44.793  32.440  32.854  1.00  0.00     0.009 A 
ATOM     79  C   UNL A   1      45.511  34.671  31.339  1.00  0.00     0.001 A 
ATOM     80  C   UNL A   1      45.093  33.646  33.488  1.00  0.00     0.001 A 
ATOM     81  C   UNL A   1      45.457  34.758  32.731  1.00  0.00     0.000 A 
ENDBRANCH  63  76
ENDBRANCH  37  38
ENDBRANCH  29  32
ENDBRANCH  27  28
ENDBRANCH  26  27
ENDBRANCH  25  26
ENDBRANCH   1  25
TORSDOF 17
ENDMDL
