MODEL 1
REMARK VINA RESULT:     -11.5      0.000      0.000
REMARK SMILES C[C@]1(c2ccccc2C(=O)NCCCCCCNC(=O)c2ccc(-c3c4nc(c(-c5ccccc5)c5ccc([nH]5)c(-c5ccccc5)c5nc(c(-c6ccccc6)c6ccc3[nH]6)C=C5)C=C4)cc2)NN=C(c2ccccc2)S1
REMARK SMILES IDX 14 1 13 2 12 3 11 4 9 5 10 6 8 8 3 9 4 10 5 11 7 12 6 13
REMARK SMILES IDX 2 14 1 15 69 16 78 17 70 18 71 20 72 21 73 22 77 23 74 24
REMARK SMILES IDX 76 25 75 26 15 27 16 28 17 29 18 30 19 31 20 33 21 34 22 35
REMARK SMILES IDX 68 36 23 37 67 38 24 39 25 40 26 41 61 42 27 43 66 44 60 45
REMARK SMILES IDX 62 46 28 47 65 48 59 49 58 50 29 52 51 53 36 54 50 55 37 56
REMARK SMILES IDX 40 57 49 58 63 59 38 60 39 61 48 63 64 64 41 65 30 66 31 67
REMARK SMILES IDX 35 68 32 69 34 70 33 71 52 72 53 73 57 74 54 75 56 76 55 77
REMARK SMILES IDX 42 78 43 79 47 80 44 81 46 82 45 83
REMARK H PARENT 11 7 69 19 18 32 62 51 40 62
REMARK Flexibility Score: inf
ROOT
ATOM      1  C   UNL A   1      36.361  21.946  24.572  1.00  0.00     0.002 C 
ENDROOT
BRANCH   1   2
ATOM      2  C   UNL A   1      35.868  22.869  25.689  1.00  0.00     0.021 C 
BRANCH   2   3
ATOM      3  C   UNL A   1      35.867  24.398  25.482  1.00  0.00     0.116 C 
BRANCH   3   4
ATOM      4  N   UNL A   1      35.010  24.949  24.446  1.00  0.00    -0.352 N 
ATOM      5  C   UNL A   1      34.032  25.924  24.389  1.00  0.00     0.251 C 
ATOM      6  O   UNL A   1      33.812  26.387  23.263  1.00  0.00    -0.269 OA
ATOM      7  H   UNL A   1      35.164  24.524  23.571  1.00  0.00     0.163 HD
BRANCH   5   8
ATOM      8  C   UNL A   1      33.196  26.482  25.522  1.00  0.00     0.046 A 
ATOM      9  C   UNL A   1      31.911  26.052  25.983  1.00  0.00     0.002 A 
ATOM     10  C   UNL A   1      31.270  26.826  26.989  1.00  0.00     0.008 A 
ATOM     11  C   UNL A   1      31.800  28.031  27.449  1.00  0.00     0.000 A 
ATOM     12  C   UNL A   1      33.676  27.735  25.973  1.00  0.00     0.014 A 
ATOM     13  C   UNL A   1      32.987  28.503  26.914  1.00  0.00     0.001 A 
BRANCH   9  14
ATOM     14  C   UNL A   1      31.188  24.776  25.529  1.00  0.00     0.129 C 
ATOM     15  C   UNL A   1      29.763  24.916  26.112  1.00  0.00     0.054 C 
ATOM     16  N   UNL A   1      30.984  24.572  24.065  1.00  0.00    -0.288 NA
ATOM     17  S   UNL A   1      32.209  23.316  25.910  1.00  0.00    -0.070 SA
ATOM     18  N   UNL A   1      31.131  23.268  23.580  1.00  0.00    -0.171 NA
ATOM     19  H   UNL A   1      30.757  25.321  23.467  1.00  0.00     0.185 HD
ATOM     20  C   UNL A   1      31.816  22.563  24.421  1.00  0.00     0.126 C 
BRANCH  20  21
ATOM     21  C   UNL A   1      32.379  21.211  24.303  1.00  0.00     0.009 A 
ATOM     22  C   UNL A   1      32.660  20.539  25.497  1.00  0.00     0.011 A 
ATOM     23  C   UNL A   1      32.227  20.485  23.113  1.00  0.00     0.011 A 
ATOM     24  C   UNL A   1      32.772  19.147  25.504  1.00  0.00     0.001 A 
ATOM     25  C   UNL A   1      32.338  19.091  23.125  1.00  0.00     0.001 A 
ATOM     26  C   UNL A   1      32.601  18.424  24.323  1.00  0.00     0.000 A 
ENDBRANCH  20  21
ENDBRANCH   9  14
ENDBRANCH   5   8
ENDBRANCH   3   4
ENDBRANCH   2   3
ENDBRANCH   1   2
BRANCH   1  27
ATOM     27  C   UNL A   1      36.383  20.474  25.009  1.00  0.00     0.002 C 
BRANCH  27  28
ATOM     28  C   UNL A   1      37.727  19.735  24.864  1.00  0.00     0.021 C 
BRANCH  28  29
ATOM     29  C   UNL A   1      38.878  20.261  25.720  1.00  0.00     0.116 C 
BRANCH  29  30
ATOM     30  N   UNL A   1      39.976  19.311  25.812  1.00  0.00    -0.352 N 
ATOM     31  C   UNL A   1      41.309  19.535  26.067  1.00  0.00     0.251 C 
ATOM     32  H   UNL A   1      39.728  18.368  25.673  1.00  0.00     0.163 HD
ATOM     33  O   UNL A   1      42.138  18.665  25.844  1.00  0.00    -0.269 OA
BRANCH  31  34
ATOM     34  C   UNL A   1      41.741  20.843  26.603  1.00  0.00     0.039 A 
ATOM     35  C   UNL A   1      42.251  21.805  25.729  1.00  0.00     0.014 A 
ATOM     36  C   UNL A   1      41.654  21.111  27.972  1.00  0.00     0.014 A 
ATOM     37  C   UNL A   1      42.611  23.063  26.220  1.00  0.00     0.010 A 
ATOM     38  C   UNL A   1      41.944  22.388  28.448  1.00  0.00     0.010 A 
ATOM     39  C   UNL A   1      42.426  23.378  27.579  1.00  0.00    -0.014 A 
BRANCH  39  40
ATOM     40  C   UNL A   1      42.719  24.742  28.090  1.00  0.00     0.031 A 
ATOM     41  C   UNL A   1      44.125  25.146  28.443  1.00  0.00     0.074 A 
ATOM     42  C   UNL A   1      41.704  25.611  28.275  1.00  0.00     0.049 A 
ATOM     43  N   UNL A   1      44.566  26.299  28.880  1.00  0.00    -0.248 NA
ATOM     44  C   UNL A   1      45.167  24.115  28.312  1.00  0.00     0.031 C 
ATOM     45  C   UNL A   1      40.290  25.330  28.016  1.00  0.00     0.029 A 
ATOM     46  N   UNL A   1      41.707  26.911  28.715  1.00  0.00    -0.354 N 
ATOM     47  C   UNL A   1      45.929  26.128  29.088  1.00  0.00     0.074 A 
ATOM     48  C   UNL A   1      46.232  24.746  28.782  1.00  0.00     0.031 C 
ATOM     49  C   UNL A   1      39.570  26.438  28.254  1.00  0.00     0.029 A 
ATOM     50  C   UNL A   1      40.463  27.494  28.723  1.00  0.00     0.049 A 
ATOM     51  H   UNL A   1      42.524  27.382  29.000  1.00  0.00     0.167 HD
ATOM     52  C   UNL A   1      46.851  27.040  29.479  1.00  0.00     0.031 A 
ATOM     53  C   UNL A   1      40.081  28.739  29.061  1.00  0.00     0.031 A 
ATOM     54  C   UNL A   1      46.549  28.415  29.783  1.00  0.00     0.049 A 
ATOM     55  C   UNL A   1      41.122  29.727  29.509  1.00  0.00     0.074 A 
ATOM     56  C   UNL A   1      47.423  29.434  30.123  1.00  0.00     0.029 A 
ATOM     57  N   UNL A   1      45.275  28.959  29.796  1.00  0.00    -0.354 N 
ATOM     58  N   UNL A   1      42.419  29.575  29.611  1.00  0.00    -0.248 NA
ATOM     59  C   UNL A   1      40.641  31.066  29.877  1.00  0.00     0.031 C 
ATOM     60  C   UNL A   1      46.669  30.577  30.409  1.00  0.00     0.029 A 
ATOM     61  C   UNL A   1      45.334  30.290  30.177  1.00  0.00     0.049 A 
ATOM     62  H   UNL A   1      44.450  28.472  29.569  1.00  0.00     0.167 HD
ATOM     63  C   UNL A   1      42.914  30.805  30.026  1.00  0.00     0.074 A 
ATOM     64  C   UNL A   1      41.778  31.697  30.134  1.00  0.00     0.031 C 
ATOM     65  C   UNL A   1      44.194  31.164  30.294  1.00  0.00     0.031 A 
BRANCH  52  66
ATOM     66  C   UNL A   1      48.276  26.572  29.620  1.00  0.00    -0.014 A 
ATOM     67  C   UNL A   1      49.192  26.678  28.561  1.00  0.00     0.009 A 
ATOM     68  C   UNL A   1      48.717  26.042  30.843  1.00  0.00     0.009 A 
ATOM     69  C   UNL A   1      50.504  26.224  28.710  1.00  0.00     0.001 A 
ATOM     70  C   UNL A   1      50.038  25.620  31.000  1.00  0.00     0.001 A 
ATOM     71  C   UNL A   1      50.927  25.700  29.930  1.00  0.00     0.000 A 
ENDBRANCH  52  66
BRANCH  53  72
ATOM     72  C   UNL A   1      38.651  29.137  28.964  1.00  0.00    -0.014 A 
ATOM     73  C   UNL A   1      37.813  29.061  30.088  1.00  0.00     0.009 A 
ATOM     74  C   UNL A   1      38.112  29.582  27.747  1.00  0.00     0.009 A 
ATOM     75  C   UNL A   1      36.460  29.391  29.987  1.00  0.00     0.001 A 
ATOM     76  C   UNL A   1      36.765  29.943  27.657  1.00  0.00     0.001 A 
ATOM     77  C   UNL A   1      35.938  29.837  28.774  1.00  0.00     0.000 A 
ENDBRANCH  53  72
BRANCH  65  78
ATOM     78  C   UNL A   1      44.432  32.593  30.702  1.00  0.00    -0.014 A 
ATOM     79  C   UNL A   1      44.462  32.975  32.052  1.00  0.00     0.009 A 
ATOM     80  C   UNL A   1      44.644  33.570  29.717  1.00  0.00     0.009 A 
ATOM     81  C   UNL A   1      44.651  34.313  32.405  1.00  0.00     0.001 A 
ATOM     82  C   UNL A   1      44.870  34.900  30.072  1.00  0.00     0.001 A 
ATOM     83  C   UNL A   1      44.859  35.273  31.415  1.00  0.00     0.000 A 
ENDBRANCH  65  78
ENDBRANCH  39  40
ENDBRANCH  31  34
ENDBRANCH  29  30
ENDBRANCH  28  29
ENDBRANCH  27  28
ENDBRANCH   1  27
TORSDOF 15
ENDMDL
MODEL 2
REMARK VINA RESULT:     -11.4      2.181      3.419
REMARK SMILES C[C@]1(c2ccccc2C(=O)NCCCCCCNC(=O)c2ccc(-c3c4nc(c(-c5ccccc5)c5ccc([nH]5)c(-c5ccccc5)c5nc(c(-c6ccccc6)c6ccc3[nH]6)C=C5)C=C4)cc2)NN=C(c2ccccc2)S1
REMARK SMILES IDX 14 1 13 2 12 3 11 4 9 5 10 6 8 8 3 9 4 10 5 11 7 12 6 13
REMARK SMILES IDX 2 14 1 15 69 16 78 17 70 18 71 20 72 21 73 22 77 23 74 24
REMARK SMILES IDX 76 25 75 26 15 27 16 28 17 29 18 30 19 31 20 33 21 34 22 35
REMARK SMILES IDX 68 36 23 37 67 38 24 39 25 40 26 41 61 42 27 43 66 44 60 45
REMARK SMILES IDX 62 46 28 47 65 48 59 49 58 50 29 52 51 53 36 54 50 55 37 56
REMARK SMILES IDX 40 57 49 58 63 59 38 60 39 61 48 63 64 64 41 65 30 66 31 67
REMARK SMILES IDX 35 68 32 69 34 70 33 71 52 72 53 73 57 74 54 75 56 76 55 77
REMARK SMILES IDX 42 78 43 79 47 80 44 81 46 82 45 83
REMARK H PARENT 11 7 69 19 18 32 62 51 40 62
REMARK Flexibility Score: inf
ROOT
ATOM      1  C   UNL A   1      34.415  24.573  23.357  1.00  0.00     0.002 C 
ENDROOT
BRANCH   1   2
ATOM      2  C   UNL A   1      33.403  24.880  22.251  1.00  0.00     0.021 C 
BRANCH   2   3
ATOM      3  C   UNL A   1      33.045  26.343  21.918  1.00  0.00     0.116 C 
BRANCH   3   4
ATOM      4  N   UNL A   1      31.661  26.760  22.069  1.00  0.00    -0.352 N 
ATOM      5  C   UNL A   1      30.945  27.486  23.003  1.00  0.00     0.251 C 
ATOM      6  O   UNL A   1      29.883  27.971  22.595  1.00  0.00    -0.269 OA
ATOM      7  H   UNL A   1      31.095  26.450  21.325  1.00  0.00     0.163 HD
BRANCH   5   8
ATOM      8  C   UNL A   1      31.292  27.748  24.454  1.00  0.00     0.046 A 
ATOM      9  C   UNL A   1      31.057  26.917  25.596  1.00  0.00     0.002 A 
ATOM     10  C   UNL A   1      31.362  27.446  26.880  1.00  0.00     0.008 A 
ATOM     11  C   UNL A   1      31.769  28.767  27.061  1.00  0.00     0.000 A 
ATOM     12  C   UNL A   1      31.655  29.098  24.681  1.00  0.00     0.014 A 
ATOM     13  C   UNL A   1      31.881  29.603  25.963  1.00  0.00     0.001 A 
BRANCH   9  14
ATOM     14  C   UNL A   1      30.564  25.464  25.547  1.00  0.00     0.129 C 
ATOM     15  C   UNL A   1      29.146  25.521  26.160  1.00  0.00     0.054 C 
ATOM     16  N   UNL A   1      30.377  24.834  24.207  1.00  0.00    -0.288 NA
ATOM     17  S   UNL A   1      31.833  24.355  26.241  1.00  0.00    -0.070 SA
ATOM     18  N   UNL A   1      30.744  23.490  24.082  1.00  0.00    -0.171 NA
ATOM     19  H   UNL A   1      30.012  25.341  23.446  1.00  0.00     0.185 HD
ATOM     20  C   UNL A   1      31.556  23.167  25.037  1.00  0.00     0.126 C 
BRANCH  20  21
ATOM     21  C   UNL A   1      32.347  21.947  25.250  1.00  0.00     0.009 A 
ATOM     22  C   UNL A   1      32.233  20.945  24.280  1.00  0.00     0.011 A 
ATOM     23  C   UNL A   1      33.457  21.966  26.106  1.00  0.00     0.011 A 
ATOM     24  C   UNL A   1      33.233  19.978  24.157  1.00  0.00     0.001 A 
ATOM     25  C   UNL A   1      34.456  20.997  25.978  1.00  0.00     0.001 A 
ATOM     26  C   UNL A   1      34.347  20.010  24.997  1.00  0.00     0.000 A 
ENDBRANCH  20  21
ENDBRANCH   9  14
ENDBRANCH   5   8
ENDBRANCH   3   4
ENDBRANCH   2   3
ENDBRANCH   1   2
BRANCH   1  27
ATOM     27  C   UNL A   1      35.127  23.231  23.130  1.00  0.00     0.002 C 
BRANCH  27  28
ATOM     28  C   UNL A   1      36.628  23.183  23.476  1.00  0.00     0.021 C 
BRANCH  28  29
ATOM     29  C   UNL A   1      36.987  23.431  24.939  1.00  0.00     0.116 C 
BRANCH  29  30
ATOM     30  N   UNL A   1      37.946  22.460  25.444  1.00  0.00    -0.352 N 
ATOM     31  C   UNL A   1      39.132  22.665  26.111  1.00  0.00     0.251 C 
ATOM     32  H   UNL A   1      37.712  21.517  25.285  1.00  0.00     0.163 HD
ATOM     33  O   UNL A   1      39.944  21.758  26.226  1.00  0.00    -0.269 OA
BRANCH  31  34
ATOM     34  C   UNL A   1      39.428  23.995  26.683  1.00  0.00     0.039 A 
ATOM     35  C   UNL A   1      39.000  24.294  27.978  1.00  0.00     0.014 A 
ATOM     36  C   UNL A   1      40.117  24.951  25.931  1.00  0.00     0.014 A 
ATOM     37  C   UNL A   1      39.323  25.529  28.544  1.00  0.00     0.010 A 
ATOM     38  C   UNL A   1      40.502  26.152  26.523  1.00  0.00     0.010 A 
ATOM     39  C   UNL A   1      40.109  26.456  27.835  1.00  0.00    -0.014 A 
BRANCH  39  40
ATOM     40  C   UNL A   1      40.535  27.732  28.466  1.00  0.00     0.031 A 
ATOM     41  C   UNL A   1      41.960  27.935  28.904  1.00  0.00     0.074 A 
ATOM     42  C   UNL A   1      39.622  28.700  28.683  1.00  0.00     0.049 A 
ATOM     43  N   UNL A   1      42.513  28.989  29.450  1.00  0.00    -0.248 NA
ATOM     44  C   UNL A   1      42.879  26.799  28.729  1.00  0.00     0.031 C 
ATOM     45  C   UNL A   1      38.198  28.613  28.349  1.00  0.00     0.029 A 
ATOM     46  N   UNL A   1      39.757  29.953  29.227  1.00  0.00    -0.354 N 
ATOM     47  C   UNL A   1      43.835  28.639  29.694  1.00  0.00     0.074 A 
ATOM     48  C   UNL A   1      43.988  27.259  29.289  1.00  0.00     0.031 C 
ATOM     49  C   UNL A   1      37.603  29.778  28.649  1.00  0.00     0.029 A 
ATOM     50  C   UNL A   1      38.591  30.680  29.235  1.00  0.00     0.049 A 
ATOM     51  H   UNL A   1      40.609  30.299  29.580  1.00  0.00     0.167 HD
ATOM     52  C   UNL A   1      44.839  29.401  30.193  1.00  0.00     0.031 A 
ATOM     53  C   UNL A   1      38.342  31.933  29.659  1.00  0.00     0.031 A 
ATOM     54  C   UNL A   1      44.687  30.775  30.596  1.00  0.00     0.049 A 
ATOM     55  C   UNL A   1      39.470  32.751  30.225  1.00  0.00     0.074 A 
ATOM     56  C   UNL A   1      45.657  31.652  31.050  1.00  0.00     0.029 A 
ATOM     57  N   UNL A   1      43.486  31.467  30.605  1.00  0.00    -0.354 N 
ATOM     58  N   UNL A   1      40.734  32.435  30.363  1.00  0.00    -0.248 NA
ATOM     59  C   UNL A   1      39.133  34.106  30.682  1.00  0.00     0.031 C 
ATOM     60  C   UNL A   1      45.030  32.853  31.400  1.00  0.00     0.029 A 
ATOM     61  C   UNL A   1      43.683  32.748  31.095  1.00  0.00     0.049 A 
ATOM     62  H   UNL A   1      42.621  31.102  30.308  1.00  0.00     0.167 HD
ATOM     63  C   UNL A   1      41.350  33.561  30.896  1.00  0.00     0.074 A 
ATOM     64  C   UNL A   1      40.323  34.573  31.032  1.00  0.00     0.031 C 
ATOM     65  C   UNL A   1      42.649  33.742  31.239  1.00  0.00     0.031 A 
BRANCH  52  66
ATOM     66  C   UNL A   1      46.190  28.755  30.349  1.00  0.00    -0.014 A 
ATOM     67  C   UNL A   1      47.181  28.877  29.362  1.00  0.00     0.009 A 
ATOM     68  C   UNL A   1      46.487  28.035  31.517  1.00  0.00     0.009 A 
ATOM     69  C   UNL A   1      48.422  28.256  29.521  1.00  0.00     0.001 A 
ATOM     70  C   UNL A   1      47.739  27.444  31.689  1.00  0.00     0.001 A 
ATOM     71  C   UNL A   1      48.702  27.545  30.686  1.00  0.00     0.000 A 
ENDBRANCH  52  66
BRANCH  53  72
ATOM     72  C   UNL A   1      36.975  32.507  29.541  1.00  0.00    -0.014 A 
ATOM     73  C   UNL A   1      36.585  33.181  28.373  1.00  0.00     0.009 A 
ATOM     74  C   UNL A   1      36.058  32.399  30.599  1.00  0.00     0.009 A 
ATOM     75  C   UNL A   1      35.317  33.760  28.279  1.00  0.00     0.001 A 
ATOM     76  C   UNL A   1      34.780  32.951  30.488  1.00  0.00     0.001 A 
ATOM     77  C   UNL A   1      34.415  33.640  29.334  1.00  0.00     0.000 A 
ENDBRANCH  53  72
BRANCH  65  78
ATOM     78  C   UNL A   1      43.034  35.096  31.771  1.00  0.00    -0.014 A 
ATOM     79  C   UNL A   1      43.554  36.093  30.932  1.00  0.00     0.009 A 
ATOM     80  C   UNL A   1      42.855  35.383  33.134  1.00  0.00     0.009 A 
ATOM     81  C   UNL A   1      43.935  37.331  31.455  1.00  0.00     0.001 A 
ATOM     82  C   UNL A   1      43.201  36.633  33.648  1.00  0.00     0.001 A 
ATOM     83  C   UNL A   1      43.754  37.600  32.811  1.00  0.00     0.000 A 
ENDBRANCH  65  78
ENDBRANCH  39  40
ENDBRANCH  31  34
ENDBRANCH  29  30
ENDBRANCH  28  29
ENDBRANCH  27  28
ENDBRANCH   1  27
TORSDOF 15
ENDMDL
MODEL 3
REMARK VINA RESULT:     -11.3      4.183      9.045
REMARK SMILES C[C@]1(c2ccccc2C(=O)NCCCCCCNC(=O)c2ccc(-c3c4nc(c(-c5ccccc5)c5ccc([nH]5)c(-c5ccccc5)c5nc(c(-c6ccccc6)c6ccc3[nH]6)C=C5)C=C4)cc2)NN=C(c2ccccc2)S1
REMARK SMILES IDX 14 1 13 2 12 3 11 4 9 5 10 6 8 8 3 9 4 10 5 11 7 12 6 13
REMARK SMILES IDX 2 14 1 15 69 16 78 17 70 18 71 20 72 21 73 22 77 23 74 24
REMARK SMILES IDX 76 25 75 26 15 27 16 28 17 29 18 30 19 31 20 33 21 34 22 35
REMARK SMILES IDX 68 36 23 37 67 38 24 39 25 40 26 41 61 42 27 43 66 44 60 45
REMARK SMILES IDX 62 46 28 47 65 48 59 49 58 50 29 52 51 53 36 54 50 55 37 56
REMARK SMILES IDX 40 57 49 58 63 59 38 60 39 61 48 63 64 64 41 65 30 66 31 67
REMARK SMILES IDX 35 68 32 69 34 70 33 71 52 72 53 73 57 74 54 75 56 76 55 77
REMARK SMILES IDX 42 78 43 79 47 80 44 81 46 82 45 83
REMARK H PARENT 11 7 69 19 18 32 62 51 40 62
REMARK Flexibility Score: inf
ROOT
ATOM      1  C   UNL A   1      32.659  30.077  26.297  1.00  0.00     0.002 C 
ENDROOT
BRANCH   1   2
ATOM      2  C   UNL A   1      32.350  28.973  27.311  1.00  0.00     0.021 C 
BRANCH   2   3
ATOM      3  C   UNL A   1      32.581  27.494  26.936  1.00  0.00     0.116 C 
BRANCH   3   4
ATOM      4  N   UNL A   1      31.425  26.616  26.869  1.00  0.00    -0.352 N 
ATOM      5  C   UNL A   1      30.944  25.686  25.967  1.00  0.00     0.251 C 
ATOM      6  O   UNL A   1      30.153  24.856  26.435  1.00  0.00    -0.269 OA
ATOM      7  H   UNL A   1      30.843  26.706  27.658  1.00  0.00     0.163 HD
BRANCH   5   8
ATOM      8  C   UNL A   1      31.252  25.563  24.490  1.00  0.00     0.046 A 
ATOM      9  C   UNL A   1      32.196  24.706  23.839  1.00  0.00     0.002 A 
ATOM     10  C   UNL A   1      32.393  24.870  22.441  1.00  0.00     0.008 A 
ATOM     11  C   UNL A   1      31.786  25.897  21.721  1.00  0.00     0.000 A 
ATOM     12  C   UNL A   1      30.696  26.626  23.738  1.00  0.00     0.014 A 
ATOM     13  C   UNL A   1      30.964  26.797  22.377  1.00  0.00     0.001 A 
BRANCH   9  14
ATOM     14  C   UNL A   1      32.972  23.568  24.517  1.00  0.00     0.129 C 
ATOM     15  C   UNL A   1      34.267  24.241  25.030  1.00  0.00     0.054 C 
ATOM     16  N   UNL A   1      32.368  22.931  25.724  1.00  0.00    -0.288 NA
ATOM     17  S   UNL A   1      33.052  22.125  23.408  1.00  0.00    -0.070 SA
ATOM     18  N   UNL A   1      32.517  21.547  25.852  1.00  0.00    -0.171 NA
ATOM     19  H   UNL A   1      31.886  23.462  26.399  1.00  0.00     0.185 HD
ATOM     20  C   UNL A   1      32.792  21.027  24.699  1.00  0.00     0.126 C 
BRANCH  20  21
ATOM     21  C   UNL A   1      32.871  19.623  24.275  1.00  0.00     0.009 A 
ATOM     22  C   UNL A   1      32.154  19.270  23.126  1.00  0.00     0.011 A 
ATOM     23  C   UNL A   1      33.926  18.811  24.715  1.00  0.00     0.011 A 
ATOM     24  C   UNL A   1      32.502  18.122  22.413  1.00  0.00     0.001 A 
ATOM     25  C   UNL A   1      34.271  17.662  23.997  1.00  0.00     0.001 A 
ATOM     26  C   UNL A   1      33.564  17.325  22.842  1.00  0.00     0.000 A 
ENDBRANCH  20  21
ENDBRANCH   9  14
ENDBRANCH   5   8
ENDBRANCH   3   4
ENDBRANCH   2   3
ENDBRANCH   1   2
BRANCH   1  27
ATOM     27  C   UNL A   1      31.401  30.866  25.905  1.00  0.00     0.002 C 
BRANCH  27  28
ATOM     28  C   UNL A   1      31.263  32.280  26.501  1.00  0.00     0.021 C 
BRANCH  28  29
ATOM     29  C   UNL A   1      32.482  32.813  27.251  1.00  0.00     0.116 C 
BRANCH  29  30
ATOM     30  N   UNL A   1      32.333  34.211  27.624  1.00  0.00    -0.352 N 
ATOM     31  C   UNL A   1      32.963  34.925  28.616  1.00  0.00     0.251 C 
ATOM     32  H   UNL A   1      31.686  34.722  27.085  1.00  0.00     0.163 HD
ATOM     33  O   UNL A   1      32.529  36.012  28.969  1.00  0.00    -0.269 OA
BRANCH  31  34
ATOM     34  C   UNL A   1      34.166  34.366  29.268  1.00  0.00     0.039 A 
ATOM     35  C   UNL A   1      34.027  33.640  30.453  1.00  0.00     0.014 A 
ATOM     36  C   UNL A   1      35.432  34.573  28.714  1.00  0.00     0.014 A 
ATOM     37  C   UNL A   1      35.152  33.064  31.046  1.00  0.00     0.010 A 
ATOM     38  C   UNL A   1      36.542  33.936  29.265  1.00  0.00     0.010 A 
ATOM     39  C   UNL A   1      36.416  33.176  30.437  1.00  0.00    -0.014 A 
BRANCH  39  40
ATOM     40  C   UNL A   1      37.601  32.486  31.011  1.00  0.00     0.031 A 
ATOM     41  C   UNL A   1      38.219  32.963  32.297  1.00  0.00     0.074 A 
ATOM     42  C   UNL A   1      38.148  31.448  30.347  1.00  0.00     0.049 A 
ATOM     43  N   UNL A   1      39.239  32.470  32.954  1.00  0.00    -0.248 NA
ATOM     44  C   UNL A   1      37.632  34.163  32.914  1.00  0.00     0.031 C 
ATOM     45  C   UNL A   1      37.674  30.916  29.067  1.00  0.00     0.029 A 
ATOM     46  N   UNL A   1      39.217  30.647  30.663  1.00  0.00    -0.354 N 
ATOM     47  C   UNL A   1      39.423  33.304  34.050  1.00  0.00     0.074 A 
ATOM     48  C   UNL A   1      38.446  34.366  33.940  1.00  0.00     0.031 C 
ATOM     49  C   UNL A   1      38.417  29.849  28.733  1.00  0.00     0.029 A 
ATOM     50  C   UNL A   1      39.444  29.646  29.750  1.00  0.00     0.049 A 
ATOM     51  H   UNL A   1      39.770  30.777  31.467  1.00  0.00     0.167 HD
ATOM     52  C   UNL A   1      40.311  33.190  35.067  1.00  0.00     0.031 A 
ATOM     53  C   UNL A   1      40.370  28.669  29.733  1.00  0.00     0.031 A 
ATOM     54  C   UNL A   1      41.283  32.134  35.176  1.00  0.00     0.049 A 
ATOM     55  C   UNL A   1      41.355  28.575  30.865  1.00  0.00     0.074 A 
ATOM     56  C   UNL A   1      42.181  31.892  36.201  1.00  0.00     0.029 A 
ATOM     57  N   UNL A   1      41.492  31.151  34.221  1.00  0.00    -0.354 N 
ATOM     58  N   UNL A   1      41.455  29.318  31.940  1.00  0.00    -0.248 NA
ATOM     59  C   UNL A   1      42.349  27.496  30.783  1.00  0.00     0.031 C 
ATOM     60  C   UNL A   1      42.980  30.804  35.834  1.00  0.00     0.029 A 
ATOM     61  C   UNL A   1      42.532  30.324  34.614  1.00  0.00     0.049 A 
ATOM     62  H   UNL A   1      40.978  31.055  33.387  1.00  0.00     0.167 HD
ATOM     63  C   UNL A   1      42.503  28.779  32.677  1.00  0.00     0.074 A 
ATOM     64  C   UNL A   1      42.988  27.633  31.936  1.00  0.00     0.031 C 
ATOM     65  C   UNL A   1      43.015  29.195  33.861  1.00  0.00     0.031 A 
BRANCH  52  66
ATOM     66  C   UNL A   1      40.283  34.251  36.135  1.00  0.00    -0.014 A 
ATOM     67  C   UNL A   1      39.502  34.106  37.294  1.00  0.00     0.009 A 
ATOM     68  C   UNL A   1      41.075  35.402  35.995  1.00  0.00     0.009 A 
ATOM     69  C   UNL A   1      39.480  35.110  38.265  1.00  0.00     0.001 A 
ATOM     70  C   UNL A   1      41.078  36.388  36.982  1.00  0.00     0.001 A 
ATOM     71  C   UNL A   1      40.272  36.247  38.111  1.00  0.00     0.000 A 
ENDBRANCH  52  66
BRANCH  53  72
ATOM     72  C   UNL A   1      40.397  27.679  28.622  1.00  0.00    -0.014 A 
ATOM     73  C   UNL A   1      41.131  27.940  27.454  1.00  0.00     0.009 A 
ATOM     74  C   UNL A   1      39.677  26.477  28.716  1.00  0.00     0.009 A 
ATOM     75  C   UNL A   1      41.120  27.032  26.393  1.00  0.00     0.001 A 
ATOM     76  C   UNL A   1      39.695  25.557  27.666  1.00  0.00     0.001 A 
ATOM     77  C   UNL A   1      40.407  25.840  26.501  1.00  0.00     0.000 A 
ENDBRANCH  53  72
BRANCH  65  78
ATOM     78  C   UNL A   1      44.145  28.385  34.439  1.00  0.00    -0.014 A 
ATOM     79  C   UNL A   1      45.486  28.701  34.171  1.00  0.00     0.009 A 
ATOM     80  C   UNL A   1      43.859  27.297  35.279  1.00  0.00     0.009 A 
ATOM     81  C   UNL A   1      46.516  27.913  34.692  1.00  0.00     0.001 A 
ATOM     82  C   UNL A   1      44.890  26.534  35.828  1.00  0.00     0.001 A 
ATOM     83  C   UNL A   1      46.216  26.834  35.523  1.00  0.00     0.000 A 
ENDBRANCH  65  78
ENDBRANCH  39  40
ENDBRANCH  31  34
ENDBRANCH  29  30
ENDBRANCH  28  29
ENDBRANCH  27  28
ENDBRANCH   1  27
TORSDOF 15
ENDMDL
