MODEL 1
REMARK VINA RESULT:     -10.8      0.000      0.000
REMARK SMILES C[C@@H](c1ccccc1)[C@@H](CC(=O)Nc1ccccc1I)C(=O)NCCCCCCNC(=O)c1ccc(-c2c3nc(c(-c4ccccc4)c4ccc([nH]4)c(-c4ccccc4)c4nc(c(-c5ccccc5)c5ccc2[nH]5)C=C4)C=C3)cc1
REMARK SMILES IDX 26 1 25 2 24 3 23 4 21 5 22 6 9 8 2 9 1 10 3 11 4 12 8 13
REMARK SMILES IDX 5 14 7 15 6 16 10 17 11 18 12 19 13 20 14 22 15 23 19 24
REMARK SMILES IDX 16 25 18 26 20 27 17 28 27 29 28 30 29 31 30 32 31 33 32 35
REMARK SMILES IDX 33 36 34 37 80 38 35 39 79 40 36 41 37 42 38 43 73 44 39 45
REMARK SMILES IDX 78 46 72 47 74 48 40 49 77 50 71 51 70 52 41 54 63 55 48 56
REMARK SMILES IDX 62 57 49 58 52 59 61 60 75 61 50 62 51 63 60 65 76 66 53 67
REMARK SMILES IDX 42 68 43 69 47 70 44 71 46 72 45 73 64 74 65 75 69 76 66 77
REMARK SMILES IDX 68 78 67 79 54 80 55 81 59 82 56 83 58 84 57 85
REMARK H PARENT 23 7 13 21 30 34 74 53 52 64
REMARK Flexibility Score: inf
ROOT
ATOM      1  C   UNL A   1      31.186  29.838  24.976  1.00  0.00     0.002 C 
ENDROOT
BRANCH   1   2
ATOM      2  C   UNL A   1      32.207  29.280  23.998  1.00  0.00     0.021 C 
BRANCH   2   3
ATOM      3  C   UNL A   1      31.676  28.565  22.767  1.00  0.00     0.116 C 
BRANCH   3   4
ATOM      4  N   UNL A   1      32.636  27.807  22.017  1.00  0.00    -0.356 N 
ATOM      5  C   UNL A   1      33.091  26.546  22.226  1.00  0.00     0.224 C 
ATOM      6  O   UNL A   1      33.634  26.016  21.246  1.00  0.00    -0.275 OA
ATOM      7  H   UNL A   1      33.021  28.270  21.238  1.00  0.00     0.163 HD
BRANCH   5   8
ATOM      8  C   UNL A   1      33.004  25.751  23.557  1.00  0.00     0.095 C 
BRANCH   8   9
ATOM      9  C   UNL A   1      34.267  25.678  24.449  1.00  0.00     0.029 C 
ATOM     10  C   UNL A   1      33.952  26.151  25.889  1.00  0.00     0.013 C 
BRANCH   9  11
ATOM     11  C   UNL A   1      35.118  24.416  24.559  1.00  0.00    -0.044 A 
ATOM     12  C   UNL A   1      35.194  23.411  23.595  1.00  0.00     0.004 A 
ATOM     13  C   UNL A   1      35.867  24.239  25.745  1.00  0.00     0.004 A 
ATOM     14  C   UNL A   1      36.046  22.310  23.777  1.00  0.00     0.000 A 
ATOM     15  C   UNL A   1      36.700  23.138  25.936  1.00  0.00     0.000 A 
ATOM     16  C   UNL A   1      36.802  22.179  24.940  1.00  0.00     0.000 A 
ENDBRANCH   9  11
ENDBRANCH   8   9
BRANCH   8  17
ATOM     17  C   UNL A   1      31.688  25.910  24.363  1.00  0.00     0.114 C 
BRANCH  17  18
ATOM     18  C   UNL A   1      30.558  24.882  24.482  1.00  0.00     0.225 C 
ATOM     19  O   UNL A   1      29.484  25.177  23.923  1.00  0.00    -0.275 OA
ATOM     20  N   UNL A   1      30.531  23.638  25.041  1.00  0.00    -0.325 N 
ATOM     21  H   UNL A   1      29.612  23.293  25.119  1.00  0.00     0.169 HD
BRANCH  20  22
ATOM     22  C   UNL A   1      31.479  22.719  25.535  1.00  0.00     0.054 A 
ATOM     23  C   UNL A   1      32.204  23.157  26.654  1.00  0.00     0.027 A 
ATOM     24  C   UNL A   1      32.013  21.603  24.872  1.00  0.00     0.037 A 
ATOM     25  C   UNL A   1      33.245  22.394  27.203  1.00  0.00     0.002 A 
ATOM     26  C   UNL A   1      32.929  20.744  25.503  1.00  0.00     0.017 A 
ATOM     27  I   UNL A   1      32.185  21.455  22.753  1.00  0.00    -0.042 I 
ATOM     28  C   UNL A   1      33.551  21.148  26.674  1.00  0.00     0.001 A 
ENDBRANCH  20  22
ENDBRANCH  17  18
ENDBRANCH   8  17
ENDBRANCH   5   8
ENDBRANCH   3   4
ENDBRANCH   2   3
ENDBRANCH   1   2
BRANCH   1  29
ATOM     29  C   UNL A   1      31.717  30.299  26.335  1.00  0.00     0.002 C 
BRANCH  29  30
ATOM     30  C   UNL A   1      31.486  31.761  26.732  1.00  0.00     0.021 C 
BRANCH  30  31
ATOM     31  C   UNL A   1      32.721  32.644  26.904  1.00  0.00     0.116 C 
BRANCH  31  32
ATOM     32  N   UNL A   1      32.456  33.874  27.630  1.00  0.00    -0.352 N 
ATOM     33  C   UNL A   1      33.168  34.452  28.644  1.00  0.00     0.251 C 
ATOM     34  H   UNL A   1      31.647  34.360  27.353  1.00  0.00     0.163 HD
ATOM     35  O   UNL A   1      32.726  35.459  29.215  1.00  0.00    -0.269 OA
BRANCH  33  36
ATOM     36  C   UNL A   1      34.451  33.876  29.089  1.00  0.00     0.039 A 
ATOM     37  C   UNL A   1      34.458  33.028  30.200  1.00  0.00     0.014 A 
ATOM     38  C   UNL A   1      35.648  34.181  28.433  1.00  0.00     0.014 A 
ATOM     39  C   UNL A   1      35.653  32.444  30.624  1.00  0.00     0.010 A 
ATOM     40  C   UNL A   1      36.831  33.551  28.820  1.00  0.00     0.010 A 
ATOM     41  C   UNL A   1      36.846  32.681  29.923  1.00  0.00    -0.014 A 
BRANCH  41  42
ATOM     42  C   UNL A   1      38.118  32.038  30.340  1.00  0.00     0.031 A 
ATOM     43  C   UNL A   1      39.004  32.702  31.358  1.00  0.00     0.074 A 
ATOM     44  C   UNL A   1      38.501  30.879  29.771  1.00  0.00     0.049 A 
ATOM     45  N   UNL A   1      40.171  32.319  31.813  1.00  0.00    -0.248 NA
ATOM     46  C   UNL A   1      38.525  33.973  31.923  1.00  0.00     0.031 C 
ATOM     47  C   UNL A   1      37.748  30.144  28.751  1.00  0.00     0.029 A 
ATOM     48  N   UNL A   1      39.626  30.115  29.967  1.00  0.00    -0.354 N 
ATOM     49  C   UNL A   1      40.570  33.307  32.704  1.00  0.00     0.074 A 
ATOM     50  C   UNL A   1      39.546  34.329  32.691  1.00  0.00     0.031 C 
ATOM     51  C   UNL A   1      38.419  29.025  28.433  1.00  0.00     0.029 A 
ATOM     52  C   UNL A   1      39.664  28.981  29.194  1.00  0.00     0.049 A 
ATOM     53  H   UNL A   1      40.337  30.358  30.603  1.00  0.00     0.167 HD
ATOM     54  C   UNL A   1      41.680  33.353  33.480  1.00  0.00     0.031 A 
ATOM     55  C   UNL A   1      40.597  28.015  29.105  1.00  0.00     0.031 A 
ATOM     56  C   UNL A   1      42.696  32.335  33.504  1.00  0.00     0.049 A 
ATOM     57  C   UNL A   1      41.829  28.099  29.962  1.00  0.00     0.074 A 
ATOM     58  C   UNL A   1      43.834  32.270  34.290  1.00  0.00     0.029 A 
ATOM     59  N   UNL A   1      42.696  31.202  32.706  1.00  0.00    -0.354 N 
ATOM     60  N   UNL A   1      42.165  29.012  30.840  1.00  0.00    -0.248 NA
ATOM     61  C   UNL A   1      42.807  27.009  29.822  1.00  0.00     0.031 C 
ATOM     62  C   UNL A   1      44.546  31.120  33.934  1.00  0.00     0.029 A 
ATOM     63  C   UNL A   1      43.824  30.442  32.966  1.00  0.00     0.049 A 
ATOM     64  H   UNL A   1      41.997  30.971  32.052  1.00  0.00     0.167 HD
ATOM     65  C   UNL A   1      43.375  28.594  31.378  1.00  0.00     0.074 A 
ATOM     66  C   UNL A   1      43.707  27.338  30.738  1.00  0.00     0.031 C 
ATOM     67  C   UNL A   1      44.140  29.194  32.321  1.00  0.00     0.031 A 
BRANCH  54  68
ATOM     68  C   UNL A   1      41.854  34.557  34.365  1.00  0.00    -0.014 A 
ATOM     69  C   UNL A   1      42.442  35.737  33.880  1.00  0.00     0.009 A 
ATOM     70  C   UNL A   1      41.395  34.523  35.690  1.00  0.00     0.009 A 
ATOM     71  C   UNL A   1      42.603  36.843  34.717  1.00  0.00     0.001 A 
ATOM     72  C   UNL A   1      41.531  35.641  36.516  1.00  0.00     0.001 A 
ATOM     73  C   UNL A   1      42.142  36.796  36.032  1.00  0.00     0.000 A 
ENDBRANCH  54  68
BRANCH  55  74
ATOM     74  C   UNL A   1      40.398  26.869  28.179  1.00  0.00    -0.014 A 
ATOM     75  C   UNL A   1      39.661  25.746  28.586  1.00  0.00     0.009 A 
ATOM     76  C   UNL A   1      40.953  26.886  26.890  1.00  0.00     0.009 A 
ATOM     77  C   UNL A   1      39.506  24.652  27.731  1.00  0.00     0.001 A 
ATOM     78  C   UNL A   1      40.775  25.802  26.027  1.00  0.00     0.001 A 
ATOM     79  C   UNL A   1      40.060  24.683  26.451  1.00  0.00     0.000 A 
ENDBRANCH  55  74
BRANCH  67  80
ATOM     80  C   UNL A   1      45.394  28.483  32.744  1.00  0.00    -0.014 A 
ATOM     81  C   UNL A   1      46.642  28.813  32.194  1.00  0.00     0.009 A 
ATOM     82  C   UNL A   1      45.328  27.494  33.738  1.00  0.00     0.009 A 
ATOM     83  C   UNL A   1      47.795  28.145  32.609  1.00  0.00     0.001 A 
ATOM     84  C   UNL A   1      46.487  26.846  34.170  1.00  0.00     0.001 A 
ATOM     85  C   UNL A   1      47.717  27.165  33.599  1.00  0.00     0.000 A 
ENDBRANCH  67  80
ENDBRANCH  41  42
ENDBRANCH  33  36
ENDBRANCH  31  32
ENDBRANCH  30  31
ENDBRANCH  29  30
ENDBRANCH   1  29
TORSDOF 18
ENDMDL
MODEL 2
REMARK VINA RESULT:     -10.7      0.385      5.722
REMARK SMILES C[C@@H](c1ccccc1)[C@@H](CC(=O)Nc1ccccc1I)C(=O)NCCCCCCNC(=O)c1ccc(-c2c3nc(c(-c4ccccc4)c4ccc([nH]4)c(-c4ccccc4)c4nc(c(-c5ccccc5)c5ccc2[nH]5)C=C4)C=C3)cc1
REMARK SMILES IDX 26 1 25 2 24 3 23 4 21 5 22 6 9 8 2 9 1 10 3 11 4 12 8 13
REMARK SMILES IDX 5 14 7 15 6 16 10 17 11 18 12 19 13 20 14 22 15 23 19 24
REMARK SMILES IDX 16 25 18 26 20 27 17 28 27 29 28 30 29 31 30 32 31 33 32 35
REMARK SMILES IDX 33 36 34 37 80 38 35 39 79 40 36 41 37 42 38 43 73 44 39 45
REMARK SMILES IDX 78 46 72 47 74 48 40 49 77 50 71 51 70 52 41 54 63 55 48 56
REMARK SMILES IDX 62 57 49 58 52 59 61 60 75 61 50 62 51 63 60 65 76 66 53 67
REMARK SMILES IDX 42 68 43 69 47 70 44 71 46 72 45 73 64 74 65 75 69 76 66 77
REMARK SMILES IDX 68 78 67 79 54 80 55 81 59 82 56 83 58 84 57 85
REMARK H PARENT 23 7 13 21 30 34 74 53 52 64
REMARK Flexibility Score: inf
ROOT
ATOM      1  C   UNL A   1      32.103  29.734  25.212  1.00  0.00     0.002 C 
ENDROOT
BRANCH   1   2
ATOM      2  C   UNL A   1      33.014  29.238  24.101  1.00  0.00     0.021 C 
BRANCH   2   3
ATOM      3  C   UNL A   1      32.360  28.837  22.790  1.00  0.00     0.116 C 
BRANCH   3   4
ATOM      4  N   UNL A   1      33.056  27.847  22.018  1.00  0.00    -0.356 N 
ATOM      5  C   UNL A   1      33.195  26.517  22.247  1.00  0.00     0.224 C 
ATOM      6  O   UNL A   1      33.531  25.848  21.259  1.00  0.00    -0.275 OA
ATOM      7  H   UNL A   1      33.498  28.182  21.205  1.00  0.00     0.163 HD
BRANCH   5   8
ATOM      8  C   UNL A   1      32.991  25.797  23.608  1.00  0.00     0.095 C 
BRANCH   8   9
ATOM      9  C   UNL A   1      34.180  25.756  24.599  1.00  0.00     0.029 C 
ATOM     10  C   UNL A   1      33.722  26.147  26.024  1.00  0.00     0.013 C 
BRANCH   9  11
ATOM     11  C   UNL A   1      35.093  24.541  24.729  1.00  0.00    -0.044 A 
ATOM     12  C   UNL A   1      35.848  24.219  25.857  1.00  0.00     0.004 A 
ATOM     13  C   UNL A   1      35.206  23.689  23.606  1.00  0.00     0.004 A 
ATOM     14  C   UNL A   1      36.623  23.049  25.887  1.00  0.00     0.000 A 
ATOM     15  C   UNL A   1      35.989  22.537  23.627  1.00  0.00     0.000 A 
ATOM     16  C   UNL A   1      36.687  22.207  24.779  1.00  0.00     0.000 A 
ENDBRANCH   9  11
ENDBRANCH   8   9
BRANCH   8  17
ATOM     17  C   UNL A   1      31.620  26.017  24.298  1.00  0.00     0.114 C 
BRANCH  17  18
ATOM     18  C   UNL A   1      30.491  24.991  24.437  1.00  0.00     0.225 C 
ATOM     19  O   UNL A   1      29.415  25.277  23.876  1.00  0.00    -0.275 OA
ATOM     20  N   UNL A   1      30.465  23.757  25.017  1.00  0.00    -0.325 N 
ATOM     21  H   UNL A   1      29.547  23.413  25.103  1.00  0.00     0.169 HD
BRANCH  20  22
ATOM     22  C   UNL A   1      31.414  22.846  25.524  1.00  0.00     0.054 A 
ATOM     23  C   UNL A   1      32.090  23.272  26.678  1.00  0.00     0.027 A 
ATOM     24  C   UNL A   1      31.996  21.758  24.855  1.00  0.00     0.037 A 
ATOM     25  C   UNL A   1      33.127  22.519  27.247  1.00  0.00     0.002 A 
ATOM     26  C   UNL A   1      32.908  20.903  25.499  1.00  0.00     0.017 A 
ATOM     27  I   UNL A   1      32.248  21.664  22.740  1.00  0.00    -0.042 I 
ATOM     28  C   UNL A   1      33.479  21.292  26.700  1.00  0.00     0.001 A 
ENDBRANCH  20  22
ENDBRANCH  17  18
ENDBRANCH   8  17
ENDBRANCH   5   8
ENDBRANCH   3   4
ENDBRANCH   2   3
ENDBRANCH   1   2
BRANCH   1  29
ATOM     29  C   UNL A   1      32.755  29.991  26.572  1.00  0.00     0.002 C 
BRANCH  29  30
ATOM     30  C   UNL A   1      32.350  31.262  27.327  1.00  0.00     0.021 C 
BRANCH  30  31
ATOM     31  C   UNL A   1      32.963  32.580  26.860  1.00  0.00     0.116 C 
BRANCH  31  32
ATOM     32  N   UNL A   1      32.571  33.721  27.670  1.00  0.00    -0.352 N 
ATOM     33  C   UNL A   1      33.202  34.277  28.747  1.00  0.00     0.251 C 
ATOM     34  H   UNL A   1      31.728  34.155  27.405  1.00  0.00     0.163 HD
ATOM     35  O   UNL A   1      32.658  35.193  29.380  1.00  0.00    -0.269 OA
BRANCH  33  36
ATOM     36  C   UNL A   1      34.520  33.782  29.188  1.00  0.00     0.039 A 
ATOM     37  C   UNL A   1      34.581  32.920  30.286  1.00  0.00     0.014 A 
ATOM     38  C   UNL A   1      35.696  34.176  28.541  1.00  0.00     0.014 A 
ATOM     39  C   UNL A   1      35.812  32.411  30.705  1.00  0.00     0.010 A 
ATOM     40  C   UNL A   1      36.917  33.621  28.922  1.00  0.00     0.010 A 
ATOM     41  C   UNL A   1      36.988  32.738  30.011  1.00  0.00    -0.014 A 
BRANCH  41  42
ATOM     42  C   UNL A   1      38.299  32.175  30.422  1.00  0.00     0.031 A 
ATOM     43  C   UNL A   1      38.781  30.875  29.840  1.00  0.00     0.074 A 
ATOM     44  C   UNL A   1      39.039  32.809  31.353  1.00  0.00     0.049 A 
ATOM     45  N   UNL A   1      39.874  30.204  30.109  1.00  0.00    -0.248 NA
ATOM     46  C   UNL A   1      37.912  30.234  28.841  1.00  0.00     0.031 C 
ATOM     47  C   UNL A   1      38.675  34.063  32.017  1.00  0.00     0.029 A 
ATOM     48  N   UNL A   1      40.253  32.481  31.906  1.00  0.00    -0.354 N 
ATOM     49  C   UNL A   1      39.815  29.058  29.324  1.00  0.00     0.074 A 
ATOM     50  C   UNL A   1      38.559  29.102  28.606  1.00  0.00     0.031 C 
ATOM     51  C   UNL A   1      39.656  34.410  32.866  1.00  0.00     0.029 A 
ATOM     52  C   UNL A   1      40.697  33.389  32.837  1.00  0.00     0.049 A 
ATOM     53  H   UNL A   1      40.756  31.672  31.658  1.00  0.00     0.167 HD
ATOM     54  C   UNL A   1      40.730  28.068  29.197  1.00  0.00     0.031 A 
ATOM     55  C   UNL A   1      41.816  33.396  33.584  1.00  0.00     0.031 A 
ATOM     56  C   UNL A   1      41.984  28.026  29.901  1.00  0.00     0.049 A 
ATOM     57  C   UNL A   1      42.808  32.275  33.439  1.00  0.00     0.074 A 
ATOM     58  C   UNL A   1      42.997  27.088  29.804  1.00  0.00     0.029 A 
ATOM     59  N   UNL A   1      42.396  28.965  30.834  1.00  0.00    -0.354 N 
ATOM     60  N   UNL A   1      42.762  31.228  32.652  1.00  0.00    -0.248 NA
ATOM     61  C   UNL A   1      44.012  32.345  34.279  1.00  0.00     0.031 C 
ATOM     62  C   UNL A   1      44.003  27.436  30.712  1.00  0.00     0.029 A 
ATOM     63  C   UNL A   1      43.640  28.618  31.335  1.00  0.00     0.049 A 
ATOM     64  H   UNL A   1      41.881  29.761  31.100  1.00  0.00     0.167 HD
ATOM     65  C   UNL A   1      43.942  30.532  32.879  1.00  0.00     0.074 A 
ATOM     66  C   UNL A   1      44.689  31.282  33.868  1.00  0.00     0.031 C 
ATOM     67  C   UNL A   1      44.370  29.376  32.317  1.00  0.00     0.031 A 
BRANCH  54  68
ATOM     68  C   UNL A   1      40.400  26.939  28.260  1.00  0.00    -0.014 A 
ATOM     69  C   UNL A   1      40.898  26.916  26.947  1.00  0.00     0.009 A 
ATOM     70  C   UNL A   1      39.609  25.869  28.704  1.00  0.00     0.009 A 
ATOM     71  C   UNL A   1      40.576  25.864  26.086  1.00  0.00     0.001 A 
ATOM     72  C   UNL A   1      39.313  24.805  27.851  1.00  0.00     0.001 A 
ATOM     73  C   UNL A   1      39.788  24.807  26.541  1.00  0.00     0.000 A 
ENDBRANCH  54  68
BRANCH  55  74
ATOM     74  C   UNL A   1      42.073  34.513  34.531  1.00  0.00    -0.014 A 
ATOM     75  C   UNL A   1      41.655  34.421  35.868  1.00  0.00     0.009 A 
ATOM     76  C   UNL A   1      42.724  35.679  34.103  1.00  0.00     0.009 A 
ATOM     77  C   UNL A   1      41.859  35.485  36.749  1.00  0.00     0.001 A 
ATOM     78  C   UNL A   1      42.952  36.732  34.993  1.00  0.00     0.001 A 
ATOM     79  C   UNL A   1      42.511  36.638  36.312  1.00  0.00     0.000 A 
ENDBRANCH  55  74
BRANCH  67  80
ATOM     80  C   UNL A   1      45.723  28.870  32.730  1.00  0.00    -0.014 A 
ATOM     81  C   UNL A   1      46.879  29.201  32.004  1.00  0.00     0.009 A 
ATOM     82  C   UNL A   1      45.847  28.083  33.885  1.00  0.00     0.009 A 
ATOM     83  C   UNL A   1      48.127  28.726  32.411  1.00  0.00     0.001 A 
ATOM     84  C   UNL A   1      47.099  27.632  34.304  1.00  0.00     0.001 A 
ATOM     85  C   UNL A   1      48.236  27.946  33.563  1.00  0.00     0.000 A 
ENDBRANCH  67  80
ENDBRANCH  41  42
ENDBRANCH  33  36
ENDBRANCH  31  32
ENDBRANCH  30  31
ENDBRANCH  29  30
ENDBRANCH   1  29
TORSDOF 18
ENDMDL
MODEL 3
REMARK VINA RESULT:     -10.6      1.374      6.693
REMARK SMILES C[C@@H](c1ccccc1)[C@@H](CC(=O)Nc1ccccc1I)C(=O)NCCCCCCNC(=O)c1ccc(-c2c3nc(c(-c4ccccc4)c4ccc([nH]4)c(-c4ccccc4)c4nc(c(-c5ccccc5)c5ccc2[nH]5)C=C4)C=C3)cc1
REMARK SMILES IDX 26 1 25 2 24 3 23 4 21 5 22 6 9 8 2 9 1 10 3 11 4 12 8 13
REMARK SMILES IDX 5 14 7 15 6 16 10 17 11 18 12 19 13 20 14 22 15 23 19 24
REMARK SMILES IDX 16 25 18 26 20 27 17 28 27 29 28 30 29 31 30 32 31 33 32 35
REMARK SMILES IDX 33 36 34 37 80 38 35 39 79 40 36 41 37 42 38 43 73 44 39 45
REMARK SMILES IDX 78 46 72 47 74 48 40 49 77 50 71 51 70 52 41 54 63 55 48 56
REMARK SMILES IDX 62 57 49 58 52 59 61 60 75 61 50 62 51 63 60 65 76 66 53 67
REMARK SMILES IDX 42 68 43 69 47 70 44 71 46 72 45 73 64 74 65 75 69 76 66 77
REMARK SMILES IDX 68 78 67 79 54 80 55 81 59 82 56 83 58 84 57 85
REMARK H PARENT 23 7 13 21 30 34 74 53 52 64
REMARK Flexibility Score: inf
ROOT
ATOM      1  C   UNL A   1      31.891  28.289  27.224  1.00  0.00     0.002 C 
ENDROOT
BRANCH   1   2
ATOM      2  C   UNL A   1      32.768  27.213  26.604  1.00  0.00     0.021 C 
BRANCH   2   3
ATOM      3  C   UNL A   1      32.118  25.875  26.297  1.00  0.00     0.116 C 
BRANCH   3   4
ATOM      4  N   UNL A   1      30.780  25.930  25.782  1.00  0.00    -0.356 N 
ATOM      5  C   UNL A   1      30.351  26.234  24.531  1.00  0.00     0.224 C 
ATOM      6  O   UNL A   1      29.197  25.864  24.269  1.00  0.00    -0.275 OA
ATOM      7  H   UNL A   1      30.070  25.717  26.430  1.00  0.00     0.163 HD
BRANCH   5   8
ATOM      8  C   UNL A   1      31.157  27.000  23.448  1.00  0.00     0.095 C 
BRANCH   8   9
ATOM      9  C   UNL A   1      31.176  28.547  23.508  1.00  0.00     0.029 C 
ATOM     10  C   UNL A   1      32.213  29.123  22.514  1.00  0.00     0.013 C 
BRANCH   9  11
ATOM     11  C   UNL A   1      29.908  29.385  23.382  1.00  0.00    -0.044 A 
ATOM     12  C   UNL A   1      28.735  28.979  22.745  1.00  0.00     0.004 A 
ATOM     13  C   UNL A   1      29.934  30.689  23.929  1.00  0.00     0.004 A 
ATOM     14  C   UNL A   1      27.607  29.815  22.726  1.00  0.00     0.000 A 
ATOM     15  C   UNL A   1      28.822  31.528  23.895  1.00  0.00     0.000 A 
ATOM     16  C   UNL A   1      27.648  31.081  23.306  1.00  0.00     0.000 A 
ENDBRANCH   9  11
ENDBRANCH   8   9
BRANCH   8  17
ATOM     17  C   UNL A   1      32.522  26.382  23.048  1.00  0.00     0.114 C 
BRANCH  17  18
ATOM     18  C   UNL A   1      32.763  25.311  21.979  1.00  0.00     0.225 C 
ATOM     19  O   UNL A   1      33.111  25.724  20.855  1.00  0.00    -0.275 OA
ATOM     20  N   UNL A   1      32.737  23.950  22.049  1.00  0.00    -0.325 N 
ATOM     21  H   UNL A   1      32.758  23.537  21.155  1.00  0.00     0.169 HD
BRANCH  20  22
ATOM     22  C   UNL A   1      32.687  22.980  23.071  1.00  0.00     0.054 A 
ATOM     23  C   UNL A   1      31.498  22.961  23.816  1.00  0.00     0.027 A 
ATOM     24  C   UNL A   1      33.766  22.286  23.643  1.00  0.00     0.037 A 
ATOM     25  C   UNL A   1      31.335  22.117  24.924  1.00  0.00     0.002 A 
ATOM     26  C   UNL A   1      33.567  21.312  24.636  1.00  0.00     0.017 A 
ATOM     27  I   UNL A   1      35.753  23.052  23.732  1.00  0.00    -0.042 I 
ATOM     28  C   UNL A   1      32.343  21.233  25.282  1.00  0.00     0.001 A 
ENDBRANCH  20  22
ENDBRANCH  17  18
ENDBRANCH   8  17
ENDBRANCH   5   8
ENDBRANCH   3   4
ENDBRANCH   2   3
ENDBRANCH   1   2
BRANCH   1  29
ATOM     29  C   UNL A   1      32.537  29.658  27.449  1.00  0.00     0.002 C 
BRANCH  29  30
ATOM     30  C   UNL A   1      31.742  30.899  27.029  1.00  0.00     0.021 C 
BRANCH  30  31
ATOM     31  C   UNL A   1      32.533  32.091  26.495  1.00  0.00     0.116 C 
BRANCH  31  32
ATOM     32  N   UNL A   1      32.264  33.329  27.207  1.00  0.00    -0.352 N 
ATOM     33  C   UNL A   1      32.988  33.936  28.194  1.00  0.00     0.251 C 
ATOM     34  H   UNL A   1      31.441  33.797  26.939  1.00  0.00     0.163 HD
ATOM     35  O   UNL A   1      32.543  34.946  28.758  1.00  0.00    -0.269 OA
BRANCH  33  36
ATOM     36  C   UNL A   1      34.290  33.388  28.621  1.00  0.00     0.039 A 
ATOM     37  C   UNL A   1      35.441  33.778  27.931  1.00  0.00     0.014 A 
ATOM     38  C   UNL A   1      34.381  32.480  29.680  1.00  0.00     0.014 A 
ATOM     39  C   UNL A   1      36.690  33.300  28.334  1.00  0.00     0.010 A 
ATOM     40  C   UNL A   1      35.634  32.049  30.119  1.00  0.00     0.010 A 
ATOM     41  C   UNL A   1      36.799  32.451  29.447  1.00  0.00    -0.014 A 
BRANCH  41  42
ATOM     42  C   UNL A   1      38.124  31.963  29.908  1.00  0.00     0.031 A 
ATOM     43  C   UNL A   1      38.659  30.646  29.417  1.00  0.00     0.074 A 
ATOM     44  C   UNL A   1      38.827  32.681  30.805  1.00  0.00     0.049 A 
ATOM     45  N   UNL A   1      39.771  30.034  29.741  1.00  0.00    -0.248 NA
ATOM     46  C   UNL A   1      37.828  29.912  28.451  1.00  0.00     0.031 C 
ATOM     47  C   UNL A   1      38.410  33.961  31.382  1.00  0.00     0.029 A 
ATOM     48  N   UNL A   1      40.044  32.434  31.392  1.00  0.00    -0.354 N 
ATOM     49  C   UNL A   1      39.763  28.839  29.031  1.00  0.00     0.074 A 
ATOM     50  C   UNL A   1      38.517  28.791  28.297  1.00  0.00     0.031 C 
ATOM     51  C   UNL A   1      39.366  34.398  32.219  1.00  0.00     0.029 A 
ATOM     52  C   UNL A   1      40.443  33.414  32.267  1.00  0.00     0.049 A 
ATOM     53  H   UNL A   1      40.579  31.629  31.203  1.00  0.00     0.167 HD
ATOM     54  C   UNL A   1      40.715  27.877  28.979  1.00  0.00     0.031 A 
ATOM     55  C   UNL A   1      41.551  33.509  33.026  1.00  0.00     0.031 A 
ATOM     56  C   UNL A   1      41.960  27.925  29.699  1.00  0.00     0.049 A 
ATOM     57  C   UNL A   1      42.583  32.418  32.965  1.00  0.00     0.074 A 
ATOM     58  C   UNL A   1      43.006  27.020  29.675  1.00  0.00     0.029 A 
ATOM     59  N   UNL A   1      42.325  28.936  30.574  1.00  0.00    -0.354 N 
ATOM     60  N   UNL A   1      42.586  31.322  32.246  1.00  0.00    -0.248 NA
ATOM     61  C   UNL A   1      43.773  32.585  33.813  1.00  0.00     0.031 C 
ATOM     62  C   UNL A   1      43.986  27.461  30.570  1.00  0.00     0.029 A 
ATOM     63  C   UNL A   1      43.573  28.667  31.110  1.00  0.00     0.049 A 
ATOM     64  H   UNL A   1      41.779  29.729  30.782  1.00  0.00     0.167 HD
ATOM     65  C   UNL A   1      43.786  30.685  32.532  1.00  0.00     0.074 A 
ATOM     66  C   UNL A   1      44.492  31.523  33.479  1.00  0.00     0.031 C 
ATOM     67  C   UNL A   1      44.262  29.512  32.051  1.00  0.00     0.031 A 
BRANCH  54  68
ATOM     68  C   UNL A   1      40.438  26.679  28.112  1.00  0.00    -0.014 A 
ATOM     69  C   UNL A   1      39.663  25.606  28.582  1.00  0.00     0.009 A 
ATOM     70  C   UNL A   1      40.929  26.637  26.799  1.00  0.00     0.009 A 
ATOM     71  C   UNL A   1      39.421  24.498  27.767  1.00  0.00     0.001 A 
ATOM     72  C   UNL A   1      40.661  25.541  25.977  1.00  0.00     0.001 A 
ATOM     73  C   UNL A   1      39.916  24.469  26.463  1.00  0.00     0.000 A 
ENDBRANCH  54  68
BRANCH  55  74
ATOM     74  C   UNL A   1      41.755  34.693  33.902  1.00  0.00    -0.014 A 
ATOM     75  C   UNL A   1      42.454  35.815  33.430  1.00  0.00     0.009 A 
ATOM     76  C   UNL A   1      41.263  34.703  35.217  1.00  0.00     0.009 A 
ATOM     77  C   UNL A   1      42.680  36.912  34.265  1.00  0.00     0.001 A 
ATOM     78  C   UNL A   1      41.468  35.813  36.041  1.00  0.00     0.001 A 
ATOM     79  C   UNL A   1      42.184  36.911  35.568  1.00  0.00     0.000 A 
ENDBRANCH  55  74
BRANCH  67  80
ATOM     80  C   UNL A   1      45.627  29.083  32.511  1.00  0.00    -0.014 A 
ATOM     81  C   UNL A   1      45.793  28.265  33.639  1.00  0.00     0.009 A 
ATOM     82  C   UNL A   1      46.760  29.472  31.779  1.00  0.00     0.009 A 
ATOM     83  C   UNL A   1      47.071  27.872  34.043  1.00  0.00     0.001 A 
ATOM     84  C   UNL A   1      48.033  29.055  32.170  1.00  0.00     0.001 A 
ATOM     85  C   UNL A   1      48.188  28.264  33.306  1.00  0.00     0.000 A 
ENDBRANCH  67  80
ENDBRANCH  41  42
ENDBRANCH  33  36
ENDBRANCH  31  32
ENDBRANCH  30  31
ENDBRANCH  29  30
ENDBRANCH   1  29
TORSDOF 18
ENDMDL
