MODEL 1
REMARK VINA RESULT:     -10.9      0.000      0.000
REMARK SMILES C[C@@H](C(=O)NCCCCCCNC(=O)c1ccc(-c2c3nc(c(-c4ccccc4)c4ccc([nH]4)c(-c4ccccc4)c4nc(c(-c5ccccc5)c5ccc2[nH]5)C=C4)C=C3)cc1)c1ccc(NC2CCCC2)cc1F
REMARK SMILES IDX 8 1 7 2 6 3 5 4 3 5 4 6 2 8 1 9 63 10 64 11 74 12 65 13
REMARK SMILES IDX 73 14 75 15 66 16 67 17 68 19 69 20 72 21 70 22 71 23 9 24
REMARK SMILES IDX 10 25 11 26 12 27 13 28 14 30 15 31 16 32 62 33 17 34 61 35
REMARK SMILES IDX 18 36 19 37 20 38 55 39 21 40 60 41 54 42 56 43 22 44 59 45
REMARK SMILES IDX 53 46 52 47 23 49 45 50 30 51 44 52 31 53 34 54 43 55 57 56
REMARK SMILES IDX 32 57 33 58 42 60 58 61 35 62 24 63 25 64 29 65 26 66 28 67
REMARK SMILES IDX 27 68 46 69 47 70 51 71 48 72 50 73 49 74 36 75 37 76 41 77
REMARK SMILES IDX 38 78 40 79 39 80
REMARK H PARENT 5 7 67 18 12 29 56 48 34 59
REMARK Flexibility Score: inf
ROOT
ATOM      1  C   UNL A   1      32.339  29.528  26.291  1.00  0.00     0.002 C 
ENDROOT
BRANCH   1   2
ATOM      2  C   UNL A   1      31.731  28.461  27.207  1.00  0.00     0.021 C 
BRANCH   2   3
ATOM      3  C   UNL A   1      31.945  27.026  26.705  1.00  0.00     0.116 C 
BRANCH   3   4
ATOM      4  N   UNL A   1      32.940  27.025  25.652  1.00  0.00    -0.356 N 
ATOM      5  C   UNL A   1      33.022  26.155  24.598  1.00  0.00     0.227 C 
ATOM      6  O   UNL A   1      34.145  25.867  24.185  1.00  0.00    -0.274 OA
ATOM      7  H   UNL A   1      33.631  27.725  25.700  1.00  0.00     0.163 HD
BRANCH   5   8
ATOM      8  C   UNL A   1      31.719  25.576  24.032  1.00  0.00     0.108 C 
ATOM      9  C   UNL A   1      32.084  24.708  22.812  1.00  0.00     0.023 C 
BRANCH   8  10
ATOM     10  C   UNL A   1      30.655  26.607  23.674  1.00  0.00     0.000 A 
ATOM     11  C   UNL A   1      29.347  26.449  24.144  1.00  0.00     0.009 A 
ATOM     12  C   UNL A   1      30.908  27.755  22.919  1.00  0.00     0.129 A 
ATOM     13  C   UNL A   1      28.325  27.307  23.743  1.00  0.00     0.026 A 
ATOM     14  C   UNL A   1      29.875  28.595  22.489  1.00  0.00     0.065 A 
ATOM     15  F   UNL A   1      32.164  28.101  22.597  1.00  0.00    -0.207 F 
ATOM     16  C   UNL A   1      28.547  28.358  22.856  1.00  0.00     0.037 A 
BRANCH  16  17
ATOM     17  N   UNL A   1      27.551  29.190  22.388  1.00  0.00    -0.382 N 
ATOM     18  H   UNL A   1      26.785  28.745  21.958  1.00  0.00     0.160 HD
BRANCH  17  19
ATOM     19  C   UNL A   1      27.491  30.642  22.451  1.00  0.00     0.079 C 
ATOM     20  C   UNL A   1      28.189  31.255  23.662  1.00  0.00     0.025 C 
ATOM     21  C   UNL A   1      28.072  31.324  21.212  1.00  0.00     0.025 C 
ATOM     22  C   UNL A   1      28.548  32.663  23.214  1.00  0.00     0.002 C 
ATOM     23  C   UNL A   1      28.757  32.593  21.706  1.00  0.00     0.002 C 
ENDBRANCH  17  19
ENDBRANCH  16  17
ENDBRANCH   8  10
ENDBRANCH   5   8
ENDBRANCH   3   4
ENDBRANCH   2   3
ENDBRANCH   1   2
BRANCH   1  24
ATOM     24  C   UNL A   1      31.311  30.436  25.614  1.00  0.00     0.002 C 
BRANCH  24  25
ATOM     25  C   UNL A   1      31.174  31.815  26.260  1.00  0.00     0.021 C 
BRANCH  25  26
ATOM     26  C   UNL A   1      32.430  32.282  26.983  1.00  0.00     0.116 C 
BRANCH  26  27
ATOM     27  N   UNL A   1      32.307  33.658  27.439  1.00  0.00    -0.352 N 
ATOM     28  C   UNL A   1      33.088  34.331  28.342  1.00  0.00     0.251 C 
ATOM     29  H   UNL A   1      31.564  34.174  27.047  1.00  0.00     0.163 HD
ATOM     30  O   UNL A   1      32.735  35.414  28.797  1.00  0.00    -0.269 OA
BRANCH  28  31
ATOM     31  C   UNL A   1      34.362  33.724  28.774  1.00  0.00     0.039 A 
ATOM     32  C   UNL A   1      35.519  33.957  28.028  1.00  0.00     0.014 A 
ATOM     33  C   UNL A   1      34.408  32.944  29.933  1.00  0.00     0.014 A 
ATOM     34  C   UNL A   1      36.738  33.445  28.475  1.00  0.00     0.010 A 
ATOM     35  C   UNL A   1      35.632  32.507  30.418  1.00  0.00     0.010 A 
ATOM     36  C   UNL A   1      36.807  32.740  29.687  1.00  0.00    -0.014 A 
BRANCH  36  37
ATOM     37  C   UNL A   1      38.088  32.201  30.204  1.00  0.00     0.031 A 
ATOM     38  C   UNL A   1      38.614  30.898  29.670  1.00  0.00     0.074 A 
ATOM     39  C   UNL A   1      38.732  32.833  31.203  1.00  0.00     0.049 A 
ATOM     40  N   UNL A   1      39.647  30.198  30.065  1.00  0.00    -0.248 NA
ATOM     41  C   UNL A   1      37.857  30.284  28.567  1.00  0.00     0.031 C 
ATOM     42  C   UNL A   1      38.311  34.089  31.826  1.00  0.00     0.029 A 
ATOM     43  N   UNL A   1      39.874  32.491  31.882  1.00  0.00    -0.354 N 
ATOM     44  C   UNL A   1      39.646  29.054  29.279  1.00  0.00     0.074 A 
ATOM     45  C   UNL A   1      38.481  29.126  28.425  1.00  0.00     0.031 C 
ATOM     46  C   UNL A   1      39.193  34.422  32.782  1.00  0.00     0.029 A 
ATOM     47  C   UNL A   1      40.213  33.381  32.872  1.00  0.00     0.049 A 
ATOM     48  H   UNL A   1      40.401  31.685  31.680  1.00  0.00     0.167 HD
ATOM     49  C   UNL A   1      40.544  28.040  29.255  1.00  0.00     0.031 A 
ATOM     50  C   UNL A   1      41.222  33.354  33.763  1.00  0.00     0.031 A 
ATOM     51  C   UNL A   1      41.704  27.975  30.101  1.00  0.00     0.049 A 
ATOM     52  C   UNL A   1      42.194  32.207  33.737  1.00  0.00     0.074 A 
ATOM     53  C   UNL A   1      42.705  27.019  30.120  1.00  0.00     0.029 A 
ATOM     54  N   UNL A   1      42.018  28.903  31.083  1.00  0.00    -0.354 N 
ATOM     55  N   UNL A   1      42.214  31.159  32.950  1.00  0.00    -0.248 NA
ATOM     56  C   UNL A   1      43.289  32.246  34.716  1.00  0.00     0.031 C 
ATOM     57  C   UNL A   1      43.590  27.336  31.155  1.00  0.00     0.029 A 
ATOM     58  C   UNL A   1      43.181  28.528  31.732  1.00  0.00     0.049 A 
ATOM     59  H   UNL A   1      41.491  29.709  31.287  1.00  0.00     0.167 HD
ATOM     60  C   UNL A   1      43.342  30.433  33.314  1.00  0.00     0.074 A 
ATOM     61  C   UNL A   1      43.982  31.165  34.387  1.00  0.00     0.031 C 
ATOM     62  C   UNL A   1      43.808  29.268  32.798  1.00  0.00     0.031 A 
BRANCH  49  63
ATOM     63  C   UNL A   1      40.285  26.912  28.293  1.00  0.00    -0.014 A 
ATOM     64  C   UNL A   1      39.512  25.798  28.660  1.00  0.00     0.009 A 
ATOM     65  C   UNL A   1      40.818  26.967  26.996  1.00  0.00     0.009 A 
ATOM     66  C   UNL A   1      39.323  24.741  27.766  1.00  0.00     0.001 A 
ATOM     67  C   UNL A   1      40.596  25.927  26.092  1.00  0.00     0.001 A 
ATOM     68  C   UNL A   1      39.862  24.808  26.483  1.00  0.00     0.000 A 
ENDBRANCH  49  63
BRANCH  50  69
ATOM     69  C   UNL A   1      41.370  34.460  34.746  1.00  0.00    -0.014 A 
ATOM     70  C   UNL A   1      42.120  35.602  34.424  1.00  0.00     0.009 A 
ATOM     71  C   UNL A   1      40.754  34.385  36.005  1.00  0.00     0.009 A 
ATOM     72  C   UNL A   1      42.268  36.636  35.353  1.00  0.00     0.001 A 
ATOM     73  C   UNL A   1      40.878  35.433  36.919  1.00  0.00     0.001 A 
ATOM     74  C   UNL A   1      41.642  36.554  36.596  1.00  0.00     0.000 A 
ENDBRANCH  50  69
BRANCH  62  75
ATOM     75  C   UNL A   1      45.101  28.733  33.350  1.00  0.00    -0.014 A 
ATOM     76  C   UNL A   1      46.342  29.127  32.829  1.00  0.00     0.009 A 
ATOM     77  C   UNL A   1      45.072  27.864  34.453  1.00  0.00     0.009 A 
ATOM     78  C   UNL A   1      47.527  28.638  33.383  1.00  0.00     0.001 A 
ATOM     79  C   UNL A   1      46.257  27.402  35.025  1.00  0.00     0.001 A 
ATOM     80  C   UNL A   1      47.484  27.782  34.484  1.00  0.00     0.000 A 
ENDBRANCH  62  75
ENDBRANCH  36  37
ENDBRANCH  28  31
ENDBRANCH  26  27
ENDBRANCH  25  26
ENDBRANCH  24  25
ENDBRANCH   1  24
TORSDOF 16
ENDMDL
MODEL 2
REMARK VINA RESULT:     -10.9      3.733      8.429
REMARK SMILES C[C@@H](C(=O)NCCCCCCNC(=O)c1ccc(-c2c3nc(c(-c4ccccc4)c4ccc([nH]4)c(-c4ccccc4)c4nc(c(-c5ccccc5)c5ccc2[nH]5)C=C4)C=C3)cc1)c1ccc(NC2CCCC2)cc1F
REMARK SMILES IDX 8 1 7 2 6 3 5 4 3 5 4 6 2 8 1 9 63 10 64 11 74 12 65 13
REMARK SMILES IDX 73 14 75 15 66 16 67 17 68 19 69 20 72 21 70 22 71 23 9 24
REMARK SMILES IDX 10 25 11 26 12 27 13 28 14 30 15 31 16 32 62 33 17 34 61 35
REMARK SMILES IDX 18 36 19 37 20 38 55 39 21 40 60 41 54 42 56 43 22 44 59 45
REMARK SMILES IDX 53 46 52 47 23 49 45 50 30 51 44 52 31 53 34 54 43 55 57 56
REMARK SMILES IDX 32 57 33 58 42 60 58 61 35 62 24 63 25 64 29 65 26 66 28 67
REMARK SMILES IDX 27 68 46 69 47 70 51 71 48 72 50 73 49 74 36 75 37 76 41 77
REMARK SMILES IDX 38 78 40 79 39 80
REMARK H PARENT 5 7 67 18 12 29 56 48 34 59
REMARK Flexibility Score: inf
ROOT
ATOM      1  C   UNL A   1      32.463  28.889  24.777  1.00  0.00     0.002 C 
ENDROOT
BRANCH   1   2
ATOM      2  C   UNL A   1      32.309  28.317  23.365  1.00  0.00     0.021 C 
BRANCH   2   3
ATOM      3  C   UNL A   1      31.425  27.063  23.302  1.00  0.00     0.116 C 
BRANCH   3   4
ATOM      4  N   UNL A   1      32.155  25.988  22.661  1.00  0.00    -0.356 N 
ATOM      5  C   UNL A   1      33.161  25.237  23.207  1.00  0.00     0.227 C 
ATOM      6  O   UNL A   1      34.052  24.847  22.453  1.00  0.00    -0.274 OA
ATOM      7  H   UNL A   1      31.899  25.775  21.734  1.00  0.00     0.163 HD
BRANCH   5   8
ATOM      8  C   UNL A   1      33.128  24.966  24.717  1.00  0.00     0.108 C 
ATOM      9  C   UNL A   1      34.363  25.644  25.341  1.00  0.00     0.023 C 
BRANCH   8  10
ATOM     10  C   UNL A   1      33.052  23.494  25.108  1.00  0.00     0.000 A 
ATOM     11  C   UNL A   1      33.887  22.998  26.115  1.00  0.00     0.009 A 
ATOM     12  C   UNL A   1      32.155  22.585  24.541  1.00  0.00     0.129 A 
ATOM     13  C   UNL A   1      33.927  21.638  26.417  1.00  0.00     0.026 A 
ATOM     14  C   UNL A   1      32.221  21.215  24.821  1.00  0.00     0.065 A 
ATOM     15  F   UNL A   1      31.181  23.004  23.720  1.00  0.00    -0.207 F 
ATOM     16  C   UNL A   1      33.147  20.706  25.736  1.00  0.00     0.037 A 
BRANCH  16  17
ATOM     17  N   UNL A   1      33.204  19.347  25.965  1.00  0.00    -0.382 N 
ATOM     18  H   UNL A   1      33.393  19.073  26.891  1.00  0.00     0.160 HD
BRANCH  17  19
ATOM     19  C   UNL A   1      33.021  18.267  25.007  1.00  0.00     0.079 C 
ATOM     20  C   UNL A   1      34.287  17.862  24.256  1.00  0.00     0.025 C 
ATOM     21  C   UNL A   1      32.451  16.994  25.634  1.00  0.00     0.025 C 
ATOM     22  C   UNL A   1      34.035  16.419  23.847  1.00  0.00     0.002 C 
ATOM     23  C   UNL A   1      33.113  15.828  24.908  1.00  0.00     0.002 C 
ENDBRANCH  17  19
ENDBRANCH  16  17
ENDBRANCH   8  10
ENDBRANCH   5   8
ENDBRANCH   3   4
ENDBRANCH   2   3
ENDBRANCH   1   2
BRANCH   1  24
ATOM     24  C   UNL A   1      31.656  28.151  25.846  1.00  0.00     0.002 C 
BRANCH  24  25
ATOM     25  C   UNL A   1      32.295  28.168  27.235  1.00  0.00     0.021 C 
BRANCH  25  26
ATOM     26  C   UNL A   1      33.685  28.787  27.264  1.00  0.00     0.116 C 
BRANCH  26  27
ATOM     27  N   UNL A   1      33.651  30.166  27.726  1.00  0.00    -0.352 N 
ATOM     28  C   UNL A   1      34.600  30.852  28.437  1.00  0.00     0.251 C 
ATOM     29  H   UNL A   1      32.837  30.674  27.497  1.00  0.00     0.163 HD
ATOM     30  O   UNL A   1      34.342  31.937  28.949  1.00  0.00    -0.269 OA
BRANCH  28  31
ATOM     31  C   UNL A   1      35.942  30.258  28.593  1.00  0.00     0.039 A 
ATOM     32  C   UNL A   1      36.836  30.296  27.521  1.00  0.00     0.014 A 
ATOM     33  C   UNL A   1      36.316  29.684  29.811  1.00  0.00     0.014 A 
ATOM     34  C   UNL A   1      38.130  29.801  27.689  1.00  0.00     0.010 A 
ATOM     35  C   UNL A   1      37.626  29.269  30.000  1.00  0.00     0.010 A 
ATOM     36  C   UNL A   1      38.542  29.309  28.938  1.00  0.00    -0.014 A 
BRANCH  36  37
ATOM     37  C   UNL A   1      39.915  28.796  29.160  1.00  0.00     0.031 A 
ATOM     38  C   UNL A   1      40.969  29.713  29.718  1.00  0.00     0.074 A 
ATOM     39  C   UNL A   1      40.236  27.543  28.786  1.00  0.00     0.049 A 
ATOM     40  N   UNL A   1      42.250  29.500  29.879  1.00  0.00    -0.248 NA
ATOM     41  C   UNL A   1      40.527  31.060  30.116  1.00  0.00     0.031 C 
ATOM     42  C   UNL A   1      39.312  26.566  28.208  1.00  0.00     0.029 A 
ATOM     43  N   UNL A   1      41.439  26.884  28.823  1.00  0.00    -0.354 N 
ATOM     44  C   UNL A   1      42.768  30.691  30.370  1.00  0.00     0.074 A 
ATOM     45  C   UNL A   1      41.677  31.637  30.427  1.00  0.00     0.031 C 
ATOM     46  C   UNL A   1      39.978  25.425  27.963  1.00  0.00     0.029 A 
ATOM     47  C   UNL A   1      41.382  25.607  28.321  1.00  0.00     0.049 A 
ATOM     48  H   UNL A   1      42.264  27.288  29.177  1.00  0.00     0.167 HD
ATOM     49  C   UNL A   1      44.036  30.969  30.756  1.00  0.00     0.031 A 
ATOM     50  C   UNL A   1      42.354  24.691  28.153  1.00  0.00     0.031 A 
ATOM     51  C   UNL A   1      45.117  30.023  30.704  1.00  0.00     0.049 A 
ATOM     52  C   UNL A   1      43.761  25.028  28.565  1.00  0.00     0.074 A 
ATOM     53  C   UNL A   1      46.427  30.187  31.121  1.00  0.00     0.029 A 
ATOM     54  N   UNL A   1      45.015  28.735  30.199  1.00  0.00    -0.354 N 
ATOM     55  N   UNL A   1      44.226  26.139  29.081  1.00  0.00    -0.248 NA
ATOM     56  C   UNL A   1      44.772  23.978  28.381  1.00  0.00     0.031 C 
ATOM     57  C   UNL A   1      47.131  29.019  30.811  1.00  0.00     0.029 A 
ATOM     58  C   UNL A   1      46.244  28.103  30.268  1.00  0.00     0.049 A 
ATOM     59  H   UNL A   1      44.190  28.332  29.845  1.00  0.00     0.167 HD
ATOM     60  C   UNL A   1      45.576  25.911  29.317  1.00  0.00     0.074 A 
ATOM     61  C   UNL A   1      45.852  24.553  28.894  1.00  0.00     0.031 C 
ATOM     62  C   UNL A   1      46.502  26.750  29.844  1.00  0.00     0.031 A 
BRANCH  49  63
ATOM     63  C   UNL A   1      44.316  32.363  31.248  1.00  0.00    -0.014 A 
ATOM     64  C   UNL A   1      44.237  32.690  32.612  1.00  0.00     0.009 A 
ATOM     65  C   UNL A   1      44.670  33.366  30.333  1.00  0.00     0.009 A 
ATOM     66  C   UNL A   1      44.456  34.002  33.041  1.00  0.00     0.001 A 
ATOM     67  C   UNL A   1      44.925  34.667  30.768  1.00  0.00     0.001 A 
ATOM     68  C   UNL A   1      44.803  34.987  32.119  1.00  0.00     0.000 A 
ENDBRANCH  49  63
BRANCH  50  69
ATOM     69  C   UNL A   1      42.024  23.360  27.578  1.00  0.00    -0.014 A 
ATOM     70  C   UNL A   1      41.490  22.347  28.390  1.00  0.00     0.009 A 
ATOM     71  C   UNL A   1      42.229  23.099  26.214  1.00  0.00     0.009 A 
ATOM     72  C   UNL A   1      41.190  21.093  27.851  1.00  0.00     0.001 A 
ATOM     73  C   UNL A   1      41.900  21.854  25.672  1.00  0.00     0.001 A 
ATOM     74  C   UNL A   1      41.389  20.850  26.493  1.00  0.00     0.000 A 
ENDBRANCH  50  69
BRANCH  62  75
ATOM     75  C   UNL A   1      47.892  26.211  30.045  1.00  0.00    -0.014 A 
ATOM     76  C   UNL A   1      48.837  26.209  29.008  1.00  0.00     0.009 A 
ATOM     77  C   UNL A   1      48.277  25.753  31.315  1.00  0.00     0.009 A 
ATOM     78  C   UNL A   1      50.131  25.732  29.232  1.00  0.00     0.001 A 
ATOM     79  C   UNL A   1      49.578  25.306  31.546  1.00  0.00     0.001 A 
ATOM     80  C   UNL A   1      50.501  25.288  30.502  1.00  0.00     0.000 A 
ENDBRANCH  62  75
ENDBRANCH  36  37
ENDBRANCH  28  31
ENDBRANCH  26  27
ENDBRANCH  25  26
ENDBRANCH  24  25
ENDBRANCH   1  24
TORSDOF 16
ENDMDL
MODEL 3
REMARK VINA RESULT:     -10.7      5.117     10.202
REMARK SMILES C[C@@H](C(=O)NCCCCCCNC(=O)c1ccc(-c2c3nc(c(-c4ccccc4)c4ccc([nH]4)c(-c4ccccc4)c4nc(c(-c5ccccc5)c5ccc2[nH]5)C=C4)C=C3)cc1)c1ccc(NC2CCCC2)cc1F
REMARK SMILES IDX 8 1 7 2 6 3 5 4 3 5 4 6 2 8 1 9 63 10 64 11 74 12 65 13
REMARK SMILES IDX 73 14 75 15 66 16 67 17 68 19 69 20 72 21 70 22 71 23 9 24
REMARK SMILES IDX 10 25 11 26 12 27 13 28 14 30 15 31 16 32 62 33 17 34 61 35
REMARK SMILES IDX 18 36 19 37 20 38 55 39 21 40 60 41 54 42 56 43 22 44 59 45
REMARK SMILES IDX 53 46 52 47 23 49 45 50 30 51 44 52 31 53 34 54 43 55 57 56
REMARK SMILES IDX 32 57 33 58 42 60 58 61 35 62 24 63 25 64 29 65 26 66 28 67
REMARK SMILES IDX 27 68 46 69 47 70 51 71 48 72 50 73 49 74 36 75 37 76 41 77
REMARK SMILES IDX 38 78 40 79 39 80
REMARK H PARENT 5 7 67 18 12 29 56 48 34 59
REMARK Flexibility Score: inf
ROOT
ATOM      1  C   UNL A   1      36.462  21.943  24.112  1.00  0.00     0.002 C 
ENDROOT
BRANCH   1   2
ATOM      2  C   UNL A   1      36.523  23.340  24.739  1.00  0.00     0.021 C 
BRANCH   2   3
ATOM      3  C   UNL A   1      35.380  24.264  24.295  1.00  0.00     0.116 C 
BRANCH   3   4
ATOM      4  N   UNL A   1      34.970  25.095  25.409  1.00  0.00    -0.356 N 
ATOM      5  C   UNL A   1      33.701  25.522  25.695  1.00  0.00     0.227 C 
ATOM      6  O   UNL A   1      33.577  26.629  26.216  1.00  0.00    -0.274 OA
ATOM      7  H   UNL A   1      35.681  25.385  26.026  1.00  0.00     0.163 HD
BRANCH   5   8
ATOM      8  C   UNL A   1      32.526  24.611  25.315  1.00  0.00     0.108 C 
ATOM      9  C   UNL A   1      31.294  25.079  26.112  1.00  0.00     0.023 C 
BRANCH   8  10
ATOM     10  C   UNL A   1      32.774  23.120  25.512  1.00  0.00     0.000 A 
ATOM     11  C   UNL A   1      32.523  22.227  24.464  1.00  0.00     0.009 A 
ATOM     12  C   UNL A   1      33.287  22.567  26.688  1.00  0.00     0.129 A 
ATOM     13  C   UNL A   1      32.628  20.850  24.646  1.00  0.00     0.026 A 
ATOM     14  C   UNL A   1      33.359  21.182  26.880  1.00  0.00     0.065 A 
ATOM     15  F   UNL A   1      33.750  23.353  27.671  1.00  0.00    -0.207 F 
ATOM     16  C   UNL A   1      32.982  20.290  25.871  1.00  0.00     0.037 A 
BRANCH  16  17
ATOM     17  N   UNL A   1      33.037  18.932  26.106  1.00  0.00    -0.382 N 
ATOM     18  H   UNL A   1      33.131  18.660  27.048  1.00  0.00     0.160 HD
BRANCH  17  19
ATOM     19  C   UNL A   1      32.974  17.850  25.135  1.00  0.00     0.079 C 
ATOM     20  C   UNL A   1      34.233  17.681  24.289  1.00  0.00     0.025 C 
ATOM     21  C   UNL A   1      32.678  16.489  25.766  1.00  0.00     0.025 C 
ATOM     22  C   UNL A   1      34.204  16.222  23.861  1.00  0.00     0.002 C 
ATOM     23  C   UNL A   1      33.475  15.465  24.966  1.00  0.00     0.002 C 
ENDBRANCH  17  19
ENDBRANCH  16  17
ENDBRANCH   8  10
ENDBRANCH   5   8
ENDBRANCH   3   4
ENDBRANCH   2   3
ENDBRANCH   1   2
BRANCH   1  24
ATOM     24  C   UNL A   1      36.548  20.797  25.121  1.00  0.00     0.002 C 
BRANCH  24  25
ATOM     25  C   UNL A   1      37.762  19.886  24.929  1.00  0.00     0.021 C 
BRANCH  25  26
ATOM     26  C   UNL A   1      38.977  20.302  25.746  1.00  0.00     0.116 C 
BRANCH  26  27
ATOM     27  N   UNL A   1      39.948  19.225  25.852  1.00  0.00    -0.352 N 
ATOM     28  C   UNL A   1      41.300  19.311  26.057  1.00  0.00     0.251 C 
ATOM     29  H   UNL A   1      39.586  18.312  25.766  1.00  0.00     0.163 HD
ATOM     30  O   UNL A   1      42.025  18.333  25.902  1.00  0.00    -0.269 OA
BRANCH  28  31
ATOM     31  C   UNL A   1      41.880  20.609  26.454  1.00  0.00     0.039 A 
ATOM     32  C   UNL A   1      42.281  21.510  25.466  1.00  0.00     0.014 A 
ATOM     33  C   UNL A   1      42.002  20.936  27.807  1.00  0.00     0.014 A 
ATOM     34  C   UNL A   1      42.760  22.767  25.838  1.00  0.00     0.010 A 
ATOM     35  C   UNL A   1      42.400  22.214  28.171  1.00  0.00     0.010 A 
ATOM     36  C   UNL A   1      42.797  23.137  27.192  1.00  0.00    -0.014 A 
BRANCH  36  37
ATOM     37  C   UNL A   1      43.279  24.472  27.622  1.00  0.00     0.031 A 
ATOM     38  C   UNL A   1      42.285  25.526  28.024  1.00  0.00     0.074 A 
ATOM     39  C   UNL A   1      44.593  24.763  27.573  1.00  0.00     0.049 A 
ATOM     40  N   UNL A   1      42.487  26.785  28.320  1.00  0.00    -0.248 NA
ATOM     41  C   UNL A   1      40.871  25.117  28.066  1.00  0.00     0.031 C 
ATOM     42  C   UNL A   1      45.655  23.837  27.175  1.00  0.00     0.029 A 
ATOM     43  N   UNL A   1      45.255  25.934  27.847  1.00  0.00    -0.354 N 
ATOM     44  C   UNL A   1      41.228  27.320  28.555  1.00  0.00     0.074 A 
ATOM     45  C   UNL A   1      40.267  26.267  28.314  1.00  0.00     0.031 C 
ATOM     46  C   UNL A   1      46.837  24.469  27.250  1.00  0.00     0.029 A 
ATOM     47  C   UNL A   1      46.612  25.855  27.653  1.00  0.00     0.049 A 
ATOM     48  H   UNL A   1      44.801  26.751  28.154  1.00  0.00     0.167 HD
ATOM     49  C   UNL A   1      40.899  28.572  28.955  1.00  0.00     0.031 A 
ATOM     50  C   UNL A   1      47.567  26.797  27.771  1.00  0.00     0.031 A 
ATOM     51  C   UNL A   1      41.859  29.614  29.200  1.00  0.00     0.049 A 
ATOM     52  C   UNL A   1      47.180  28.188  28.191  1.00  0.00     0.074 A 
ATOM     53  C   UNL A   1      41.635  30.901  29.658  1.00  0.00     0.029 A 
ATOM     54  N   UNL A   1      43.226  29.490  29.002  1.00  0.00    -0.354 N 
ATOM     55  N   UNL A   1      45.991  28.665  28.466  1.00  0.00    -0.248 NA
ATOM     56  C   UNL A   1      48.269  29.164  28.327  1.00  0.00     0.031 C 
ATOM     57  C   UNL A   1      42.860  31.575  29.678  1.00  0.00     0.029 A 
ATOM     58  C   UNL A   1      43.856  30.686  29.302  1.00  0.00     0.049 A 
ATOM     59  H   UNL A   1      43.680  28.673  28.694  1.00  0.00     0.167 HD
ATOM     60  C   UNL A   1      46.191  29.988  28.842  1.00  0.00     0.074 A 
ATOM     61  C   UNL A   1      47.617  30.232  28.767  1.00  0.00     0.031 C 
ATOM     62  C   UNL A   1      45.276  30.913  29.224  1.00  0.00     0.031 A 
BRANCH  49  63
ATOM     63  C   UNL A   1      39.436  28.878  29.128  1.00  0.00    -0.014 A 
ATOM     64  C   UNL A   1      38.661  29.380  28.069  1.00  0.00     0.009 A 
ATOM     65  C   UNL A   1      38.821  28.655  30.369  1.00  0.00     0.009 A 
ATOM     66  C   UNL A   1      37.316  29.702  28.266  1.00  0.00     0.001 A 
ATOM     67  C   UNL A   1      37.467  28.942  30.552  1.00  0.00     0.001 A 
ATOM     68  C   UNL A   1      36.720  29.479  29.505  1.00  0.00     0.000 A 
ENDBRANCH  49  63
BRANCH  50  69
ATOM     69  C   UNL A   1      48.987  26.448  27.500  1.00  0.00    -0.014 A 
ATOM     70  C   UNL A   1      49.519  26.583  26.208  1.00  0.00     0.009 A 
ATOM     71  C   UNL A   1      49.821  25.989  28.532  1.00  0.00     0.009 A 
ATOM     72  C   UNL A   1      50.851  26.246  25.952  1.00  0.00     0.001 A 
ATOM     73  C   UNL A   1      51.160  25.681  28.279  1.00  0.00     0.001 A 
ATOM     74  C   UNL A   1      51.671  25.801  26.987  1.00  0.00     0.000 A 
ENDBRANCH  50  69
BRANCH  62  75
ATOM     75  C   UNL A   1      45.789  32.265  29.641  1.00  0.00    -0.014 A 
ATOM     76  C   UNL A   1      45.901  33.323  28.726  1.00  0.00     0.009 A 
ATOM     77  C   UNL A   1      46.107  32.495  30.989  1.00  0.00     0.009 A 
ATOM     78  C   UNL A   1      46.350  34.576  29.150  1.00  0.00     0.001 A 
ATOM     79  C   UNL A   1      46.524  33.756  31.415  1.00  0.00     0.001 A 
ATOM     80  C   UNL A   1      46.654  34.793  30.494  1.00  0.00     0.000 A 
ENDBRANCH  62  75
ENDBRANCH  36  37
ENDBRANCH  28  31
ENDBRANCH  26  27
ENDBRANCH  25  26
ENDBRANCH  24  25
ENDBRANCH   1  24
TORSDOF 16
ENDMDL
