MODEL 1
REMARK VINA RESULT:     -12.2      0.000      0.000
REMARK SMILES O=C(NCCCCCCNC(=O)[C@@H]1[C@@H](C(=O)Nc2cccc([N+](=O)[O-])c2)[C@@H]2C=C[C@H]1O2)c1ccc(-c2c3nc(c(-c4ccccc4)c4ccc([nH]4)c(-c4ccccc4)c4nc(c(-c5ccccc5)c5ccc2[nH]5)C=C4)C=C3)cc1
REMARK SMILES IDX 7 1 6 2 5 3 4 4 3 5 1 6 2 7 32 9 33 10 79 11 34 12 78 13
REMARK SMILES IDX 35 14 36 15 37 16 72 17 38 18 77 19 71 20 73 21 39 22 76 23
REMARK SMILES IDX 70 24 69 25 40 27 62 28 47 29 61 30 48 31 51 32 60 33 74 34
REMARK SMILES IDX 49 35 50 36 59 38 75 39 52 40 41 41 42 42 46 43 43 44 45 45
REMARK SMILES IDX 44 46 63 47 64 48 68 49 65 50 67 51 66 52 53 53 54 54 58 55
REMARK SMILES IDX 55 56 57 57 56 58 8 59 9 60 10 61 11 62 12 64 13 65 14 66
REMARK SMILES IDX 30 67 27 68 29 69 31 70 28 71 15 72 16 73 17 74 18 76 19 77
REMARK SMILES IDX 26 78 20 79 22 80 21 81 23 82 24 83 25 84
REMARK H PARENT 3 8 73 26 51 37 10 63 17 75
REMARK Flexibility Score: inf
ROOT
ATOM      1  C   UNL A   1      36.658  21.663  25.032  1.00  0.00     0.002 C 
ENDROOT
BRANCH   1   2
ATOM      2  C   UNL A   1      36.535  20.141  24.920  1.00  0.00     0.002 C 
BRANCH   2   3
ATOM      3  C   UNL A   1      37.858  19.375  24.949  1.00  0.00     0.021 C 
BRANCH   3   4
ATOM      4  C   UNL A   1      38.948  20.036  25.775  1.00  0.00     0.116 C 
BRANCH   4   5
ATOM      5  N   UNL A   1      40.130  19.203  25.873  1.00  0.00    -0.352 N 
ATOM      6  O   UNL A   1      42.351  18.802  25.963  1.00  0.00    -0.269 OA
ATOM      7  C   UNL A   1      41.424  19.582  26.125  1.00  0.00     0.251 C 
ATOM      8  H   UNL A   1      39.986  18.237  25.742  1.00  0.00     0.163 HD
BRANCH   7   9
ATOM      9  C   UNL A   1      41.676  20.959  26.596  1.00  0.00     0.039 A 
ATOM     10  C   UNL A   1      41.414  21.300  27.926  1.00  0.00     0.014 A 
ATOM     11  C   UNL A   1      42.190  21.904  25.707  1.00  0.00     0.014 A 
ATOM     12  C   UNL A   1      41.565  22.614  28.342  1.00  0.00     0.010 A 
ATOM     13  C   UNL A   1      42.436  23.203  26.153  1.00  0.00     0.010 A 
ATOM     14  C   UNL A   1      42.126  23.565  27.474  1.00  0.00    -0.014 A 
BRANCH  14  15
ATOM     15  C   UNL A   1      42.524  24.881  28.022  1.00  0.00     0.031 A 
ATOM     16  C   UNL A   1      43.944  25.186  28.390  1.00  0.00     0.074 A 
ATOM     17  C   UNL A   1      41.556  25.806  28.183  1.00  0.00     0.049 A 
ATOM     18  N   UNL A   1      44.438  26.292  28.890  1.00  0.00    -0.248 NA
ATOM     19  C   UNL A   1      44.940  24.124  28.182  1.00  0.00     0.031 C 
ATOM     20  C   UNL A   1      40.136  25.607  27.868  1.00  0.00     0.029 A 
ATOM     21  N   UNL A   1      41.612  27.097  28.638  1.00  0.00    -0.354 N 
ATOM     22  C   UNL A   1      45.793  26.053  29.076  1.00  0.00     0.074 A 
ATOM     23  C   UNL A   1      46.046  24.693  28.647  1.00  0.00     0.031 C 
ATOM     24  C   UNL A   1      39.468  26.745  28.098  1.00  0.00     0.029 A 
ATOM     25  C   UNL A   1      40.390  27.725  28.653  1.00  0.00     0.049 A 
ATOM     26  H   UNL A   1      42.447  27.533  28.927  1.00  0.00     0.167 HD
ATOM     27  C   UNL A   1      46.733  26.897  29.563  1.00  0.00     0.031 A 
ATOM     28  C   UNL A   1      40.038  28.943  29.100  1.00  0.00     0.031 A 
ATOM     29  C   UNL A   1      46.466  28.248  29.987  1.00  0.00     0.049 A 
ATOM     30  C   UNL A   1      41.100  29.830  29.677  1.00  0.00     0.074 A 
ATOM     31  C   UNL A   1      47.364  29.197  30.446  1.00  0.00     0.029 A 
ATOM     32  N   UNL A   1      45.211  28.836  30.020  1.00  0.00    -0.354 N 
ATOM     33  N   UNL A   1      42.389  29.613  29.781  1.00  0.00    -0.248 NA
ATOM     34  C   UNL A   1      40.660  31.129  30.202  1.00  0.00     0.031 C 
ATOM     35  C   UNL A   1      46.643  30.333  30.824  1.00  0.00     0.029 A 
ATOM     36  C   UNL A   1      45.305  30.119  30.534  1.00  0.00     0.049 A 
ATOM     37  H   UNL A   1      44.377  28.406  29.722  1.00  0.00     0.167 HD
ATOM     38  C   UNL A   1      42.915  30.754  30.369  1.00  0.00     0.074 A 
ATOM     39  C   UNL A   1      41.812  31.672  30.566  1.00  0.00     0.031 C 
ATOM     40  C   UNL A   1      44.195  31.015  30.727  1.00  0.00     0.031 A 
BRANCH  27  41
ATOM     41  C   UNL A   1      48.142  26.390  29.700  1.00  0.00    -0.014 A 
ATOM     42  C   UNL A   1      49.090  26.575  28.681  1.00  0.00     0.009 A 
ATOM     43  C   UNL A   1      48.552  25.811  30.912  1.00  0.00     0.009 A 
ATOM     44  C   UNL A   1      50.417  26.180  28.872  1.00  0.00     0.001 A 
ATOM     45  C   UNL A   1      49.884  25.440  31.109  1.00  0.00     0.001 A 
ATOM     46  C   UNL A   1      50.815  25.622  30.087  1.00  0.00     0.000 A 
ENDBRANCH  27  41
BRANCH  28  47
ATOM     47  C   UNL A   1      38.615  29.371  29.072  1.00  0.00    -0.014 A 
ATOM     48  C   UNL A   1      37.806  29.259  30.212  1.00  0.00     0.009 A 
ATOM     49  C   UNL A   1      38.050  29.870  27.887  1.00  0.00     0.009 A 
ATOM     50  C   UNL A   1      36.452  29.598  30.153  1.00  0.00     0.001 A 
ATOM     51  C   UNL A   1      36.707  30.245  27.841  1.00  0.00     0.001 A 
ATOM     52  C   UNL A   1      35.905  30.094  28.970  1.00  0.00     0.000 A 
ENDBRANCH  28  47
BRANCH  40  53
ATOM     53  C   UNL A   1      44.466  32.358  31.343  1.00  0.00    -0.014 A 
ATOM     54  C   UNL A   1      44.728  33.484  30.547  1.00  0.00     0.009 A 
ATOM     55  C   UNL A   1      44.436  32.502  32.739  1.00  0.00     0.009 A 
ATOM     56  C   UNL A   1      44.995  34.719  31.140  1.00  0.00     0.001 A 
ATOM     57  C   UNL A   1      44.669  33.745  33.326  1.00  0.00     0.001 A 
ATOM     58  C   UNL A   1      44.959  34.850  32.527  1.00  0.00     0.000 A 
ENDBRANCH  40  53
ENDBRANCH  14  15
ENDBRANCH   7   9
ENDBRANCH   4   5
ENDBRANCH   3   4
ENDBRANCH   2   3
ENDBRANCH   1   2
BRANCH   1  59
ATOM     59  C   UNL A   1      36.338  22.430  23.754  1.00  0.00     0.021 C 
BRANCH  59  60
ATOM     60  C   UNL A   1      34.906  22.946  23.663  1.00  0.00     0.116 C 
BRANCH  60  61
ATOM     61  N   UNL A   1      34.764  24.317  24.101  1.00  0.00    -0.356 N 
ATOM     62  C   UNL A   1      34.207  24.894  25.191  1.00  0.00     0.227 C 
ATOM     63  H   UNL A   1      35.155  24.968  23.473  1.00  0.00     0.163 HD
ATOM     64  O   UNL A   1      34.349  26.121  25.277  1.00  0.00    -0.275 OA
BRANCH  62  65
ATOM     65  C   UNL A   1      33.343  24.197  26.229  1.00  0.00     0.127 C 
ATOM     66  C   UNL A   1      32.725  22.798  25.989  1.00  0.00     0.127 C 
ATOM     67  C   UNL A   1      32.103  25.058  26.535  1.00  0.00     0.155 C 
ATOM     68  C   UNL A   1      31.234  23.086  26.198  1.00  0.00     0.155 C 
ATOM     69  C   UNL A   1      31.174  25.211  25.376  1.00  0.00     0.004 C 
ATOM     70  O   UNL A   1      31.307  24.087  27.249  1.00  0.00    -0.365 OA
ATOM     71  C   UNL A   1      30.654  23.994  25.150  1.00  0.00     0.004 C 
BRANCH  66  72
ATOM     72  C   UNL A   1      33.369  21.659  26.799  1.00  0.00     0.231 C 
ATOM     73  O   UNL A   1      33.902  21.957  27.880  1.00  0.00    -0.274 OA
ATOM     74  N   UNL A   1      33.295  20.325  26.532  1.00  0.00    -0.325 N 
ATOM     75  H   UNL A   1      33.554  19.742  27.282  1.00  0.00     0.169 HD
BRANCH  74  76
ATOM     76  C   UNL A   1      32.914  19.645  25.376  1.00  0.00     0.048 A 
ATOM     77  C   UNL A   1      32.336  20.370  24.335  1.00  0.00     0.026 A 
ATOM     78  C   UNL A   1      33.113  18.278  25.242  1.00  0.00     0.111 A 
ATOM     79  C   UNL A   1      32.153  19.767  23.087  1.00  0.00     0.009 A 
ATOM     80  C   UNL A   1      33.015  17.699  23.972  1.00  0.00     0.271 A 
ATOM     81  C   UNL A   1      32.541  18.441  22.887  1.00  0.00     0.086 A 
BRANCH  80  82
ATOM     82  N   UNL A   1      33.569  16.355  23.763  1.00  0.00     0.062 N 
ATOM     83  O   UNL A   1      33.305  15.487  24.608  1.00  0.00    -0.258 OA
ATOM     84  O   UNL A   1      34.263  16.165  22.752  1.00  0.00    -0.258 OA
ENDBRANCH  80  82
ENDBRANCH  74  76
ENDBRANCH  66  72
ENDBRANCH  62  65
ENDBRANCH  60  61
ENDBRANCH  59  60
ENDBRANCH   1  59
TORSDOF 16
ENDMDL
MODEL 2
REMARK VINA RESULT:     -12.2      0.381      5.823
REMARK SMILES O=C(NCCCCCCNC(=O)[C@@H]1[C@@H](C(=O)Nc2cccc([N+](=O)[O-])c2)[C@@H]2C=C[C@H]1O2)c1ccc(-c2c3nc(c(-c4ccccc4)c4ccc([nH]4)c(-c4ccccc4)c4nc(c(-c5ccccc5)c5ccc2[nH]5)C=C4)C=C3)cc1
REMARK SMILES IDX 7 1 6 2 5 3 4 4 3 5 1 6 2 7 32 9 33 10 79 11 34 12 78 13
REMARK SMILES IDX 35 14 36 15 37 16 72 17 38 18 77 19 71 20 73 21 39 22 76 23
REMARK SMILES IDX 70 24 69 25 40 27 62 28 47 29 61 30 48 31 51 32 60 33 74 34
REMARK SMILES IDX 49 35 50 36 59 38 75 39 52 40 41 41 42 42 46 43 43 44 45 45
REMARK SMILES IDX 44 46 63 47 64 48 68 49 65 50 67 51 66 52 53 53 54 54 58 55
REMARK SMILES IDX 55 56 57 57 56 58 8 59 9 60 10 61 11 62 12 64 13 65 14 66
REMARK SMILES IDX 30 67 27 68 29 69 31 70 28 71 15 72 16 73 17 74 18 76 19 77
REMARK SMILES IDX 26 78 20 79 22 80 21 81 23 82 24 83 25 84
REMARK H PARENT 3 8 73 26 51 37 10 63 17 75
REMARK Flexibility Score: inf
ROOT
ATOM      1  C   UNL A   1      36.599  21.748  24.911  1.00  0.00     0.002 C 
ENDROOT
BRANCH   1   2
ATOM      2  C   UNL A   1      36.538  20.224  24.779  1.00  0.00     0.002 C 
BRANCH   2   3
ATOM      3  C   UNL A   1      37.893  19.516  24.754  1.00  0.00     0.021 C 
BRANCH   3   4
ATOM      4  C   UNL A   1      38.891  20.035  25.775  1.00  0.00     0.116 C 
BRANCH   4   5
ATOM      5  N   UNL A   1      40.085  19.213  25.827  1.00  0.00    -0.352 N 
ATOM      6  O   UNL A   1      42.311  18.838  25.872  1.00  0.00    -0.269 OA
ATOM      7  C   UNL A   1      41.377  19.599  26.076  1.00  0.00     0.251 C 
ATOM      8  H   UNL A   1      39.951  18.251  25.662  1.00  0.00     0.163 HD
BRANCH   7   9
ATOM      9  C   UNL A   1      41.619  20.960  26.595  1.00  0.00     0.039 A 
ATOM     10  C   UNL A   1      41.541  21.207  27.968  1.00  0.00     0.014 A 
ATOM     11  C   UNL A   1      41.937  21.986  25.704  1.00  0.00     0.014 A 
ATOM     12  C   UNL A   1      41.679  22.502  28.443  1.00  0.00     0.010 A 
ATOM     13  C   UNL A   1      42.173  23.271  26.194  1.00  0.00     0.010 A 
ATOM     14  C   UNL A   1      42.047  23.536  27.567  1.00  0.00    -0.014 A 
BRANCH  14  15
ATOM     15  C   UNL A   1      42.447  24.843  28.136  1.00  0.00     0.031 A 
ATOM     16  C   UNL A   1      41.441  25.913  28.437  1.00  0.00     0.074 A 
ATOM     17  C   UNL A   1      43.759  25.043  28.376  1.00  0.00     0.049 A 
ATOM     18  N   UNL A   1      41.647  27.110  28.927  1.00  0.00    -0.248 NA
ATOM     19  C   UNL A   1      40.030  25.615  28.149  1.00  0.00     0.031 C 
ATOM     20  C   UNL A   1      44.824  24.070  28.106  1.00  0.00     0.029 A 
ATOM     21  N   UNL A   1      44.423  26.116  28.906  1.00  0.00    -0.354 N 
ATOM     22  C   UNL A   1      40.398  27.715  28.987  1.00  0.00     0.074 A 
ATOM     23  C   UNL A   1      39.440  26.760  28.472  1.00  0.00     0.031 C 
ATOM     24  C   UNL A   1      45.997  24.574  28.512  1.00  0.00     0.029 A 
ATOM     25  C   UNL A   1      45.782  25.932  28.991  1.00  0.00     0.049 A 
ATOM     26  H   UNL A   1      43.971  26.941  29.199  1.00  0.00     0.167 HD
ATOM     27  C   UNL A   1      40.089  28.957  29.431  1.00  0.00     0.031 A 
ATOM     28  C   UNL A   1      46.757  26.773  29.376  1.00  0.00     0.031 A 
ATOM     29  C   UNL A   1      41.055  29.898  29.940  1.00  0.00     0.049 A 
ATOM     30  C   UNL A   1      46.379  28.156  29.814  1.00  0.00     0.074 A 
ATOM     31  C   UNL A   1      40.831  31.160  30.461  1.00  0.00     0.029 A 
ATOM     32  N   UNL A   1      42.425  29.687  29.978  1.00  0.00    -0.354 N 
ATOM     33  N   UNL A   1      45.186  28.688  29.930  1.00  0.00    -0.248 NA
ATOM     34  C   UNL A   1      47.481  29.057  30.173  1.00  0.00     0.031 C 
ATOM     35  C   UNL A   1      42.070  31.741  30.747  1.00  0.00     0.029 A 
ATOM     36  C   UNL A   1      43.062  30.814  30.471  1.00  0.00     0.049 A 
ATOM     37  H   UNL A   1      42.878  28.859  29.695  1.00  0.00     0.167 HD
ATOM     38  C   UNL A   1      45.394  29.980  30.388  1.00  0.00     0.074 A 
ATOM     39  C   UNL A   1      46.823  30.139  30.563  1.00  0.00     0.031 C 
ATOM     40  C   UNL A   1      44.485  30.955  30.632  1.00  0.00     0.031 A 
BRANCH  27  41
ATOM     41  C   UNL A   1      38.654  29.400  29.364  1.00  0.00    -0.014 A 
ATOM     42  C   UNL A   1      37.776  29.203  30.441  1.00  0.00     0.009 A 
ATOM     43  C   UNL A   1      38.206  30.120  28.246  1.00  0.00     0.009 A 
ATOM     44  C   UNL A   1      36.474  29.709  30.392  1.00  0.00     0.001 A 
ATOM     45  C   UNL A   1      36.913  30.646  28.209  1.00  0.00     0.001 A 
ATOM     46  C   UNL A   1      36.047  30.437  29.281  1.00  0.00     0.000 A 
ENDBRANCH  27  41
BRANCH  28  47
ATOM     47  C   UNL A   1      48.181  26.353  29.309  1.00  0.00    -0.014 A 
ATOM     48  C   UNL A   1      48.930  26.529  28.137  1.00  0.00     0.009 A 
ATOM     49  C   UNL A   1      48.791  25.744  30.418  1.00  0.00     0.009 A 
ATOM     50  C   UNL A   1      50.246  26.066  28.064  1.00  0.00     0.001 A 
ATOM     51  C   UNL A   1      50.118  25.317  30.356  1.00  0.00     0.001 A 
ATOM     52  C   UNL A   1      50.839  25.465  29.173  1.00  0.00     0.000 A 
ENDBRANCH  28  47
BRANCH  40  53
ATOM     53  C   UNL A   1      45.016  32.266  31.137  1.00  0.00    -0.014 A 
ATOM     54  C   UNL A   1      45.177  32.504  32.511  1.00  0.00     0.009 A 
ATOM     55  C   UNL A   1      45.381  33.267  30.223  1.00  0.00     0.009 A 
ATOM     56  C   UNL A   1      45.656  33.736  32.960  1.00  0.00     0.001 A 
ATOM     57  C   UNL A   1      45.892  34.483  30.675  1.00  0.00     0.001 A 
ATOM     58  C   UNL A   1      46.018  34.722  32.042  1.00  0.00     0.000 A 
ENDBRANCH  40  53
ENDBRANCH  14  15
ENDBRANCH   7   9
ENDBRANCH   4   5
ENDBRANCH   3   4
ENDBRANCH   2   3
ENDBRANCH   1   2
BRANCH   1  59
ATOM     59  C   UNL A   1      36.222  22.519  23.651  1.00  0.00     0.021 C 
BRANCH  59  60
ATOM     60  C   UNL A   1      34.784  23.025  23.620  1.00  0.00     0.116 C 
BRANCH  60  61
ATOM     61  N   UNL A   1      34.643  24.375  24.118  1.00  0.00    -0.356 N 
ATOM     62  C   UNL A   1      34.109  24.900  25.246  1.00  0.00     0.227 C 
ATOM     63  H   UNL A   1      35.013  25.055  23.510  1.00  0.00     0.163 HD
ATOM     64  O   UNL A   1      34.244  26.124  25.380  1.00  0.00    -0.275 OA
BRANCH  62  65
ATOM     65  C   UNL A   1      33.277  24.153  26.274  1.00  0.00     0.127 C 
ATOM     66  C   UNL A   1      32.720  22.732  26.016  1.00  0.00     0.127 C 
ATOM     67  C   UNL A   1      32.002  24.956  26.593  1.00  0.00     0.155 C 
ATOM     68  C   UNL A   1      31.218  22.953  26.230  1.00  0.00     0.155 C 
ATOM     69  C   UNL A   1      31.066  25.084  25.436  1.00  0.00     0.004 C 
ATOM     70  O   UNL A   1      31.248  23.942  27.294  1.00  0.00    -0.365 OA
ATOM     71  C   UNL A   1      30.599  23.849  25.194  1.00  0.00     0.004 C 
BRANCH  66  72
ATOM     72  C   UNL A   1      33.413  21.611  26.810  1.00  0.00     0.231 C 
ATOM     73  O   UNL A   1      33.971  21.925  27.874  1.00  0.00    -0.274 OA
ATOM     74  N   UNL A   1      33.362  20.274  26.549  1.00  0.00    -0.325 N 
ATOM     75  H   UNL A   1      33.655  19.701  27.294  1.00  0.00     0.169 HD
BRANCH  74  76
ATOM     76  C   UNL A   1      32.964  19.581  25.407  1.00  0.00     0.048 A 
ATOM     77  C   UNL A   1      32.403  20.301  24.352  1.00  0.00     0.026 A 
ATOM     78  C   UNL A   1      33.128  18.208  25.299  1.00  0.00     0.111 A 
ATOM     79  C   UNL A   1      32.204  19.678  23.116  1.00  0.00     0.009 A 
ATOM     80  C   UNL A   1      33.015  17.607  24.041  1.00  0.00     0.271 A 
ATOM     81  C   UNL A   1      32.559  18.339  22.941  1.00  0.00     0.086 A 
BRANCH  80  82
ATOM     82  N   UNL A   1      33.535  16.246  23.858  1.00  0.00     0.062 N 
ATOM     83  O   UNL A   1      34.260  16.035  22.874  1.00  0.00    -0.258 OA
ATOM     84  O   UNL A   1      33.224  15.389  24.699  1.00  0.00    -0.258 OA
ENDBRANCH  80  82
ENDBRANCH  74  76
ENDBRANCH  66  72
ENDBRANCH  62  65
ENDBRANCH  60  61
ENDBRANCH  59  60
ENDBRANCH   1  59
TORSDOF 16
ENDMDL
MODEL 3
REMARK VINA RESULT:     -12.1      4.712      9.686
REMARK SMILES O=C(NCCCCCCNC(=O)[C@@H]1[C@@H](C(=O)Nc2cccc([N+](=O)[O-])c2)[C@@H]2C=C[C@H]1O2)c1ccc(-c2c3nc(c(-c4ccccc4)c4ccc([nH]4)c(-c4ccccc4)c4nc(c(-c5ccccc5)c5ccc2[nH]5)C=C4)C=C3)cc1
REMARK SMILES IDX 7 1 6 2 5 3 4 4 3 5 1 6 2 7 32 9 33 10 79 11 34 12 78 13
REMARK SMILES IDX 35 14 36 15 37 16 72 17 38 18 77 19 71 20 73 21 39 22 76 23
REMARK SMILES IDX 70 24 69 25 40 27 62 28 47 29 61 30 48 31 51 32 60 33 74 34
REMARK SMILES IDX 49 35 50 36 59 38 75 39 52 40 41 41 42 42 46 43 43 44 45 45
REMARK SMILES IDX 44 46 63 47 64 48 68 49 65 50 67 51 66 52 53 53 54 54 58 55
REMARK SMILES IDX 55 56 57 57 56 58 8 59 9 60 10 61 11 62 12 64 13 65 14 66
REMARK SMILES IDX 30 67 27 68 29 69 31 70 28 71 15 72 16 73 17 74 18 76 19 77
REMARK SMILES IDX 26 78 20 79 22 80 21 81 23 82 24 83 25 84
REMARK H PARENT 3 8 73 26 51 37 10 63 17 75
REMARK Flexibility Score: inf
ROOT
ATOM      1  C   UNL A   1      32.472  29.483  26.839  1.00  0.00     0.002 C 
ENDROOT
BRANCH   1   2
ATOM      2  C   UNL A   1      31.670  30.396  25.909  1.00  0.00     0.002 C 
BRANCH   2   3
ATOM      3  C   UNL A   1      31.416  31.808  26.439  1.00  0.00     0.021 C 
BRANCH   3   4
ATOM      4  C   UNL A   1      32.596  32.426  27.169  1.00  0.00     0.116 C 
BRANCH   4   5
ATOM      5  N   UNL A   1      32.363  33.822  27.485  1.00  0.00    -0.352 N 
ATOM      6  O   UNL A   1      32.530  35.691  28.740  1.00  0.00    -0.269 OA
ATOM      7  C   UNL A   1      32.978  34.596  28.436  1.00  0.00     0.251 C 
ATOM      8  H   UNL A   1      31.673  34.274  26.947  1.00  0.00     0.163 HD
BRANCH   7   9
ATOM      9  C   UNL A   1      34.195  34.077  29.089  1.00  0.00     0.039 A 
ATOM     10  C   UNL A   1      34.090  33.324  30.263  1.00  0.00     0.014 A 
ATOM     11  C   UNL A   1      35.442  34.334  28.518  1.00  0.00     0.014 A 
ATOM     12  C   UNL A   1      35.239  32.916  30.923  1.00  0.00     0.010 A 
ATOM     13  C   UNL A   1      36.593  33.837  29.131  1.00  0.00     0.010 A 
ATOM     14  C   UNL A   1      36.498  33.124  30.337  1.00  0.00    -0.014 A 
BRANCH  14  15
ATOM     15  C   UNL A   1      37.677  32.448  30.924  1.00  0.00     0.031 A 
ATOM     16  C   UNL A   1      38.312  31.259  30.269  1.00  0.00     0.074 A 
ATOM     17  C   UNL A   1      38.165  32.941  32.081  1.00  0.00     0.049 A 
ATOM     18  N   UNL A   1      39.342  30.559  30.674  1.00  0.00    -0.248 NA
ATOM     19  C   UNL A   1      37.721  30.785  29.009  1.00  0.00     0.031 C 
ATOM     20  C   UNL A   1      37.612  34.089  32.810  1.00  0.00     0.029 A 
ATOM     21  N   UNL A   1      39.235  32.554  32.843  1.00  0.00    -0.354 N 
ATOM     22  C   UNL A   1      39.511  29.552  29.732  1.00  0.00     0.074 A 
ATOM     23  C   UNL A   1      38.469  29.721  28.741  1.00  0.00     0.031 C 
ATOM     24  C   UNL A   1      38.371  34.337  33.885  1.00  0.00     0.029 A 
ATOM     25  C   UNL A   1      39.411  33.321  33.969  1.00  0.00     0.049 A 
ATOM     26  H   UNL A   1      39.823  31.800  32.606  1.00  0.00     0.167 HD
ATOM     27  C   UNL A   1      40.450  28.577  29.707  1.00  0.00     0.031 A 
ATOM     28  C   UNL A   1      40.287  33.201  34.981  1.00  0.00     0.031 A 
ATOM     29  C   UNL A   1      41.480  28.420  30.703  1.00  0.00     0.049 A 
ATOM     30  C   UNL A   1      41.280  32.080  34.940  1.00  0.00     0.074 A 
ATOM     31  C   UNL A   1      42.509  27.494  30.735  1.00  0.00     0.029 A 
ATOM     32  N   UNL A   1      41.604  29.195  31.846  1.00  0.00    -0.354 N 
ATOM     33  N   UNL A   1      41.469  31.178  34.008  1.00  0.00    -0.248 NA
ATOM     34  C   UNL A   1      42.180  31.955  36.094  1.00  0.00     0.031 C 
ATOM     35  C   UNL A   1      43.211  27.663  31.932  1.00  0.00     0.029 A 
ATOM     36  C   UNL A   1      42.664  28.738  32.612  1.00  0.00     0.049 A 
ATOM     37  H   UNL A   1      41.024  29.956  32.078  1.00  0.00     0.167 HD
ATOM     38  C   UNL A   1      42.518  30.389  34.455  1.00  0.00     0.074 A 
ATOM     39  C   UNL A   1      42.947  30.940  35.724  1.00  0.00     0.031 C 
ATOM     40  C   UNL A   1      43.072  29.298  33.874  1.00  0.00     0.031 A 
BRANCH  27  41
ATOM     41  C   UNL A   1      40.405  27.574  28.588  1.00  0.00    -0.014 A 
ATOM     42  C   UNL A   1      41.167  27.741  27.422  1.00  0.00     0.009 A 
ATOM     43  C   UNL A   1      39.668  26.390  28.753  1.00  0.00     0.009 A 
ATOM     44  C   UNL A   1      41.181  26.748  26.439  1.00  0.00     0.001 A 
ATOM     45  C   UNL A   1      39.702  25.388  27.780  1.00  0.00     0.001 A 
ATOM     46  C   UNL A   1      40.457  25.570  26.623  1.00  0.00     0.000 A 
ENDBRANCH  27  41
BRANCH  28  47
ATOM     47  C   UNL A   1      40.226  34.130  36.140  1.00  0.00    -0.014 A 
ATOM     48  C   UNL A   1      39.441  33.832  37.262  1.00  0.00     0.009 A 
ATOM     49  C   UNL A   1      40.939  35.340  36.114  1.00  0.00     0.009 A 
ATOM     50  C   UNL A   1      39.337  34.746  38.314  1.00  0.00     0.001 A 
ATOM     51  C   UNL A   1      40.865  36.234  37.183  1.00  0.00     0.001 A 
ATOM     52  C   UNL A   1      40.051  35.942  38.276  1.00  0.00     0.000 A 
ENDBRANCH  28  47
BRANCH  40  53
ATOM     53  C   UNL A   1      44.216  28.650  34.600  1.00  0.00    -0.014 A 
ATOM     54  C   UNL A   1      43.999  27.611  35.518  1.00  0.00     0.009 A 
ATOM     55  C   UNL A   1      45.530  29.070  34.344  1.00  0.00     0.009 A 
ATOM     56  C   UNL A   1      45.075  27.033  36.195  1.00  0.00     0.001 A 
ATOM     57  C   UNL A   1      46.605  28.467  34.997  1.00  0.00     0.001 A 
ATOM     58  C   UNL A   1      46.376  27.458  35.930  1.00  0.00     0.000 A 
ENDBRANCH  40  53
ENDBRANCH  14  15
ENDBRANCH   7   9
ENDBRANCH   4   5
ENDBRANCH   3   4
ENDBRANCH   2   3
ENDBRANCH   1   2
BRANCH   1  59
ATOM     59  C   UNL A   1      31.762  28.197  27.249  1.00  0.00     0.021 C 
BRANCH  59  60
ATOM     60  C   UNL A   1      31.712  27.124  26.168  1.00  0.00     0.116 C 
BRANCH  60  61
ATOM     61  N   UNL A   1      32.847  26.229  26.199  1.00  0.00    -0.356 N 
ATOM     62  C   UNL A   1      33.801  25.902  25.295  1.00  0.00     0.227 C 
ATOM     63  H   UNL A   1      32.948  25.758  27.059  1.00  0.00     0.163 HD
ATOM     64  O   UNL A   1      34.689  25.144  25.708  1.00  0.00    -0.275 OA
BRANCH  62  65
ATOM     65  C   UNL A   1      33.807  26.280  23.824  1.00  0.00     0.127 C 
ATOM     66  C   UNL A   1      32.596  26.957  23.138  1.00  0.00     0.127 C 
ATOM     67  C   UNL A   1      34.013  25.019  22.964  1.00  0.00     0.155 C 
ATOM     68  C   UNL A   1      32.307  25.975  21.996  1.00  0.00     0.155 C 
ATOM     69  C   UNL A   1      32.888  24.040  23.052  1.00  0.00     0.004 C 
ATOM     70  O   UNL A   1      33.658  25.552  21.668  1.00  0.00    -0.365 OA
ATOM     71  C   UNL A   1      31.830  24.633  22.477  1.00  0.00     0.004 C 
BRANCH  66  72
ATOM     72  C   UNL A   1      32.797  28.443  22.788  1.00  0.00     0.231 C 
ATOM     73  O   UNL A   1      33.964  28.860  22.717  1.00  0.00    -0.274 OA
ATOM     74  N   UNL A   1      31.835  29.328  22.403  1.00  0.00    -0.325 N 
ATOM     75  H   UNL A   1      32.180  30.152  21.989  1.00  0.00     0.169 HD
BRANCH  74  76
ATOM     76  C   UNL A   1      30.445  29.264  22.496  1.00  0.00     0.048 A 
ATOM     77  C   UNL A   1      29.853  28.039  22.799  1.00  0.00     0.026 A 
ATOM     78  C   UNL A   1      29.655  30.389  22.308  1.00  0.00     0.111 A 
ATOM     79  C   UNL A   1      28.493  27.986  23.121  1.00  0.00     0.009 A 
ATOM     80  C   UNL A   1      28.318  30.355  22.716  1.00  0.00     0.271 A 
ATOM     81  C   UNL A   1      27.730  29.156  23.131  1.00  0.00     0.086 A 
BRANCH  80  82
ATOM     82  N   UNL A   1      27.588  31.622  22.857  1.00  0.00     0.062 N 
ATOM     83  O   UNL A   1      26.905  31.781  23.879  1.00  0.00    -0.258 OA
ATOM     84  O   UNL A   1      27.702  32.460  21.950  1.00  0.00    -0.258 OA
ENDBRANCH  80  82
ENDBRANCH  74  76
ENDBRANCH  66  72
ENDBRANCH  62  65
ENDBRANCH  60  61
ENDBRANCH  59  60
ENDBRANCH   1  59
TORSDOF 16
ENDMDL
