MODEL 1
REMARK VINA RESULT:     -11.2      0.000      0.000
REMARK SMILES COc1cccc(CC2(CO)CCN(c3nc(C)ccc3C(=O)NCCCCCCNC(=O)c3ccc(-c4c5nc(c(-c6ccccc6)c6ccc([nH]6)c(-c6ccccc6)c6nc(c(-c7ccccc7)c7ccc4[nH]7)C=C6)C=C5)cc3)CC2)c1
REMARK SMILES IDX 26 1 25 2 24 3 22 4 23 5 21 7 15 8 16 9 17 10 20 11 18 12
REMARK SMILES IDX 19 13 14 14 9 15 12 16 83 17 13 18 82 19 8 20 7 21 3 22 4 23
REMARK SMILES IDX 84 24 5 25 6 26 2 27 1 28 10 29 11 30 27 32 28 33 29 34
REMARK SMILES IDX 30 35 31 36 32 37 33 39 34 40 35 41 81 42 36 43 80 44 37 45
REMARK SMILES IDX 38 46 39 47 74 48 40 49 79 50 73 51 75 52 41 53 78 54 72 55
REMARK SMILES IDX 71 56 42 58 64 59 49 60 63 61 50 62 53 63 62 64 76 65 51 66
REMARK SMILES IDX 52 67 61 69 77 70 54 71 43 72 44 73 48 74 45 75 47 76 46 77
REMARK SMILES IDX 65 78 66 79 70 80 67 81 69 82 68 83 55 84 56 85 60 86 57 87
REMARK SMILES IDX 59 88 58 89
REMARK H PARENT 24 6 11 31 31 38 75 57 53 68
REMARK Flexibility Score: inf
ROOT
ATOM      1  C   UNL A   1      36.905  22.858  24.494  1.00  0.00     0.021 C 
ENDROOT
BRANCH   1   2
ATOM      2  C   UNL A   1      36.132  23.831  25.381  1.00  0.00     0.116 C 
BRANCH   2   3
ATOM      3  N   UNL A   1      35.399  23.131  26.412  1.00  0.00    -0.352 N 
ATOM      4  C   UNL A   1      34.598  22.024  26.514  1.00  0.00     0.255 C 
ATOM      5  O   UNL A   1      34.381  21.718  27.685  1.00  0.00    -0.269 OA
ATOM      6  H   UNL A   1      35.507  23.573  27.285  1.00  0.00     0.163 HD
BRANCH   4   7
ATOM      7  C   UNL A   1      34.086  21.163  25.396  1.00  0.00     0.082 A 
ATOM      8  C   UNL A   1      32.863  21.458  24.752  1.00  0.00     0.141 A 
ATOM      9  N   UNL A   1      32.212  20.516  24.011  1.00  0.00    -0.235 NA
ATOM     10  C   UNL A   1      32.774  19.310  23.802  1.00  0.00     0.040 A 
ATOM     11  C   UNL A   1      34.699  19.957  25.041  1.00  0.00     0.019 A 
ATOM     12  C   UNL A   1      31.960  18.309  23.045  1.00  0.00     0.067 C 
ATOM     13  C   UNL A   1      34.041  19.016  24.254  1.00  0.00     0.024 A 
BRANCH   8  14
ATOM     14  N   UNL A   1      32.221  22.678  24.711  1.00  0.00    -0.356 N 
ATOM     15  C   UNL A   1      31.157  25.401  24.799  1.00  0.00     0.001 C 
ATOM     16  C   UNL A   1      32.475  25.027  24.067  1.00  0.00     0.031 C 
ATOM     17  C   UNL A   1      30.765  24.288  25.808  1.00  0.00     0.031 C 
ATOM     18  C   UNL A   1      32.624  23.566  23.637  1.00  0.00     0.119 C 
ATOM     19  C   UNL A   1      30.901  22.859  25.285  1.00  0.00     0.119 C 
BRANCH  15  20
ATOM     20  C   UNL A   1      29.994  25.787  23.816  1.00  0.00     0.045 C 
BRANCH  20  21
ATOM     21  C   UNL A   1      29.864  27.208  23.325  1.00  0.00    -0.044 A 
ATOM     22  C   UNL A   1      28.521  29.202  22.947  1.00  0.00     0.119 A 
ATOM     23  C   UNL A   1      29.582  29.785  22.255  1.00  0.00     0.046 A 
ATOM     24  C   UNL A   1      28.660  27.917  23.480  1.00  0.00     0.050 A 
ATOM     25  C   UNL A   1      30.799  29.117  22.151  1.00  0.00     0.004 A 
ATOM     26  C   UNL A   1      30.945  27.845  22.703  1.00  0.00     0.004 A 
BRANCH  22  27
ATOM     27  O   UNL A   1      27.355  29.919  22.970  1.00  0.00    -0.497 OA
ATOM     28  C   UNL A   1      27.476  31.193  23.592  1.00  0.00     0.278 C 
ENDBRANCH  22  27
ENDBRANCH  20  21
ENDBRANCH  15  20
BRANCH  15  29
ATOM     29  C   UNL A   1      31.433  26.680  25.652  1.00  0.00     0.163 C 
BRANCH  29  30
ATOM     30  O   UNL A   1      31.262  26.446  27.046  1.00  0.00    -0.396 OA
ATOM     31  H   UNL A   1      31.574  25.555  27.265  1.00  0.00     0.210 HD
ENDBRANCH  29  30
ENDBRANCH  15  29
ENDBRANCH   8  14
ENDBRANCH   4   7
ENDBRANCH   2   3
ENDBRANCH   1   2
BRANCH   1  32
ATOM     32  C   UNL A   1      37.801  21.893  25.286  1.00  0.00     0.002 C 
BRANCH  32  33
ATOM     33  C   UNL A   1      37.604  20.404  24.968  1.00  0.00     0.002 C 
BRANCH  33  34
ATOM     34  C   UNL A   1      38.875  19.550  25.023  1.00  0.00     0.021 C 
BRANCH  34  35
ATOM     35  C   UNL A   1      39.846  19.937  26.134  1.00  0.00     0.116 C 
BRANCH  35  36
ATOM     36  N   UNL A   1      41.145  19.314  25.954  1.00  0.00    -0.352 N 
ATOM     37  C   UNL A   1      42.398  19.859  26.064  1.00  0.00     0.251 C 
ATOM     38  H   UNL A   1      41.123  18.359  25.717  1.00  0.00     0.163 HD
ATOM     39  O   UNL A   1      43.373  19.235  25.661  1.00  0.00    -0.269 OA
BRANCH  37  40
ATOM     40  C   UNL A   1      42.580  21.201  26.660  1.00  0.00     0.039 A 
ATOM     41  C   UNL A   1      42.929  22.260  25.820  1.00  0.00     0.014 A 
ATOM     42  C   UNL A   1      42.462  21.410  28.038  1.00  0.00     0.014 A 
ATOM     43  C   UNL A   1      43.133  23.532  26.356  1.00  0.00     0.010 A 
ATOM     44  C   UNL A   1      42.592  22.695  28.562  1.00  0.00     0.010 A 
ATOM     45  C   UNL A   1      42.948  23.765  27.729  1.00  0.00    -0.014 A 
BRANCH  45  46
ATOM     46  C   UNL A   1      43.140  25.126  28.291  1.00  0.00     0.031 A 
ATOM     47  C   UNL A   1      44.507  25.597  28.706  1.00  0.00     0.074 A 
ATOM     48  C   UNL A   1      42.073  25.933  28.443  1.00  0.00     0.049 A 
ATOM     49  N   UNL A   1      44.869  26.768  29.169  1.00  0.00    -0.248 NA
ATOM     50  C   UNL A   1      45.609  24.624  28.614  1.00  0.00     0.031 C 
ATOM     51  C   UNL A   1      40.686  25.571  28.136  1.00  0.00     0.029 A 
ATOM     52  N   UNL A   1      41.988  27.228  28.888  1.00  0.00    -0.354 N 
ATOM     53  C   UNL A   1      46.229  26.667  29.436  1.00  0.00     0.074 A 
ATOM     54  C   UNL A   1      46.620  25.309  29.130  1.00  0.00     0.031 C 
ATOM     55  C   UNL A   1      39.895  26.631  28.367  1.00  0.00     0.029 A 
ATOM     56  C   UNL A   1      40.711  27.735  28.863  1.00  0.00     0.049 A 
ATOM     57  H   UNL A   1      42.768  27.744  29.197  1.00  0.00     0.167 HD
ATOM     58  C   UNL A   1      47.081  27.624  29.877  1.00  0.00     0.031 A 
ATOM     59  C   UNL A   1      40.250  28.955  29.193  1.00  0.00     0.031 A 
ATOM     60  C   UNL A   1      46.696  28.980  30.164  1.00  0.00     0.049 A 
ATOM     61  C   UNL A   1      41.223  30.008  29.643  1.00  0.00     0.074 A 
ATOM     62  C   UNL A   1      47.498  30.042  30.545  1.00  0.00     0.029 A 
ATOM     63  N   UNL A   1      45.397  29.461  30.103  1.00  0.00    -0.354 N 
ATOM     64  N   UNL A   1      42.521  29.921  29.800  1.00  0.00    -0.248 NA
ATOM     65  C   UNL A   1      40.666  31.335  29.940  1.00  0.00     0.031 C 
ATOM     66  C   UNL A   1      46.676  31.152  30.766  1.00  0.00     0.029 A 
ATOM     67  C   UNL A   1      45.372  30.798  30.463  1.00  0.00     0.049 A 
ATOM     68  H   UNL A   1      44.610  28.931  29.842  1.00  0.00     0.167 HD
ATOM     69  C   UNL A   1      42.941  31.188  30.188  1.00  0.00     0.074 A 
ATOM     70  C   UNL A   1      41.761  32.028  30.215  1.00  0.00     0.031 C 
ATOM     71  C   UNL A   1      44.189  31.617  30.496  1.00  0.00     0.031 A 
BRANCH  58  72
ATOM     72  C   UNL A   1      48.520  27.236  30.081  1.00  0.00    -0.014 A 
ATOM     73  C   UNL A   1      49.459  27.337  29.042  1.00  0.00     0.009 A 
ATOM     74  C   UNL A   1      48.954  26.812  31.347  1.00  0.00     0.009 A 
ATOM     75  C   UNL A   1      50.795  26.991  29.259  1.00  0.00     0.001 A 
ATOM     76  C   UNL A   1      50.295  26.494  31.569  1.00  0.00     0.001 A 
ATOM     77  C   UNL A   1      51.214  26.577  30.522  1.00  0.00     0.000 A 
ENDBRANCH  58  72
BRANCH  59  78
ATOM     78  C   UNL A   1      38.799  29.259  29.086  1.00  0.00    -0.014 A 
ATOM     79  C   UNL A   1      37.954  29.127  30.200  1.00  0.00     0.009 A 
ATOM     80  C   UNL A   1      38.247  29.666  27.861  1.00  0.00     0.009 A 
ATOM     81  C   UNL A   1      36.583  29.360  30.079  1.00  0.00     0.001 A 
ATOM     82  C   UNL A   1      36.880  29.930  27.752  1.00  0.00     0.001 A 
ATOM     83  C   UNL A   1      36.047  29.765  28.858  1.00  0.00     0.000 A 
ENDBRANCH  59  78
BRANCH  71  84
ATOM     84  C   UNL A   1      44.338  33.068  30.860  1.00  0.00    -0.014 A 
ATOM     85  C   UNL A   1      44.267  33.498  32.195  1.00  0.00     0.009 A 
ATOM     86  C   UNL A   1      44.554  34.019  29.851  1.00  0.00     0.009 A 
ATOM     87  C   UNL A   1      44.359  34.856  32.506  1.00  0.00     0.001 A 
ATOM     88  C   UNL A   1      44.679  35.372  30.167  1.00  0.00     0.001 A 
ATOM     89  C   UNL A   1      44.566  35.791  31.492  1.00  0.00     0.000 A 
ENDBRANCH  71  84
ENDBRANCH  45  46
ENDBRANCH  37  40
ENDBRANCH  35  36
ENDBRANCH  34  35
ENDBRANCH  33  34
ENDBRANCH  32  33
ENDBRANCH   1  32
TORSDOF 19
ENDMDL
MODEL 2
REMARK VINA RESULT:     -11.1      2.346      3.135
REMARK SMILES COc1cccc(CC2(CO)CCN(c3nc(C)ccc3C(=O)NCCCCCCNC(=O)c3ccc(-c4c5nc(c(-c6ccccc6)c6ccc([nH]6)c(-c6ccccc6)c6nc(c(-c7ccccc7)c7ccc4[nH]7)C=C6)C=C5)cc3)CC2)c1
REMARK SMILES IDX 26 1 25 2 24 3 22 4 23 5 21 7 15 8 16 9 17 10 20 11 18 12
REMARK SMILES IDX 19 13 14 14 9 15 12 16 83 17 13 18 82 19 8 20 7 21 3 22 4 23
REMARK SMILES IDX 84 24 5 25 6 26 2 27 1 28 10 29 11 30 27 32 28 33 29 34
REMARK SMILES IDX 30 35 31 36 32 37 33 39 34 40 35 41 81 42 36 43 80 44 37 45
REMARK SMILES IDX 38 46 39 47 74 48 40 49 79 50 73 51 75 52 41 53 78 54 72 55
REMARK SMILES IDX 71 56 42 58 64 59 49 60 63 61 50 62 53 63 62 64 76 65 51 66
REMARK SMILES IDX 52 67 61 69 77 70 54 71 43 72 44 73 48 74 45 75 47 76 46 77
REMARK SMILES IDX 65 78 66 79 70 80 67 81 69 82 68 83 55 84 56 85 60 86 57 87
REMARK SMILES IDX 59 88 58 89
REMARK H PARENT 24 6 11 31 31 38 75 57 53 68
REMARK Flexibility Score: inf
ROOT
ATOM      1  C   UNL A   1      39.540  22.405  26.452  1.00  0.00     0.021 C 
ENDROOT
BRANCH   1   2
ATOM      2  C   UNL A   1      38.309  21.888  25.713  1.00  0.00     0.116 C 
BRANCH   2   3
ATOM      3  N   UNL A   1      37.108  22.552  26.168  1.00  0.00    -0.352 N 
ATOM      4  C   UNL A   1      35.753  22.386  26.057  1.00  0.00     0.255 C 
ATOM      5  O   UNL A   1      35.133  23.122  26.824  1.00  0.00    -0.269 OA
ATOM      6  H   UNL A   1      37.326  23.346  26.709  1.00  0.00     0.163 HD
BRANCH   4   7
ATOM      7  C   UNL A   1      35.023  21.384  25.211  1.00  0.00     0.082 A 
ATOM      8  C   UNL A   1      33.803  21.715  24.579  1.00  0.00     0.141 A 
ATOM      9  N   UNL A   1      32.959  20.744  24.125  1.00  0.00    -0.235 NA
ATOM     10  C   UNL A   1      33.320  19.448  24.187  1.00  0.00     0.040 A 
ATOM     11  C   UNL A   1      35.421  20.046  25.128  1.00  0.00     0.019 A 
ATOM     12  C   UNL A   1      32.305  18.445  23.740  1.00  0.00     0.067 C 
ATOM     13  C   UNL A   1      34.566  19.066  24.629  1.00  0.00     0.024 A 
BRANCH   8  14
ATOM     14  N   UNL A   1      33.343  22.979  24.276  1.00  0.00    -0.356 N 
ATOM     15  C   UNL A   1      32.628  25.786  23.866  1.00  0.00     0.001 C 
ATOM     16  C   UNL A   1      34.030  25.208  23.529  1.00  0.00     0.031 C 
ATOM     17  C   UNL A   1      31.869  24.832  24.830  1.00  0.00     0.031 C 
ATOM     18  C   UNL A   1      34.101  23.701  23.272  1.00  0.00     0.119 C 
ATOM     19  C   UNL A   1      31.954  23.348  24.477  1.00  0.00     0.119 C 
BRANCH  15  20
ATOM     20  C   UNL A   1      31.796  26.172  22.591  1.00  0.00     0.045 C 
BRANCH  20  21
ATOM     21  C   UNL A   1      30.597  27.079  22.720  1.00  0.00    -0.044 A 
ATOM     22  C   UNL A   1      29.540  29.249  22.409  1.00  0.00     0.119 A 
ATOM     23  C   UNL A   1      28.426  28.808  23.120  1.00  0.00     0.046 A 
ATOM     24  C   UNL A   1      30.624  28.388  22.210  1.00  0.00     0.050 A 
ATOM     25  C   UNL A   1      28.362  27.494  23.575  1.00  0.00     0.004 A 
ATOM     26  C   UNL A   1      29.433  26.628  23.356  1.00  0.00     0.004 A 
BRANCH  22  27
ATOM     27  O   UNL A   1      29.527  30.564  22.029  1.00  0.00    -0.497 OA
ATOM     28  C   UNL A   1      28.278  30.997  21.502  1.00  0.00     0.278 C 
ENDBRANCH  22  27
ENDBRANCH  20  21
ENDBRANCH  15  20
BRANCH  15  29
ATOM     29  C   UNL A   1      32.839  27.117  24.655  1.00  0.00     0.163 C 
BRANCH  29  30
ATOM     30  O   UNL A   1      33.859  27.928  24.081  1.00  0.00    -0.396 OA
ATOM     31  H   UNL A   1      34.545  28.103  24.744  1.00  0.00     0.210 HD
ENDBRANCH  29  30
ENDBRANCH  15  29
ENDBRANCH   8  14
ENDBRANCH   4   7
ENDBRANCH   2   3
ENDBRANCH   1   2
BRANCH   1  32
ATOM     32  C   UNL A   1      40.415  21.285  27.039  1.00  0.00     0.002 C 
BRANCH  32  33
ATOM     33  C   UNL A   1      41.720  21.005  26.280  1.00  0.00     0.002 C 
BRANCH  33  34
ATOM     34  C   UNL A   1      41.873  19.575  25.750  1.00  0.00     0.021 C 
BRANCH  34  35
ATOM     35  C   UNL A   1      43.196  18.908  26.110  1.00  0.00     0.116 C 
BRANCH  35  36
ATOM     36  N   UNL A   1      44.031  18.703  24.941  1.00  0.00    -0.352 N 
ATOM     37  C   UNL A   1      44.712  19.620  24.183  1.00  0.00     0.251 C 
ATOM     38  H   UNL A   1      44.122  17.767  24.649  1.00  0.00     0.163 HD
ATOM     39  O   UNL A   1      45.186  19.287  23.102  1.00  0.00    -0.269 OA
BRANCH  37  40
ATOM     40  C   UNL A   1      44.871  21.012  24.656  1.00  0.00     0.039 A 
ATOM     41  C   UNL A   1      45.434  21.227  25.916  1.00  0.00     0.014 A 
ATOM     42  C   UNL A   1      44.423  22.097  23.895  1.00  0.00     0.014 A 
ATOM     43  C   UNL A   1      45.574  22.528  26.400  1.00  0.00     0.010 A 
ATOM     44  C   UNL A   1      44.631  23.399  24.347  1.00  0.00     0.010 A 
ATOM     45  C   UNL A   1      45.190  23.627  25.613  1.00  0.00    -0.014 A 
BRANCH  45  46
ATOM     46  C   UNL A   1      45.366  25.010  26.121  1.00  0.00     0.031 A 
ATOM     47  C   UNL A   1      46.708  25.687  26.054  1.00  0.00     0.074 A 
ATOM     48  C   UNL A   1      44.313  25.653  26.663  1.00  0.00     0.049 A 
ATOM     49  N   UNL A   1      47.034  26.907  26.404  1.00  0.00    -0.248 NA
ATOM     50  C   UNL A   1      47.838  24.888  25.551  1.00  0.00     0.031 C 
ATOM     51  C   UNL A   1      42.974  25.084  26.842  1.00  0.00     0.029 A 
ATOM     52  N   UNL A   1      44.201  26.928  27.156  1.00  0.00    -0.354 N 
ATOM     53  C   UNL A   1      48.401  27.013  26.179  1.00  0.00     0.074 A 
ATOM     54  C   UNL A   1      48.854  25.724  25.709  1.00  0.00     0.031 C 
ATOM     55  C   UNL A   1      42.168  26.018  27.371  1.00  0.00     0.029 A 
ATOM     56  C   UNL A   1      42.935  27.239  27.592  1.00  0.00     0.049 A 
ATOM     57  H   UNL A   1      44.955  27.560  27.193  1.00  0.00     0.167 HD
ATOM     58  C   UNL A   1      49.205  28.094  26.332  1.00  0.00     0.031 A 
ATOM     59  C   UNL A   1      42.446  28.383  28.105  1.00  0.00     0.031 A 
ATOM     60  C   UNL A   1      48.750  29.383  26.783  1.00  0.00     0.049 A 
ATOM     61  C   UNL A   1      43.350  29.576  28.227  1.00  0.00     0.074 A 
ATOM     62  C   UNL A   1      49.471  30.558  26.901  1.00  0.00     0.029 A 
ATOM     63  N   UNL A   1      47.456  29.664  27.192  1.00  0.00    -0.354 N 
ATOM     64  N   UNL A   1      44.620  29.686  27.921  1.00  0.00    -0.248 NA
ATOM     65  C   UNL A   1      42.745  30.810  28.746  1.00  0.00     0.031 C 
ATOM     66  C   UNL A   1      48.625  31.538  27.432  1.00  0.00     0.029 A 
ATOM     67  C   UNL A   1      47.363  30.988  27.587  1.00  0.00     0.049 A 
ATOM     68  H   UNL A   1      46.713  29.018  27.202  1.00  0.00     0.167 HD
ATOM     69  C   UNL A   1      44.960  31.007  28.185  1.00  0.00     0.074 A 
ATOM     70  C   UNL A   1      43.754  31.663  28.649  1.00  0.00     0.031 C 
ATOM     71  C   UNL A   1      46.160  31.623  28.057  1.00  0.00     0.031 A 
BRANCH  58  72
ATOM     72  C   UNL A   1      50.665  27.929  26.011  1.00  0.00    -0.014 A 
ATOM     73  C   UNL A   1      51.589  27.538  26.993  1.00  0.00     0.009 A 
ATOM     74  C   UNL A   1      51.114  28.117  24.694  1.00  0.00     0.009 A 
ATOM     75  C   UNL A   1      52.938  27.370  26.669  1.00  0.00     0.001 A 
ATOM     76  C   UNL A   1      52.457  27.922  24.368  1.00  0.00     0.001 A 
ATOM     77  C   UNL A   1      53.369  27.555  25.357  1.00  0.00     0.000 A 
ENDBRANCH  58  72
BRANCH  59  78
ATOM     78  C   UNL A   1      41.020  28.465  28.518  1.00  0.00    -0.014 A 
ATOM     79  C   UNL A   1      40.626  28.092  29.813  1.00  0.00     0.009 A 
ATOM     80  C   UNL A   1      40.043  28.902  27.611  1.00  0.00     0.009 A 
ATOM     81  C   UNL A   1      39.278  28.119  30.177  1.00  0.00     0.001 A 
ATOM     82  C   UNL A   1      38.699  28.959  27.989  1.00  0.00     0.001 A 
ATOM     83  C   UNL A   1      38.317  28.555  29.268  1.00  0.00     0.000 A 
ENDBRANCH  59  78
BRANCH  71  84
ATOM     84  C   UNL A   1      46.214  33.086  28.399  1.00  0.00    -0.014 A 
ATOM     85  C   UNL A   1      45.938  34.072  27.438  1.00  0.00     0.009 A 
ATOM     86  C   UNL A   1      46.544  33.483  29.705  1.00  0.00     0.009 A 
ATOM     87  C   UNL A   1      46.042  35.425  27.765  1.00  0.00     0.001 A 
ATOM     88  C   UNL A   1      46.614  34.835  30.037  1.00  0.00     0.001 A 
ATOM     89  C   UNL A   1      46.378  35.805  29.065  1.00  0.00     0.000 A 
ENDBRANCH  71  84
ENDBRANCH  45  46
ENDBRANCH  37  40
ENDBRANCH  35  36
ENDBRANCH  34  35
ENDBRANCH  33  34
ENDBRANCH  32  33
ENDBRANCH   1  32
TORSDOF 19
ENDMDL
MODEL 3
REMARK VINA RESULT:     -11.0      2.382      6.200
REMARK SMILES COc1cccc(CC2(CO)CCN(c3nc(C)ccc3C(=O)NCCCCCCNC(=O)c3ccc(-c4c5nc(c(-c6ccccc6)c6ccc([nH]6)c(-c6ccccc6)c6nc(c(-c7ccccc7)c7ccc4[nH]7)C=C6)C=C5)cc3)CC2)c1
REMARK SMILES IDX 26 1 25 2 24 3 22 4 23 5 21 7 15 8 16 9 17 10 20 11 18 12
REMARK SMILES IDX 19 13 14 14 9 15 12 16 83 17 13 18 82 19 8 20 7 21 3 22 4 23
REMARK SMILES IDX 84 24 5 25 6 26 2 27 1 28 10 29 11 30 27 32 28 33 29 34
REMARK SMILES IDX 30 35 31 36 32 37 33 39 34 40 35 41 81 42 36 43 80 44 37 45
REMARK SMILES IDX 38 46 39 47 74 48 40 49 79 50 73 51 75 52 41 53 78 54 72 55
REMARK SMILES IDX 71 56 42 58 64 59 49 60 63 61 50 62 53 63 62 64 76 65 51 66
REMARK SMILES IDX 52 67 61 69 77 70 54 71 43 72 44 73 48 74 45 75 47 76 46 77
REMARK SMILES IDX 65 78 66 79 70 80 67 81 69 82 68 83 55 84 56 85 60 86 57 87
REMARK SMILES IDX 59 88 58 89
REMARK H PARENT 24 6 11 31 31 38 75 57 53 68
REMARK Flexibility Score: inf
ROOT
ATOM      1  C   UNL A   1      39.475  22.610  26.463  1.00  0.00     0.021 C 
ENDROOT
BRANCH   1   2
ATOM      2  C   UNL A   1      38.264  22.090  25.694  1.00  0.00     0.116 C 
BRANCH   2   3
ATOM      3  N   UNL A   1      37.034  22.631  26.228  1.00  0.00    -0.352 N 
ATOM      4  C   UNL A   1      35.691  22.372  26.146  1.00  0.00     0.255 C 
ATOM      5  O   UNL A   1      35.046  23.007  26.979  1.00  0.00    -0.269 OA
ATOM      6  H   UNL A   1      37.211  23.402  26.815  1.00  0.00     0.163 HD
BRANCH   4   7
ATOM      7  C   UNL A   1      35.008  21.374  25.256  1.00  0.00     0.082 A 
ATOM      8  C   UNL A   1      33.813  21.704  24.576  1.00  0.00     0.141 A 
ATOM      9  N   UNL A   1      32.998  20.732  24.073  1.00  0.00    -0.235 NA
ATOM     10  C   UNL A   1      33.368  19.438  24.134  1.00  0.00     0.040 A 
ATOM     11  C   UNL A   1      35.421  20.041  25.173  1.00  0.00     0.019 A 
ATOM     12  C   UNL A   1      32.382  18.432  23.630  1.00  0.00     0.067 C 
ATOM     13  C   UNL A   1      34.597  19.061  24.625  1.00  0.00     0.024 A 
BRANCH   8  14
ATOM     14  N   UNL A   1      33.355  22.968  24.270  1.00  0.00    -0.356 N 
ATOM     15  C   UNL A   1      32.647  25.775  23.851  1.00  0.00     0.001 C 
ATOM     16  C   UNL A   1      34.044  25.190  23.505  1.00  0.00     0.031 C 
ATOM     17  C   UNL A   1      31.893  24.830  24.826  1.00  0.00     0.031 C 
ATOM     18  C   UNL A   1      34.107  23.681  23.255  1.00  0.00     0.119 C 
ATOM     19  C   UNL A   1      31.970  23.344  24.481  1.00  0.00     0.119 C 
BRANCH  15  20
ATOM     20  C   UNL A   1      31.807  26.158  22.580  1.00  0.00     0.045 C 
BRANCH  20  21
ATOM     21  C   UNL A   1      30.597  27.050  22.718  1.00  0.00    -0.044 A 
ATOM     22  C   UNL A   1      29.509  29.203  22.400  1.00  0.00     0.119 A 
ATOM     23  C   UNL A   1      28.410  28.755  23.133  1.00  0.00     0.046 A 
ATOM     24  C   UNL A   1      30.601  28.355  22.194  1.00  0.00     0.050 A 
ATOM     25  C   UNL A   1      28.370  27.445  23.602  1.00  0.00     0.004 A 
ATOM     26  C   UNL A   1      29.449  26.591  23.375  1.00  0.00     0.004 A 
BRANCH  22  27
ATOM     27  O   UNL A   1      29.473  30.514  22.008  1.00  0.00    -0.497 OA
ATOM     28  C   UNL A   1      28.190  30.948  21.570  1.00  0.00     0.278 C 
ENDBRANCH  22  27
ENDBRANCH  20  21
ENDBRANCH  15  20
BRANCH  15  29
ATOM     29  C   UNL A   1      32.870  27.110  24.630  1.00  0.00     0.163 C 
BRANCH  29  30
ATOM     30  O   UNL A   1      33.901  27.906  24.054  1.00  0.00    -0.396 OA
ATOM     31  H   UNL A   1      34.586  28.078  24.718  1.00  0.00     0.210 HD
ENDBRANCH  29  30
ENDBRANCH  15  29
ENDBRANCH   8  14
ENDBRANCH   4   7
ENDBRANCH   2   3
ENDBRANCH   1   2
BRANCH   1  32
ATOM     32  C   UNL A   1      40.335  21.491  27.073  1.00  0.00     0.002 C 
BRANCH  32  33
ATOM     33  C   UNL A   1      41.604  21.135  26.287  1.00  0.00     0.002 C 
BRANCH  33  34
ATOM     34  C   UNL A   1      41.709  19.672  25.844  1.00  0.00     0.021 C 
BRANCH  34  35
ATOM     35  C   UNL A   1      43.039  19.005  26.179  1.00  0.00     0.116 C 
BRANCH  35  36
ATOM     36  N   UNL A   1      43.827  18.748  24.988  1.00  0.00    -0.352 N 
ATOM     37  C   UNL A   1      44.499  19.626  24.179  1.00  0.00     0.251 C 
ATOM     38  H   UNL A   1      43.887  17.802  24.721  1.00  0.00     0.163 HD
ATOM     39  O   UNL A   1      44.927  19.252  23.092  1.00  0.00    -0.269 OA
BRANCH  37  40
ATOM     40  C   UNL A   1      44.704  21.028  24.605  1.00  0.00     0.039 A 
ATOM     41  C   UNL A   1      45.391  21.268  25.797  1.00  0.00     0.014 A 
ATOM     42  C   UNL A   1      44.184  22.098  23.869  1.00  0.00     0.014 A 
ATOM     43  C   UNL A   1      45.578  22.579  26.237  1.00  0.00     0.010 A 
ATOM     44  C   UNL A   1      44.436  23.409  24.271  1.00  0.00     0.010 A 
ATOM     45  C   UNL A   1      45.118  23.662  25.469  1.00  0.00    -0.014 A 
BRANCH  45  46
ATOM     46  C   UNL A   1      45.343  25.055  25.929  1.00  0.00     0.031 A 
ATOM     47  C   UNL A   1      44.216  25.858  26.521  1.00  0.00     0.074 A 
ATOM     48  C   UNL A   1      46.565  25.605  25.795  1.00  0.00     0.049 A 
ATOM     49  N   UNL A   1      44.241  27.069  27.019  1.00  0.00    -0.248 NA
ATOM     50  C   UNL A   1      42.883  25.233  26.536  1.00  0.00     0.031 C 
ATOM     51  C   UNL A   1      47.725  24.952  25.181  1.00  0.00     0.029 A 
ATOM     52  N   UNL A   1      47.038  26.835  26.174  1.00  0.00    -0.354 N 
ATOM     53  C   UNL A   1      42.933  27.354  27.390  1.00  0.00     0.074 A 
ATOM     54  C   UNL A   1      42.130  26.212  27.016  1.00  0.00     0.031 C 
ATOM     55  C   UNL A   1      48.783  25.775  25.258  1.00  0.00     0.029 A 
ATOM     56  C   UNL A   1      48.373  27.019  25.901  1.00  0.00     0.049 A 
ATOM     57  H   UNL A   1      46.476  27.522  26.600  1.00  0.00     0.167 HD
ATOM     58  C   UNL A   1      42.446  28.460  28.004  1.00  0.00     0.031 A 
ATOM     59  C   UNL A   1      49.177  28.069  26.148  1.00  0.00     0.031 A 
ATOM     60  C   UNL A   1      43.250  29.589  28.392  1.00  0.00     0.049 A 
ATOM     61  C   UNL A   1      48.620  29.266  26.864  1.00  0.00     0.074 A 
ATOM     62  C   UNL A   1      42.863  30.724  29.084  1.00  0.00     0.029 A 
ATOM     63  N   UNL A   1      44.601  29.727  28.119  1.00  0.00    -0.354 N 
ATOM     64  N   UNL A   1      47.399  29.479  27.292  1.00  0.00    -0.248 NA
ATOM     65  C   UNL A   1      49.560  30.358  27.151  1.00  0.00     0.031 C 
ATOM     66  C   UNL A   1      43.971  31.573  29.183  1.00  0.00     0.029 A 
ATOM     67  C   UNL A   1      45.060  30.939  28.607  1.00  0.00     0.049 A 
ATOM     68  H   UNL A   1      45.154  29.062  27.648  1.00  0.00     0.167 HD
ATOM     69  C   UNL A   1      47.430  30.717  27.921  1.00  0.00     0.074 A 
ATOM     70  C   UNL A   1      48.797  31.192  27.842  1.00  0.00     0.031 C 
ATOM     71  C   UNL A   1      46.419  31.402  28.511  1.00  0.00     0.031 A 
BRANCH  58  72
ATOM     72  C   UNL A   1      40.971  28.505  28.293  1.00  0.00    -0.014 A 
ATOM     73  C   UNL A   1      40.062  29.047  27.371  1.00  0.00     0.009 A 
ATOM     74  C   UNL A   1      40.478  27.951  29.485  1.00  0.00     0.009 A 
ATOM     75  C   UNL A   1      38.693  29.060  27.650  1.00  0.00     0.001 A 
ATOM     76  C   UNL A   1      39.107  27.940  29.749  1.00  0.00     0.001 A 
ATOM     77  C   UNL A   1      38.216  28.502  28.835  1.00  0.00     0.000 A 
ENDBRANCH  58  72
BRANCH  59  78
ATOM     78  C   UNL A   1      50.606  28.027  25.739  1.00  0.00    -0.014 A 
ATOM     79  C   UNL A   1      50.999  28.451  24.459  1.00  0.00     0.009 A 
ATOM     80  C   UNL A   1      51.583  27.544  26.622  1.00  0.00     0.009 A 
ATOM     81  C   UNL A   1      52.334  28.357  24.061  1.00  0.00     0.001 A 
ATOM     82  C   UNL A   1      52.924  27.481  26.233  1.00  0.00     0.001 A 
ATOM     83  C   UNL A   1      53.295  27.876  24.948  1.00  0.00     0.000 A 
ENDBRANCH  59  78
BRANCH  71  84
ATOM     84  C   UNL A   1      46.768  32.723  29.138  1.00  0.00    -0.014 A 
ATOM     85  C   UNL A   1      46.724  33.917  28.401  1.00  0.00     0.009 A 
ATOM     86  C   UNL A   1      47.145  32.771  30.490  1.00  0.00     0.009 A 
ATOM     87  C   UNL A   1      47.100  35.125  28.991  1.00  0.00     0.001 A 
ATOM     88  C   UNL A   1      47.487  33.985  31.086  1.00  0.00     0.001 A 
ATOM     89  C   UNL A   1      47.479  35.158  30.333  1.00  0.00     0.000 A 
ENDBRANCH  71  84
ENDBRANCH  45  46
ENDBRANCH  37  40
ENDBRANCH  35  36
ENDBRANCH  34  35
ENDBRANCH  33  34
ENDBRANCH  32  33
ENDBRANCH   1  32
TORSDOF 19
ENDMDL
