MODEL 1
REMARK VINA RESULT:     -12.8      0.000      0.000
REMARK SMILES O=C(NCCCCCCNC(=O)[C@H]1[C@H]2CC[C@H](C2)[C@@H]1C(=O)Nc1sc2c(c1C(=O)NC1CCCCC1)CCCC2)c1ccc(-c2c3nc(c(-c4ccccc4)c4ccc([nH]4)c(-c4ccccc4)c4nc(c(-c5ccccc5)c5ccc2[nH]5)C=C4)C=C3)cc1
REMARK SMILES IDX 7 1 6 2 5 3 4 4 3 5 1 6 2 7 41 9 42 10 88 11 43 12 87 13
REMARK SMILES IDX 44 14 45 15 46 16 81 17 47 18 86 19 80 20 82 21 48 22 85 23
REMARK SMILES IDX 79 24 78 25 49 27 71 28 56 29 70 30 57 31 60 32 69 33 83 34
REMARK SMILES IDX 58 35 59 36 68 38 84 39 61 40 50 41 51 42 55 43 52 44 54 45
REMARK SMILES IDX 53 46 72 47 73 48 77 49 74 50 76 51 75 52 62 53 63 54 67 55
REMARK SMILES IDX 64 56 66 57 65 58 8 59 9 60 10 61 11 62 12 64 13 65 14 66
REMARK SMILES IDX 19 67 15 68 18 69 17 70 16 71 20 72 21 73 22 74 23 76 24 77
REMARK SMILES IDX 27 78 25 79 26 80 40 81 37 82 39 83 38 84 28 85 29 86 30 87
REMARK SMILES IDX 31 89 32 90 36 91 33 92 35 93 34 94
REMARK H PARENT 3 8 82 26 60 37 10 63 22 75 30 88
REMARK Flexibility Score: inf
ROOT
ATOM      1  C   UNL A   1      36.527  21.263  25.723  1.00  0.00     0.002 C 
ENDROOT
BRANCH   1   2
ATOM      2  C   UNL A   1      37.313  20.596  24.588  1.00  0.00     0.002 C 
BRANCH   2   3
ATOM      3  C   UNL A   1      38.230  19.461  25.036  1.00  0.00     0.021 C 
BRANCH   3   4
ATOM      4  C   UNL A   1      39.486  19.925  25.756  1.00  0.00     0.116 C 
BRANCH   4   5
ATOM      5  N   UNL A   1      40.468  18.861  25.904  1.00  0.00    -0.352 N 
ATOM      6  O   UNL A   1      42.541  17.964  26.039  1.00  0.00    -0.269 OA
ATOM      7  C   UNL A   1      41.823  18.959  26.104  1.00  0.00     0.251 C 
ATOM      8  H   UNL A   1      40.112  17.944  25.852  1.00  0.00     0.163 HD
BRANCH   7   9
ATOM      9  C   UNL A   1      42.417  20.285  26.363  1.00  0.00     0.039 A 
ATOM     10  C   UNL A   1      42.304  20.872  27.625  1.00  0.00     0.014 A 
ATOM     11  C   UNL A   1      43.053  20.968  25.323  1.00  0.00     0.014 A 
ATOM     12  C   UNL A   1      42.655  22.204  27.796  1.00  0.00     0.010 A 
ATOM     13  C   UNL A   1      43.505  22.273  25.531  1.00  0.00     0.010 A 
ATOM     14  C   UNL A   1      43.266  22.920  26.753  1.00  0.00    -0.014 A 
BRANCH  14  15
ATOM     15  C   UNL A   1      43.667  24.331  26.984  1.00  0.00     0.031 A 
ATOM     16  C   UNL A   1      42.671  25.360  27.448  1.00  0.00     0.074 A 
ATOM     17  C   UNL A   1      44.959  24.673  26.814  1.00  0.00     0.049 A 
ATOM     18  N   UNL A   1      42.868  26.621  27.745  1.00  0.00    -0.248 NA
ATOM     19  C   UNL A   1      41.273  24.925  27.589  1.00  0.00     0.031 C 
ATOM     20  C   UNL A   1      46.020  23.765  26.370  1.00  0.00     0.029 A 
ATOM     21  N   UNL A   1      45.606  25.863  27.023  1.00  0.00    -0.354 N 
ATOM     22  C   UNL A   1      41.622  27.136  28.079  1.00  0.00     0.074 A 
ATOM     23  C   UNL A   1      40.669  26.058  27.924  1.00  0.00     0.031 C 
ATOM     24  C   UNL A   1      47.194  24.412  26.403  1.00  0.00     0.029 A 
ATOM     25  C   UNL A   1      46.959  25.795  26.797  1.00  0.00     0.049 A 
ATOM     26  H   UNL A   1      45.147  26.686  27.307  1.00  0.00     0.167 HD
ATOM     27  C   UNL A   1      41.301  28.389  28.482  1.00  0.00     0.031 A 
ATOM     28  C   UNL A   1      47.911  26.742  26.887  1.00  0.00     0.031 A 
ATOM     29  C   UNL A   1      42.253  29.459  28.640  1.00  0.00     0.049 A 
ATOM     30  C   UNL A   1      47.519  28.129  27.305  1.00  0.00     0.074 A 
ATOM     31  C   UNL A   1      42.031  30.753  29.079  1.00  0.00     0.029 A 
ATOM     32  N   UNL A   1      43.607  29.361  28.358  1.00  0.00    -0.354 N 
ATOM     33  N   UNL A   1      46.343  28.587  27.655  1.00  0.00    -0.248 NA
ATOM     34  C   UNL A   1      48.594  29.128  27.346  1.00  0.00     0.031 C 
ATOM     35  C   UNL A   1      43.238  31.455  29.003  1.00  0.00     0.029 A 
ATOM     36  C   UNL A   1      44.227  30.579  28.586  1.00  0.00     0.049 A 
ATOM     37  H   UNL A   1      44.061  28.547  28.041  1.00  0.00     0.167 HD
ATOM     38  C   UNL A   1      46.540  29.919  27.990  1.00  0.00     0.074 A 
ATOM     39  C   UNL A   1      47.954  30.188  27.817  1.00  0.00     0.031 C 
ATOM     40  C   UNL A   1      45.634  30.835  28.409  1.00  0.00     0.031 A 
BRANCH  27  41
ATOM     41  C   UNL A   1      39.848  28.687  28.746  1.00  0.00    -0.014 A 
ATOM     42  C   UNL A   1      39.018  29.245  27.759  1.00  0.00     0.009 A 
ATOM     43  C   UNL A   1      39.291  28.366  29.994  1.00  0.00     0.009 A 
ATOM     44  C   UNL A   1      37.673  29.509  28.031  1.00  0.00     0.001 A 
ATOM     45  C   UNL A   1      37.940  28.603  30.253  1.00  0.00     0.001 A 
ATOM     46  C   UNL A   1      37.134  29.184  29.276  1.00  0.00     0.000 A 
ENDBRANCH  27  41
BRANCH  28  47
ATOM     47  C   UNL A   1      49.324  26.407  26.574  1.00  0.00    -0.014 A 
ATOM     48  C   UNL A   1      50.163  25.865  27.559  1.00  0.00     0.009 A 
ATOM     49  C   UNL A   1      49.841  26.628  25.289  1.00  0.00     0.009 A 
ATOM     50  C   UNL A   1      51.499  25.578  27.270  1.00  0.00     0.001 A 
ATOM     51  C   UNL A   1      51.167  26.307  24.992  1.00  0.00     0.001 A 
ATOM     52  C   UNL A   1      51.997  25.794  25.985  1.00  0.00     0.000 A 
ENDBRANCH  28  47
BRANCH  40  53
ATOM     53  C   UNL A   1      46.156  32.200  28.760  1.00  0.00    -0.014 A 
ATOM     54  C   UNL A   1      46.059  33.280  27.868  1.00  0.00     0.009 A 
ATOM     55  C   UNL A   1      46.746  32.410  30.017  1.00  0.00     0.009 A 
ATOM     56  C   UNL A   1      46.583  34.528  28.211  1.00  0.00     0.001 A 
ATOM     57  C   UNL A   1      47.238  33.667  30.370  1.00  0.00     0.001 A 
ATOM     58  C   UNL A   1      47.168  34.721  29.462  1.00  0.00     0.000 A 
ENDBRANCH  40  53
ENDBRANCH  14  15
ENDBRANCH   7   9
ENDBRANCH   4   5
ENDBRANCH   3   4
ENDBRANCH   2   3
ENDBRANCH   1   2
BRANCH   1  59
ATOM     59  C   UNL A   1      36.972  22.695  26.067  1.00  0.00     0.021 C 
BRANCH  59  60
ATOM     60  C   UNL A   1      36.632  23.721  24.987  1.00  0.00     0.116 C 
BRANCH  60  61
ATOM     61  N   UNL A   1      35.563  24.577  25.442  1.00  0.00    -0.356 N 
ATOM     62  C   UNL A   1      34.382  24.915  24.882  1.00  0.00     0.224 C 
ATOM     63  H   UNL A   1      35.724  24.988  26.322  1.00  0.00     0.163 HD
ATOM     64  O   UNL A   1      33.696  25.712  25.523  1.00  0.00    -0.275 OA
BRANCH  62  65
ATOM     65  C   UNL A   1      33.898  24.241  23.605  1.00  0.00     0.094 C 
ATOM     66  C   UNL A   1      33.649  22.725  23.892  1.00  0.00     0.002 C 
ATOM     67  C   UNL A   1      32.543  24.684  22.998  1.00  0.00     0.094 C 
ATOM     68  C   UNL A   1      32.487  22.440  24.870  1.00  0.00     0.005 C 
ATOM     69  C   UNL A   1      32.985  22.324  22.595  1.00  0.00     0.009 C 
ATOM     70  C   UNL A   1      31.835  23.334  22.748  1.00  0.00     0.002 C 
ATOM     71  C   UNL A   1      31.238  22.854  24.081  1.00  0.00     0.005 C 
BRANCH  67  72
ATOM     72  C   UNL A   1      32.578  25.704  21.832  1.00  0.00     0.229 C 
ATOM     73  O   UNL A   1      32.683  25.244  20.682  1.00  0.00    -0.274 OA
ATOM     74  N   UNL A   1      32.328  27.041  21.905  1.00  0.00    -0.317 N 
ATOM     75  H   UNL A   1      32.051  27.448  21.053  1.00  0.00     0.170 HD
BRANCH  74  76
ATOM     76  C   UNL A   1      32.395  27.922  22.957  1.00  0.00     0.108 A 
ATOM     77  S   UNL A   1      33.823  28.829  23.125  1.00  0.00    -0.122 S 
ATOM     78  C   UNL A   1      31.356  28.432  23.748  1.00  0.00     0.078 A 
ATOM     79  C   UNL A   1      33.341  29.272  24.684  1.00  0.00     0.011 A 
ATOM     80  C   UNL A   1      31.958  29.250  24.808  1.00  0.00    -0.019 A 
ATOM     81  C   UNL A   1      34.325  29.664  25.740  1.00  0.00     0.047 C 
ATOM     82  C   UNL A   1      31.343  29.929  25.999  1.00  0.00     0.037 C 
ATOM     83  C   UNL A   1      33.607  29.725  27.093  1.00  0.00     0.006 C 
ATOM     84  C   UNL A   1      32.354  30.592  26.950  1.00  0.00     0.005 C 
BRANCH  78  85
ATOM     85  C   UNL A   1      29.975  28.030  23.408  1.00  0.00     0.254 C 
ATOM     86  O   UNL A   1      29.585  26.888  23.683  1.00  0.00    -0.269 OA
ATOM     87  N   UNL A   1      29.010  28.851  22.879  1.00  0.00    -0.349 N 
ATOM     88  H   UNL A   1      28.135  28.410  22.777  1.00  0.00     0.164 HD
BRANCH  87  89
ATOM     89  C   UNL A   1      29.013  30.229  22.440  1.00  0.00     0.082 C 
ATOM     90  C   UNL A   1      28.049  30.484  21.272  1.00  0.00     0.025 C 
ATOM     91  C   UNL A   1      28.691  31.213  23.573  1.00  0.00     0.025 C 
ATOM     92  C   UNL A   1      28.235  31.913  20.753  1.00  0.00     0.002 C 
ATOM     93  C   UNL A   1      28.842  32.663  23.109  1.00  0.00     0.002 C 
ATOM     94  C   UNL A   1      28.029  32.956  21.851  1.00  0.00     0.000 C 
ENDBRANCH  87  89
ENDBRANCH  78  85
ENDBRANCH  74  76
ENDBRANCH  67  72
ENDBRANCH  62  65
ENDBRANCH  60  61
ENDBRANCH  59  60
ENDBRANCH   1  59
TORSDOF 17
ENDMDL
MODEL 2
REMARK VINA RESULT:     -12.5      1.433      5.771
REMARK SMILES O=C(NCCCCCCNC(=O)[C@H]1[C@H]2CC[C@H](C2)[C@@H]1C(=O)Nc1sc2c(c1C(=O)NC1CCCCC1)CCCC2)c1ccc(-c2c3nc(c(-c4ccccc4)c4ccc([nH]4)c(-c4ccccc4)c4nc(c(-c5ccccc5)c5ccc2[nH]5)C=C4)C=C3)cc1
REMARK SMILES IDX 7 1 6 2 5 3 4 4 3 5 1 6 2 7 41 9 42 10 88 11 43 12 87 13
REMARK SMILES IDX 44 14 45 15 46 16 81 17 47 18 86 19 80 20 82 21 48 22 85 23
REMARK SMILES IDX 79 24 78 25 49 27 71 28 56 29 70 30 57 31 60 32 69 33 83 34
REMARK SMILES IDX 58 35 59 36 68 38 84 39 61 40 50 41 51 42 55 43 52 44 54 45
REMARK SMILES IDX 53 46 72 47 73 48 77 49 74 50 76 51 75 52 62 53 63 54 67 55
REMARK SMILES IDX 64 56 66 57 65 58 8 59 9 60 10 61 11 62 12 64 13 65 14 66
REMARK SMILES IDX 19 67 15 68 18 69 17 70 16 71 20 72 21 73 22 74 23 76 24 77
REMARK SMILES IDX 27 78 25 79 26 80 40 81 37 82 39 83 38 84 28 85 29 86 30 87
REMARK SMILES IDX 31 89 32 90 36 91 33 92 35 93 34 94
REMARK H PARENT 3 8 82 26 60 37 10 63 22 75 30 88
REMARK Flexibility Score: inf
ROOT
ATOM      1  C   UNL A   1      38.796  22.279  25.852  1.00  0.00     0.002 C 
ENDROOT
BRANCH   1   2
ATOM      2  C   UNL A   1      39.775  21.402  26.640  1.00  0.00     0.002 C 
BRANCH   2   3
ATOM      3  C   UNL A   1      40.426  20.289  25.823  1.00  0.00     0.021 C 
BRANCH   3   4
ATOM      4  C   UNL A   1      41.675  19.700  26.461  1.00  0.00     0.116 C 
BRANCH   4   5
ATOM      5  N   UNL A   1      42.785  19.605  25.525  1.00  0.00    -0.352 N 
ATOM      6  O   UNL A   1      44.409  20.387  24.157  1.00  0.00    -0.269 OA
ATOM      7  C   UNL A   1      43.625  20.596  25.079  1.00  0.00     0.251 C 
ATOM      8  H   UNL A   1      42.959  18.707  25.161  1.00  0.00     0.163 HD
BRANCH   7   9
ATOM      9  C   UNL A   1      43.548  21.935  25.698  1.00  0.00     0.039 A 
ATOM     10  C   UNL A   1      43.449  23.075  24.898  1.00  0.00     0.014 A 
ATOM     11  C   UNL A   1      43.625  22.054  27.088  1.00  0.00     0.014 A 
ATOM     12  C   UNL A   1      43.613  24.329  25.469  1.00  0.00     0.010 A 
ATOM     13  C   UNL A   1      43.679  23.323  27.669  1.00  0.00     0.010 A 
ATOM     14  C   UNL A   1      43.723  24.470  26.862  1.00  0.00    -0.014 A 
BRANCH  14  15
ATOM     15  C   UNL A   1      43.855  25.831  27.442  1.00  0.00     0.031 A 
ATOM     16  C   UNL A   1      45.194  26.510  27.544  1.00  0.00     0.074 A 
ATOM     17  C   UNL A   1      42.741  26.475  27.840  1.00  0.00     0.049 A 
ATOM     18  N   UNL A   1      45.476  27.714  27.978  1.00  0.00    -0.248 NA
ATOM     19  C   UNL A   1      46.372  25.740  27.115  1.00  0.00     0.031 C 
ATOM     20  C   UNL A   1      41.384  25.924  27.790  1.00  0.00     0.029 A 
ATOM     21  N   UNL A   1      42.566  27.741  28.335  1.00  0.00    -0.354 N 
ATOM     22  C   UNL A   1      46.858  27.837  27.900  1.00  0.00     0.074 A 
ATOM     23  C   UNL A   1      47.362  26.575  27.403  1.00  0.00     0.031 C 
ATOM     24  C   UNL A   1      40.512  26.867  28.173  1.00  0.00     0.029 A 
ATOM     25  C   UNL A   1      41.250  28.061  28.565  1.00  0.00     0.049 A 
ATOM     26  H   UNL A   1      43.311  28.361  28.508  1.00  0.00     0.167 HD
ATOM     27  C   UNL A   1      47.634  28.902  28.211  1.00  0.00     0.031 A 
ATOM     28  C   UNL A   1      40.694  29.187  29.047  1.00  0.00     0.031 A 
ATOM     29  C   UNL A   1      47.129  30.159  28.702  1.00  0.00     0.049 A 
ATOM     30  C   UNL A   1      41.583  30.339  29.412  1.00  0.00     0.074 A 
ATOM     31  C   UNL A   1      47.832  31.311  29.010  1.00  0.00     0.029 A 
ATOM     32  N   UNL A   1      45.793  30.426  28.964  1.00  0.00    -0.354 N 
ATOM     33  N   UNL A   1      42.883  30.450  29.295  1.00  0.00    -0.248 NA
ATOM     34  C   UNL A   1      40.922  31.525  29.971  1.00  0.00     0.031 C 
ATOM     35  C   UNL A   1      46.931  32.253  29.516  1.00  0.00     0.029 A 
ATOM     36  C   UNL A   1      45.656  31.714  29.455  1.00  0.00     0.049 A 
ATOM     37  H   UNL A   1      45.052  29.794  28.822  1.00  0.00     0.167 HD
ATOM     38  C   UNL A   1      43.194  31.730  29.735  1.00  0.00     0.074 A 
ATOM     39  C   UNL A   1      41.942  32.360  30.103  1.00  0.00     0.031 C 
ATOM     40  C   UNL A   1      44.405  32.330  29.819  1.00  0.00     0.031 A 
BRANCH  27  41
ATOM     41  C   UNL A   1      49.125  28.745  28.066  1.00  0.00    -0.014 A 
ATOM     42  C   UNL A   1      49.925  28.286  29.126  1.00  0.00     0.009 A 
ATOM     43  C   UNL A   1      49.734  29.026  26.833  1.00  0.00     0.009 A 
ATOM     44  C   UNL A   1      51.306  28.148  28.963  1.00  0.00     0.001 A 
ATOM     45  C   UNL A   1      51.110  28.858  26.663  1.00  0.00     0.001 A 
ATOM     46  C   UNL A   1      51.897  28.430  27.731  1.00  0.00     0.000 A 
ENDBRANCH  27  41
BRANCH  28  47
ATOM     47  C   UNL A   1      39.220  29.275  29.211  1.00  0.00    -0.014 A 
ATOM     48  C   UNL A   1      38.410  29.723  28.156  1.00  0.00     0.009 A 
ATOM     49  C   UNL A   1      38.615  28.913  30.424  1.00  0.00     0.009 A 
ATOM     50  C   UNL A   1      37.028  29.832  28.323  1.00  0.00     0.001 A 
ATOM     51  C   UNL A   1      37.230  28.990  30.577  1.00  0.00     0.001 A 
ATOM     52  C   UNL A   1      36.440  29.460  29.531  1.00  0.00     0.000 A 
ENDBRANCH  28  47
BRANCH  40  53
ATOM     53  C   UNL A   1      44.427  33.762  30.280  1.00  0.00    -0.014 A 
ATOM     54  C   UNL A   1      44.576  34.098  31.635  1.00  0.00     0.009 A 
ATOM     55  C   UNL A   1      44.308  34.792  29.335  1.00  0.00     0.009 A 
ATOM     56  C   UNL A   1      44.559  35.435  32.036  1.00  0.00     0.001 A 
ATOM     57  C   UNL A   1      44.327  36.128  29.734  1.00  0.00     0.001 A 
ATOM     58  C   UNL A   1      44.439  36.449  31.085  1.00  0.00     0.000 A 
ENDBRANCH  40  53
ENDBRANCH  14  15
ENDBRANCH   7   9
ENDBRANCH   4   5
ENDBRANCH   3   4
ENDBRANCH   2   3
ENDBRANCH   1   2
BRANCH   1  59
ATOM     59  C   UNL A   1      37.653  21.517  25.159  1.00  0.00     0.021 C 
BRANCH  59  60
ATOM     60  C   UNL A   1      36.893  22.349  24.129  1.00  0.00     0.116 C 
BRANCH  60  61
ATOM     61  N   UNL A   1      36.218  23.443  24.785  1.00  0.00    -0.356 N 
ATOM     62  C   UNL A   1      35.073  24.097  24.494  1.00  0.00     0.224 C 
ATOM     63  H   UNL A   1      36.676  23.773  25.591  1.00  0.00     0.163 HD
ATOM     64  O   UNL A   1      34.783  25.028  25.246  1.00  0.00    -0.275 OA
BRANCH  62  65
ATOM     65  C   UNL A   1      34.152  23.609  23.382  1.00  0.00     0.094 C 
ATOM     66  C   UNL A   1      33.583  22.206  23.770  1.00  0.00     0.002 C 
ATOM     67  C   UNL A   1      32.862  24.412  23.081  1.00  0.00     0.094 C 
ATOM     68  C   UNL A   1      32.640  22.212  24.993  1.00  0.00     0.005 C 
ATOM     69  C   UNL A   1      32.563  22.030  22.669  1.00  0.00     0.009 C 
ATOM     70  C   UNL A   1      31.785  23.304  23.042  1.00  0.00     0.002 C 
ATOM     71  C   UNL A   1      31.400  22.963  24.492  1.00  0.00     0.005 C 
BRANCH  67  72
ATOM     72  C   UNL A   1      32.900  25.417  21.903  1.00  0.00     0.229 C 
ATOM     73  O   UNL A   1      33.071  24.948  20.765  1.00  0.00    -0.274 OA
ATOM     74  N   UNL A   1      32.590  26.743  21.947  1.00  0.00    -0.317 N 
ATOM     75  H   UNL A   1      32.330  27.127  21.079  1.00  0.00     0.170 HD
BRANCH  74  76
ATOM     76  C   UNL A   1      32.575  27.639  22.988  1.00  0.00     0.108 A 
ATOM     77  S   UNL A   1      33.986  28.551  23.250  1.00  0.00    -0.122 S 
ATOM     78  C   UNL A   1      31.479  28.158  23.691  1.00  0.00     0.078 A 
ATOM     79  C   UNL A   1      33.386  29.016  24.762  1.00  0.00     0.011 A 
ATOM     80  C   UNL A   1      31.998  28.992  24.782  1.00  0.00    -0.019 A 
ATOM     81  C   UNL A   1      34.288  29.425  25.884  1.00  0.00     0.047 C 
ATOM     82  C   UNL A   1      31.294  29.687  25.913  1.00  0.00     0.037 C 
ATOM     83  C   UNL A   1      33.469  29.503  27.178  1.00  0.00     0.006 C 
ATOM     84  C   UNL A   1      32.229  30.366  26.928  1.00  0.00     0.005 C 
BRANCH  78  85
ATOM     85  C   UNL A   1      30.128  27.748  23.253  1.00  0.00     0.254 C 
ATOM     86  O   UNL A   1      29.759  26.579  23.422  1.00  0.00    -0.269 OA
ATOM     87  N   UNL A   1      29.166  28.582  22.739  1.00  0.00    -0.349 N 
ATOM     88  H   UNL A   1      28.310  28.128  22.561  1.00  0.00     0.164 HD
BRANCH  87  89
ATOM     89  C   UNL A   1      29.150  29.989  22.405  1.00  0.00     0.082 C 
ATOM     90  C   UNL A   1      28.175  30.319  21.266  1.00  0.00     0.025 C 
ATOM     91  C   UNL A   1      28.825  30.881  23.611  1.00  0.00     0.025 C 
ATOM     92  C   UNL A   1      28.341  31.785  20.855  1.00  0.00     0.002 C 
ATOM     93  C   UNL A   1      28.955  32.363  23.257  1.00  0.00     0.002 C 
ATOM     94  C   UNL A   1      28.130  32.741  22.030  1.00  0.00     0.000 C 
ENDBRANCH  87  89
ENDBRANCH  78  85
ENDBRANCH  74  76
ENDBRANCH  67  72
ENDBRANCH  62  65
ENDBRANCH  60  61
ENDBRANCH  59  60
ENDBRANCH   1  59
TORSDOF 17
ENDMDL
MODEL 3
REMARK VINA RESULT:     -12.5      1.281      5.643
REMARK SMILES O=C(NCCCCCCNC(=O)[C@H]1[C@H]2CC[C@H](C2)[C@@H]1C(=O)Nc1sc2c(c1C(=O)NC1CCCCC1)CCCC2)c1ccc(-c2c3nc(c(-c4ccccc4)c4ccc([nH]4)c(-c4ccccc4)c4nc(c(-c5ccccc5)c5ccc2[nH]5)C=C4)C=C3)cc1
REMARK SMILES IDX 7 1 6 2 5 3 4 4 3 5 1 6 2 7 41 9 42 10 88 11 43 12 87 13
REMARK SMILES IDX 44 14 45 15 46 16 81 17 47 18 86 19 80 20 82 21 48 22 85 23
REMARK SMILES IDX 79 24 78 25 49 27 71 28 56 29 70 30 57 31 60 32 69 33 83 34
REMARK SMILES IDX 58 35 59 36 68 38 84 39 61 40 50 41 51 42 55 43 52 44 54 45
REMARK SMILES IDX 53 46 72 47 73 48 77 49 74 50 76 51 75 52 62 53 63 54 67 55
REMARK SMILES IDX 64 56 66 57 65 58 8 59 9 60 10 61 11 62 12 64 13 65 14 66
REMARK SMILES IDX 19 67 15 68 18 69 17 70 16 71 20 72 21 73 22 74 23 76 24 77
REMARK SMILES IDX 27 78 25 79 26 80 40 81 37 82 39 83 38 84 28 85 29 86 30 87
REMARK SMILES IDX 31 89 32 90 36 91 33 92 35 93 34 94
REMARK H PARENT 3 8 82 26 60 37 10 63 22 75 30 88
REMARK Flexibility Score: inf
ROOT
ATOM      1  C   UNL A   1      36.342  21.629  25.750  1.00  0.00     0.002 C 
ENDROOT
BRANCH   1   2
ATOM      2  C   UNL A   1      37.208  21.061  24.619  1.00  0.00     0.002 C 
BRANCH   2   3
ATOM      3  C   UNL A   1      38.066  19.865  25.019  1.00  0.00     0.021 C 
BRANCH   3   4
ATOM      4  C   UNL A   1      39.248  20.218  25.909  1.00  0.00     0.116 C 
BRANCH   4   5
ATOM      5  N   UNL A   1      40.270  19.182  25.913  1.00  0.00    -0.352 N 
ATOM      6  O   UNL A   1      42.376  18.355  25.918  1.00  0.00    -0.269 OA
ATOM      7  C   UNL A   1      41.623  19.305  26.114  1.00  0.00     0.251 C 
ATOM      8  H   UNL A   1      39.948  18.266  25.750  1.00  0.00     0.163 HD
BRANCH   7   9
ATOM      9  C   UNL A   1      42.171  20.611  26.534  1.00  0.00     0.039 A 
ATOM     10  C   UNL A   1      42.239  20.942  27.888  1.00  0.00     0.014 A 
ATOM     11  C   UNL A   1      42.577  21.529  25.562  1.00  0.00     0.014 A 
ATOM     12  C   UNL A   1      42.532  22.247  28.261  1.00  0.00     0.010 A 
ATOM     13  C   UNL A   1      42.979  22.810  25.949  1.00  0.00     0.010 A 
ATOM     14  C   UNL A   1      42.913  23.195  27.297  1.00  0.00    -0.014 A 
BRANCH  14  15
ATOM     15  C   UNL A   1      43.261  24.571  27.736  1.00  0.00     0.031 A 
ATOM     16  C   UNL A   1      44.691  25.036  27.784  1.00  0.00     0.074 A 
ATOM     17  C   UNL A   1      42.265  25.420  28.053  1.00  0.00     0.049 A 
ATOM     18  N   UNL A   1      45.162  26.219  28.095  1.00  0.00    -0.248 NA
ATOM     19  C   UNL A   1      45.730  24.049  27.450  1.00  0.00     0.031 C 
ATOM     20  C   UNL A   1      40.837  25.089  28.043  1.00  0.00     0.029 A 
ATOM     21  N   UNL A   1      42.295  26.743  28.413  1.00  0.00    -0.354 N 
ATOM     22  C   UNL A   1      46.546  26.113  28.022  1.00  0.00     0.074 A 
ATOM     23  C   UNL A   1      46.842  24.742  27.663  1.00  0.00     0.031 C 
ATOM     24  C   UNL A   1      40.128  26.192  28.317  1.00  0.00     0.029 A 
ATOM     25  C   UNL A   1      41.048  27.288  28.593  1.00  0.00     0.049 A 
ATOM     26  H   UNL A   1      43.130  27.252  28.531  1.00  0.00     0.167 HD
ATOM     27  C   UNL A   1      47.483  27.068  28.231  1.00  0.00     0.031 A 
ATOM     28  C   UNL A   1      40.680  28.532  28.950  1.00  0.00     0.031 A 
ATOM     29  C   UNL A   1      47.185  28.433  28.584  1.00  0.00     0.049 A 
ATOM     30  C   UNL A   1      41.742  29.560  29.206  1.00  0.00     0.074 A 
ATOM     31  C   UNL A   1      48.063  29.484  28.780  1.00  0.00     0.029 A 
ATOM     32  N   UNL A   1      45.910  28.934  28.801  1.00  0.00    -0.354 N 
ATOM     33  N   UNL A   1      43.042  29.452  29.094  1.00  0.00    -0.248 NA
ATOM     34  C   UNL A   1      41.280  30.887  29.632  1.00  0.00     0.031 C 
ATOM     35  C   UNL A   1      47.326  30.605  29.176  1.00  0.00     0.029 A 
ATOM     36  C   UNL A   1      45.982  30.271  29.156  1.00  0.00     0.049 A 
ATOM     37  H   UNL A   1      45.077  28.416  28.716  1.00  0.00     0.167 HD
ATOM     38  C   UNL A   1      43.554  30.705  29.403  1.00  0.00     0.074 A 
ATOM     39  C   UNL A   1      42.420  31.560  29.690  1.00  0.00     0.031 C 
ATOM     40  C   UNL A   1      44.846  31.111  29.440  1.00  0.00     0.031 A 
BRANCH  27  41
ATOM     41  C   UNL A   1      48.929  26.663  28.121  1.00  0.00    -0.014 A 
ATOM     42  C   UNL A   1      49.606  26.671  26.889  1.00  0.00     0.009 A 
ATOM     43  C   UNL A   1      49.639  26.306  29.278  1.00  0.00     0.009 A 
ATOM     44  C   UNL A   1      50.949  26.292  26.816  1.00  0.00     0.001 A 
ATOM     45  C   UNL A   1      50.989  25.959  29.207  1.00  0.00     0.001 A 
ATOM     46  C   UNL A   1      51.640  25.941  27.975  1.00  0.00     0.000 A 
ENDBRANCH  27  41
BRANCH  28  47
ATOM     47  C   UNL A   1      39.239  28.869  29.087  1.00  0.00    -0.014 A 
ATOM     48  C   UNL A   1      38.578  28.692  30.312  1.00  0.00     0.009 A 
ATOM     49  C   UNL A   1      38.517  29.369  27.992  1.00  0.00     0.009 A 
ATOM     50  C   UNL A   1      37.217  28.982  30.429  1.00  0.00     0.001 A 
ATOM     51  C   UNL A   1      37.165  29.692  28.122  1.00  0.00     0.001 A 
ATOM     52  C   UNL A   1      36.514  29.487  29.335  1.00  0.00     0.000 A 
ENDBRANCH  28  47
BRANCH  40  53
ATOM     53  C   UNL A   1      45.096  32.561  29.752  1.00  0.00    -0.014 A 
ATOM     54  C   UNL A   1      45.198  33.024  31.074  1.00  0.00     0.009 A 
ATOM     55  C   UNL A   1      45.245  33.477  28.699  1.00  0.00     0.009 A 
ATOM     56  C   UNL A   1      45.398  34.382  31.332  1.00  0.00     0.001 A 
ATOM     57  C   UNL A   1      45.480  34.827  28.959  1.00  0.00     0.001 A 
ATOM     58  C   UNL A   1      45.543  35.280  30.275  1.00  0.00     0.000 A 
ENDBRANCH  40  53
ENDBRANCH  14  15
ENDBRANCH   7   9
ENDBRANCH   4   5
ENDBRANCH   3   4
ENDBRANCH   2   3
ENDBRANCH   1   2
BRANCH   1  59
ATOM     59  C   UNL A   1      35.586  22.923  25.401  1.00  0.00     0.021 C 
BRANCH  59  60
ATOM     60  C   UNL A   1      34.889  22.881  24.042  1.00  0.00     0.116 C 
BRANCH  60  61
ATOM     61  N   UNL A   1      33.979  21.761  23.992  1.00  0.00    -0.356 N 
ATOM     62  C   UNL A   1      32.641  21.682  24.157  1.00  0.00     0.224 C 
ATOM     63  H   UNL A   1      34.414  20.898  23.804  1.00  0.00     0.163 HD
ATOM     64  O   UNL A   1      32.161  20.550  24.088  1.00  0.00    -0.275 OA
BRANCH  62  65
ATOM     65  C   UNL A   1      31.791  22.939  24.287  1.00  0.00     0.094 C 
ATOM     66  C   UNL A   1      31.180  22.994  25.725  1.00  0.00     0.002 C 
ATOM     67  C   UNL A   1      32.484  24.320  24.173  1.00  0.00     0.094 C 
ATOM     68  C   UNL A   1      32.216  23.186  26.854  1.00  0.00     0.005 C 
ATOM     69  C   UNL A   1      30.584  24.383  25.696  1.00  0.00     0.009 C 
ATOM     70  C   UNL A   1      31.930  25.069  25.405  1.00  0.00     0.002 C 
ATOM     71  C   UNL A   1      32.729  24.616  26.638  1.00  0.00     0.005 C 
BRANCH  67  72
ATOM     72  C   UNL A   1      32.422  25.044  22.805  1.00  0.00     0.229 C 
ATOM     73  O   UNL A   1      32.512  24.336  21.786  1.00  0.00    -0.274 OA
ATOM     74  N   UNL A   1      32.103  26.349  22.582  1.00  0.00    -0.317 N 
ATOM     75  H   UNL A   1      31.775  26.537  21.673  1.00  0.00     0.170 HD
BRANCH  74  76
ATOM     76  C   UNL A   1      32.158  27.451  23.401  1.00  0.00     0.108 A 
ATOM     77  S   UNL A   1      33.662  28.229  23.560  1.00  0.00    -0.122 S 
ATOM     78  C   UNL A   1      31.108  28.237  23.895  1.00  0.00     0.078 A 
ATOM     79  C   UNL A   1      33.061  29.086  24.888  1.00  0.00     0.011 A 
ATOM     80  C   UNL A   1      31.682  29.228  24.813  1.00  0.00    -0.019 A 
ATOM     81  C   UNL A   1      33.957  29.628  25.957  1.00  0.00     0.047 C 
ATOM     82  C   UNL A   1      31.023  30.236  25.714  1.00  0.00     0.037 C 
ATOM     83  C   UNL A   1      33.098  30.088  27.141  1.00  0.00     0.006 C 
ATOM     84  C   UNL A   1      31.992  31.011  26.623  1.00  0.00     0.005 C 
BRANCH  78  85
ATOM     85  C   UNL A   1      29.736  27.899  23.460  1.00  0.00     0.254 C 
ATOM     86  O   UNL A   1      29.283  26.771  23.689  1.00  0.00    -0.269 OA
ATOM     87  N   UNL A   1      28.842  28.768  22.885  1.00  0.00    -0.349 N 
ATOM     88  H   UNL A   1      27.958  28.366  22.720  1.00  0.00     0.164 HD
BRANCH  87  89
ATOM     89  C   UNL A   1      28.930  30.152  22.472  1.00  0.00     0.082 C 
ATOM     90  C   UNL A   1      28.098  30.452  21.217  1.00  0.00     0.025 C 
ATOM     91  C   UNL A   1      28.523  31.129  23.583  1.00  0.00     0.025 C 
ATOM     92  C   UNL A   1      28.378  31.881  20.744  1.00  0.00     0.002 C 
ATOM     93  C   UNL A   1      28.762  32.580  23.162  1.00  0.00     0.002 C 
ATOM     94  C   UNL A   1      28.091  32.916  21.833  1.00  0.00     0.000 C 
ENDBRANCH  87  89
ENDBRANCH  78  85
ENDBRANCH  74  76
ENDBRANCH  67  72
ENDBRANCH  62  65
ENDBRANCH  60  61
ENDBRANCH  59  60
ENDBRANCH   1  59
TORSDOF 17
ENDMDL
