MODEL 1
REMARK VINA RESULT:      -9.1      0.000      0.000
REMARK SMILES Cc1cc(C)c2c(=O)n(CCCC(=O)NCCCCCCNC(=O)c3ccc(-c4c5nc(c(-c6ccccc6)c6ccc([nH]6)c(-c6ccccc6)c6nc(c(-c7ccccc7)c7ccc4[nH]7)C=C6)C=C5)cc3)sc2n1
REMARK SMILES IDX 18 1 17 2 16 3 15 4 13 5 14 6 12 8 11 9 10 10 9 11 1 12 2 13
REMARK SMILES IDX 3 14 75 15 4 16 74 17 5 18 6 19 73 20 7 21 8 22 19 23 20 24
REMARK SMILES IDX 21 25 22 26 23 27 24 29 25 30 26 31 72 32 27 33 71 34 28 35
REMARK SMILES IDX 29 36 30 37 65 38 31 39 70 40 64 41 66 42 32 43 69 44 63 45
REMARK SMILES IDX 62 46 33 48 55 49 40 50 54 51 41 52 44 53 53 54 67 55 42 56
REMARK SMILES IDX 43 57 52 59 68 60 45 61 34 62 35 63 39 64 36 65 38 66 37 67
REMARK SMILES IDX 56 68 57 69 61 70 58 71 60 72 59 73 46 74 47 75 51 76 48 77
REMARK SMILES IDX 50 78 49 79
REMARK H PARENT 15 7 22 28 66 47 44 58
REMARK Flexibility Score: inf
ROOT
ATOM      1  C   UNL A   1      36.842  30.977  33.070  1.00  0.00     0.002 C 
ENDROOT
BRANCH   1   2
ATOM      2  C   UNL A   1      38.348  31.190  32.894  1.00  0.00     0.021 C 
BRANCH   2   3
ATOM      3  C   UNL A   1      39.134  31.013  34.194  1.00  0.00     0.116 C 
BRANCH   3   4
ATOM      4  N   UNL A   1      38.253  30.603  35.261  1.00  0.00    -0.356 N 
ATOM      5  C   UNL A   1      38.164  31.023  36.547  1.00  0.00     0.220 C 
ATOM      6  O   UNL A   1      37.387  30.419  37.291  1.00  0.00    -0.275 OA
ATOM      7  H   UNL A   1      37.608  29.901  35.013  1.00  0.00     0.163 HD
BRANCH   5   8
ATOM      8  C   UNL A   1      38.889  32.262  37.037  1.00  0.00     0.102 C 
BRANCH   8   9
ATOM      9  C   UNL A   1      38.389  33.660  36.648  1.00  0.00     0.033 C 
BRANCH   9  10
ATOM     10  C   UNL A   1      39.280  34.666  35.898  1.00  0.00     0.139 C 
BRANCH  10  11
ATOM     11  N   UNL A   1      39.927  34.313  34.638  1.00  0.00    -0.262 N 
ATOM     12  C   UNL A   1      43.749  34.387  29.857  1.00  0.00     0.067 C 
ATOM     13  C   UNL A   1      42.506  34.398  30.696  1.00  0.00     0.039 A 
ATOM     14  C   UNL A   1      41.237  34.510  30.112  1.00  0.00     0.027 A 
ATOM     15  N   UNL A   1      42.682  34.219  32.025  1.00  0.00    -0.241 NA
ATOM     16  C   UNL A   1      40.086  34.518  30.921  1.00  0.00    -0.033 A 
ATOM     17  C   UNL A   1      41.564  34.225  32.769  1.00  0.00     0.146 A 
ATOM     18  C   UNL A   1      38.720  34.565  30.313  1.00  0.00     0.045 C 
ATOM     19  C   UNL A   1      40.284  34.434  32.294  1.00  0.00     0.081 A 
ATOM     20  S   UNL A   1      41.571  33.870  34.498  1.00  0.00    -0.035 S 
ATOM     21  C   UNL A   1      39.313  34.567  33.406  1.00  0.00     0.270 A 
ATOM     22  O   UNL A   1      38.164  34.946  33.238  1.00  0.00    -0.268 OA
ENDBRANCH  10  11
ENDBRANCH   9  10
ENDBRANCH   8   9
ENDBRANCH   5   8
ENDBRANCH   3   4
ENDBRANCH   2   3
ENDBRANCH   1   2
BRANCH   1  23
ATOM     23  C   UNL A   1      36.011  32.267  33.163  1.00  0.00     0.002 C 
BRANCH  23  24
ATOM     24  C   UNL A   1      34.866  32.411  32.149  1.00  0.00     0.021 C 
BRANCH  24  25
ATOM     25  C   UNL A   1      35.254  33.229  30.932  1.00  0.00     0.116 C 
BRANCH  25  26
ATOM     26  N   UNL A   1      34.561  32.789  29.717  1.00  0.00    -0.352 N 
ATOM     27  C   UNL A   1      35.031  31.982  28.695  1.00  0.00     0.251 C 
ATOM     28  H   UNL A   1      33.636  33.110  29.614  1.00  0.00     0.163 HD
ATOM     29  O   UNL A   1      34.484  31.939  27.610  1.00  0.00    -0.269 OA
BRANCH  27  30
ATOM     30  C   UNL A   1      36.210  31.147  28.973  1.00  0.00     0.039 A 
ATOM     31  C   UNL A   1      36.123  29.776  29.229  1.00  0.00     0.014 A 
ATOM     32  C   UNL A   1      37.439  31.793  28.944  1.00  0.00     0.014 A 
ATOM     33  C   UNL A   1      37.305  29.064  29.418  1.00  0.00     0.010 A 
ATOM     34  C   UNL A   1      38.581  31.060  28.865  1.00  0.00     0.010 A 
ATOM     35  C   UNL A   1      38.527  29.727  29.237  1.00  0.00    -0.014 A 
BRANCH  35  36
ATOM     36  C   UNL A   1      39.811  29.082  29.426  1.00  0.00     0.031 A 
ATOM     37  C   UNL A   1      40.125  28.702  30.823  1.00  0.00     0.074 A 
ATOM     38  C   UNL A   1      40.518  28.630  28.366  1.00  0.00     0.049 A 
ATOM     39  N   UNL A   1      41.093  29.138  31.554  1.00  0.00    -0.248 NA
ATOM     40  C   UNL A   1      39.188  27.816  31.534  1.00  0.00     0.031 C 
ATOM     41  C   UNL A   1      40.156  28.629  26.939  1.00  0.00     0.029 A 
ATOM     42  N   UNL A   1      41.683  27.941  28.367  1.00  0.00    -0.354 N 
ATOM     43  C   UNL A   1      40.992  28.474  32.772  1.00  0.00     0.074 A 
ATOM     44  C   UNL A   1      39.723  27.790  32.757  1.00  0.00     0.031 C 
ATOM     45  C   UNL A   1      40.954  27.767  26.266  1.00  0.00     0.029 A 
ATOM     46  C   UNL A   1      41.991  27.307  27.170  1.00  0.00     0.049 A 
ATOM     47  H   UNL A   1      42.269  27.892  29.157  1.00  0.00     0.167 HD
ATOM     48  C   UNL A   1      42.053  28.378  33.620  1.00  0.00     0.031 A 
ATOM     49  C   UNL A   1      43.014  26.444  26.963  1.00  0.00     0.031 A 
ATOM     50  C   UNL A   1      43.114  29.277  33.242  1.00  0.00     0.049 A 
ATOM     51  C   UNL A   1      43.987  26.660  28.059  1.00  0.00     0.074 A 
ATOM     52  C   UNL A   1      43.239  30.650  33.178  1.00  0.00     0.029 A 
ATOM     53  N   UNL A   1      44.112  28.770  32.443  1.00  0.00    -0.354 N 
ATOM     54  N   UNL A   1      44.658  27.766  28.209  1.00  0.00    -0.248 NA
ATOM     55  C   UNL A   1      43.851  25.843  29.255  1.00  0.00     0.031 C 
ATOM     56  C   UNL A   1      43.969  30.894  31.975  1.00  0.00     0.029 A 
ATOM     57  C   UNL A   1      44.316  29.661  31.418  1.00  0.00     0.049 A 
ATOM     58  H   UNL A   1      44.593  27.922  32.582  1.00  0.00     0.167 HD
ATOM     59  C   UNL A   1      44.643  28.006  29.576  1.00  0.00     0.074 A 
ATOM     60  C   UNL A   1      44.216  26.742  30.177  1.00  0.00     0.031 C 
ATOM     61  C   UNL A   1      44.692  29.280  30.072  1.00  0.00     0.031 A 
BRANCH  48  62
ATOM     62  C   UNL A   1      42.270  27.240  34.578  1.00  0.00    -0.014 A 
ATOM     63  C   UNL A   1      43.048  26.143  34.166  1.00  0.00     0.009 A 
ATOM     64  C   UNL A   1      41.541  27.085  35.773  1.00  0.00     0.009 A 
ATOM     65  C   UNL A   1      43.050  24.940  34.884  1.00  0.00     0.001 A 
ATOM     66  C   UNL A   1      41.571  25.901  36.513  1.00  0.00     0.001 A 
ATOM     67  C   UNL A   1      42.308  24.818  36.054  1.00  0.00     0.000 A 
ENDBRANCH  48  62
BRANCH  49  68
ATOM     68  C   UNL A   1      43.063  25.247  26.097  1.00  0.00    -0.014 A 
ATOM     69  C   UNL A   1      44.099  25.082  25.165  1.00  0.00     0.009 A 
ATOM     70  C   UNL A   1      42.270  24.125  26.402  1.00  0.00     0.009 A 
ATOM     71  C   UNL A   1      44.366  23.827  24.599  1.00  0.00     0.001 A 
ATOM     72  C   UNL A   1      42.536  22.872  25.837  1.00  0.00     0.001 A 
ATOM     73  C   UNL A   1      43.597  22.720  24.950  1.00  0.00     0.000 A 
ENDBRANCH  49  68
BRANCH  61  74
ATOM     74  C   UNL A   1      44.920  30.407  29.084  1.00  0.00    -0.014 A 
ATOM     75  C   UNL A   1      46.186  30.972  28.836  1.00  0.00     0.009 A 
ATOM     76  C   UNL A   1      43.852  30.813  28.274  1.00  0.00     0.009 A 
ATOM     77  C   UNL A   1      46.367  31.937  27.838  1.00  0.00     0.001 A 
ATOM     78  C   UNL A   1      44.036  31.762  27.263  1.00  0.00     0.001 A 
ATOM     79  C   UNL A   1      45.290  32.329  27.050  1.00  0.00     0.000 A 
ENDBRANCH  61  74
ENDBRANCH  35  36
ENDBRANCH  27  30
ENDBRANCH  25  26
ENDBRANCH  24  25
ENDBRANCH  23  24
ENDBRANCH   1  23
TORSDOF 16
ENDMDL
MODEL 2
REMARK VINA RESULT:      -8.9      2.848      5.433
REMARK SMILES Cc1cc(C)c2c(=O)n(CCCC(=O)NCCCCCCNC(=O)c3ccc(-c4c5nc(c(-c6ccccc6)c6ccc([nH]6)c(-c6ccccc6)c6nc(c(-c7ccccc7)c7ccc4[nH]7)C=C6)C=C5)cc3)sc2n1
REMARK SMILES IDX 18 1 17 2 16 3 15 4 13 5 14 6 12 8 11 9 10 10 9 11 1 12 2 13
REMARK SMILES IDX 3 14 75 15 4 16 74 17 5 18 6 19 73 20 7 21 8 22 19 23 20 24
REMARK SMILES IDX 21 25 22 26 23 27 24 29 25 30 26 31 72 32 27 33 71 34 28 35
REMARK SMILES IDX 29 36 30 37 65 38 31 39 70 40 64 41 66 42 32 43 69 44 63 45
REMARK SMILES IDX 62 46 33 48 55 49 40 50 54 51 41 52 44 53 53 54 67 55 42 56
REMARK SMILES IDX 43 57 52 59 68 60 45 61 34 62 35 63 39 64 36 65 38 66 37 67
REMARK SMILES IDX 56 68 57 69 61 70 58 71 60 72 59 73 46 74 47 75 51 76 48 77
REMARK SMILES IDX 50 78 49 79
REMARK H PARENT 15 7 22 28 66 47 44 58
REMARK Flexibility Score: inf
ROOT
ATOM      1  C   UNL A   1      36.637  33.964  34.726  1.00  0.00     0.002 C 
ENDROOT
BRANCH   1   2
ATOM      2  C   UNL A   1      35.195  34.481  34.709  1.00  0.00     0.021 C 
BRANCH   2   3
ATOM      3  C   UNL A   1      34.879  35.336  33.482  1.00  0.00     0.116 C 
BRANCH   3   4
ATOM      4  N   UNL A   1      33.502  35.768  33.514  1.00  0.00    -0.356 N 
ATOM      5  C   UNL A   1      32.804  36.564  32.666  1.00  0.00     0.220 C 
ATOM      6  O   UNL A   1      31.654  36.871  32.991  1.00  0.00    -0.275 OA
ATOM      7  H   UNL A   1      32.983  35.429  34.279  1.00  0.00     0.163 HD
BRANCH   5   8
ATOM      8  C   UNL A   1      33.352  36.966  31.311  1.00  0.00     0.102 C 
BRANCH   8   9
ATOM      9  C   UNL A   1      32.700  36.446  30.023  1.00  0.00     0.033 C 
BRANCH   9  10
ATOM     10  C   UNL A   1      33.529  35.842  28.875  1.00  0.00     0.139 C 
BRANCH  10  11
ATOM     11  N   UNL A   1      33.937  34.441  28.891  1.00  0.00    -0.262 N 
ATOM     12  C   UNL A   1      37.151  29.322  27.926  1.00  0.00     0.067 C 
ATOM     13  C   UNL A   1      36.042  30.330  27.960  1.00  0.00     0.039 A 
ATOM     14  C   UNL A   1      34.786  30.046  27.404  1.00  0.00     0.027 A 
ATOM     15  N   UNL A   1      36.302  31.482  28.619  1.00  0.00    -0.241 NA
ATOM     16  C   UNL A   1      33.762  31.010  27.449  1.00  0.00    -0.033 A 
ATOM     17  C   UNL A   1      35.302  32.377  28.649  1.00  0.00     0.146 A 
ATOM     18  C   UNL A   1      32.395  30.701  26.925  1.00  0.00     0.045 C 
ATOM     19  C   UNL A   1      34.072  32.228  28.039  1.00  0.00     0.081 A 
ATOM     20  S   UNL A   1      35.397  33.878  29.575  1.00  0.00    -0.035 S 
ATOM     21  C   UNL A   1      33.283  33.481  28.110  1.00  0.00     0.270 A 
ATOM     22  O   UNL A   1      32.251  33.648  27.477  1.00  0.00    -0.268 OA
ENDBRANCH  10  11
ENDBRANCH   9  10
ENDBRANCH   8   9
ENDBRANCH   5   8
ENDBRANCH   3   4
ENDBRANCH   2   3
ENDBRANCH   1   2
BRANCH   1  23
ATOM     23  C   UNL A   1      36.846  32.601  34.046  1.00  0.00     0.002 C 
BRANCH  23  24
ATOM     24  C   UNL A   1      37.732  32.598  32.792  1.00  0.00     0.021 C 
BRANCH  24  25
ATOM     25  C   UNL A   1      38.993  33.425  32.957  1.00  0.00     0.116 C 
BRANCH  25  26
ATOM     26  N   UNL A   1      39.342  34.163  31.738  1.00  0.00    -0.352 N 
ATOM     27  C   UNL A   1      40.179  33.782  30.704  1.00  0.00     0.251 C 
ATOM     28  H   UNL A   1      38.925  35.049  31.644  1.00  0.00     0.163 HD
ATOM     29  O   UNL A   1      40.627  34.588  29.912  1.00  0.00    -0.269 OA
BRANCH  27  30
ATOM     30  C   UNL A   1      40.493  32.349  30.574  1.00  0.00     0.039 A 
ATOM     31  C   UNL A   1      39.524  31.388  30.273  1.00  0.00     0.014 A 
ATOM     32  C   UNL A   1      41.825  31.995  30.741  1.00  0.00     0.014 A 
ATOM     33  C   UNL A   1      39.935  30.068  30.109  1.00  0.00     0.010 A 
ATOM     34  C   UNL A   1      42.252  30.774  30.325  1.00  0.00     0.010 A 
ATOM     35  C   UNL A   1      41.306  29.779  30.145  1.00  0.00    -0.014 A 
BRANCH  35  36
ATOM     36  C   UNL A   1      41.835  28.438  30.002  1.00  0.00     0.031 A 
ATOM     37  C   UNL A   1      42.506  27.895  31.205  1.00  0.00     0.074 A 
ATOM     38  C   UNL A   1      41.489  27.668  28.945  1.00  0.00     0.049 A 
ATOM     39  N   UNL A   1      43.743  27.550  31.324  1.00  0.00    -0.248 NA
ATOM     40  C   UNL A   1      41.743  27.830  32.463  1.00  0.00     0.031 C 
ATOM     41  C   UNL A   1      40.547  27.960  27.851  1.00  0.00     0.029 A 
ATOM     42  N   UNL A   1      41.823  26.380  28.700  1.00  0.00    -0.354 N 
ATOM     43  C   UNL A   1      43.894  27.077  32.623  1.00  0.00     0.074 A 
ATOM     44  C   UNL A   1      42.676  27.411  33.319  1.00  0.00     0.031 C 
ATOM     45  C   UNL A   1      40.211  26.811  27.220  1.00  0.00     0.029 A 
ATOM     46  C   UNL A   1      41.048  25.746  27.737  1.00  0.00     0.049 A 
ATOM     47  H   UNL A   1      42.560  25.925  29.169  1.00  0.00     0.167 HD
ATOM     48  C   UNL A   1      44.934  26.269  32.970  1.00  0.00     0.031 A 
ATOM     49  C   UNL A   1      41.085  24.429  27.421  1.00  0.00     0.031 A 
ATOM     50  C   UNL A   1      45.950  26.249  31.949  1.00  0.00     0.049 A 
ATOM     51  C   UNL A   1      42.378  23.904  27.922  1.00  0.00     0.074 A 
ATOM     52  C   UNL A   1      46.808  27.192  31.420  1.00  0.00     0.029 A 
ATOM     53  N   UNL A   1      45.886  25.236  31.020  1.00  0.00    -0.354 N 
ATOM     54  N   UNL A   1      43.531  24.278  27.447  1.00  0.00    -0.248 NA
ATOM     55  C   UNL A   1      42.405  23.341  29.262  1.00  0.00     0.031 C 
ATOM     56  C   UNL A   1      46.816  26.933  30.016  1.00  0.00     0.029 A 
ATOM     57  C   UNL A   1      46.031  25.803  29.777  1.00  0.00     0.049 A 
ATOM     58  H   UNL A   1      45.761  24.278  31.212  1.00  0.00     0.167 HD
ATOM     59  C   UNL A   1      44.344  24.417  28.563  1.00  0.00     0.074 A 
ATOM     60  C   UNL A   1      43.627  23.736  29.641  1.00  0.00     0.031 C 
ATOM     61  C   UNL A   1      45.374  25.317  28.580  1.00  0.00     0.031 A 
BRANCH  48  62
ATOM     62  C   UNL A   1      44.877  25.241  34.065  1.00  0.00    -0.014 A 
ATOM     63  C   UNL A   1      46.046  24.961  34.796  1.00  0.00     0.009 A 
ATOM     64  C   UNL A   1      43.793  24.361  34.244  1.00  0.00     0.009 A 
ATOM     65  C   UNL A   1      46.138  23.830  35.618  1.00  0.00     0.001 A 
ATOM     66  C   UNL A   1      43.868  23.254  35.094  1.00  0.00     0.001 A 
ATOM     67  C   UNL A   1      45.051  22.975  35.762  1.00  0.00     0.000 A 
ENDBRANCH  48  62
BRANCH  49  68
ATOM     68  C   UNL A   1      39.978  23.535  27.021  1.00  0.00    -0.014 A 
ATOM     69  C   UNL A   1      38.746  24.065  26.607  1.00  0.00     0.009 A 
ATOM     70  C   UNL A   1      40.234  22.178  26.749  1.00  0.00     0.009 A 
ATOM     71  C   UNL A   1      37.825  23.280  25.899  1.00  0.00     0.001 A 
ATOM     72  C   UNL A   1      39.314  21.394  26.041  1.00  0.00     0.001 A 
ATOM     73  C   UNL A   1      38.118  21.951  25.600  1.00  0.00     0.000 A 
ENDBRANCH  49  68
BRANCH  61  74
ATOM     74  C   UNL A   1      45.692  26.042  27.288  1.00  0.00    -0.014 A 
ATOM     75  C   UNL A   1      46.683  25.613  26.385  1.00  0.00     0.009 A 
ATOM     76  C   UNL A   1      44.870  27.107  26.899  1.00  0.00     0.009 A 
ATOM     77  C   UNL A   1      46.869  26.251  25.153  1.00  0.00     0.001 A 
ATOM     78  C   UNL A   1      45.041  27.734  25.660  1.00  0.00     0.001 A 
ATOM     79  C   UNL A   1      46.044  27.312  24.790  1.00  0.00     0.000 A 
ENDBRANCH  61  74
ENDBRANCH  35  36
ENDBRANCH  27  30
ENDBRANCH  25  26
ENDBRANCH  24  25
ENDBRANCH  23  24
ENDBRANCH   1  23
TORSDOF 16
ENDMDL
MODEL 3
REMARK VINA RESULT:      -8.9      5.061     10.785
REMARK SMILES Cc1cc(C)c2c(=O)n(CCCC(=O)NCCCCCCNC(=O)c3ccc(-c4c5nc(c(-c6ccccc6)c6ccc([nH]6)c(-c6ccccc6)c6nc(c(-c7ccccc7)c7ccc4[nH]7)C=C6)C=C5)cc3)sc2n1
REMARK SMILES IDX 18 1 17 2 16 3 15 4 13 5 14 6 12 8 11 9 10 10 9 11 1 12 2 13
REMARK SMILES IDX 3 14 75 15 4 16 74 17 5 18 6 19 73 20 7 21 8 22 19 23 20 24
REMARK SMILES IDX 21 25 22 26 23 27 24 29 25 30 26 31 72 32 27 33 71 34 28 35
REMARK SMILES IDX 29 36 30 37 65 38 31 39 70 40 64 41 66 42 32 43 69 44 63 45
REMARK SMILES IDX 62 46 33 48 55 49 40 50 54 51 41 52 44 53 53 54 67 55 42 56
REMARK SMILES IDX 43 57 52 59 68 60 45 61 34 62 35 63 39 64 36 65 38 66 37 67
REMARK SMILES IDX 56 68 57 69 61 70 58 71 60 72 59 73 46 74 47 75 51 76 48 77
REMARK SMILES IDX 50 78 49 79
REMARK H PARENT 15 7 22 28 66 47 44 58
REMARK Flexibility Score: inf
ROOT
ATOM      1  C   UNL A   1      39.818  21.528  26.514  1.00  0.00     0.002 C 
ENDROOT
BRANCH   1   2
ATOM      2  C   UNL A   1      39.346  22.985  26.519  1.00  0.00     0.021 C 
BRANCH   2   3
ATOM      3  C   UNL A   1      38.046  23.197  25.742  1.00  0.00     0.116 C 
BRANCH   3   4
ATOM      4  N   UNL A   1      37.056  22.228  26.147  1.00  0.00    -0.356 N 
ATOM      5  C   UNL A   1      35.882  21.866  25.572  1.00  0.00     0.220 C 
ATOM      6  O   UNL A   1      35.162  21.081  26.193  1.00  0.00    -0.275 OA
ATOM      7  H   UNL A   1      37.269  21.748  26.981  1.00  0.00     0.163 HD
BRANCH   5   8
ATOM      8  C   UNL A   1      35.512  22.302  24.167  1.00  0.00     0.102 C 
BRANCH   8   9
ATOM      9  C   UNL A   1      34.254  23.146  23.922  1.00  0.00     0.033 C 
BRANCH   9  10
ATOM     10  C   UNL A   1      34.332  24.603  23.432  1.00  0.00     0.139 C 
BRANCH  10  11
ATOM     11  N   UNL A   1      33.162  25.476  23.460  1.00  0.00    -0.262 N 
ATOM     12  C   UNL A   1      29.149  29.853  21.975  1.00  0.00     0.067 C 
ATOM     13  C   UNL A   1      30.133  29.010  22.729  1.00  0.00     0.039 A 
ATOM     14  C   UNL A   1      30.515  29.336  24.039  1.00  0.00     0.027 A 
ATOM     15  N   UNL A   1      30.564  27.891  22.104  1.00  0.00    -0.241 NA
ATOM     16  C   UNL A   1      31.440  28.528  24.725  1.00  0.00    -0.033 A 
ATOM     17  C   UNL A   1      31.440  27.139  22.788  1.00  0.00     0.146 A 
ATOM     18  C   UNL A   1      31.805  28.819  26.146  1.00  0.00     0.045 C 
ATOM     19  C   UNL A   1      31.952  27.436  24.036  1.00  0.00     0.081 A 
ATOM     20  S   UNL A   1      32.011  25.574  22.202  1.00  0.00    -0.035 S 
ATOM     21  C   UNL A   1      33.035  26.496  24.410  1.00  0.00     0.270 A 
ATOM     22  O   UNL A   1      33.762  26.676  25.376  1.00  0.00    -0.268 OA
ENDBRANCH  10  11
ENDBRANCH   9  10
ENDBRANCH   8   9
ENDBRANCH   5   8
ENDBRANCH   3   4
ENDBRANCH   2   3
ENDBRANCH   1   2
BRANCH   1  23
ATOM     23  C   UNL A   1      40.842  21.174  27.605  1.00  0.00     0.002 C 
BRANCH  23  24
ATOM     24  C   UNL A   1      41.889  20.114  27.234  1.00  0.00     0.021 C 
BRANCH  24  25
ATOM     25  C   UNL A   1      42.038  19.930  25.736  1.00  0.00     0.116 C 
BRANCH  25  26
ATOM     26  N   UNL A   1      43.439  19.800  25.324  1.00  0.00    -0.352 N 
ATOM     27  C   UNL A   1      44.360  20.798  25.054  1.00  0.00     0.251 C 
ATOM     28  H   UNL A   1      43.770  18.878  25.226  1.00  0.00     0.163 HD
ATOM     29  O   UNL A   1      45.382  20.576  24.433  1.00  0.00    -0.269 OA
BRANCH  27  30
ATOM     30  C   UNL A   1      44.074  22.146  25.571  1.00  0.00     0.039 A 
ATOM     31  C   UNL A   1      43.208  23.034  24.928  1.00  0.00     0.014 A 
ATOM     32  C   UNL A   1      44.697  22.491  26.763  1.00  0.00     0.014 A 
ATOM     33  C   UNL A   1      42.956  24.263  25.532  1.00  0.00     0.010 A 
ATOM     34  C   UNL A   1      44.248  23.562  27.470  1.00  0.00     0.010 A 
ATOM     35  C   UNL A   1      43.491  24.511  26.804  1.00  0.00    -0.014 A 
BRANCH  35  36
ATOM     36  C   UNL A   1      43.301  25.761  27.511  1.00  0.00     0.031 A 
ATOM     37  C   UNL A   1      44.257  26.836  27.156  1.00  0.00     0.074 A 
ATOM     38  C   UNL A   1      42.174  25.988  28.222  1.00  0.00     0.049 A 
ATOM     39  N   UNL A   1      45.115  27.408  27.929  1.00  0.00    -0.248 NA
ATOM     40  C   UNL A   1      44.352  27.250  25.746  1.00  0.00     0.031 C 
ATOM     41  C   UNL A   1      40.981  25.137  28.370  1.00  0.00     0.029 A 
ATOM     42  N   UNL A   1      41.803  27.118  28.869  1.00  0.00    -0.354 N 
ATOM     43  C   UNL A   1      45.761  28.366  27.156  1.00  0.00     0.074 A 
ATOM     44  C   UNL A   1      45.360  28.123  25.792  1.00  0.00     0.031 C 
ATOM     45  C   UNL A   1      39.951  25.874  28.846  1.00  0.00     0.029 A 
ATOM     46  C   UNL A   1      40.457  27.183  29.208  1.00  0.00     0.049 A 
ATOM     47  H   UNL A   1      42.438  27.838  29.083  1.00  0.00     0.167 HD
ATOM     48  C   UNL A   1      46.423  29.412  27.724  1.00  0.00     0.031 A 
ATOM     49  C   UNL A   1      39.815  28.260  29.722  1.00  0.00     0.031 A 
ATOM     50  C   UNL A   1      46.614  29.210  29.138  1.00  0.00     0.049 A 
ATOM     51  C   UNL A   1      40.856  29.153  30.284  1.00  0.00     0.074 A 
ATOM     52  C   UNL A   1      47.321  28.299  29.897  1.00  0.00     0.029 A 
ATOM     53  N   UNL A   1      45.675  29.756  29.982  1.00  0.00    -0.354 N 
ATOM     54  N   UNL A   1      41.598  28.830  31.304  1.00  0.00    -0.248 NA
ATOM     55  C   UNL A   1      41.399  30.187  29.417  1.00  0.00     0.031 C 
ATOM     56  C   UNL A   1      46.459  27.990  30.993  1.00  0.00     0.029 A 
ATOM     57  C   UNL A   1      45.316  28.786  30.886  1.00  0.00     0.049 A 
ATOM     58  H   UNL A   1      45.325  30.675  29.946  1.00  0.00     0.167 HD
ATOM     59  C   UNL A   1      42.869  29.277  30.972  1.00  0.00     0.074 A 
ATOM     60  C   UNL A   1      42.666  30.188  29.845  1.00  0.00     0.031 C 
ATOM     61  C   UNL A   1      43.987  28.647  31.446  1.00  0.00     0.031 A 
BRANCH  48  62
ATOM     62  C   UNL A   1      46.593  30.757  27.076  1.00  0.00    -0.014 A 
ATOM     63  C   UNL A   1      47.866  31.357  27.077  1.00  0.00     0.009 A 
ATOM     64  C   UNL A   1      45.511  31.570  26.686  1.00  0.00     0.009 A 
ATOM     65  C   UNL A   1      48.034  32.710  26.756  1.00  0.00     0.001 A 
ATOM     66  C   UNL A   1      45.680  32.910  26.328  1.00  0.00     0.001 A 
ATOM     67  C   UNL A   1      46.941  33.487  26.387  1.00  0.00     0.000 A 
ENDBRANCH  48  62
BRANCH  49  68
ATOM     68  C   UNL A   1      38.431  28.723  29.482  1.00  0.00    -0.014 A 
ATOM     69  C   UNL A   1      37.592  29.053  30.558  1.00  0.00     0.009 A 
ATOM     70  C   UNL A   1      38.042  29.135  28.195  1.00  0.00     0.009 A 
ATOM     71  C   UNL A   1      36.432  29.815  30.359  1.00  0.00     0.001 A 
ATOM     72  C   UNL A   1      36.883  29.896  27.996  1.00  0.00     0.001 A 
ATOM     73  C   UNL A   1      36.089  30.252  29.081  1.00  0.00     0.000 A 
ENDBRANCH  49  68
BRANCH  61  74
ATOM     74  C   UNL A   1      43.789  27.545  32.467  1.00  0.00    -0.014 A 
ATOM     75  C   UNL A   1      43.938  26.177  32.165  1.00  0.00     0.009 A 
ATOM     76  C   UNL A   1      43.586  27.901  33.806  1.00  0.00     0.009 A 
ATOM     77  C   UNL A   1      43.851  25.200  33.163  1.00  0.00     0.001 A 
ATOM     78  C   UNL A   1      43.518  26.927  34.808  1.00  0.00     0.001 A 
ATOM     79  C   UNL A   1      43.643  25.578  34.487  1.00  0.00     0.000 A 
ENDBRANCH  61  74
ENDBRANCH  35  36
ENDBRANCH  27  30
ENDBRANCH  25  26
ENDBRANCH  24  25
ENDBRANCH  23  24
ENDBRANCH   1  23
TORSDOF 16
ENDMDL
