MODEL 1
REMARK VINA RESULT:     -11.2      0.000      0.000
REMARK SMILES C[C@]1(C(=O)NCCCCCCNC(=O)c2ccc(-c3c4nc(c(-c5ccccc5)c5ccc([nH]5)c(-c5ccccc5)c5nc(c(-c6ccccc6)c6ccc3[nH]6)C=C5)C=C4)cc2)COC[C@H]1Nc1ccc2nnnn2n1
REMARK SMILES IDX 8 1 7 2 6 3 5 4 3 5 4 6 2 8 1 9 63 10 66 11 64 12 65 13
REMARK SMILES IDX 67 14 68 16 69 17 76 18 70 19 75 20 71 21 74 22 72 23 73 24
REMARK SMILES IDX 9 25 10 26 11 27 12 28 13 29 14 31 15 32 16 33 62 34 17 35
REMARK SMILES IDX 61 36 18 37 19 38 20 39 55 40 21 41 60 42 54 43 56 44 22 45
REMARK SMILES IDX 59 46 53 47 52 48 23 50 45 51 30 52 44 53 31 54 34 55 43 56
REMARK SMILES IDX 57 57 32 58 33 59 42 61 58 62 35 63 24 64 25 65 29 66 26 67
REMARK SMILES IDX 28 68 27 69 46 70 47 71 51 72 48 73 50 74 49 75 36 76 37 77
REMARK SMILES IDX 41 78 38 79 40 80 39 81
REMARK H PARENT 5 7 67 15 12 30 56 49 34 60
REMARK Flexibility Score: inf
ROOT
ATOM      1  C   UNL A   1      32.850  29.921  27.322  1.00  0.00     0.002 C 
ENDROOT
BRANCH   1   2
ATOM      2  C   UNL A   1      32.970  28.398  27.232  1.00  0.00     0.021 C 
BRANCH   2   3
ATOM      3  C   UNL A   1      31.967  27.669  26.337  1.00  0.00     0.116 C 
BRANCH   3   4
ATOM      4  N   UNL A   1      31.483  26.430  26.908  1.00  0.00    -0.355 N 
ATOM      5  C   UNL A   1      31.591  25.140  26.496  1.00  0.00     0.230 C 
ATOM      6  O   UNL A   1      31.098  24.294  27.252  1.00  0.00    -0.274 OA
ATOM      7  H   UNL A   1      30.985  26.543  27.749  1.00  0.00     0.163 HD
BRANCH   5   8
ATOM      8  C   UNL A   1      32.244  24.725  25.172  1.00  0.00     0.092 C 
ATOM      9  C   UNL A   1      33.671  25.291  24.991  1.00  0.00     0.026 C 
ATOM     10  C   UNL A   1      32.356  23.191  25.140  1.00  0.00     0.179 C 
ATOM     11  C   UNL A   1      31.403  24.997  23.919  1.00  0.00     0.124 C 
ATOM     12  O   UNL A   1      32.388  22.820  23.755  1.00  0.00    -0.378 OA
ATOM     13  C   UNL A   1      31.491  23.708  23.086  1.00  0.00     0.186 C 
BRANCH  11  14
ATOM     14  N   UNL A   1      29.997  25.379  24.154  1.00  0.00    -0.362 N 
ATOM     15  H   UNL A   1      29.424  24.866  24.768  1.00  0.00     0.162 HD
BRANCH  14  16
ATOM     16  C   UNL A   1      29.518  26.481  23.482  1.00  0.00     0.149 A 
ATOM     17  C   UNL A   1      30.495  27.382  22.803  1.00  0.00     0.053 A 
ATOM     18  N   UNL A   1      28.265  26.804  23.613  1.00  0.00    -0.129 NA
ATOM     19  C   UNL A   1      30.334  28.691  23.045  1.00  0.00     0.057 A 
ATOM     20  N   UNL A   1      28.038  28.100  23.295  1.00  0.00    -0.108 N 
ATOM     21  C   UNL A   1      28.984  29.098  23.151  1.00  0.00     0.200 A 
ATOM     22  N   UNL A   1      26.819  28.649  23.314  1.00  0.00    -0.022 NA
ATOM     23  N   UNL A   1      28.358  30.247  23.028  1.00  0.00    -0.107 NA
ATOM     24  N   UNL A   1      27.016  29.951  23.141  1.00  0.00    -0.022 NA
ENDBRANCH  14  16
ENDBRANCH  11  14
ENDBRANCH   5   8
ENDBRANCH   3   4
ENDBRANCH   2   3
ENDBRANCH   1   2
BRANCH   1  25
ATOM     25  C   UNL A   1      31.700  30.565  26.550  1.00  0.00     0.002 C 
BRANCH  25  26
ATOM     26  C   UNL A   1      31.443  32.045  26.839  1.00  0.00     0.021 C 
BRANCH  26  27
ATOM     27  C   UNL A   1      32.682  32.927  26.965  1.00  0.00     0.116 C 
BRANCH  27  28
ATOM     28  N   UNL A   1      32.454  34.125  27.762  1.00  0.00    -0.352 N 
ATOM     29  C   UNL A   1      33.177  34.604  28.805  1.00  0.00     0.251 C 
ATOM     30  H   UNL A   1      31.667  34.660  27.508  1.00  0.00     0.163 HD
ATOM     31  O   UNL A   1      32.745  35.599  29.454  1.00  0.00    -0.269 OA
BRANCH  29  32
ATOM     32  C   UNL A   1      34.442  33.983  29.228  1.00  0.00     0.039 A 
ATOM     33  C   UNL A   1      34.443  33.103  30.314  1.00  0.00     0.014 A 
ATOM     34  C   UNL A   1      35.643  34.276  28.569  1.00  0.00     0.014 A 
ATOM     35  C   UNL A   1      35.629  32.482  30.712  1.00  0.00     0.010 A 
ATOM     36  C   UNL A   1      36.812  33.606  28.924  1.00  0.00     0.010 A 
ATOM     37  C   UNL A   1      36.822  32.711  30.006  1.00  0.00    -0.014 A 
BRANCH  37  38
ATOM     38  C   UNL A   1      38.090  32.049  30.403  1.00  0.00     0.031 A 
ATOM     39  C   UNL A   1      39.006  32.713  31.396  1.00  0.00     0.074 A 
ATOM     40  C   UNL A   1      38.446  30.879  29.837  1.00  0.00     0.049 A 
ATOM     41  N   UNL A   1      40.182  32.324  31.823  1.00  0.00    -0.248 NA
ATOM     42  C   UNL A   1      38.552  33.990  31.968  1.00  0.00     0.031 C 
ATOM     43  C   UNL A   1      37.664  30.145  28.840  1.00  0.00     0.029 A 
ATOM     44  N   UNL A   1      39.565  30.105  30.016  1.00  0.00    -0.354 N 
ATOM     45  C   UNL A   1      40.615  33.320  32.692  1.00  0.00     0.074 A 
ATOM     46  C   UNL A   1      39.597  34.347  32.700  1.00  0.00     0.031 C 
ATOM     47  C   UNL A   1      38.318  29.018  28.513  1.00  0.00     0.029 A 
ATOM     48  C   UNL A   1      39.577  28.966  29.247  1.00  0.00     0.049 A 
ATOM     49  H   UNL A   1      40.292  30.344  30.638  1.00  0.00     0.167 HD
ATOM     50  C   UNL A   1      41.750  33.368  33.429  1.00  0.00     0.031 A 
ATOM     51  C   UNL A   1      40.501  27.993  29.142  1.00  0.00     0.031 A 
ATOM     52  C   UNL A   1      42.753  32.338  33.441  1.00  0.00     0.049 A 
ATOM     53  C   UNL A   1      41.754  28.072  29.971  1.00  0.00     0.074 A 
ATOM     54  C   UNL A   1      43.910  32.271  34.199  1.00  0.00     0.029 A 
ATOM     55  N   UNL A   1      42.718  31.195  32.660  1.00  0.00    -0.354 N 
ATOM     56  N   UNL A   1      42.119  28.991  30.833  1.00  0.00    -0.248 NA
ATOM     57  C   UNL A   1      42.717  26.972  29.820  1.00  0.00     0.031 C 
ATOM     58  C   UNL A   1      44.596  31.105  33.845  1.00  0.00     0.029 A 
ATOM     59  C   UNL A   1      43.842  30.424  32.904  1.00  0.00     0.049 A 
ATOM     60  H   UNL A   1      42.001  30.965  32.025  1.00  0.00     0.167 HD
ATOM     61  C   UNL A   1      43.333  28.562  31.351  1.00  0.00     0.074 A 
ATOM     62  C   UNL A   1      43.639  27.297  30.716  1.00  0.00     0.031 C 
ATOM     63  C   UNL A   1      44.125  29.162  32.272  1.00  0.00     0.031 A 
BRANCH  50  64
ATOM     64  C   UNL A   1      41.968  34.583  34.288  1.00  0.00    -0.014 A 
ATOM     65  C   UNL A   1      42.629  35.716  33.790  1.00  0.00     0.009 A 
ATOM     66  C   UNL A   1      41.467  34.609  35.599  1.00  0.00     0.009 A 
ATOM     67  C   UNL A   1      42.815  36.839  34.599  1.00  0.00     0.001 A 
ATOM     68  C   UNL A   1      41.631  35.744  36.396  1.00  0.00     0.001 A 
ATOM     69  C   UNL A   1      42.311  36.854  35.898  1.00  0.00     0.000 A 
ENDBRANCH  50  64
BRANCH  51  70
ATOM     70  C   UNL A   1      40.279  26.844  28.227  1.00  0.00    -0.014 A 
ATOM     71  C   UNL A   1      40.760  26.881  26.908  1.00  0.00     0.009 A 
ATOM     72  C   UNL A   1      39.567  25.714  28.657  1.00  0.00     0.009 A 
ATOM     73  C   UNL A   1      40.504  25.826  26.031  1.00  0.00     0.001 A 
ATOM     74  C   UNL A   1      39.337  24.647  27.785  1.00  0.00     0.001 A 
ATOM     75  C   UNL A   1      39.796  24.708  26.470  1.00  0.00     0.000 A 
ENDBRANCH  51  70
BRANCH  63  76
ATOM     76  C   UNL A   1      45.374  28.437  32.684  1.00  0.00    -0.014 A 
ATOM     77  C   UNL A   1      45.365  27.503  33.732  1.00  0.00     0.009 A 
ATOM     78  C   UNL A   1      46.569  28.664  31.983  1.00  0.00     0.009 A 
ATOM     79  C   UNL A   1      46.538  26.836  34.090  1.00  0.00     0.001 A 
ATOM     80  C   UNL A   1      47.733  27.975  32.326  1.00  0.00     0.001 A 
ATOM     81  C   UNL A   1      47.718  27.068  33.384  1.00  0.00     0.000 A 
ENDBRANCH  63  76
ENDBRANCH  37  38
ENDBRANCH  29  32
ENDBRANCH  27  28
ENDBRANCH  26  27
ENDBRANCH  25  26
ENDBRANCH   1  25
TORSDOF 15
ENDMDL
MODEL 2
REMARK VINA RESULT:     -11.2      4.005      9.159
REMARK SMILES C[C@]1(C(=O)NCCCCCCNC(=O)c2ccc(-c3c4nc(c(-c5ccccc5)c5ccc([nH]5)c(-c5ccccc5)c5nc(c(-c6ccccc6)c6ccc3[nH]6)C=C5)C=C4)cc2)COC[C@H]1Nc1ccc2nnnn2n1
REMARK SMILES IDX 8 1 7 2 6 3 5 4 3 5 4 6 2 8 1 9 63 10 66 11 64 12 65 13
REMARK SMILES IDX 67 14 68 16 69 17 76 18 70 19 75 20 71 21 74 22 72 23 73 24
REMARK SMILES IDX 9 25 10 26 11 27 12 28 13 29 14 31 15 32 16 33 62 34 17 35
REMARK SMILES IDX 61 36 18 37 19 38 20 39 55 40 21 41 60 42 54 43 56 44 22 45
REMARK SMILES IDX 59 46 53 47 52 48 23 50 45 51 30 52 44 53 31 54 34 55 43 56
REMARK SMILES IDX 57 57 32 58 33 59 42 61 58 62 35 63 24 64 25 65 29 66 26 67
REMARK SMILES IDX 28 68 27 69 46 70 47 71 51 72 48 73 50 74 49 75 36 76 37 77
REMARK SMILES IDX 41 78 38 79 40 80 39 81
REMARK H PARENT 5 7 67 15 12 30 56 49 34 60
REMARK Flexibility Score: inf
ROOT
ATOM      1  C   UNL A   1      37.931  22.583  25.503  1.00  0.00     0.002 C 
ENDROOT
BRANCH   1   2
ATOM      2  C   UNL A   1      36.944  23.654  25.971  1.00  0.00     0.021 C 
BRANCH   2   3
ATOM      3  C   UNL A   1      35.494  23.522  25.503  1.00  0.00     0.116 C 
BRANCH   3   4
ATOM      4  N   UNL A   1      35.274  24.030  24.165  1.00  0.00    -0.355 N 
ATOM      5  C   UNL A   1      34.174  24.553  23.565  1.00  0.00     0.230 C 
ATOM      6  O   UNL A   1      34.335  24.948  22.403  1.00  0.00    -0.274 OA
ATOM      7  H   UNL A   1      36.068  23.988  23.584  1.00  0.00     0.163 HD
BRANCH   5   8
ATOM      8  C   UNL A   1      32.800  24.639  24.241  1.00  0.00     0.092 C 
ATOM      9  C   UNL A   1      32.873  25.071  25.723  1.00  0.00     0.026 C 
ATOM     10  C   UNL A   1      31.954  25.690  23.501  1.00  0.00     0.179 C 
ATOM     11  C   UNL A   1      31.927  23.387  24.096  1.00  0.00     0.124 C 
ATOM     12  O   UNL A   1      30.584  25.336  23.731  1.00  0.00    -0.378 OA
ATOM     13  C   UNL A   1      30.534  23.908  23.707  1.00  0.00     0.186 C 
BRANCH  11  14
ATOM     14  N   UNL A   1      32.400  22.376  23.131  1.00  0.00    -0.362 N 
ATOM     15  H   UNL A   1      32.655  22.625  22.214  1.00  0.00     0.162 HD
BRANCH  14  16
ATOM     16  C   UNL A   1      32.472  21.071  23.564  1.00  0.00     0.149 A 
ATOM     17  C   UNL A   1      33.094  20.793  24.892  1.00  0.00     0.053 A 
ATOM     18  N   UNL A   1      32.172  20.114  22.735  1.00  0.00    -0.129 NA
ATOM     19  C   UNL A   1      34.005  19.809  24.906  1.00  0.00     0.057 A 
ATOM     20  N   UNL A   1      32.702  18.928  23.115  1.00  0.00    -0.108 N 
ATOM     21  C   UNL A   1      33.697  18.724  24.053  1.00  0.00     0.200 A 
ATOM     22  N   UNL A   1      32.493  17.791  22.441  1.00  0.00    -0.022 NA
ATOM     23  N   UNL A   1      34.064  17.463  23.999  1.00  0.00    -0.107 NA
ATOM     24  N   UNL A   1      33.314  16.902  22.987  1.00  0.00    -0.022 NA
ENDBRANCH  14  16
ENDBRANCH  11  14
ENDBRANCH   5   8
ENDBRANCH   3   4
ENDBRANCH   2   3
ENDBRANCH   1   2
BRANCH   1  25
ATOM     25  C   UNL A   1      37.349  21.411  24.714  1.00  0.00     0.002 C 
BRANCH  25  26
ATOM     26  C   UNL A   1      38.143  20.105  24.767  1.00  0.00     0.021 C 
BRANCH  26  27
ATOM     27  C   UNL A   1      38.929  19.851  26.050  1.00  0.00     0.116 C 
BRANCH  27  28
ATOM     28  N   UNL A   1      40.169  19.119  25.827  1.00  0.00    -0.352 N 
ATOM     29  C   UNL A   1      41.448  19.548  25.967  1.00  0.00     0.251 C 
ATOM     30  H   UNL A   1      40.063  18.184  25.536  1.00  0.00     0.163 HD
ATOM     31  O   UNL A   1      42.397  18.798  25.602  1.00  0.00    -0.269 OA
BRANCH  29  32
ATOM     32  C   UNL A   1      41.769  20.880  26.505  1.00  0.00     0.039 A 
ATOM     33  C   UNL A   1      42.146  21.900  25.627  1.00  0.00     0.014 A 
ATOM     34  C   UNL A   1      41.722  21.130  27.882  1.00  0.00     0.014 A 
ATOM     35  C   UNL A   1      42.427  23.178  26.117  1.00  0.00     0.010 A 
ATOM     36  C   UNL A   1      41.937  22.420  28.362  1.00  0.00     0.010 A 
ATOM     37  C   UNL A   1      42.304  23.455  27.488  1.00  0.00    -0.014 A 
BRANCH  37  38
ATOM     38  C   UNL A   1      42.584  24.810  28.027  1.00  0.00     0.031 A 
ATOM     39  C   UNL A   1      43.978  25.174  28.460  1.00  0.00     0.074 A 
ATOM     40  C   UNL A   1      41.579  25.697  28.176  1.00  0.00     0.049 A 
ATOM     41  N   UNL A   1      44.409  26.282  29.011  1.00  0.00    -0.248 NA
ATOM     42  C   UNL A   1      45.020  24.153  28.271  1.00  0.00     0.031 C 
ATOM     43  C   UNL A   1      40.178  25.461  27.824  1.00  0.00     0.029 A 
ATOM     44  N   UNL A   1      41.586  26.977  28.672  1.00  0.00    -0.354 N 
ATOM     45  C   UNL A   1      45.763  26.080  29.253  1.00  0.00     0.074 A 
ATOM     46  C   UNL A   1      46.073  24.732  28.830  1.00  0.00     0.031 C 
ATOM     47  C   UNL A   1      39.466  26.567  28.094  1.00  0.00     0.029 A 
ATOM     48  C   UNL A   1      40.348  27.575  28.671  1.00  0.00     0.049 A 
ATOM     49  H   UNL A   1      42.401  27.425  28.998  1.00  0.00     0.167 HD
ATOM     50  C   UNL A   1      46.671  26.943  29.768  1.00  0.00     0.031 A 
ATOM     51  C   UNL A   1      39.968  28.796  29.092  1.00  0.00     0.031 A 
ATOM     52  C   UNL A   1      46.373  28.291  30.169  1.00  0.00     0.049 A 
ATOM     53  C   UNL A   1      40.997  29.734  29.661  1.00  0.00     0.074 A 
ATOM     54  C   UNL A   1      47.238  29.259  30.648  1.00  0.00     0.029 A 
ATOM     55  N   UNL A   1      45.111  28.861  30.136  1.00  0.00    -0.354 N 
ATOM     56  N   UNL A   1      42.284  29.547  29.826  1.00  0.00    -0.248 NA
ATOM     57  C   UNL A   1      40.520  31.057  30.090  1.00  0.00     0.031 C 
ATOM     58  C   UNL A   1      46.491  30.404  30.944  1.00  0.00     0.029 A 
ATOM     59  C   UNL A   1      45.170  30.163  30.603  1.00  0.00     0.049 A 
ATOM     60  H   UNL A   1      44.293  28.408  29.827  1.00  0.00     0.167 HD
ATOM     61  C   UNL A   1      42.775  30.738  30.345  1.00  0.00     0.074 A 
ATOM     62  C   UNL A   1      41.651  31.644  30.456  1.00  0.00     0.031 C 
ATOM     63  C   UNL A   1      44.045  31.055  30.697  1.00  0.00     0.031 A 
BRANCH  50  64
ATOM     64  C   UNL A   1      48.083  26.450  29.928  1.00  0.00    -0.014 A 
ATOM     65  C   UNL A   1      48.512  25.849  31.122  1.00  0.00     0.009 A 
ATOM     66  C   UNL A   1      48.982  26.551  28.856  1.00  0.00     0.009 A 
ATOM     67  C   UNL A   1      49.824  25.389  31.250  1.00  0.00     0.001 A 
ATOM     68  C   UNL A   1      50.286  26.065  28.978  1.00  0.00     0.001 A 
ATOM     69  C   UNL A   1      50.707  25.492  30.177  1.00  0.00     0.000 A 
ENDBRANCH  50  64
BRANCH  51  70
ATOM     70  C   UNL A   1      38.548  29.218  28.981  1.00  0.00    -0.014 A 
ATOM     71  C   UNL A   1      38.054  29.745  27.777  1.00  0.00     0.009 A 
ATOM     72  C   UNL A   1      37.684  29.117  30.082  1.00  0.00     0.009 A 
ATOM     73  C   UNL A   1      36.735  30.193  27.688  1.00  0.00     0.001 A 
ATOM     74  C   UNL A   1      36.356  29.540  29.982  1.00  0.00     0.001 A 
ATOM     75  C   UNL A   1      35.885  30.087  28.788  1.00  0.00     0.000 A 
ENDBRANCH  51  70
BRANCH  63  76
ATOM     76  C   UNL A   1      44.295  32.451  31.190  1.00  0.00    -0.014 A 
ATOM     77  C   UNL A   1      44.234  32.764  32.557  1.00  0.00     0.009 A 
ATOM     78  C   UNL A   1      44.635  33.458  30.273  1.00  0.00     0.009 A 
ATOM     79  C   UNL A   1      44.479  34.069  32.991  1.00  0.00     0.001 A 
ATOM     80  C   UNL A   1      44.906  34.754  30.714  1.00  0.00     0.001 A 
ATOM     81  C   UNL A   1      44.819  35.060  32.071  1.00  0.00     0.000 A 
ENDBRANCH  63  76
ENDBRANCH  37  38
ENDBRANCH  29  32
ENDBRANCH  27  28
ENDBRANCH  26  27
ENDBRANCH  25  26
ENDBRANCH   1  25
TORSDOF 15
ENDMDL
MODEL 3
REMARK VINA RESULT:     -11.1      1.207      5.962
REMARK SMILES C[C@]1(C(=O)NCCCCCCNC(=O)c2ccc(-c3c4nc(c(-c5ccccc5)c5ccc([nH]5)c(-c5ccccc5)c5nc(c(-c6ccccc6)c6ccc3[nH]6)C=C5)C=C4)cc2)COC[C@H]1Nc1ccc2nnnn2n1
REMARK SMILES IDX 8 1 7 2 6 3 5 4 3 5 4 6 2 8 1 9 63 10 66 11 64 12 65 13
REMARK SMILES IDX 67 14 68 16 69 17 76 18 70 19 75 20 71 21 74 22 72 23 73 24
REMARK SMILES IDX 9 25 10 26 11 27 12 28 13 29 14 31 15 32 16 33 62 34 17 35
REMARK SMILES IDX 61 36 18 37 19 38 20 39 55 40 21 41 60 42 54 43 56 44 22 45
REMARK SMILES IDX 59 46 53 47 52 48 23 50 45 51 30 52 44 53 31 54 34 55 43 56
REMARK SMILES IDX 57 57 32 58 33 59 42 61 58 62 35 63 24 64 25 65 29 66 26 67
REMARK SMILES IDX 28 68 27 69 46 70 47 71 51 72 48 73 50 74 49 75 36 76 37 77
REMARK SMILES IDX 41 78 38 79 40 80 39 81
REMARK H PARENT 5 7 67 15 12 30 56 49 34 60
REMARK Flexibility Score: inf
ROOT
ATOM      1  C   UNL A   1      32.256  29.953  25.817  1.00  0.00     0.002 C 
ENDROOT
BRANCH   1   2
ATOM      2  C   UNL A   1      31.956  28.757  26.724  1.00  0.00     0.021 C 
BRANCH   2   3
ATOM      3  C   UNL A   1      32.516  27.399  26.299  1.00  0.00     0.116 C 
BRANCH   3   4
ATOM      4  N   UNL A   1      31.833  26.279  26.911  1.00  0.00    -0.355 N 
ATOM      5  C   UNL A   1      31.640  25.000  26.496  1.00  0.00     0.230 C 
ATOM      6  O   UNL A   1      31.043  24.264  27.293  1.00  0.00    -0.274 OA
ATOM      7  H   UNL A   1      31.436  26.482  27.789  1.00  0.00     0.163 HD
BRANCH   5   8
ATOM      8  C   UNL A   1      32.088  24.477  25.127  1.00  0.00     0.092 C 
ATOM      9  C   UNL A   1      33.557  24.821  24.791  1.00  0.00     0.026 C 
ATOM     10  C   UNL A   1      31.970  22.943  25.125  1.00  0.00     0.179 C 
ATOM     11  C   UNL A   1      31.174  24.855  23.955  1.00  0.00     0.124 C 
ATOM     12  O   UNL A   1      31.807  22.554  23.755  1.00  0.00    -0.378 OA
ATOM     13  C   UNL A   1      30.987  23.557  23.153  1.00  0.00     0.186 C 
BRANCH  11  14
ATOM     14  N   UNL A   1      29.870  25.444  24.317  1.00  0.00    -0.362 N 
ATOM     15  H   UNL A   1      29.334  25.083  25.059  1.00  0.00     0.162 HD
BRANCH  14  16
ATOM     16  C   UNL A   1      29.432  26.518  23.576  1.00  0.00     0.149 A 
ATOM     17  C   UNL A   1      30.436  27.312  22.809  1.00  0.00     0.053 A 
ATOM     18  N   UNL A   1      28.202  26.919  23.712  1.00  0.00    -0.129 NA
ATOM     19  C   UNL A   1      30.353  28.642  22.956  1.00  0.00     0.057 A 
ATOM     20  N   UNL A   1      28.036  28.198  23.303  1.00  0.00    -0.108 N 
ATOM     21  C   UNL A   1      29.029  29.130  23.062  1.00  0.00     0.200 A 
ATOM     22  N   UNL A   1      26.848  28.814  23.309  1.00  0.00    -0.022 NA
ATOM     23  N   UNL A   1      28.462  30.299  22.869  1.00  0.00    -0.107 NA
ATOM     24  N   UNL A   1      27.109  30.086  23.035  1.00  0.00    -0.022 NA
ENDBRANCH  14  16
ENDBRANCH  11  14
ENDBRANCH   5   8
ENDBRANCH   3   4
ENDBRANCH   2   3
ENDBRANCH   1   2
BRANCH   1  25
ATOM     25  C   UNL A   1      31.190  31.044  25.747  1.00  0.00     0.002 C 
BRANCH  25  26
ATOM     26  C   UNL A   1      31.173  32.043  26.905  1.00  0.00     0.021 C 
BRANCH  26  27
ATOM     27  C   UNL A   1      32.490  32.760  27.189  1.00  0.00     0.116 C 
BRANCH  27  28
ATOM     28  N   UNL A   1      32.309  34.141  27.620  1.00  0.00    -0.352 N 
ATOM     29  C   UNL A   1      33.024  34.849  28.530  1.00  0.00     0.251 C 
ATOM     30  H   UNL A   1      31.567  34.625  27.191  1.00  0.00     0.163 HD
ATOM     31  O   UNL A   1      32.632  36.003  28.862  1.00  0.00    -0.269 OA
BRANCH  29  32
ATOM     32  C   UNL A   1      34.232  34.303  29.168  1.00  0.00     0.039 A 
ATOM     33  C   UNL A   1      34.114  33.612  30.378  1.00  0.00     0.014 A 
ATOM     34  C   UNL A   1      35.495  34.484  28.592  1.00  0.00     0.014 A 
ATOM     35  C   UNL A   1      35.246  33.063  30.984  1.00  0.00     0.010 A 
ATOM     36  C   UNL A   1      36.613  33.879  29.162  1.00  0.00     0.010 A 
ATOM     37  C   UNL A   1      36.504  33.172  30.370  1.00  0.00    -0.014 A 
BRANCH  37  38
ATOM     38  C   UNL A   1      37.717  32.582  30.990  1.00  0.00     0.031 A 
ATOM     39  C   UNL A   1      38.375  31.382  30.365  1.00  0.00     0.074 A 
ATOM     40  C   UNL A   1      38.200  33.090  32.142  1.00  0.00     0.049 A 
ATOM     41  N   UNL A   1      39.402  30.688  30.788  1.00  0.00    -0.248 NA
ATOM     42  C   UNL A   1      37.788  30.882  29.112  1.00  0.00     0.031 C 
ATOM     43  C   UNL A   1      37.641  34.232  32.868  1.00  0.00     0.029 A 
ATOM     44  N   UNL A   1      39.271  32.702  32.908  1.00  0.00    -0.354 N 
ATOM     45  C   UNL A   1      39.567  29.659  29.868  1.00  0.00     0.074 A 
ATOM     46  C   UNL A   1      38.512  29.794  28.888  1.00  0.00     0.031 C 
ATOM     47  C   UNL A   1      38.386  34.465  33.960  1.00  0.00     0.029 A 
ATOM     48  C   UNL A   1      39.451  33.471  34.033  1.00  0.00     0.049 A 
ATOM     49  H   UNL A   1      39.855  31.945  32.674  1.00  0.00     0.167 HD
ATOM     50  C   UNL A   1      40.520  28.698  29.831  1.00  0.00     0.031 A 
ATOM     51  C   UNL A   1      40.368  33.381  35.015  1.00  0.00     0.031 A 
ATOM     52  C   UNL A   1      41.583  28.573  30.790  1.00  0.00     0.049 A 
ATOM     53  C   UNL A   1      41.415  32.302  34.951  1.00  0.00     0.074 A 
ATOM     54  C   UNL A   1      42.629  27.666  30.805  1.00  0.00     0.029 A 
ATOM     55  N   UNL A   1      41.738  29.382  31.905  1.00  0.00    -0.354 N 
ATOM     56  N   UNL A   1      41.592  31.375  34.040  1.00  0.00    -0.248 NA
ATOM     57  C   UNL A   1      42.394  32.266  36.046  1.00  0.00     0.031 C 
ATOM     58  C   UNL A   1      43.394  27.901  31.952  1.00  0.00     0.029 A 
ATOM     59  C   UNL A   1      42.852  28.984  32.624  1.00  0.00     0.049 A 
ATOM     60  H   UNL A   1      41.144  30.128  32.149  1.00  0.00     0.167 HD
ATOM     61  C   UNL A   1      42.721  30.670  34.434  1.00  0.00     0.074 A 
ATOM     62  C   UNL A   1      43.194  31.282  35.658  1.00  0.00     0.031 C 
ATOM     63  C   UNL A   1      43.315  29.610  33.834  1.00  0.00     0.031 A 
BRANCH  50  64
ATOM     64  C   UNL A   1      40.452  27.697  28.711  1.00  0.00    -0.014 A 
ATOM     65  C   UNL A   1      39.720  26.507  28.842  1.00  0.00     0.009 A 
ATOM     66  C   UNL A   1      41.096  27.969  27.494  1.00  0.00     0.009 A 
ATOM     67  C   UNL A   1      39.661  25.592  27.788  1.00  0.00     0.001 A 
ATOM     68  C   UNL A   1      41.012  27.065  26.432  1.00  0.00     0.001 A 
ATOM     69  C   UNL A   1      40.302  25.875  26.583  1.00  0.00     0.000 A 
ENDBRANCH  50  64
BRANCH  51  70
ATOM     70  C   UNL A   1      40.356  34.348  36.143  1.00  0.00    -0.014 A 
ATOM     71  C   UNL A   1      39.614  34.077  37.304  1.00  0.00     0.009 A 
ATOM     72  C   UNL A   1      41.066  35.555  36.058  1.00  0.00     0.009 A 
ATOM     73  C   UNL A   1      39.556  35.009  38.341  1.00  0.00     0.001 A 
ATOM     74  C   UNL A   1      41.030  36.474  37.110  1.00  0.00     0.001 A 
ATOM     75  C   UNL A   1      40.267  36.205  38.246  1.00  0.00     0.000 A 
ENDBRANCH  51  70
BRANCH  63  76
ATOM     76  C   UNL A   1      44.568  29.075  34.466  1.00  0.00    -0.014 A 
ATOM     77  C   UNL A   1      44.523  28.041  35.414  1.00  0.00     0.009 A 
ATOM     78  C   UNL A   1      45.814  29.588  34.075  1.00  0.00     0.009 A 
ATOM     79  C   UNL A   1      45.702  27.554  35.981  1.00  0.00     0.001 A 
ATOM     80  C   UNL A   1      46.993  29.080  34.623  1.00  0.00     0.001 A 
ATOM     81  C   UNL A   1      46.935  28.070  35.582  1.00  0.00     0.000 A 
ENDBRANCH  63  76
ENDBRANCH  37  38
ENDBRANCH  29  32
ENDBRANCH  27  28
ENDBRANCH  26  27
ENDBRANCH  25  26
ENDBRANCH   1  25
TORSDOF 15
ENDMDL
