MODEL 1
REMARK VINA RESULT:     -10.4      0.000      0.000
REMARK SMILES Cc1csc(C[C@@H](Cc2ccc(Br)cc2)C(=O)NCCCCCCNC(=O)c2ccc(-c3c4nc(c(-c5ccccc5)c5ccc([nH]5)c(-c5ccccc5)c5nc(c(-c6ccccc6)c6ccc3[nH]6)C=C5)C=C4)cc2)n1
REMARK SMILES IDX 21 1 20 2 19 3 18 4 16 5 17 6 7 8 6 9 5 10 1 11 2 12 3 13
REMARK SMILES IDX 76 14 4 15 8 16 9 17 10 18 15 19 11 20 14 21 12 22 13 23
REMARK SMILES IDX 22 24 23 25 24 26 25 27 26 28 27 30 28 31 29 32 75 33 30 34
REMARK SMILES IDX 74 35 31 36 32 37 33 38 68 39 34 40 73 41 67 42 69 43 35 44
REMARK SMILES IDX 72 45 66 46 65 47 36 49 58 50 43 51 57 52 44 53 47 54 56 55
REMARK SMILES IDX 70 56 45 57 46 58 55 60 71 61 48 62 37 63 38 64 42 65 39 66
REMARK SMILES IDX 41 67 40 68 59 69 60 70 64 71 61 72 63 73 62 74 49 75 50 76
REMARK SMILES IDX 54 77 51 78 53 79 52 80
REMARK H PARENT 18 7 25 29 69 48 47 59
REMARK Flexibility Score: inf
ROOT
ATOM      1  C   UNL A   1      34.867  32.910  28.403  1.00  0.00     0.002 C 
ENDROOT
BRANCH   1   2
ATOM      2  C   UNL A   1      33.715  32.112  27.786  1.00  0.00     0.021 C 
BRANCH   2   3
ATOM      3  C   UNL A   1      34.088  30.714  27.306  1.00  0.00     0.116 C 
BRANCH   3   4
ATOM      4  N   UNL A   1      33.082  29.713  27.584  1.00  0.00    -0.356 N 
ATOM      5  C   UNL A   1      32.305  28.985  26.737  1.00  0.00     0.223 C 
ATOM      6  O   UNL A   1      31.699  28.026  27.226  1.00  0.00    -0.275 OA
ATOM      7  H   UNL A   1      32.938  29.527  28.540  1.00  0.00     0.163 HD
BRANCH   5   8
ATOM      8  C   UNL A   1      32.138  29.309  25.252  1.00  0.00     0.089 C 
BRANCH   8   9
ATOM      9  C   UNL A   1      33.415  28.995  24.459  1.00  0.00     0.081 C 
BRANCH   9  10
ATOM     10  C   UNL A   1      33.427  27.647  23.801  1.00  0.00     0.094 A 
ATOM     11  C   UNL A   1      32.686  25.691  20.880  1.00  0.00     0.067 C 
ATOM     12  C   UNL A   1      33.060  26.095  22.258  1.00  0.00     0.048 A 
ATOM     13  C   UNL A   1      33.355  25.275  23.327  1.00  0.00     0.090 A 
ATOM     14  N   UNL A   1      33.107  27.445  22.543  1.00  0.00    -0.247 NA
ATOM     15  S   UNL A   1      33.714  26.219  24.713  1.00  0.00    -0.127 S 
ENDBRANCH   9  10
ENDBRANCH   8   9
BRANCH   8  16
ATOM     16  C   UNL A   1      30.750  28.912  24.698  1.00  0.00     0.049 C 
BRANCH  16  17
ATOM     17  C   UNL A   1      30.039  29.794  23.698  1.00  0.00    -0.047 A 
ATOM     18  C   UNL A   1      29.416  30.989  24.088  1.00  0.00     0.005 A 
ATOM     19  C   UNL A   1      29.955  29.406  22.351  1.00  0.00     0.005 A 
ATOM     20  C   UNL A   1      28.774  31.803  23.151  1.00  0.00     0.016 A 
ATOM     21  C   UNL A   1      29.309  30.217  21.412  1.00  0.00     0.016 A 
ATOM     22  C   UNL A   1      28.729  31.416  21.816  1.00  0.00     0.017 A 
ATOM     23  Br  UNL A   1      27.891  32.535  20.543  1.00  0.00    -0.051 Br
ENDBRANCH  16  17
ENDBRANCH   8  16
ENDBRANCH   5   8
ENDBRANCH   3   4
ENDBRANCH   2   3
ENDBRANCH   1   2
BRANCH   1  24
ATOM     24  C   UNL A   1      34.630  34.415  28.585  1.00  0.00     0.002 C 
BRANCH  24  25
ATOM     25  C   UNL A   1      33.239  34.831  29.074  1.00  0.00     0.021 C 
BRANCH  25  26
ATOM     26  C   UNL A   1      33.121  36.249  29.616  1.00  0.00     0.116 C 
BRANCH  26  27
ATOM     27  N   UNL A   1      32.368  36.312  30.854  1.00  0.00    -0.352 N 
ATOM     28  C   UNL A   1      32.612  35.719  32.067  1.00  0.00     0.251 C 
ATOM     29  H   UNL A   1      31.557  36.867  30.818  1.00  0.00     0.163 HD
ATOM     30  O   UNL A   1      31.761  35.784  32.950  1.00  0.00    -0.269 OA
BRANCH  28  31
ATOM     31  C   UNL A   1      33.875  34.988  32.325  1.00  0.00     0.039 A 
ATOM     32  C   UNL A   1      33.795  33.647  32.718  1.00  0.00     0.014 A 
ATOM     33  C   UNL A   1      35.123  35.613  32.250  1.00  0.00     0.014 A 
ATOM     34  C   UNL A   1      34.959  32.930  33.007  1.00  0.00     0.010 A 
ATOM     35  C   UNL A   1      36.288  34.879  32.472  1.00  0.00     0.010 A 
ATOM     36  C   UNL A   1      36.219  33.535  32.870  1.00  0.00    -0.014 A 
BRANCH  36  37
ATOM     37  C   UNL A   1      37.461  32.785  33.180  1.00  0.00     0.031 A 
ATOM     38  C   UNL A   1      38.192  33.027  34.474  1.00  0.00     0.074 A 
ATOM     39  C   UNL A   1      37.956  31.906  32.286  1.00  0.00     0.049 A 
ATOM     40  N   UNL A   1      39.300  32.484  34.913  1.00  0.00    -0.248 NA
ATOM     41  C   UNL A   1      37.612  34.026  35.386  1.00  0.00     0.031 C 
ATOM     42  C   UNL A   1      37.365  31.600  30.983  1.00  0.00     0.029 A 
ATOM     43  N   UNL A   1      39.070  31.107  32.345  1.00  0.00    -0.354 N 
ATOM     44  C   UNL A   1      39.558  33.087  36.138  1.00  0.00     0.074 A 
ATOM     45  C   UNL A   1      38.518  34.070  36.351  1.00  0.00     0.031 C 
ATOM     46  C   UNL A   1      38.105  30.657  30.378  1.00  0.00     0.029 A 
ATOM     47  C   UNL A   1      39.237  30.316  31.234  1.00  0.00     0.049 A 
ATOM     48  H   UNL A   1      39.690  31.101  33.109  1.00  0.00     0.167 HD
ATOM     49  C   UNL A   1      40.558  32.835  37.017  1.00  0.00     0.031 A 
ATOM     50  C   UNL A   1      40.193  29.416  30.939  1.00  0.00     0.031 A 
ATOM     51  C   UNL A   1      41.585  31.849  36.816  1.00  0.00     0.049 A 
ATOM     52  C   UNL A   1      41.292  29.152  31.931  1.00  0.00     0.074 A 
ATOM     53  C   UNL A   1      42.612  31.486  37.671  1.00  0.00     0.029 A 
ATOM     54  N   UNL A   1      41.714  31.065  35.681  1.00  0.00    -0.354 N 
ATOM     55  N   UNL A   1      41.488  29.691  33.109  1.00  0.00    -0.248 NA
ATOM     56  C   UNL A   1      42.292  28.143  31.554  1.00  0.00     0.031 C 
ATOM     57  C   UNL A   1      43.387  30.510  37.034  1.00  0.00     0.029 A 
ATOM     58  C   UNL A   1      42.812  30.231  35.805  1.00  0.00     0.049 A 
ATOM     59  H   UNL A   1      41.113  31.096  34.902  1.00  0.00     0.167 HD
ATOM     60  C   UNL A   1      42.616  29.067  33.627  1.00  0.00     0.074 A 
ATOM     61  C   UNL A   1      43.051  28.100  32.640  1.00  0.00     0.031 C 
ATOM     62  C   UNL A   1      43.233  29.274  34.815  1.00  0.00     0.031 A 
BRANCH  49  63
ATOM     63  C   UNL A   1      40.587  33.653  38.278  1.00  0.00    -0.014 A 
ATOM     64  C   UNL A   1      39.928  33.222  39.440  1.00  0.00     0.009 A 
ATOM     65  C   UNL A   1      41.301  34.860  38.312  1.00  0.00     0.009 A 
ATOM     66  C   UNL A   1      39.949  34.002  40.598  1.00  0.00     0.001 A 
ATOM     67  C   UNL A   1      41.345  35.625  39.479  1.00  0.00     0.001 A 
ATOM     68  C   UNL A   1      40.660  35.202  40.617  1.00  0.00     0.000 A 
ENDBRANCH  49  63
BRANCH  50  69
ATOM     69  C   UNL A   1      40.138  28.669  29.656  1.00  0.00    -0.014 A 
ATOM     70  C   UNL A   1      40.721  29.205  28.497  1.00  0.00     0.009 A 
ATOM     71  C   UNL A   1      39.503  27.419  29.583  1.00  0.00     0.009 A 
ATOM     72  C   UNL A   1      40.649  28.516  27.285  1.00  0.00     0.001 A 
ATOM     73  C   UNL A   1      39.456  26.721  28.374  1.00  0.00     0.001 A 
ATOM     74  C   UNL A   1      40.020  27.273  27.225  1.00  0.00     0.000 A 
ENDBRANCH  50  69
BRANCH  62  75
ATOM     75  C   UNL A   1      44.423  28.411  35.129  1.00  0.00    -0.014 A 
ATOM     76  C   UNL A   1      45.725  28.817  34.801  1.00  0.00     0.009 A 
ATOM     77  C   UNL A   1      44.235  27.188  35.791  1.00  0.00     0.009 A 
ATOM     78  C   UNL A   1      46.815  27.996  35.100  1.00  0.00     0.001 A 
ATOM     79  C   UNL A   1      45.329  26.382  36.112  1.00  0.00     0.001 A 
ATOM     80  C   UNL A   1      46.616  26.782  35.758  1.00  0.00     0.000 A 
ENDBRANCH  62  75
ENDBRANCH  36  37
ENDBRANCH  28  31
ENDBRANCH  26  27
ENDBRANCH  25  26
ENDBRANCH  24  25
ENDBRANCH   1  24
TORSDOF 17
ENDMDL
MODEL 2
REMARK VINA RESULT:     -10.4      3.139      7.373
REMARK SMILES Cc1csc(C[C@@H](Cc2ccc(Br)cc2)C(=O)NCCCCCCNC(=O)c2ccc(-c3c4nc(c(-c5ccccc5)c5ccc([nH]5)c(-c5ccccc5)c5nc(c(-c6ccccc6)c6ccc3[nH]6)C=C5)C=C4)cc2)n1
REMARK SMILES IDX 21 1 20 2 19 3 18 4 16 5 17 6 7 8 6 9 5 10 1 11 2 12 3 13
REMARK SMILES IDX 76 14 4 15 8 16 9 17 10 18 15 19 11 20 14 21 12 22 13 23
REMARK SMILES IDX 22 24 23 25 24 26 25 27 26 28 27 30 28 31 29 32 75 33 30 34
REMARK SMILES IDX 74 35 31 36 32 37 33 38 68 39 34 40 73 41 67 42 69 43 35 44
REMARK SMILES IDX 72 45 66 46 65 47 36 49 58 50 43 51 57 52 44 53 47 54 56 55
REMARK SMILES IDX 70 56 45 57 46 58 55 60 71 61 48 62 37 63 38 64 42 65 39 66
REMARK SMILES IDX 41 67 40 68 59 69 60 70 64 71 61 72 63 73 62 74 49 75 50 76
REMARK SMILES IDX 54 77 51 78 53 79 52 80
REMARK H PARENT 18 7 25 29 69 48 47 59
REMARK Flexibility Score: inf
ROOT
ATOM      1  C   UNL A   1      33.617  29.632  27.043  1.00  0.00     0.002 C 
ENDROOT
BRANCH   1   2
ATOM      2  C   UNL A   1      34.071  28.587  26.019  1.00  0.00     0.021 C 
BRANCH   2   3
ATOM      3  C   UNL A   1      33.718  28.914  24.572  1.00  0.00     0.116 C 
BRANCH   3   4
ATOM      4  N   UNL A   1      33.422  27.750  23.766  1.00  0.00    -0.356 N 
ATOM      5  C   UNL A   1      32.245  27.104  23.547  1.00  0.00     0.223 C 
ATOM      6  O   UNL A   1      32.226  26.282  22.625  1.00  0.00    -0.275 OA
ATOM      7  H   UNL A   1      34.198  27.364  23.298  1.00  0.00     0.163 HD
BRANCH   5   8
ATOM      8  C   UNL A   1      30.986  27.331  24.386  1.00  0.00     0.089 C 
BRANCH   8   9
ATOM      9  C   UNL A   1      29.723  27.350  23.514  1.00  0.00     0.081 C 
BRANCH   9  10
ATOM     10  C   UNL A   1      29.118  28.709  23.321  1.00  0.00     0.094 A 
ATOM     11  C   UNL A   1      29.399  32.254  23.830  1.00  0.00     0.067 C 
ATOM     12  C   UNL A   1      28.875  30.908  23.491  1.00  0.00     0.048 A 
ATOM     13  C   UNL A   1      27.606  30.580  23.060  1.00  0.00     0.090 A 
ATOM     14  N   UNL A   1      29.726  29.831  23.633  1.00  0.00    -0.247 NA
ATOM     15  S   UNL A   1      27.485  28.887  22.814  1.00  0.00    -0.127 S 
ENDBRANCH   9  10
ENDBRANCH   8   9
BRANCH   8  16
ATOM     16  C   UNL A   1      31.006  26.561  25.727  1.00  0.00     0.049 C 
BRANCH  16  17
ATOM     17  C   UNL A   1      31.583  25.167  25.806  1.00  0.00    -0.047 A 
ATOM     18  C   UNL A   1      30.800  24.034  25.540  1.00  0.00     0.005 A 
ATOM     19  C   UNL A   1      32.921  24.979  26.191  1.00  0.00     0.005 A 
ATOM     20  C   UNL A   1      31.350  22.750  25.602  1.00  0.00     0.016 A 
ATOM     21  C   UNL A   1      33.472  23.695  26.259  1.00  0.00     0.016 A 
ATOM     22  C   UNL A   1      32.686  22.588  25.956  1.00  0.00     0.017 A 
ATOM     23  Br  UNL A   1      33.438  20.854  26.006  1.00  0.00    -0.051 Br
ENDBRANCH  16  17
ENDBRANCH   8  16
ENDBRANCH   5   8
ENDBRANCH   3   4
ENDBRANCH   2   3
ENDBRANCH   1   2
BRANCH   1  24
ATOM     24  C   UNL A   1      32.102  29.797  27.220  1.00  0.00     0.002 C 
BRANCH  24  25
ATOM     25  C   UNL A   1      31.520  31.167  26.857  1.00  0.00     0.021 C 
BRANCH  25  26
ATOM     26  C   UNL A   1      32.535  32.255  26.530  1.00  0.00     0.116 C 
BRANCH  26  27
ATOM     27  N   UNL A   1      32.293  33.482  27.265  1.00  0.00    -0.352 N 
ATOM     28  C   UNL A   1      33.013  34.060  28.280  1.00  0.00     0.251 C 
ATOM     29  H   UNL A   1      31.488  33.977  26.993  1.00  0.00     0.163 HD
ATOM     30  O   UNL A   1      32.550  35.033  28.868  1.00  0.00    -0.269 OA
BRANCH  28  31
ATOM     31  C   UNL A   1      34.333  33.522  28.689  1.00  0.00     0.039 A 
ATOM     32  C   UNL A   1      34.385  32.675  29.801  1.00  0.00     0.014 A 
ATOM     33  C   UNL A   1      35.516  33.886  28.040  1.00  0.00     0.014 A 
ATOM     34  C   UNL A   1      35.613  32.174  30.243  1.00  0.00     0.010 A 
ATOM     35  C   UNL A   1      36.733  33.332  28.440  1.00  0.00     0.010 A 
ATOM     36  C   UNL A   1      36.797  32.485  29.557  1.00  0.00    -0.014 A 
BRANCH  36  37
ATOM     37  C   UNL A   1      38.106  31.963  30.021  1.00  0.00     0.031 A 
ATOM     38  C   UNL A   1      38.629  30.651  29.499  1.00  0.00     0.074 A 
ATOM     39  C   UNL A   1      38.817  32.650  30.937  1.00  0.00     0.049 A 
ATOM     40  N   UNL A   1      39.739  30.024  29.800  1.00  0.00    -0.248 NA
ATOM     41  C   UNL A   1      37.783  29.940  28.527  1.00  0.00     0.031 C 
ATOM     42  C   UNL A   1      38.412  33.917  31.547  1.00  0.00     0.029 A 
ATOM     43  N   UNL A   1      40.033  32.375  31.511  1.00  0.00    -0.354 N 
ATOM     44  C   UNL A   1      39.715  28.842  29.071  1.00  0.00     0.074 A 
ATOM     45  C   UNL A   1      38.460  28.815  28.351  1.00  0.00     0.031 C 
ATOM     46  C   UNL A   1      39.377  34.326  32.387  1.00  0.00     0.029 A 
ATOM     47  C   UNL A   1      40.450  33.337  32.399  1.00  0.00     0.049 A 
ATOM     48  H   UNL A   1      40.556  31.567  31.306  1.00  0.00     0.167 HD
ATOM     49  C   UNL A   1      40.658  27.871  28.991  1.00  0.00     0.031 A 
ATOM     50  C   UNL A   1      41.572  33.415  33.138  1.00  0.00     0.031 A 
ATOM     51  C   UNL A   1      41.912  27.900  29.693  1.00  0.00     0.049 A 
ATOM     52  C   UNL A   1      42.605  32.327  33.031  1.00  0.00     0.074 A 
ATOM     53  C   UNL A   1      42.953  26.988  29.638  1.00  0.00     0.029 A 
ATOM     54  N   UNL A   1      42.299  28.895  30.576  1.00  0.00    -0.354 N 
ATOM     55  N   UNL A   1      42.590  31.243  32.294  1.00  0.00    -0.248 NA
ATOM     56  C   UNL A   1      43.815  32.484  33.850  1.00  0.00     0.031 C 
ATOM     57  C   UNL A   1      43.953  27.412  30.521  1.00  0.00     0.029 A 
ATOM     58  C   UNL A   1      43.555  28.612  31.086  1.00  0.00     0.049 A 
ATOM     59  H   UNL A   1      41.760  29.686  30.807  1.00  0.00     0.167 HD
ATOM     60  C   UNL A   1      43.800  30.605  32.537  1.00  0.00     0.074 A 
ATOM     61  C   UNL A   1      44.528  31.430  33.481  1.00  0.00     0.031 C 
ATOM     62  C   UNL A   1      44.266  29.442  32.023  1.00  0.00     0.031 A 
BRANCH  49  63
ATOM     63  C   UNL A   1      40.355  26.690  28.111  1.00  0.00    -0.014 A 
ATOM     64  C   UNL A   1      40.857  26.609  26.803  1.00  0.00     0.009 A 
ATOM     65  C   UNL A   1      39.576  25.632  28.606  1.00  0.00     0.009 A 
ATOM     66  C   UNL A   1      40.552  25.513  25.994  1.00  0.00     0.001 A 
ATOM     67  C   UNL A   1      39.296  24.524  27.804  1.00  0.00     0.001 A 
ATOM     68  C   UNL A   1      39.774  24.471  26.495  1.00  0.00     0.000 A 
ENDBRANCH  49  63
BRANCH  50  69
ATOM     69  C   UNL A   1      41.797  34.585  34.025  1.00  0.00    -0.014 A 
ATOM     70  C   UNL A   1      41.374  34.553  35.362  1.00  0.00     0.009 A 
ATOM     71  C   UNL A   1      42.433  35.738  33.539  1.00  0.00     0.009 A 
ATOM     72  C   UNL A   1      41.561  35.662  36.190  1.00  0.00     0.001 A 
ATOM     73  C   UNL A   1      42.643  36.835  34.378  1.00  0.00     0.001 A 
ATOM     74  C   UNL A   1      42.200  36.800  35.699  1.00  0.00     0.000 A 
ENDBRANCH  50  69
BRANCH  62  75
ATOM     75  C   UNL A   1      45.644  29.012  32.441  1.00  0.00    -0.014 A 
ATOM     76  C   UNL A   1      46.784  29.424  31.734  1.00  0.00     0.009 A 
ATOM     77  C   UNL A   1      45.802  28.206  33.579  1.00  0.00     0.009 A 
ATOM     78  C   UNL A   1      48.054  29.008  32.140  1.00  0.00     0.001 A 
ATOM     79  C   UNL A   1      47.075  27.814  33.998  1.00  0.00     0.001 A 
ATOM     80  C   UNL A   1      48.198  28.207  33.273  1.00  0.00     0.000 A 
ENDBRANCH  62  75
ENDBRANCH  36  37
ENDBRANCH  28  31
ENDBRANCH  26  27
ENDBRANCH  25  26
ENDBRANCH  24  25
ENDBRANCH   1  24
TORSDOF 17
ENDMDL
MODEL 3
REMARK VINA RESULT:     -10.3      5.160     10.051
REMARK SMILES Cc1csc(C[C@@H](Cc2ccc(Br)cc2)C(=O)NCCCCCCNC(=O)c2ccc(-c3c4nc(c(-c5ccccc5)c5ccc([nH]5)c(-c5ccccc5)c5nc(c(-c6ccccc6)c6ccc3[nH]6)C=C5)C=C4)cc2)n1
REMARK SMILES IDX 21 1 20 2 19 3 18 4 16 5 17 6 7 8 6 9 5 10 1 11 2 12 3 13
REMARK SMILES IDX 76 14 4 15 8 16 9 17 10 18 15 19 11 20 14 21 12 22 13 23
REMARK SMILES IDX 22 24 23 25 24 26 25 27 26 28 27 30 28 31 29 32 75 33 30 34
REMARK SMILES IDX 74 35 31 36 32 37 33 38 68 39 34 40 73 41 67 42 69 43 35 44
REMARK SMILES IDX 72 45 66 46 65 47 36 49 58 50 43 51 57 52 44 53 47 54 56 55
REMARK SMILES IDX 70 56 45 57 46 58 55 60 71 61 48 62 37 63 38 64 42 65 39 66
REMARK SMILES IDX 41 67 40 68 59 69 60 70 64 71 61 72 63 73 62 74 49 75 50 76
REMARK SMILES IDX 54 77 51 78 53 79 52 80
REMARK H PARENT 18 7 25 29 69 48 47 59
REMARK Flexibility Score: inf
ROOT
ATOM      1  C   UNL A   1      37.736  23.314  25.354  1.00  0.00     0.002 C 
ENDROOT
BRANCH   1   2
ATOM      2  C   UNL A   1      36.388  23.688  25.977  1.00  0.00     0.021 C 
BRANCH   2   3
ATOM      3  C   UNL A   1      35.344  22.577  25.960  1.00  0.00     0.116 C 
BRANCH   3   4
ATOM      4  N   UNL A   1      34.529  22.522  27.154  1.00  0.00    -0.356 N 
ATOM      5  C   UNL A   1      33.207  22.790  27.332  1.00  0.00     0.223 C 
ATOM      6  O   UNL A   1      32.708  22.432  28.404  1.00  0.00    -0.275 OA
ATOM      7  H   UNL A   1      35.008  22.245  27.968  1.00  0.00     0.163 HD
BRANCH   5   8
ATOM      8  C   UNL A   1      32.343  23.514  26.299  1.00  0.00     0.089 C 
BRANCH   8   9
ATOM      9  C   UNL A   1      31.246  22.598  25.740  1.00  0.00     0.081 C 
BRANCH   9  10
ATOM     10  C   UNL A   1      31.751  21.433  24.941  1.00  0.00     0.094 A 
ATOM     11  C   UNL A   1      32.765  17.986  24.915  1.00  0.00     0.067 C 
ATOM     12  C   UNL A   1      32.512  19.392  24.515  1.00  0.00     0.048 A 
ATOM     13  C   UNL A   1      32.848  20.005  23.325  1.00  0.00     0.090 A 
ATOM     14  N   UNL A   1      31.885  20.219  25.425  1.00  0.00    -0.247 NA
ATOM     15  S   UNL A   1      32.354  21.647  23.346  1.00  0.00    -0.127 S 
ENDBRANCH   9  10
ENDBRANCH   8   9
BRANCH   8  16
ATOM     16  C   UNL A   1      32.024  24.975  26.694  1.00  0.00     0.049 C 
BRANCH  16  17
ATOM     17  C   UNL A   1      31.381  25.917  25.703  1.00  0.00    -0.047 A 
ATOM     18  C   UNL A   1      30.150  25.617  25.100  1.00  0.00     0.005 A 
ATOM     19  C   UNL A   1      32.033  27.105  25.334  1.00  0.00     0.005 A 
ATOM     20  C   UNL A   1      29.560  26.504  24.195  1.00  0.00     0.016 A 
ATOM     21  C   UNL A   1      31.447  27.992  24.425  1.00  0.00     0.016 A 
ATOM     22  C   UNL A   1      30.208  27.690  23.867  1.00  0.00     0.017 A 
ATOM     23  Br  UNL A   1      29.392  28.905  22.670  1.00  0.00    -0.051 Br
ENDBRANCH  16  17
ENDBRANCH   8  16
ENDBRANCH   5   8
ENDBRANCH   3   4
ENDBRANCH   2   3
ENDBRANCH   1   2
BRANCH   1  24
ATOM     24  C   UNL A   1      38.527  22.206  26.061  1.00  0.00     0.002 C 
BRANCH  24  25
ATOM     25  C   UNL A   1      38.752  20.916  25.265  1.00  0.00     0.021 C 
BRANCH  25  26
ATOM     26  C   UNL A   1      39.070  19.675  26.088  1.00  0.00     0.116 C 
BRANCH  26  27
ATOM     27  N   UNL A   1      40.360  19.101  25.756  1.00  0.00    -0.352 N 
ATOM     28  C   UNL A   1      41.615  19.652  25.822  1.00  0.00     0.251 C 
ATOM     29  H   UNL A   1      40.330  18.171  25.435  1.00  0.00     0.163 HD
ATOM     30  O   UNL A   1      42.567  19.037  25.350  1.00  0.00    -0.269 OA
BRANCH  28  31
ATOM     31  C   UNL A   1      41.839  20.981  26.438  1.00  0.00     0.039 A 
ATOM     32  C   UNL A   1      42.228  22.038  25.607  1.00  0.00     0.014 A 
ATOM     33  C   UNL A   1      41.736  21.187  27.817  1.00  0.00     0.014 A 
ATOM     34  C   UNL A   1      42.485  23.299  26.151  1.00  0.00     0.010 A 
ATOM     35  C   UNL A   1      41.927  22.462  28.350  1.00  0.00     0.010 A 
ATOM     36  C   UNL A   1      42.321  23.527  27.526  1.00  0.00    -0.014 A 
BRANCH  36  37
ATOM     37  C   UNL A   1      42.597  24.862  28.115  1.00  0.00     0.031 A 
ATOM     38  C   UNL A   1      43.987  25.218  28.569  1.00  0.00     0.074 A 
ATOM     39  C   UNL A   1      41.594  25.747  28.272  1.00  0.00     0.049 A 
ATOM     40  N   UNL A   1      44.419  26.324  29.124  1.00  0.00    -0.248 NA
ATOM     41  C   UNL A   1      45.025  24.189  28.398  1.00  0.00     0.031 C 
ATOM     42  C   UNL A   1      40.196  25.519  27.904  1.00  0.00     0.029 A 
ATOM     43  N   UNL A   1      41.601  27.021  28.783  1.00  0.00    -0.354 N 
ATOM     44  C   UNL A   1      45.768  26.116  29.382  1.00  0.00     0.074 A 
ATOM     45  C   UNL A   1      46.073  24.762  28.969  1.00  0.00     0.031 C 
ATOM     46  C   UNL A   1      39.486  26.626  28.172  1.00  0.00     0.029 A 
ATOM     47  C   UNL A   1      40.369  27.629  28.759  1.00  0.00     0.049 A 
ATOM     48  H   UNL A   1      42.411  27.457  29.133  1.00  0.00     0.167 HD
ATOM     49  C   UNL A   1      46.678  26.976  29.900  1.00  0.00     0.031 A 
ATOM     50  C   UNL A   1      39.994  28.857  29.162  1.00  0.00     0.031 A 
ATOM     51  C   UNL A   1      46.384  28.325  30.298  1.00  0.00     0.049 A 
ATOM     52  C   UNL A   1      41.022  29.795  29.732  1.00  0.00     0.074 A 
ATOM     53  C   UNL A   1      47.249  29.290  30.787  1.00  0.00     0.029 A 
ATOM     54  N   UNL A   1      45.126  28.904  30.251  1.00  0.00    -0.354 N 
ATOM     55  N   UNL A   1      42.305  29.601  29.917  1.00  0.00    -0.248 NA
ATOM     56  C   UNL A   1      40.548  31.127  30.134  1.00  0.00     0.031 C 
ATOM     57  C   UNL A   1      46.504  30.440  31.074  1.00  0.00     0.029 A 
ATOM     58  C   UNL A   1      45.187  30.207  30.717  1.00  0.00     0.049 A 
ATOM     59  H   UNL A   1      44.309  28.456  29.933  1.00  0.00     0.167 HD
ATOM     60  C   UNL A   1      42.797  30.795  30.428  1.00  0.00     0.074 A 
ATOM     61  C   UNL A   1      41.677  31.710  30.512  1.00  0.00     0.031 C 
ATOM     62  C   UNL A   1      44.065  31.105  30.793  1.00  0.00     0.031 A 
BRANCH  49  63
ATOM     63  C   UNL A   1      48.084  26.470  30.069  1.00  0.00    -0.014 A 
ATOM     64  C   UNL A   1      48.494  25.842  31.255  1.00  0.00     0.009 A 
ATOM     65  C   UNL A   1      49.005  26.602  29.018  1.00  0.00     0.009 A 
ATOM     66  C   UNL A   1      49.808  25.394  31.402  1.00  0.00     0.001 A 
ATOM     67  C   UNL A   1      50.311  26.127  29.156  1.00  0.00     0.001 A 
ATOM     68  C   UNL A   1      50.714  25.535  30.352  1.00  0.00     0.000 A 
ENDBRANCH  49  63
BRANCH  50  69
ATOM     69  C   UNL A   1      38.580  29.287  29.012  1.00  0.00    -0.014 A 
ATOM     70  C   UNL A   1      37.691  29.193  30.094  1.00  0.00     0.009 A 
ATOM     71  C   UNL A   1      38.112  29.792  27.789  1.00  0.00     0.009 A 
ATOM     72  C   UNL A   1      36.356  29.573  29.947  1.00  0.00     0.001 A 
ATOM     73  C   UNL A   1      36.782  30.196  27.654  1.00  0.00     0.001 A 
ATOM     74  C   UNL A   1      35.903  30.078  28.729  1.00  0.00     0.000 A 
ENDBRANCH  50  69
BRANCH  62  75
ATOM     75  C   UNL A   1      44.314  32.505  31.280  1.00  0.00    -0.014 A 
ATOM     76  C   UNL A   1      44.621  33.545  30.390  1.00  0.00     0.009 A 
ATOM     77  C   UNL A   1      44.208  32.790  32.651  1.00  0.00     0.009 A 
ATOM     78  C   UNL A   1      44.852  34.837  30.867  1.00  0.00     0.001 A 
ATOM     79  C   UNL A   1      44.413  34.088  33.122  1.00  0.00     0.001 A 
ATOM     80  C   UNL A   1      44.744  35.107  32.232  1.00  0.00     0.000 A 
ENDBRANCH  62  75
ENDBRANCH  36  37
ENDBRANCH  28  31
ENDBRANCH  26  27
ENDBRANCH  25  26
ENDBRANCH  24  25
ENDBRANCH   1  24
TORSDOF 17
ENDMDL
