MODEL 1
REMARK VINA RESULT:     -12.1      0.000      0.000
REMARK SMILES Cc1ccccc1[C@@H](Cc1c(Cl)cccc1Cl)C(=O)NCCCCCCNC(=O)c1ccc(-c2c3nc(c(-c4ccccc4)c4ccc([nH]4)c(-c4ccccc4)c4nc(c(-c5ccccc5)c5ccc2[nH]5)C=C4)C=C3)cc1
REMARK SMILES IDX 23 1 22 2 21 3 20 4 18 5 19 6 8 8 7 9 1 10 2 11 3 12 4 13
REMARK SMILES IDX 6 14 5 15 9 16 10 17 11 18 16 19 12 20 13 21 15 22 17 23
REMARK SMILES IDX 14 24 24 25 25 26 26 27 27 28 28 29 29 31 30 32 31 33 77 34
REMARK SMILES IDX 32 35 76 36 33 37 34 38 35 39 70 40 36 41 75 42 69 43 71 44
REMARK SMILES IDX 37 45 74 46 68 47 67 48 38 50 60 51 45 52 59 53 46 54 49 55
REMARK SMILES IDX 58 56 72 57 47 58 48 59 57 61 73 62 50 63 39 64 40 65 44 66
REMARK SMILES IDX 41 67 43 68 42 69 61 70 62 71 66 72 63 73 65 74 64 75 51 76
REMARK SMILES IDX 52 77 56 78 53 79 55 80 54 81
REMARK H PARENT 20 7 27 30 71 49 49 60
REMARK Flexibility Score: inf
ROOT
ATOM      1  C   UNL A   1      32.936  29.330  24.744  1.00  0.00     0.002 C 
ENDROOT
BRANCH   1   2
ATOM      2  C   UNL A   1      32.503  28.839  23.358  1.00  0.00     0.021 C 
BRANCH   2   3
ATOM      3  C   UNL A   1      33.648  28.318  22.482  1.00  0.00     0.116 C 
BRANCH   3   4
ATOM      4  N   UNL A   1      33.163  27.296  21.585  1.00  0.00    -0.356 N 
ATOM      5  C   UNL A   1      33.257  25.943  21.630  1.00  0.00     0.227 C 
ATOM      6  O   UNL A   1      33.079  25.361  20.551  1.00  0.00    -0.274 OA
ATOM      7  H   UNL A   1      32.675  27.641  20.803  1.00  0.00     0.163 HD
BRANCH   5   8
ATOM      8  C   UNL A   1      33.554  25.127  22.902  1.00  0.00     0.113 C 
BRANCH   8   9
ATOM      9  C   UNL A   1      32.429  25.265  23.947  1.00  0.00    -0.032 A 
ATOM     10  C   UNL A   1      34.023  25.953  25.864  1.00  0.00     0.044 C 
ATOM     11  C   UNL A   1      32.660  25.720  25.266  1.00  0.00    -0.047 A 
ATOM     12  C   UNL A   1      31.561  26.023  26.097  1.00  0.00     0.004 A 
ATOM     13  C   UNL A   1      30.251  25.822  25.673  1.00  0.00     0.000 A 
ATOM     14  C   UNL A   1      31.096  24.997  23.577  1.00  0.00     0.005 A 
ATOM     15  C   UNL A   1      30.020  25.281  24.420  1.00  0.00     0.000 A 
ENDBRANCH   8   9
BRANCH   8  16
ATOM     16  C   UNL A   1      34.114  23.688  22.753  1.00  0.00     0.057 C 
BRANCH  16  17
ATOM     17  C   UNL A   1      33.859  22.608  23.806  1.00  0.00    -0.010 A 
ATOM     18  C   UNL A   1      34.764  22.464  24.888  1.00  0.00     0.045 A 
ATOM     19  C   UNL A   1      32.806  21.672  23.756  1.00  0.00     0.045 A 
ATOM     20  Cl  UNL A   1      36.225  23.392  25.013  1.00  0.00    -0.084 Cl
ATOM     21  C   UNL A   1      34.553  21.533  25.915  1.00  0.00     0.021 A 
ATOM     22  C   UNL A   1      32.574  20.772  24.810  1.00  0.00     0.021 A 
ATOM     23  Cl  UNL A   1      31.787  21.449  22.380  1.00  0.00    -0.084 Cl
ATOM     24  C   UNL A   1      33.436  20.710  25.897  1.00  0.00     0.003 A 
ENDBRANCH  16  17
ENDBRANCH   8  16
ENDBRANCH   5   8
ENDBRANCH   3   4
ENDBRANCH   2   3
ENDBRANCH   1   2
BRANCH   1  25
ATOM     25  C   UNL A   1      31.823  29.912  25.634  1.00  0.00     0.002 C 
BRANCH  25  26
ATOM     26  C   UNL A   1      32.248  30.354  27.038  1.00  0.00     0.021 C 
BRANCH  26  27
ATOM     27  C   UNL A   1      33.750  30.271  27.281  1.00  0.00     0.116 C 
BRANCH  27  28
ATOM     28  N   UNL A   1      34.249  31.263  28.226  1.00  0.00    -0.352 N 
ATOM     29  C   UNL A   1      35.402  31.240  28.990  1.00  0.00     0.251 C 
ATOM     30  H   UNL A   1      33.686  32.064  28.335  1.00  0.00     0.163 HD
ATOM     31  O   UNL A   1      35.661  32.157  29.752  1.00  0.00    -0.269 OA
BRANCH  29  32
ATOM     32  C   UNL A   1      36.381  30.147  28.780  1.00  0.00     0.039 A 
ATOM     33  C   UNL A   1      36.652  29.302  29.861  1.00  0.00     0.014 A 
ATOM     34  C   UNL A   1      37.159  30.088  27.624  1.00  0.00     0.014 A 
ATOM     35  C   UNL A   1      37.841  28.579  29.877  1.00  0.00     0.010 A 
ATOM     36  C   UNL A   1      38.375  29.437  27.672  1.00  0.00     0.010 A 
ATOM     37  C   UNL A   1      38.744  28.745  28.829  1.00  0.00    -0.014 A 
BRANCH  37  38
ATOM     38  C   UNL A   1      40.136  28.324  28.915  1.00  0.00     0.031 A 
ATOM     39  C   UNL A   1      40.552  27.005  28.412  1.00  0.00     0.074 A 
ATOM     40  C   UNL A   1      41.050  29.143  29.478  1.00  0.00     0.049 A 
ATOM     41  N   UNL A   1      41.578  26.354  28.847  1.00  0.00    -0.248 NA
ATOM     42  C   UNL A   1      39.775  26.268  27.423  1.00  0.00     0.031 C 
ATOM     43  C   UNL A   1      42.502  29.010  29.458  1.00  0.00     0.029 A 
ATOM     44  N   UNL A   1      40.808  30.149  30.406  1.00  0.00    -0.354 N 
ATOM     45  C   UNL A   1      41.774  25.289  28.001  1.00  0.00     0.074 A 
ATOM     46  C   UNL A   1      40.556  25.202  27.231  1.00  0.00     0.031 C 
ATOM     47  C   UNL A   1      43.015  29.712  30.483  1.00  0.00     0.029 A 
ATOM     48  C   UNL A   1      41.901  30.195  31.282  1.00  0.00     0.049 A 
ATOM     49  H   UNL A   1      40.011  30.727  30.442  1.00  0.00     0.167 HD
ATOM     50  C   UNL A   1      43.007  24.710  27.937  1.00  0.00     0.031 A 
ATOM     51  C   UNL A   1      41.740  29.959  32.618  1.00  0.00     0.031 A 
ATOM     52  C   UNL A   1      43.903  25.220  28.979  1.00  0.00     0.049 A 
ATOM     53  C   UNL A   1      42.514  28.763  33.128  1.00  0.00     0.074 A 
ATOM     54  C   UNL A   1      44.964  26.111  28.966  1.00  0.00     0.029 A 
ATOM     55  N   UNL A   1      43.583  25.012  30.316  1.00  0.00    -0.354 N 
ATOM     56  N   UNL A   1      43.022  27.838  32.363  1.00  0.00    -0.248 NA
ATOM     57  C   UNL A   1      42.731  28.489  34.548  1.00  0.00     0.031 C 
ATOM     58  C   UNL A   1      45.234  26.492  30.307  1.00  0.00     0.029 A 
ATOM     59  C   UNL A   1      44.361  25.807  31.133  1.00  0.00     0.049 A 
ATOM     60  H   UNL A   1      42.895  24.384  30.636  1.00  0.00     0.167 HD
ATOM     61  C   UNL A   1      43.609  26.869  33.136  1.00  0.00     0.074 A 
ATOM     62  C   UNL A   1      43.415  27.331  34.498  1.00  0.00     0.031 C 
ATOM     63  C   UNL A   1      44.188  25.763  32.581  1.00  0.00     0.031 A 
BRANCH  50  64
ATOM     64  C   UNL A   1      43.497  23.901  26.751  1.00  0.00    -0.014 A 
ATOM     65  C   UNL A   1      43.436  22.495  26.799  1.00  0.00     0.009 A 
ATOM     66  C   UNL A   1      44.109  24.437  25.604  1.00  0.00     0.009 A 
ATOM     67  C   UNL A   1      44.023  21.685  25.814  1.00  0.00     0.001 A 
ATOM     68  C   UNL A   1      44.712  23.638  24.624  1.00  0.00     0.001 A 
ATOM     69  C   UNL A   1      44.682  22.258  24.735  1.00  0.00     0.000 A 
ENDBRANCH  50  64
BRANCH  51  70
ATOM     70  C   UNL A   1      40.416  30.394  33.142  1.00  0.00    -0.014 A 
ATOM     71  C   UNL A   1      40.146  31.776  33.215  1.00  0.00     0.009 A 
ATOM     72  C   UNL A   1      39.339  29.498  33.211  1.00  0.00     0.009 A 
ATOM     73  C   UNL A   1      38.831  32.250  33.232  1.00  0.00     0.001 A 
ATOM     74  C   UNL A   1      38.024  29.978  33.244  1.00  0.00     0.001 A 
ATOM     75  C   UNL A   1      37.770  31.349  33.217  1.00  0.00     0.000 A 
ENDBRANCH  51  70
BRANCH  63  76
ATOM     76  C   UNL A   1      44.705  24.549  33.318  1.00  0.00    -0.014 A 
ATOM     77  C   UNL A   1      46.030  24.369  33.734  1.00  0.00     0.009 A 
ATOM     78  C   UNL A   1      43.778  23.565  33.734  1.00  0.00     0.009 A 
ATOM     79  C   UNL A   1      46.415  23.248  34.487  1.00  0.00     0.001 A 
ATOM     80  C   UNL A   1      44.146  22.472  34.522  1.00  0.00     0.001 A 
ATOM     81  C   UNL A   1      45.472  22.307  34.889  1.00  0.00     0.000 A 
ENDBRANCH  63  76
ENDBRANCH  37  38
ENDBRANCH  29  32
ENDBRANCH  27  28
ENDBRANCH  26  27
ENDBRANCH  25  26
ENDBRANCH   1  25
TORSDOF 16
ENDMDL
MODEL 2
REMARK VINA RESULT:     -11.6      1.747      2.857
REMARK SMILES Cc1ccccc1[C@@H](Cc1c(Cl)cccc1Cl)C(=O)NCCCCCCNC(=O)c1ccc(-c2c3nc(c(-c4ccccc4)c4ccc([nH]4)c(-c4ccccc4)c4nc(c(-c5ccccc5)c5ccc2[nH]5)C=C4)C=C3)cc1
REMARK SMILES IDX 23 1 22 2 21 3 20 4 18 5 19 6 8 8 7 9 1 10 2 11 3 12 4 13
REMARK SMILES IDX 6 14 5 15 9 16 10 17 11 18 16 19 12 20 13 21 15 22 17 23
REMARK SMILES IDX 14 24 24 25 25 26 26 27 27 28 28 29 29 31 30 32 31 33 77 34
REMARK SMILES IDX 32 35 76 36 33 37 34 38 35 39 70 40 36 41 75 42 69 43 71 44
REMARK SMILES IDX 37 45 74 46 68 47 67 48 38 50 60 51 45 52 59 53 46 54 49 55
REMARK SMILES IDX 58 56 72 57 47 58 48 59 57 61 73 62 50 63 39 64 40 65 44 66
REMARK SMILES IDX 41 67 43 68 42 69 61 70 62 71 66 72 63 73 65 74 64 75 51 76
REMARK SMILES IDX 52 77 56 78 53 79 55 80 54 81
REMARK H PARENT 20 7 27 30 71 49 49 60
REMARK Flexibility Score: inf
ROOT
ATOM      1  C   UNL A   1      32.317  29.716  25.058  1.00  0.00     0.002 C 
ENDROOT
BRANCH   1   2
ATOM      2  C   UNL A   1      32.077  28.845  23.818  1.00  0.00     0.021 C 
BRANCH   2   3
ATOM      3  C   UNL A   1      33.348  28.468  23.051  1.00  0.00     0.116 C 
BRANCH   3   4
ATOM      4  N   UNL A   1      33.024  27.587  21.954  1.00  0.00    -0.356 N 
ATOM      5  C   UNL A   1      33.232  26.258  21.776  1.00  0.00     0.227 C 
ATOM      6  O   UNL A   1      33.188  25.864  20.603  1.00  0.00    -0.274 OA
ATOM      7  H   UNL A   1      32.569  28.029  21.201  1.00  0.00     0.163 HD
BRANCH   5   8
ATOM      8  C   UNL A   1      33.501  25.254  22.913  1.00  0.00     0.113 C 
BRANCH   8   9
ATOM      9  C   UNL A   1      32.416  25.321  24.006  1.00  0.00    -0.032 A 
ATOM     10  C   UNL A   1      34.091  25.802  25.918  1.00  0.00     0.044 C 
ATOM     11  C   UNL A   1      32.702  25.652  25.351  1.00  0.00    -0.047 A 
ATOM     12  C   UNL A   1      31.639  25.902  26.245  1.00  0.00     0.004 A 
ATOM     13  C   UNL A   1      30.312  25.767  25.852  1.00  0.00     0.000 A 
ATOM     14  C   UNL A   1      31.065  25.116  23.662  1.00  0.00     0.005 A 
ATOM     15  C   UNL A   1      30.025  25.345  24.565  1.00  0.00     0.000 A 
ENDBRANCH   8   9
BRANCH   8  16
ATOM     16  C   UNL A   1      33.951  23.815  22.548  1.00  0.00     0.057 C 
BRANCH  16  17
ATOM     17  C   UNL A   1      33.946  22.681  23.575  1.00  0.00    -0.010 A 
ATOM     18  C   UNL A   1      35.031  22.556  24.479  1.00  0.00     0.045 A 
ATOM     19  C   UNL A   1      32.957  21.680  23.660  1.00  0.00     0.045 A 
ATOM     20  Cl  UNL A   1      36.435  23.574  24.398  1.00  0.00    -0.084 Cl
ATOM     21  C   UNL A   1      35.057  21.575  25.480  1.00  0.00     0.021 A 
ATOM     22  C   UNL A   1      32.964  20.727  24.692  1.00  0.00     0.021 A 
ATOM     23  Cl  UNL A   1      31.730  21.443  22.469  1.00  0.00    -0.084 Cl
ATOM     24  C   UNL A   1      34.004  20.681  25.613  1.00  0.00     0.003 A 
ENDBRANCH  16  17
ENDBRANCH   8  16
ENDBRANCH   5   8
ENDBRANCH   3   4
ENDBRANCH   2   3
ENDBRANCH   1   2
BRANCH   1  25
ATOM     25  C   UNL A   1      33.560  29.370  25.897  1.00  0.00     0.002 C 
BRANCH  25  26
ATOM     26  C   UNL A   1      33.563  29.891  27.338  1.00  0.00     0.021 C 
BRANCH  26  27
ATOM     27  C   UNL A   1      34.432  31.126  27.544  1.00  0.00     0.116 C 
BRANCH  27  28
ATOM     28  N   UNL A   1      33.694  32.295  28.003  1.00  0.00    -0.352 N 
ATOM     29  C   UNL A   1      34.043  33.227  28.964  1.00  0.00     0.251 C 
ATOM     30  H   UNL A   1      32.823  32.445  27.567  1.00  0.00     0.163 HD
ATOM     31  O   UNL A   1      33.289  34.146  29.240  1.00  0.00    -0.269 OA
BRANCH  29  32
ATOM     32  C   UNL A   1      35.396  33.168  29.565  1.00  0.00     0.039 A 
ATOM     33  C   UNL A   1      36.441  33.790  28.874  1.00  0.00     0.014 A 
ATOM     34  C   UNL A   1      35.662  32.349  30.662  1.00  0.00     0.014 A 
ATOM     35  C   UNL A   1      37.752  33.399  29.128  1.00  0.00     0.010 A 
ATOM     36  C   UNL A   1      36.953  31.901  30.861  1.00  0.00     0.010 A 
ATOM     37  C   UNL A   1      37.983  32.372  30.042  1.00  0.00    -0.014 A 
BRANCH  37  38
ATOM     38  C   UNL A   1      39.251  31.658  30.120  1.00  0.00     0.031 A 
ATOM     39  C   UNL A   1      39.411  30.346  29.475  1.00  0.00     0.074 A 
ATOM     40  C   UNL A   1      40.282  32.197  30.805  1.00  0.00     0.049 A 
ATOM     41  N   UNL A   1      40.254  29.447  29.860  1.00  0.00    -0.248 NA
ATOM     42  C   UNL A   1      38.554  29.905  28.381  1.00  0.00     0.031 C 
ATOM     43  C   UNL A   1      41.674  31.762  30.813  1.00  0.00     0.029 A 
ATOM     44  N   UNL A   1      40.203  33.123  31.838  1.00  0.00    -0.354 N 
ATOM     45  C   UNL A   1      40.272  28.465  28.898  1.00  0.00     0.074 A 
ATOM     46  C   UNL A   1      39.107  28.725  28.086  1.00  0.00     0.031 C 
ATOM     47  C   UNL A   1      42.264  32.220  31.930  1.00  0.00     0.029 A 
ATOM     48  C   UNL A   1      41.232  32.837  32.747  1.00  0.00     0.049 A 
ATOM     49  H   UNL A   1      39.542  33.849  31.919  1.00  0.00     0.167 HD
ATOM     50  C   UNL A   1      41.359  27.648  28.803  1.00  0.00     0.031 A 
ATOM     51  C   UNL A   1      40.952  32.495  34.039  1.00  0.00     0.031 A 
ATOM     52  C   UNL A   1      42.282  27.837  29.926  1.00  0.00     0.049 A 
ATOM     53  C   UNL A   1      41.431  31.112  34.426  1.00  0.00     0.074 A 
ATOM     54  C   UNL A   1      43.504  28.478  30.052  1.00  0.00     0.029 A 
ATOM     55  N   UNL A   1      41.852  27.555  31.217  1.00  0.00    -0.354 N 
ATOM     56  N   UNL A   1      41.777  30.191  33.571  1.00  0.00    -0.248 NA
ATOM     57  C   UNL A   1      41.508  30.643  35.808  1.00  0.00     0.031 C 
ATOM     58  C   UNL A   1      43.773  28.642  31.437  1.00  0.00     0.029 A 
ATOM     59  C   UNL A   1      42.733  28.072  32.148  1.00  0.00     0.049 A 
ATOM     60  H   UNL A   1      41.033  27.057  31.439  1.00  0.00     0.167 HD
ATOM     61  C   UNL A   1      42.107  29.040  34.240  1.00  0.00     0.074 A 
ATOM     62  C   UNL A   1      41.939  29.379  35.641  1.00  0.00     0.031 C 
ATOM     63  C   UNL A   1      42.474  27.905  33.574  1.00  0.00     0.031 A 
BRANCH  50  64
ATOM     64  C   UNL A   1      41.735  26.890  27.544  1.00  0.00    -0.014 A 
ATOM     65  C   UNL A   1      41.851  25.487  27.589  1.00  0.00     0.009 A 
ATOM     66  C   UNL A   1      42.078  27.482  26.316  1.00  0.00     0.009 A 
ATOM     67  C   UNL A   1      42.356  24.742  26.512  1.00  0.00     0.001 A 
ATOM     68  C   UNL A   1      42.598  26.750  25.240  1.00  0.00     0.001 A 
ATOM     69  C   UNL A   1      42.751  25.378  25.342  1.00  0.00     0.000 A 
ENDBRANCH  50  64
BRANCH  51  70
ATOM     70  C   UNL A   1      39.719  33.140  34.571  1.00  0.00    -0.014 A 
ATOM     71  C   UNL A   1      38.497  32.448  34.448  1.00  0.00     0.009 A 
ATOM     72  C   UNL A   1      39.799  34.201  35.485  1.00  0.00     0.009 A 
ATOM     73  C   UNL A   1      37.425  32.730  35.300  1.00  0.00     0.001 A 
ATOM     74  C   UNL A   1      38.716  34.490  36.325  1.00  0.00     0.001 A 
ATOM     75  C   UNL A   1      37.546  33.733  36.258  1.00  0.00     0.000 A 
ENDBRANCH  51  70
BRANCH  63  76
ATOM     76  C   UNL A   1      42.687  26.535  34.176  1.00  0.00    -0.014 A 
ATOM     77  C   UNL A   1      41.792  25.891  35.040  1.00  0.00     0.009 A 
ATOM     78  C   UNL A   1      43.806  25.778  33.755  1.00  0.00     0.009 A 
ATOM     79  C   UNL A   1      42.023  24.583  35.492  1.00  0.00     0.001 A 
ATOM     80  C   UNL A   1      44.018  24.460  34.165  1.00  0.00     0.001 A 
ATOM     81  C   UNL A   1      43.129  23.865  35.046  1.00  0.00     0.000 A 
ENDBRANCH  63  76
ENDBRANCH  37  38
ENDBRANCH  29  32
ENDBRANCH  27  28
ENDBRANCH  26  27
ENDBRANCH  25  26
ENDBRANCH   1  25
TORSDOF 16
ENDMDL
MODEL 3
REMARK VINA RESULT:     -11.1      2.690      4.485
REMARK SMILES Cc1ccccc1[C@@H](Cc1c(Cl)cccc1Cl)C(=O)NCCCCCCNC(=O)c1ccc(-c2c3nc(c(-c4ccccc4)c4ccc([nH]4)c(-c4ccccc4)c4nc(c(-c5ccccc5)c5ccc2[nH]5)C=C4)C=C3)cc1
REMARK SMILES IDX 23 1 22 2 21 3 20 4 18 5 19 6 8 8 7 9 1 10 2 11 3 12 4 13
REMARK SMILES IDX 6 14 5 15 9 16 10 17 11 18 16 19 12 20 13 21 15 22 17 23
REMARK SMILES IDX 14 24 24 25 25 26 26 27 27 28 28 29 29 31 30 32 31 33 77 34
REMARK SMILES IDX 32 35 76 36 33 37 34 38 35 39 70 40 36 41 75 42 69 43 71 44
REMARK SMILES IDX 37 45 74 46 68 47 67 48 38 50 60 51 45 52 59 53 46 54 49 55
REMARK SMILES IDX 58 56 72 57 47 58 48 59 57 61 73 62 50 63 39 64 40 65 44 66
REMARK SMILES IDX 41 67 43 68 42 69 61 70 62 71 66 72 63 73 65 74 64 75 51 76
REMARK SMILES IDX 52 77 56 78 53 79 55 80 54 81
REMARK H PARENT 20 7 27 30 71 49 49 60
REMARK Flexibility Score: inf
ROOT
ATOM      1  C   UNL A   1      33.658  31.381  27.255  1.00  0.00     0.002 C 
ENDROOT
BRANCH   1   2
ATOM      2  C   UNL A   1      34.794  30.360  27.384  1.00  0.00     0.021 C 
BRANCH   2   3
ATOM      3  C   UNL A   1      34.412  28.930  26.986  1.00  0.00     0.116 C 
BRANCH   3   4
ATOM      4  N   UNL A   1      33.217  28.522  27.685  1.00  0.00    -0.356 N 
ATOM      5  C   UNL A   1      32.126  27.829  27.271  1.00  0.00     0.227 C 
ATOM      6  O   UNL A   1      31.115  27.957  27.975  1.00  0.00    -0.274 OA
ATOM      7  H   UNL A   1      33.188  28.793  28.631  1.00  0.00     0.163 HD
BRANCH   5   8
ATOM      8  C   UNL A   1      32.084  26.921  26.027  1.00  0.00     0.113 C 
BRANCH   8   9
ATOM      9  C   UNL A   1      31.209  27.521  24.909  1.00  0.00    -0.032 A 
ATOM     10  C   UNL A   1      29.923  25.321  24.462  1.00  0.00     0.044 C 
ATOM     11  C   UNL A   1      30.178  26.794  24.269  1.00  0.00    -0.047 A 
ATOM     12  C   UNL A   1      29.284  27.469  23.411  1.00  0.00     0.004 A 
ATOM     13  C   UNL A   1      29.431  28.823  23.126  1.00  0.00     0.000 A 
ATOM     14  C   UNL A   1      31.377  28.870  24.539  1.00  0.00     0.005 A 
ATOM     15  C   UNL A   1      30.497  29.518  23.670  1.00  0.00     0.000 A 
ENDBRANCH   8   9
BRANCH   8  16
ATOM     16  C   UNL A   1      33.404  26.276  25.528  1.00  0.00     0.057 C 
BRANCH  16  17
ATOM     17  C   UNL A   1      33.410  25.108  24.541  1.00  0.00    -0.010 A 
ATOM     18  C   UNL A   1      33.509  23.782  25.033  1.00  0.00     0.045 A 
ATOM     19  C   UNL A   1      33.390  25.243  23.138  1.00  0.00     0.045 A 
ATOM     20  Cl  UNL A   1      33.743  23.425  26.715  1.00  0.00    -0.084 Cl
ATOM     21  C   UNL A   1      33.461  22.667  24.183  1.00  0.00     0.021 A 
ATOM     22  C   UNL A   1      33.296  24.123  22.294  1.00  0.00     0.021 A 
ATOM     23  Cl  UNL A   1      33.597  26.748  22.318  1.00  0.00    -0.084 Cl
ATOM     24  C   UNL A   1      33.316  22.836  22.814  1.00  0.00     0.003 A 
ENDBRANCH  16  17
ENDBRANCH   8  16
ENDBRANCH   5   8
ENDBRANCH   3   4
ENDBRANCH   2   3
ENDBRANCH   1   2
BRANCH   1  25
ATOM     25  C   UNL A   1      33.676  32.544  28.263  1.00  0.00     0.002 C 
BRANCH  25  26
ATOM     26  C   UNL A   1      34.980  33.345  28.341  1.00  0.00     0.021 C 
BRANCH  26  27
ATOM     27  C   UNL A   1      34.775  34.828  28.629  1.00  0.00     0.116 C 
BRANCH  27  28
ATOM     28  N   UNL A   1      33.739  35.096  29.620  1.00  0.00    -0.352 N 
ATOM     29  C   UNL A   1      33.695  34.739  30.956  1.00  0.00     0.251 C 
ATOM     30  H   UNL A   1      32.962  35.605  29.293  1.00  0.00     0.163 HD
ATOM     31  O   UNL A   1      32.732  35.034  31.646  1.00  0.00    -0.269 OA
BRANCH  29  32
ATOM     32  C   UNL A   1      34.884  34.103  31.570  1.00  0.00     0.039 A 
ATOM     33  C   UNL A   1      36.058  34.860  31.648  1.00  0.00     0.014 A 
ATOM     34  C   UNL A   1      34.901  32.741  31.867  1.00  0.00     0.014 A 
ATOM     35  C   UNL A   1      37.280  34.209  31.781  1.00  0.00     0.010 A 
ATOM     36  C   UNL A   1      36.115  32.085  31.919  1.00  0.00     0.010 A 
ATOM     37  C   UNL A   1      37.301  32.815  31.801  1.00  0.00    -0.014 A 
BRANCH  37  38
ATOM     38  C   UNL A   1      38.518  32.044  31.584  1.00  0.00     0.031 A 
ATOM     39  C   UNL A   1      38.470  30.751  30.883  1.00  0.00     0.074 A 
ATOM     40  C   UNL A   1      39.697  32.510  32.047  1.00  0.00     0.049 A 
ATOM     41  N   UNL A   1      39.327  29.802  31.052  1.00  0.00    -0.248 NA
ATOM     42  C   UNL A   1      37.377  30.392  29.986  1.00  0.00     0.031 C 
ATOM     43  C   UNL A   1      41.035  32.013  31.744  1.00  0.00     0.029 A 
ATOM     44  N   UNL A   1      39.888  33.397  33.100  1.00  0.00    -0.354 N 
ATOM     45  C   UNL A   1      39.090  28.859  30.081  1.00  0.00     0.074 A 
ATOM     46  C   UNL A   1      37.793  29.201  29.546  1.00  0.00     0.031 C 
ATOM     47  C   UNL A   1      41.872  32.401  32.721  1.00  0.00     0.029 A 
ATOM     48  C   UNL A   1      41.071  33.031  33.757  1.00  0.00     0.049 A 
ATOM     49  H   UNL A   1      39.298  34.147  33.341  1.00  0.00     0.167 HD
ATOM     50  C   UNL A   1      40.088  27.999  29.731  1.00  0.00     0.031 A 
ATOM     51  C   UNL A   1      41.055  32.651  35.069  1.00  0.00     0.031 A 
ATOM     52  C   UNL A   1      41.238  28.103  30.635  1.00  0.00     0.049 A 
ATOM     53  C   UNL A   1      41.534  31.235  35.304  1.00  0.00     0.074 A 
ATOM     54  C   UNL A   1      42.490  28.684  30.514  1.00  0.00     0.029 A 
ATOM     55  N   UNL A   1      41.079  27.790  31.980  1.00  0.00    -0.354 N 
ATOM     56  N   UNL A   1      41.643  30.333  34.369  1.00  0.00    -0.248 NA
ATOM     57  C   UNL A   1      41.880  30.709  36.624  1.00  0.00     0.031 C 
ATOM     58  C   UNL A   1      43.056  28.782  31.813  1.00  0.00     0.029 A 
ATOM     59  C   UNL A   1      42.163  28.231  32.714  1.00  0.00     0.049 A 
ATOM     60  H   UNL A   1      40.301  27.320  32.357  1.00  0.00     0.167 HD
ATOM     61  C   UNL A   1      42.048  29.143  34.918  1.00  0.00     0.074 A 
ATOM     62  C   UNL A   1      42.199  29.435  36.332  1.00  0.00     0.031 C 
ATOM     63  C   UNL A   1      42.205  28.020  34.157  1.00  0.00     0.031 A 
BRANCH  50  64
ATOM     64  C   UNL A   1      40.148  27.275  28.400  1.00  0.00    -0.014 A 
ATOM     65  C   UNL A   1      39.563  25.999  28.278  1.00  0.00     0.009 A 
ATOM     66  C   UNL A   1      40.833  27.732  27.260  1.00  0.00     0.009 A 
ATOM     67  C   UNL A   1      39.727  25.206  27.132  1.00  0.00     0.001 A 
ATOM     68  C   UNL A   1      41.016  26.943  26.118  1.00  0.00     0.001 A 
ATOM     69  C   UNL A   1      40.474  25.670  26.058  1.00  0.00     0.000 A 
ENDBRANCH  50  64
BRANCH  51  70
ATOM     70  C   UNL A   1      39.999  33.329  35.872  1.00  0.00    -0.014 A 
ATOM     71  C   UNL A   1      38.816  32.616  36.155  1.00  0.00     0.009 A 
ATOM     72  C   UNL A   1      40.294  34.468  36.635  1.00  0.00     0.009 A 
ATOM     73  C   UNL A   1      38.016  32.962  37.249  1.00  0.00     0.001 A 
ATOM     74  C   UNL A   1      39.481  34.819  37.719  1.00  0.00     0.001 A 
ATOM     75  C   UNL A   1      38.366  34.047  38.047  1.00  0.00     0.000 A 
ENDBRANCH  51  70
BRANCH  63  76
ATOM     76  C   UNL A   1      42.471  26.620  34.659  1.00  0.00    -0.014 A 
ATOM     77  C   UNL A   1      41.556  25.839  35.377  1.00  0.00     0.009 A 
ATOM     78  C   UNL A   1      43.679  25.985  34.286  1.00  0.00     0.009 A 
ATOM     79  C   UNL A   1      41.848  24.514  35.738  1.00  0.00     0.001 A 
ATOM     80  C   UNL A   1      43.956  24.653  34.603  1.00  0.00     0.001 A 
ATOM     81  C   UNL A   1      43.042  23.919  35.342  1.00  0.00     0.000 A 
ENDBRANCH  63  76
ENDBRANCH  37  38
ENDBRANCH  29  32
ENDBRANCH  27  28
ENDBRANCH  26  27
ENDBRANCH  25  26
ENDBRANCH   1  25
TORSDOF 16
ENDMDL
