MODEL 1
REMARK VINA RESULT:     -10.3      0.000      0.000
REMARK SMILES C[C@@H]1SC[C@H](C(=O)NCCCCCCNC(=O)c2ccc(-c3c4nc(c(-c5ccccc5)c5ccc([nH]5)c(-c5ccccc5)c5nc(c(-c6ccccc6)c6ccc3[nH]6)C=C5)C=C4)cc2)N1C(=O)N(C)[C@@H](C)Cc1cccs1
REMARK SMILES IDX 10 1 9 2 8 3 6 4 7 5 5 7 1 8 2 9 3 10 66 11 4 12 67 13 68 14
REMARK SMILES IDX 69 15 70 16 71 17 72 18 73 19 74 20 75 21 78 22 76 23 77 24
REMARK SMILES IDX 11 25 12 26 13 27 14 28 15 29 16 30 17 32 18 33 19 34 65 35
REMARK SMILES IDX 20 36 64 37 21 38 22 39 23 40 58 41 24 42 63 43 57 44 59 45
REMARK SMILES IDX 25 46 62 47 56 48 55 49 26 51 48 52 33 53 47 54 34 55 37 56
REMARK SMILES IDX 46 57 60 58 35 59 36 60 45 62 61 63 38 64 27 65 28 66 32 67
REMARK SMILES IDX 29 68 31 69 30 70 49 71 50 72 54 73 51 74 53 75 52 76 39 77
REMARK SMILES IDX 40 78 44 79 41 80 43 81 42 82
REMARK H PARENT 8 6 15 31 59 50 37 61
REMARK Flexibility Score: inf
ROOT
ATOM      1  C   UNL A   1      37.732  23.656  25.771  1.00  0.00     0.021 C 
ENDROOT
BRANCH   1   2
ATOM      2  C   UNL A   1      36.206  23.638  25.686  1.00  0.00     0.116 C 
BRANCH   2   3
ATOM      3  N   UNL A   1      35.763  24.056  24.376  1.00  0.00    -0.354 N 
ATOM      4  C   UNL A   1      34.568  24.560  23.967  1.00  0.00     0.243 C 
ATOM      5  O   UNL A   1      34.396  24.642  22.744  1.00  0.00    -0.273 OA
ATOM      6  H   UNL A   1      36.436  23.961  23.663  1.00  0.00     0.163 HD
BRANCH   4   7
ATOM      7  C   UNL A   1      33.385  24.795  24.932  1.00  0.00     0.187 C 
ATOM      8  C   UNL A   1      30.014  25.787  24.107  1.00  0.00     0.043 C 
ATOM      9  C   UNL A   1      30.973  25.196  25.140  1.00  0.00     0.142 C 
ATOM     10  S   UNL A   1      31.796  26.571  26.014  1.00  0.00    -0.135 SA
ATOM     11  N   UNL A   1      32.015  24.331  24.583  1.00  0.00    -0.300 N 
ATOM     12  C   UNL A   1      33.360  26.298  25.185  1.00  0.00     0.107 C 
BRANCH  11  13
ATOM     13  C   UNL A   1      31.936  23.013  24.174  1.00  0.00     0.321 C 
ATOM     14  O   UNL A   1      31.344  22.770  23.117  1.00  0.00    -0.248 OA
BRANCH  13  15
ATOM     15  N   UNL A   1      32.413  21.952  24.919  1.00  0.00    -0.325 N 
ATOM     16  C   UNL A   1      32.411  21.776  26.362  1.00  0.00     0.149 C 
BRANCH  15  17
ATOM     17  C   UNL A   1      33.083  20.840  24.181  1.00  0.00     0.088 C 
ATOM     18  C   UNL A   1      34.387  20.396  24.861  1.00  0.00     0.031 C 
BRANCH  17  19
ATOM     19  C   UNL A   1      32.171  19.628  23.862  1.00  0.00     0.071 C 
BRANCH  19  20
ATOM     20  C   UNL A   1      32.862  18.300  24.039  1.00  0.00     0.007 A 
ATOM     21  C   UNL A   1      33.622  17.586  23.132  1.00  0.00     0.015 A 
ATOM     22  S   UNL A   1      32.752  17.478  25.541  1.00  0.00    -0.149 S 
ATOM     23  C   UNL A   1      34.064  16.337  23.655  1.00  0.00     0.012 A 
ATOM     24  C   UNL A   1      33.668  16.158  24.962  1.00  0.00     0.065 A 
ENDBRANCH  19  20
ENDBRANCH  17  19
ENDBRANCH  15  17
ENDBRANCH  13  15
ENDBRANCH  11  13
ENDBRANCH   4   7
ENDBRANCH   2   3
ENDBRANCH   1   2
BRANCH   1  25
ATOM     25  C   UNL A   1      38.393  22.271  25.797  1.00  0.00     0.002 C 
BRANCH  25  26
ATOM     26  C   UNL A   1      37.781  21.235  24.851  1.00  0.00     0.002 C 
BRANCH  26  27
ATOM     27  C   UNL A   1      38.351  19.819  24.975  1.00  0.00     0.021 C 
BRANCH  27  28
ATOM     28  C   UNL A   1      39.279  19.595  26.166  1.00  0.00     0.116 C 
BRANCH  28  29
ATOM     29  N   UNL A   1      40.570  19.054  25.777  1.00  0.00    -0.352 N 
ATOM     30  C   UNL A   1      41.801  19.654  25.781  1.00  0.00     0.251 C 
ATOM     31  H   UNL A   1      40.559  18.121  25.466  1.00  0.00     0.163 HD
ATOM     32  O   UNL A   1      42.767  19.077  25.278  1.00  0.00    -0.269 OA
BRANCH  30  33
ATOM     33  C   UNL A   1      41.979  21.003  26.360  1.00  0.00     0.039 A 
ATOM     34  C   UNL A   1      41.833  21.162  27.740  1.00  0.00     0.014 A 
ATOM     35  C   UNL A   1      42.263  22.112  25.556  1.00  0.00     0.014 A 
ATOM     36  C   UNL A   1      42.022  22.416  28.320  1.00  0.00     0.010 A 
ATOM     37  C   UNL A   1      42.513  23.353  26.142  1.00  0.00     0.010 A 
ATOM     38  C   UNL A   1      42.391  23.518  27.530  1.00  0.00    -0.014 A 
BRANCH  38  39
ATOM     39  C   UNL A   1      42.663  24.835  28.157  1.00  0.00     0.031 A 
ATOM     40  C   UNL A   1      44.047  25.196  28.617  1.00  0.00     0.074 A 
ATOM     41  C   UNL A   1      41.648  25.704  28.335  1.00  0.00     0.049 A 
ATOM     42  N   UNL A   1      44.473  26.316  29.149  1.00  0.00    -0.248 NA
ATOM     43  C   UNL A   1      45.084  24.161  28.487  1.00  0.00     0.031 C 
ATOM     44  C   UNL A   1      40.249  25.455  27.980  1.00  0.00     0.029 A 
ATOM     45  N   UNL A   1      41.640  26.974  28.851  1.00  0.00    -0.354 N 
ATOM     46  C   UNL A   1      45.820  26.117  29.422  1.00  0.00     0.074 A 
ATOM     47  C   UNL A   1      46.130  24.755  29.044  1.00  0.00     0.031 C 
ATOM     48  C   UNL A   1      39.526  26.552  28.253  1.00  0.00     0.029 A 
ATOM     49  C   UNL A   1      40.403  27.569  28.824  1.00  0.00     0.049 A 
ATOM     50  H   UNL A   1      42.444  27.417  29.208  1.00  0.00     0.167 HD
ATOM     51  C   UNL A   1      46.724  26.993  29.922  1.00  0.00     0.031 A 
ATOM     52  C   UNL A   1      40.018  28.802  29.201  1.00  0.00     0.031 A 
ATOM     53  C   UNL A   1      46.421  28.350  30.293  1.00  0.00     0.049 A 
ATOM     54  C   UNL A   1      41.042  29.763  29.733  1.00  0.00     0.074 A 
ATOM     55  C   UNL A   1      47.280  29.330  30.761  1.00  0.00     0.029 A 
ATOM     56  N   UNL A   1      45.159  28.919  30.236  1.00  0.00    -0.354 N 
ATOM     57  N   UNL A   1      42.328  29.583  29.915  1.00  0.00    -0.248 NA
ATOM     58  C   UNL A   1      40.564  31.106  30.091  1.00  0.00     0.031 C 
ATOM     59  C   UNL A   1      46.528  30.481  31.025  1.00  0.00     0.029 A 
ATOM     60  C   UNL A   1      45.211  30.232  30.675  1.00  0.00     0.049 A 
ATOM     61  H   UNL A   1      44.344  28.459  29.929  1.00  0.00     0.167 HD
ATOM     62  C   UNL A   1      42.816  30.796  30.383  1.00  0.00     0.074 A 
ATOM     63  C   UNL A   1      41.693  31.708  30.439  1.00  0.00     0.031 C 
ATOM     64  C   UNL A   1      44.085  31.125  30.732  1.00  0.00     0.031 A 
BRANCH  51  65
ATOM     65  C   UNL A   1      48.134  26.503  30.101  1.00  0.00    -0.014 A 
ATOM     66  C   UNL A   1      48.542  25.887  31.296  1.00  0.00     0.009 A 
ATOM     67  C   UNL A   1      49.058  26.628  29.053  1.00  0.00     0.009 A 
ATOM     68  C   UNL A   1      49.856  25.439  31.449  1.00  0.00     0.001 A 
ATOM     69  C   UNL A   1      50.364  26.156  29.199  1.00  0.00     0.001 A 
ATOM     70  C   UNL A   1      50.764  25.570  30.400  1.00  0.00     0.000 A 
ENDBRANCH  51  65
BRANCH  52  71
ATOM     71  C   UNL A   1      38.599  29.216  29.049  1.00  0.00    -0.014 A 
ATOM     72  C   UNL A   1      37.712  29.117  30.131  1.00  0.00     0.009 A 
ATOM     73  C   UNL A   1      38.126  29.708  27.824  1.00  0.00     0.009 A 
ATOM     74  C   UNL A   1      36.372  29.481  29.983  1.00  0.00     0.001 A 
ATOM     75  C   UNL A   1      36.792  30.094  27.686  1.00  0.00     0.001 A 
ATOM     76  C   UNL A   1      35.914  29.972  28.761  1.00  0.00     0.000 A 
ENDBRANCH  52  71
BRANCH  64  77
ATOM     77  C   UNL A   1      44.321  32.540  31.177  1.00  0.00    -0.014 A 
ATOM     78  C   UNL A   1      44.324  32.887  32.537  1.00  0.00     0.009 A 
ATOM     79  C   UNL A   1      44.555  33.538  30.219  1.00  0.00     0.009 A 
ATOM     80  C   UNL A   1      44.516  34.214  32.926  1.00  0.00     0.001 A 
ATOM     81  C   UNL A   1      44.774  34.859  30.612  1.00  0.00     0.001 A 
ATOM     82  C   UNL A   1      44.742  35.198  31.964  1.00  0.00     0.000 A 
ENDBRANCH  64  77
ENDBRANCH  38  39
ENDBRANCH  30  33
ENDBRANCH  28  29
ENDBRANCH  27  28
ENDBRANCH  26  27
ENDBRANCH  25  26
ENDBRANCH   1  25
TORSDOF 18
ENDMDL
MODEL 2
REMARK VINA RESULT:     -10.1      1.848      4.276
REMARK SMILES C[C@@H]1SC[C@H](C(=O)NCCCCCCNC(=O)c2ccc(-c3c4nc(c(-c5ccccc5)c5ccc([nH]5)c(-c5ccccc5)c5nc(c(-c6ccccc6)c6ccc3[nH]6)C=C5)C=C4)cc2)N1C(=O)N(C)[C@@H](C)Cc1cccs1
REMARK SMILES IDX 10 1 9 2 8 3 6 4 7 5 5 7 1 8 2 9 3 10 66 11 4 12 67 13 68 14
REMARK SMILES IDX 69 15 70 16 71 17 72 18 73 19 74 20 75 21 78 22 76 23 77 24
REMARK SMILES IDX 11 25 12 26 13 27 14 28 15 29 16 30 17 32 18 33 19 34 65 35
REMARK SMILES IDX 20 36 64 37 21 38 22 39 23 40 58 41 24 42 63 43 57 44 59 45
REMARK SMILES IDX 25 46 62 47 56 48 55 49 26 51 48 52 33 53 47 54 34 55 37 56
REMARK SMILES IDX 46 57 60 58 35 59 36 60 45 62 61 63 38 64 27 65 28 66 32 67
REMARK SMILES IDX 29 68 31 69 30 70 49 71 50 72 54 73 51 74 53 75 52 76 39 77
REMARK SMILES IDX 40 78 44 79 41 80 43 81 42 82
REMARK H PARENT 8 6 15 31 59 50 37 61
REMARK Flexibility Score: inf
ROOT
ATOM      1  C   UNL A   1      36.614  22.679  23.399  1.00  0.00     0.021 C 
ENDROOT
BRANCH   1   2
ATOM      2  C   UNL A   1      35.300  23.459  23.383  1.00  0.00     0.116 C 
BRANCH   2   3
ATOM      3  N   UNL A   1      35.264  24.420  24.461  1.00  0.00    -0.354 N 
ATOM      4  C   UNL A   1      34.251  24.771  25.297  1.00  0.00     0.243 C 
ATOM      5  O   UNL A   1      34.440  25.773  25.999  1.00  0.00    -0.273 OA
ATOM      6  H   UNL A   1      36.111  24.898  24.616  1.00  0.00     0.163 HD
BRANCH   4   7
ATOM      7  C   UNL A   1      32.846  24.132  25.224  1.00  0.00     0.187 C 
ATOM      8  C   UNL A   1      29.676  25.644  26.058  1.00  0.00     0.043 C 
ATOM      9  C   UNL A   1      30.426  24.511  25.357  1.00  0.00     0.142 C 
ATOM     10  S   UNL A   1      30.809  23.224  26.593  1.00  0.00    -0.135 SA
ATOM     11  N   UNL A   1      31.682  24.910  24.720  1.00  0.00    -0.300 N 
ATOM     12  C   UNL A   1      32.551  23.638  26.636  1.00  0.00     0.107 C 
BRANCH  11  13
ATOM     13  C   UNL A   1      31.890  25.547  23.512  1.00  0.00     0.321 C 
ATOM     14  O   UNL A   1      31.761  24.882  22.477  1.00  0.00    -0.248 OA
BRANCH  13  15
ATOM     15  N   UNL A   1      32.309  26.859  23.401  1.00  0.00    -0.325 N 
ATOM     16  C   UNL A   1      33.492  27.387  22.742  1.00  0.00     0.149 C 
BRANCH  15  17
ATOM     17  C   UNL A   1      31.492  27.902  24.091  1.00  0.00     0.088 C 
ATOM     18  C   UNL A   1      32.070  28.277  25.464  1.00  0.00     0.031 C 
BRANCH  17  19
ATOM     19  C   UNL A   1      31.194  29.163  23.239  1.00  0.00     0.071 C 
BRANCH  19  20
ATOM     20  C   UNL A   1      29.736  29.545  23.232  1.00  0.00     0.007 A 
ATOM     21  C   UNL A   1      29.158  30.782  23.449  1.00  0.00     0.015 A 
ATOM     22  S   UNL A   1      28.545  28.349  22.923  1.00  0.00    -0.149 S 
ATOM     23  C   UNL A   1      27.735  30.731  23.417  1.00  0.00     0.012 A 
ATOM     24  C   UNL A   1      27.271  29.468  23.129  1.00  0.00     0.065 A 
ENDBRANCH  19  20
ENDBRANCH  17  19
ENDBRANCH  15  17
ENDBRANCH  13  15
ENDBRANCH  11  13
ENDBRANCH   4   7
ENDBRANCH   2   3
ENDBRANCH   1   2
BRANCH   1  25
ATOM     25  C   UNL A   1      36.978  22.055  24.753  1.00  0.00     0.002 C 
BRANCH  25  26
ATOM     26  C   UNL A   1      36.743  20.547  24.864  1.00  0.00     0.002 C 
BRANCH  26  27
ATOM     27  C   UNL A   1      38.008  19.684  24.849  1.00  0.00     0.021 C 
BRANCH  27  28
ATOM     28  C   UNL A   1      39.093  20.106  25.837  1.00  0.00     0.116 C 
BRANCH  28  29
ATOM     29  N   UNL A   1      40.241  19.216  25.823  1.00  0.00    -0.352 N 
ATOM     30  C   UNL A   1      41.553  19.484  26.113  1.00  0.00     0.251 C 
ATOM     31  H   UNL A   1      40.048  18.285  25.570  1.00  0.00     0.163 HD
ATOM     32  O   UNL A   1      42.414  18.627  25.907  1.00  0.00    -0.269 OA
BRANCH  30  33
ATOM     33  C   UNL A   1      41.952  20.804  26.645  1.00  0.00     0.039 A 
ATOM     34  C   UNL A   1      42.375  21.786  25.745  1.00  0.00     0.014 A 
ATOM     35  C   UNL A   1      41.936  21.075  28.018  1.00  0.00     0.014 A 
ATOM     36  C   UNL A   1      42.732  23.051  26.213  1.00  0.00     0.010 A 
ATOM     37  C   UNL A   1      42.233  22.358  28.478  1.00  0.00     0.010 A 
ATOM     38  C   UNL A   1      42.638  23.356  27.581  1.00  0.00    -0.014 A 
BRANCH  38  39
ATOM     39  C   UNL A   1      42.947  24.724  28.068  1.00  0.00     0.031 A 
ATOM     40  C   UNL A   1      44.369  25.156  28.294  1.00  0.00     0.074 A 
ATOM     41  C   UNL A   1      41.936  25.575  28.334  1.00  0.00     0.049 A 
ATOM     42  N   UNL A   1      44.824  26.324  28.678  1.00  0.00    -0.248 NA
ATOM     43  C   UNL A   1      45.415  24.144  28.084  1.00  0.00     0.031 C 
ATOM     44  C   UNL A   1      40.512  25.261  28.207  1.00  0.00     0.029 A 
ATOM     45  N   UNL A   1      41.955  26.879  28.757  1.00  0.00    -0.354 N 
ATOM     46  C   UNL A   1      46.203  26.184  28.763  1.00  0.00     0.074 A 
ATOM     47  C   UNL A   1      46.507  24.806  28.438  1.00  0.00     0.031 C 
ATOM     48  C   UNL A   1      39.794  26.355  28.508  1.00  0.00     0.029 A 
ATOM     49  C   UNL A   1      40.705  27.435  28.871  1.00  0.00     0.049 A 
ATOM     50  H   UNL A   1      42.784  27.369  28.960  1.00  0.00     0.167 HD
ATOM     51  C   UNL A   1      47.136  27.119  29.063  1.00  0.00     0.031 A 
ATOM     52  C   UNL A   1      40.331  28.682  29.215  1.00  0.00     0.031 A 
ATOM     53  C   UNL A   1      46.838  28.491  29.380  1.00  0.00     0.049 A 
ATOM     54  C   UNL A   1      41.384  29.708  29.523  1.00  0.00     0.074 A 
ATOM     55  C   UNL A   1      47.717  29.526  29.647  1.00  0.00     0.029 A 
ATOM     56  N   UNL A   1      45.560  29.019  29.470  1.00  0.00    -0.354 N 
ATOM     57  N   UNL A   1      42.689  29.577  29.525  1.00  0.00    -0.248 NA
ATOM     58  C   UNL A   1      40.911  31.059  29.853  1.00  0.00     0.031 C 
ATOM     59  C   UNL A   1      46.968  30.672  29.939  1.00  0.00     0.029 A 
ATOM     60  C   UNL A   1      45.625  30.361  29.806  1.00  0.00     0.049 A 
ATOM     61  H   UNL A   1      44.727  28.514  29.319  1.00  0.00     0.167 HD
ATOM     62  C   UNL A   1      43.193  30.834  29.831  1.00  0.00     0.074 A 
ATOM     63  C   UNL A   1      42.055  31.716  29.989  1.00  0.00     0.031 C 
ATOM     64  C   UNL A   1      44.484  31.224  29.966  1.00  0.00     0.031 A 
BRANCH  51  65
ATOM     65  C   UNL A   1      48.574  26.683  29.065  1.00  0.00    -0.014 A 
ATOM     66  C   UNL A   1      49.349  26.733  27.895  1.00  0.00     0.009 A 
ATOM     67  C   UNL A   1      49.173  26.248  30.258  1.00  0.00     0.009 A 
ATOM     68  C   UNL A   1      50.684  26.321  27.912  1.00  0.00     0.001 A 
ATOM     69  C   UNL A   1      50.515  25.862  30.277  1.00  0.00     0.001 A 
ATOM     70  C   UNL A   1      51.266  25.890  29.102  1.00  0.00     0.000 A 
ENDBRANCH  51  65
BRANCH  52  71
ATOM     71  C   UNL A   1      38.891  29.043  29.245  1.00  0.00    -0.014 A 
ATOM     72  C   UNL A   1      38.239  29.458  28.074  1.00  0.00     0.009 A 
ATOM     73  C   UNL A   1      38.162  28.976  30.442  1.00  0.00     0.009 A 
ATOM     74  C   UNL A   1      36.892  29.823  28.106  1.00  0.00     0.001 A 
ATOM     75  C   UNL A   1      36.808  29.317  30.465  1.00  0.00     0.001 A 
ATOM     76  C   UNL A   1      36.177  29.748  29.301  1.00  0.00     0.000 A 
ENDBRANCH  52  71
BRANCH  64  77
ATOM     77  C   UNL A   1      44.728  32.675  30.272  1.00  0.00    -0.014 A 
ATOM     78  C   UNL A   1      44.863  33.624  29.247  1.00  0.00     0.009 A 
ATOM     79  C   UNL A   1      44.813  33.096  31.608  1.00  0.00     0.009 A 
ATOM     80  C   UNL A   1      45.119  34.962  29.556  1.00  0.00     0.001 A 
ATOM     81  C   UNL A   1      45.041  34.439  31.914  1.00  0.00     0.001 A 
ATOM     82  C   UNL A   1      45.206  35.368  30.887  1.00  0.00     0.000 A 
ENDBRANCH  64  77
ENDBRANCH  38  39
ENDBRANCH  30  33
ENDBRANCH  28  29
ENDBRANCH  27  28
ENDBRANCH  26  27
ENDBRANCH  25  26
ENDBRANCH   1  25
TORSDOF 18
ENDMDL
MODEL 3
REMARK VINA RESULT:     -10.0      2.062      7.151
REMARK SMILES C[C@@H]1SC[C@H](C(=O)NCCCCCCNC(=O)c2ccc(-c3c4nc(c(-c5ccccc5)c5ccc([nH]5)c(-c5ccccc5)c5nc(c(-c6ccccc6)c6ccc3[nH]6)C=C5)C=C4)cc2)N1C(=O)N(C)[C@@H](C)Cc1cccs1
REMARK SMILES IDX 10 1 9 2 8 3 6 4 7 5 5 7 1 8 2 9 3 10 66 11 4 12 67 13 68 14
REMARK SMILES IDX 69 15 70 16 71 17 72 18 73 19 74 20 75 21 78 22 76 23 77 24
REMARK SMILES IDX 11 25 12 26 13 27 14 28 15 29 16 30 17 32 18 33 19 34 65 35
REMARK SMILES IDX 20 36 64 37 21 38 22 39 23 40 58 41 24 42 63 43 57 44 59 45
REMARK SMILES IDX 25 46 62 47 56 48 55 49 26 51 48 52 33 53 47 54 34 55 37 56
REMARK SMILES IDX 46 57 60 58 35 59 36 60 45 62 61 63 38 64 27 65 28 66 32 67
REMARK SMILES IDX 29 68 31 69 30 70 49 71 50 72 54 73 51 74 53 75 52 76 39 77
REMARK SMILES IDX 40 78 44 79 41 80 43 81 42 82
REMARK H PARENT 8 6 15 31 59 50 37 61
REMARK Flexibility Score: inf
ROOT
ATOM      1  C   UNL A   1      37.131  23.069  25.033  1.00  0.00     0.021 C 
ENDROOT
BRANCH   1   2
ATOM      2  C   UNL A   1      35.858  23.907  25.161  1.00  0.00     0.116 C 
BRANCH   2   3
ATOM      3  N   UNL A   1      35.328  24.230  23.857  1.00  0.00    -0.354 N 
ATOM      4  C   UNL A   1      34.092  24.021  23.329  1.00  0.00     0.243 C 
ATOM      5  O   UNL A   1      33.974  24.215  22.113  1.00  0.00    -0.273 OA
ATOM      6  H   UNL A   1      35.965  24.673  23.251  1.00  0.00     0.163 HD
BRANCH   4   7
ATOM      7  C   UNL A   1      32.948  23.347  24.120  1.00  0.00     0.187 C 
ATOM      8  C   UNL A   1      32.921  22.397  27.603  1.00  0.00     0.043 C 
ATOM      9  C   UNL A   1      32.121  22.672  26.329  1.00  0.00     0.142 C 
ATOM     10  S   UNL A   1      32.133  21.161  25.305  1.00  0.00    -0.135 SA
ATOM     11  N   UNL A   1      32.632  23.773  25.511  1.00  0.00    -0.300 N 
ATOM     12  C   UNL A   1      33.269  21.857  24.108  1.00  0.00     0.107 C 
BRANCH  11  13
ATOM     13  C   UNL A   1      32.480  25.136  25.679  1.00  0.00     0.321 C 
ATOM     14  O   UNL A   1      33.212  25.703  26.499  1.00  0.00    -0.248 OA
BRANCH  13  15
ATOM     15  N   UNL A   1      31.508  25.882  25.042  1.00  0.00    -0.325 N 
ATOM     16  C   UNL A   1      30.094  25.588  24.877  1.00  0.00     0.149 C 
BRANCH  15  17
ATOM     17  C   UNL A   1      31.941  27.141  24.365  1.00  0.00     0.088 C 
ATOM     18  C   UNL A   1      31.778  27.064  22.839  1.00  0.00     0.031 C 
BRANCH  17  19
ATOM     19  C   UNL A   1      31.310  28.437  24.937  1.00  0.00     0.071 C 
BRANCH  19  20
ATOM     20  C   UNL A   1      32.261  29.231  25.796  1.00  0.00     0.007 A 
ATOM     21  C   UNL A   1      33.545  28.913  26.196  1.00  0.00     0.015 A 
ATOM     22  S   UNL A   1      31.778  30.757  26.412  1.00  0.00    -0.149 S 
ATOM     23  C   UNL A   1      34.106  29.900  27.057  1.00  0.00     0.012 A 
ATOM     24  C   UNL A   1      33.253  30.963  27.248  1.00  0.00     0.065 A 
ENDBRANCH  19  20
ENDBRANCH  17  19
ENDBRANCH  15  17
ENDBRANCH  13  15
ENDBRANCH  11  13
ENDBRANCH   4   7
ENDBRANCH   2   3
ENDBRANCH   1   2
BRANCH   1  25
ATOM     25  C   UNL A   1      36.990  21.808  24.170  1.00  0.00     0.002 C 
BRANCH  25  26
ATOM     26  C   UNL A   1      36.732  20.511  24.942  1.00  0.00     0.002 C 
BRANCH  26  27
ATOM     27  C   UNL A   1      37.911  19.535  24.992  1.00  0.00     0.021 C 
BRANCH  27  28
ATOM     28  C   UNL A   1      39.130  20.029  25.767  1.00  0.00     0.116 C 
BRANCH  28  29
ATOM     29  N   UNL A   1      40.178  19.028  25.861  1.00  0.00    -0.352 N 
ATOM     30  C   UNL A   1      41.519  19.192  26.087  1.00  0.00     0.251 C 
ATOM     31  H   UNL A   1      39.882  18.097  25.747  1.00  0.00     0.163 HD
ATOM     32  O   UNL A   1      42.280  18.227  25.991  1.00  0.00    -0.269 OA
BRANCH  30  33
ATOM     33  C   UNL A   1      42.070  20.523  26.418  1.00  0.00     0.039 A 
ATOM     34  C   UNL A   1      42.489  21.350  25.373  1.00  0.00     0.014 A 
ATOM     35  C   UNL A   1      42.200  20.952  27.744  1.00  0.00     0.014 A 
ATOM     36  C   UNL A   1      42.988  22.623  25.651  1.00  0.00     0.010 A 
ATOM     37  C   UNL A   1      42.640  22.248  28.017  1.00  0.00     0.010 A 
ATOM     38  C   UNL A   1      43.042  23.094  26.973  1.00  0.00    -0.014 A 
BRANCH  38  39
ATOM     39  C   UNL A   1      43.504  24.475  27.262  1.00  0.00     0.031 A 
ATOM     40  C   UNL A   1      42.531  25.536  27.694  1.00  0.00     0.074 A 
ATOM     41  C   UNL A   1      44.807  24.780  27.108  1.00  0.00     0.049 A 
ATOM     42  N   UNL A   1      42.765  26.782  28.025  1.00  0.00    -0.248 NA
ATOM     43  C   UNL A   1      41.110  25.160  27.740  1.00  0.00     0.031 C 
ATOM     44  C   UNL A   1      45.844  23.856  26.644  1.00  0.00     0.029 A 
ATOM     45  N   UNL A   1      45.482  25.952  27.334  1.00  0.00    -0.354 N 
ATOM     46  C   UNL A   1      41.524  27.338  28.310  1.00  0.00     0.074 A 
ATOM     47  C   UNL A   1      40.536  26.309  28.065  1.00  0.00     0.031 C 
ATOM     48  C   UNL A   1      47.030  24.485  26.657  1.00  0.00     0.029 A 
ATOM     49  C   UNL A   1      46.833  25.860  27.105  1.00  0.00     0.049 A 
ATOM     50  H   UNL A   1      45.041  26.781  27.631  1.00  0.00     0.167 HD
ATOM     51  C   UNL A   1      41.233  28.584  28.753  1.00  0.00     0.031 A 
ATOM     52  C   UNL A   1      47.809  26.774  27.254  1.00  0.00     0.031 A 
ATOM     53  C   UNL A   1      42.213  29.607  29.003  1.00  0.00     0.049 A 
ATOM     54  C   UNL A   1      47.464  28.143  27.768  1.00  0.00     0.074 A 
ATOM     55  C   UNL A   1      42.021  30.884  29.503  1.00  0.00     0.029 A 
ATOM     56  N   UNL A   1      43.573  29.469  28.773  1.00  0.00    -0.354 N 
ATOM     57  N   UNL A   1      46.293  28.628  28.104  1.00  0.00    -0.248 NA
ATOM     58  C   UNL A   1      48.581  29.082  27.944  1.00  0.00     0.031 C 
ATOM     59  C   UNL A   1      43.261  31.532  29.537  1.00  0.00     0.029 A 
ATOM     60  C   UNL A   1      44.230  30.642  29.104  1.00  0.00     0.049 A 
ATOM     61  H   UNL A   1      44.008  28.657  28.425  1.00  0.00     0.167 HD
ATOM     62  C   UNL A   1      46.536  29.919  28.555  1.00  0.00     0.074 A 
ATOM     63  C   UNL A   1      47.965  30.133  28.468  1.00  0.00     0.031 C 
ATOM     64  C   UNL A   1      45.652  30.843  29.006  1.00  0.00     0.031 A 
BRANCH  51  65
ATOM     65  C   UNL A   1      39.785  28.909  28.994  1.00  0.00    -0.014 A 
ATOM     66  C   UNL A   1      38.974  29.412  27.964  1.00  0.00     0.009 A 
ATOM     67  C   UNL A   1      39.216  28.681  30.256  1.00  0.00     0.009 A 
ATOM     68  C   UNL A   1      37.630  29.713  28.204  1.00  0.00     0.001 A 
ATOM     69  C   UNL A   1      37.867  28.957  30.485  1.00  0.00     0.001 A 
ATOM     70  C   UNL A   1      37.078  29.482  29.462  1.00  0.00     0.000 A 
ENDBRANCH  51  65
BRANCH  52  71
ATOM     71  C   UNL A   1      49.217  26.412  26.951  1.00  0.00    -0.014 A 
ATOM     72  C   UNL A   1      50.049  25.898  27.958  1.00  0.00     0.009 A 
ATOM     73  C   UNL A   1      49.737  26.578  25.659  1.00  0.00     0.009 A 
ATOM     74  C   UNL A   1      51.380  25.582  27.682  1.00  0.00     0.001 A 
ATOM     75  C   UNL A   1      51.061  26.237  25.380  1.00  0.00     0.001 A 
ATOM     76  C   UNL A   1      51.884  25.748  26.393  1.00  0.00     0.000 A 
ENDBRANCH  52  71
BRANCH  64  77
ATOM     77  C   UNL A   1      46.218  32.158  29.463  1.00  0.00    -0.014 A 
ATOM     78  C   UNL A   1      46.427  33.215  28.564  1.00  0.00     0.009 A 
ATOM     79  C   UNL A   1      46.534  32.342  30.818  1.00  0.00     0.009 A 
ATOM     80  C   UNL A   1      46.982  34.417  29.007  1.00  0.00     0.001 A 
ATOM     81  C   UNL A   1      47.063  33.554  31.262  1.00  0.00     0.001 A 
ATOM     82  C   UNL A   1      47.298  34.586  30.354  1.00  0.00     0.000 A 
ENDBRANCH  64  77
ENDBRANCH  38  39
ENDBRANCH  30  33
ENDBRANCH  28  29
ENDBRANCH  27  28
ENDBRANCH  26  27
ENDBRANCH  25  26
ENDBRANCH   1  25
TORSDOF 18
ENDMDL
