MODEL 1
REMARK VINA RESULT:     -11.9      0.000      0.000
REMARK SMILES Cc1cccc(-c2ccc(Cl)c(C(=O)NCCCCCCNC(=O)c3ccc(-c4c5nc(c(-c6ccccc6)c6ccc([nH]6)c(-c6ccccc6)c6nc(c(-c7ccccc7)c7ccc4[nH]7)C=C6)C=C5)cc3)c2)c1
REMARK SMILES IDX 19 1 18 2 17 3 16 4 15 5 13 6 14 7 12 9 7 10 8 11 73 12 9 13
REMARK SMILES IDX 10 14 11 15 6 16 1 17 2 18 3 19 74 20 4 21 5 22 20 23 21 24
REMARK SMILES IDX 22 25 23 26 24 28 25 29 26 30 72 31 27 32 71 33 28 34 29 35
REMARK SMILES IDX 30 36 65 37 31 38 70 39 64 40 66 41 32 42 69 43 63 44 62 45
REMARK SMILES IDX 33 47 55 48 40 49 54 50 41 51 44 52 53 53 67 54 42 55 43 56
REMARK SMILES IDX 52 58 68 59 45 60 34 61 35 62 39 63 36 64 38 65 37 66 56 67
REMARK SMILES IDX 57 68 61 69 58 70 60 71 59 72 46 73 47 74 51 75 48 76 50 77
REMARK SMILES IDX 49 78
REMARK H PARENT 15 8 22 27 66 46 44 57
REMARK Flexibility Score: inf
ROOT
ATOM      1  C   UNL A   1      33.787  28.717  26.265  1.00  0.00     0.002 C 
ENDROOT
BRANCH   1   2
ATOM      2  C   UNL A   1      33.122  29.278  24.998  1.00  0.00     0.002 C 
BRANCH   2   3
ATOM      3  C   UNL A   1      33.535  28.744  23.618  1.00  0.00     0.021 C 
BRANCH   3   4
ATOM      4  C   UNL A   1      32.465  28.115  22.729  1.00  0.00     0.116 C 
BRANCH   4   5
ATOM      5  N   UNL A   1      32.901  27.052  21.849  1.00  0.00    -0.352 N 
ATOM      6  C   UNL A   1      33.230  25.743  22.138  1.00  0.00     0.252 C 
ATOM      7  O   UNL A   1      33.477  24.989  21.197  1.00  0.00    -0.269 OA
ATOM      8  H   UNL A   1      32.976  27.301  20.900  1.00  0.00     0.163 HD
BRANCH   6   9
ATOM      9  C   UNL A   1      33.402  25.225  23.527  1.00  0.00     0.059 A 
ATOM     10  C   UNL A   1      34.985  24.192  25.112  1.00  0.00    -0.017 A 
ATOM     11  C   UNL A   1      33.984  24.230  26.090  1.00  0.00     0.010 A 
ATOM     12  C   UNL A   1      34.698  24.756  23.855  1.00  0.00     0.024 A 
ATOM     13  C   UNL A   1      32.691  24.635  25.769  1.00  0.00     0.022 A 
ATOM     14  C   UNL A   1      32.382  25.045  24.469  1.00  0.00     0.053 A 
ATOM     15  Cl  UNL A   1      30.695  25.078  24.095  1.00  0.00    -0.083 Cl
BRANCH  10  16
ATOM     16  C   UNL A   1      36.225  23.441  25.377  1.00  0.00    -0.018 A 
ATOM     17  C   UNL A   1      37.500  19.887  24.717  1.00  0.00     0.044 C 
ATOM     18  C   UNL A   1      37.452  21.316  25.172  1.00  0.00    -0.051 A 
ATOM     19  C   UNL A   1      38.538  21.890  25.831  1.00  0.00     0.003 A 
ATOM     20  C   UNL A   1      36.310  22.096  24.953  1.00  0.00     0.012 A 
ATOM     21  C   UNL A   1      38.482  23.222  26.250  1.00  0.00     0.001 A 
ATOM     22  C   UNL A   1      37.335  23.994  26.023  1.00  0.00     0.009 A 
ENDBRANCH  10  16
ENDBRANCH   6   9
ENDBRANCH   4   5
ENDBRANCH   3   4
ENDBRANCH   2   3
ENDBRANCH   1   2
BRANCH   1  23
ATOM     23  C   UNL A   1      33.769  29.562  27.539  1.00  0.00     0.021 C 
BRANCH  23  24
ATOM     24  C   UNL A   1      34.446  30.923  27.445  1.00  0.00     0.116 C 
BRANCH  24  25
ATOM     25  N   UNL A   1      34.833  31.498  28.732  1.00  0.00    -0.352 N 
ATOM     26  C   UNL A   1      35.880  31.114  29.564  1.00  0.00     0.251 C 
ATOM     27  H   UNL A   1      34.283  32.251  29.051  1.00  0.00     0.163 HD
ATOM     28  O   UNL A   1      36.148  31.720  30.576  1.00  0.00    -0.269 OA
BRANCH  26  29
ATOM     29  C   UNL A   1      36.744  30.000  29.100  1.00  0.00     0.039 A 
ATOM     30  C   UNL A   1      37.056  28.999  30.023  1.00  0.00     0.014 A 
ATOM     31  C   UNL A   1      37.445  30.117  27.903  1.00  0.00     0.014 A 
ATOM     32  C   UNL A   1      38.246  28.295  29.871  1.00  0.00     0.010 A 
ATOM     33  C   UNL A   1      38.671  29.486  27.796  1.00  0.00     0.010 A 
ATOM     34  C   UNL A   1      39.104  28.643  28.823  1.00  0.00    -0.014 A 
BRANCH  34  35
ATOM     35  C   UNL A   1      40.522  28.304  28.849  1.00  0.00     0.031 A 
ATOM     36  C   UNL A   1      41.001  27.031  28.285  1.00  0.00     0.074 A 
ATOM     37  C   UNL A   1      41.409  29.146  29.428  1.00  0.00     0.049 A 
ATOM     38  N   UNL A   1      41.968  26.334  28.783  1.00  0.00    -0.248 NA
ATOM     39  C   UNL A   1      40.380  26.424  27.116  1.00  0.00     0.031 C 
ATOM     40  C   UNL A   1      42.865  29.030  29.426  1.00  0.00     0.029 A 
ATOM     41  N   UNL A   1      41.151  30.160  30.353  1.00  0.00    -0.354 N 
ATOM     42  C   UNL A   1      42.297  25.383  27.846  1.00  0.00     0.074 A 
ATOM     43  C   UNL A   1      41.219  25.410  26.882  1.00  0.00     0.031 C 
ATOM     44  C   UNL A   1      43.342  29.673  30.505  1.00  0.00     0.029 A 
ATOM     45  C   UNL A   1      42.199  30.120  31.285  1.00  0.00     0.049 A 
ATOM     46  H   UNL A   1      40.387  30.780  30.352  1.00  0.00     0.167 HD
ATOM     47  C   UNL A   1      43.526  24.792  27.872  1.00  0.00     0.031 A 
ATOM     48  C   UNL A   1      42.015  29.911  32.619  1.00  0.00     0.031 A 
ATOM     49  C   UNL A   1      44.342  25.254  28.994  1.00  0.00     0.049 A 
ATOM     50  C   UNL A   1      42.776  28.714  33.145  1.00  0.00     0.074 A 
ATOM     51  C   UNL A   1      45.380  26.168  29.081  1.00  0.00     0.029 A 
ATOM     52  N   UNL A   1      43.945  24.984  30.298  1.00  0.00    -0.354 N 
ATOM     53  N   UNL A   1      43.292  27.788  32.385  1.00  0.00    -0.248 NA
ATOM     54  C   UNL A   1      42.942  28.422  34.567  1.00  0.00     0.031 C 
ATOM     55  C   UNL A   1      45.569  26.492  30.447  1.00  0.00     0.029 A 
ATOM     56  C   UNL A   1      44.659  25.762  31.190  1.00  0.00     0.049 A 
ATOM     57  H   UNL A   1      43.252  24.332  30.551  1.00  0.00     0.167 HD
ATOM     58  C   UNL A   1      43.829  26.798  33.167  1.00  0.00     0.074 A 
ATOM     59  C   UNL A   1      43.597  27.248  34.528  1.00  0.00     0.031 C 
ATOM     60  C   UNL A   1      44.399  25.684  32.621  1.00  0.00     0.031 A 
BRANCH  47  61
ATOM     61  C   UNL A   1      44.093  24.066  26.673  1.00  0.00    -0.014 A 
ATOM     62  C   UNL A   1      45.121  24.661  25.916  1.00  0.00     0.009 A 
ATOM     63  C   UNL A   1      43.617  22.832  26.199  1.00  0.00     0.009 A 
ATOM     64  C   UNL A   1      45.553  24.125  24.695  1.00  0.00     0.001 A 
ATOM     65  C   UNL A   1      44.011  22.312  24.958  1.00  0.00     0.001 A 
ATOM     66  C   UNL A   1      44.969  22.969  24.196  1.00  0.00     0.000 A 
ENDBRANCH  47  61
BRANCH  48  67
ATOM     67  C   UNL A   1      40.694  30.345  33.144  1.00  0.00    -0.014 A 
ATOM     68  C   UNL A   1      40.424  31.724  33.235  1.00  0.00     0.009 A 
ATOM     69  C   UNL A   1      39.623  29.445  33.226  1.00  0.00     0.009 A 
ATOM     70  C   UNL A   1      39.110  32.193  33.306  1.00  0.00     0.001 A 
ATOM     71  C   UNL A   1      38.308  29.919  33.308  1.00  0.00     0.001 A 
ATOM     72  C   UNL A   1      38.050  31.291  33.317  1.00  0.00     0.000 A 
ENDBRANCH  48  67
BRANCH  60  73
ATOM     73  C   UNL A   1      44.847  24.449  33.366  1.00  0.00    -0.014 A 
ATOM     74  C   UNL A   1      46.143  24.239  33.852  1.00  0.00     0.009 A 
ATOM     75  C   UNL A   1      43.879  23.476  33.710  1.00  0.00     0.009 A 
ATOM     76  C   UNL A   1      46.468  23.094  34.597  1.00  0.00     0.001 A 
ATOM     77  C   UNL A   1      44.188  22.358  34.489  1.00  0.00     0.001 A 
ATOM     78  C   UNL A   1      45.490  22.160  34.923  1.00  0.00     0.000 A 
ENDBRANCH  60  73
ENDBRANCH  34  35
ENDBRANCH  26  29
ENDBRANCH  24  25
ENDBRANCH  23  24
ENDBRANCH   1  23
TORSDOF 14
ENDMDL
MODEL 2
REMARK VINA RESULT:     -11.8      1.474      2.006
REMARK SMILES Cc1cccc(-c2ccc(Cl)c(C(=O)NCCCCCCNC(=O)c3ccc(-c4c5nc(c(-c6ccccc6)c6ccc([nH]6)c(-c6ccccc6)c6nc(c(-c7ccccc7)c7ccc4[nH]7)C=C6)C=C5)cc3)c2)c1
REMARK SMILES IDX 19 1 18 2 17 3 16 4 15 5 13 6 14 7 12 9 7 10 8 11 73 12 9 13
REMARK SMILES IDX 10 14 11 15 6 16 1 17 2 18 3 19 74 20 4 21 5 22 20 23 21 24
REMARK SMILES IDX 22 25 23 26 24 28 25 29 26 30 72 31 27 32 71 33 28 34 29 35
REMARK SMILES IDX 30 36 65 37 31 38 70 39 64 40 66 41 32 42 69 43 63 44 62 45
REMARK SMILES IDX 33 47 55 48 40 49 54 50 41 51 44 52 53 53 67 54 42 55 43 56
REMARK SMILES IDX 52 58 68 59 45 60 34 61 35 62 39 63 36 64 38 65 37 66 56 67
REMARK SMILES IDX 57 68 61 69 58 70 60 71 59 72 46 73 47 74 51 75 48 76 50 77
REMARK SMILES IDX 49 78
REMARK H PARENT 15 8 22 27 66 46 44 57
REMARK Flexibility Score: inf
ROOT
ATOM      1  C   UNL A   1      31.786  29.306  26.828  1.00  0.00     0.002 C 
ENDROOT
BRANCH   1   2
ATOM      2  C   UNL A   1      31.602  28.767  25.400  1.00  0.00     0.002 C 
BRANCH   2   3
ATOM      3  C   UNL A   1      31.732  27.261  25.129  1.00  0.00     0.021 C 
BRANCH   3   4
ATOM      4  C   UNL A   1      32.243  26.359  26.251  1.00  0.00     0.116 C 
BRANCH   4   5
ATOM      5  N   UNL A   1      31.299  25.403  26.789  1.00  0.00    -0.352 N 
ATOM      6  C   UNL A   1      31.164  24.053  26.534  1.00  0.00     0.252 C 
ATOM      7  O   UNL A   1      30.343  23.420  27.198  1.00  0.00    -0.269 OA
ATOM      8  H   UNL A   1      30.654  25.772  27.434  1.00  0.00     0.163 HD
BRANCH   6   9
ATOM      9  C   UNL A   1      31.883  23.347  25.434  1.00  0.00     0.059 A 
ATOM     10  C   UNL A   1      33.972  22.198  24.802  1.00  0.00    -0.017 A 
ATOM     11  C   UNL A   1      33.418  21.950  23.540  1.00  0.00     0.010 A 
ATOM     12  C   UNL A   1      33.165  22.839  25.759  1.00  0.00     0.024 A 
ATOM     13  C   UNL A   1      32.185  22.489  23.186  1.00  0.00     0.022 A 
ATOM     14  C   UNL A   1      31.462  23.260  24.102  1.00  0.00     0.053 A 
ATOM     15  Cl  UNL A   1      30.207  24.227  23.412  1.00  0.00    -0.083 Cl
BRANCH  10  16
ATOM     16  C   UNL A   1      35.403  21.926  25.028  1.00  0.00    -0.018 A 
ATOM     17  C   UNL A   1      38.450  23.936  26.199  1.00  0.00     0.044 C 
ATOM     18  C   UNL A   1      37.600  22.795  25.721  1.00  0.00    -0.051 A 
ATOM     19  C   UNL A   1      38.159  21.537  25.492  1.00  0.00     0.003 A 
ATOM     20  C   UNL A   1      36.232  22.974  25.488  1.00  0.00     0.012 A 
ATOM     21  C   UNL A   1      37.357  20.482  25.048  1.00  0.00     0.001 A 
ATOM     22  C   UNL A   1      35.988  20.673  24.821  1.00  0.00     0.009 A 
ENDBRANCH  10  16
ENDBRANCH   6   9
ENDBRANCH   4   5
ENDBRANCH   3   4
ENDBRANCH   2   3
ENDBRANCH   1   2
BRANCH   1  23
ATOM     23  C   UNL A   1      32.652  30.548  27.037  1.00  0.00     0.021 C 
BRANCH  23  24
ATOM     24  C   UNL A   1      34.089  30.294  27.472  1.00  0.00     0.116 C 
BRANCH  24  25
ATOM     25  N   UNL A   1      34.598  31.237  28.467  1.00  0.00    -0.352 N 
ATOM     26  C   UNL A   1      35.808  31.191  29.152  1.00  0.00     0.251 C 
ATOM     27  H   UNL A   1      34.012  32.000  28.678  1.00  0.00     0.163 HD
ATOM     28  O   UNL A   1      36.152  32.076  29.901  1.00  0.00    -0.269 OA
BRANCH  26  29
ATOM     29  C   UNL A   1      36.727  30.069  28.837  1.00  0.00     0.039 A 
ATOM     30  C   UNL A   1      37.018  29.166  29.862  1.00  0.00     0.014 A 
ATOM     31  C   UNL A   1      37.487  30.101  27.671  1.00  0.00     0.014 A 
ATOM     32  C   UNL A   1      38.234  28.492  29.835  1.00  0.00     0.010 A 
ATOM     33  C   UNL A   1      38.734  29.504  27.684  1.00  0.00     0.010 A 
ATOM     34  C   UNL A   1      39.136  28.772  28.805  1.00  0.00    -0.014 A 
BRANCH  34  35
ATOM     35  C   UNL A   1      40.560  28.484  28.933  1.00  0.00     0.031 A 
ATOM     36  C   UNL A   1      41.132  27.253  28.363  1.00  0.00     0.074 A 
ATOM     37  C   UNL A   1      41.364  29.335  29.610  1.00  0.00     0.049 A 
ATOM     38  N   UNL A   1      42.084  26.573  28.913  1.00  0.00    -0.248 NA
ATOM     39  C   UNL A   1      40.630  26.669  27.127  1.00  0.00     0.031 C 
ATOM     40  C   UNL A   1      42.819  29.272  29.722  1.00  0.00     0.029 A 
ATOM     41  N   UNL A   1      40.994  30.302  30.548  1.00  0.00    -0.354 N 
ATOM     42  C   UNL A   1      42.523  25.672  27.971  1.00  0.00     0.074 A 
ATOM     43  C   UNL A   1      41.525  25.697  26.925  1.00  0.00     0.031 C 
ATOM     44  C   UNL A   1      43.184  29.890  30.859  1.00  0.00     0.029 A 
ATOM     45  C   UNL A   1      41.965  30.264  31.559  1.00  0.00     0.049 A 
ATOM     46  H   UNL A   1      40.208  30.893  30.507  1.00  0.00     0.167 HD
ATOM     47  C   UNL A   1      43.769  25.125  28.075  1.00  0.00     0.031 A 
ATOM     48  C   UNL A   1      41.685  29.997  32.866  1.00  0.00     0.031 A 
ATOM     49  C   UNL A   1      44.474  25.573  29.275  1.00  0.00     0.049 A 
ATOM     50  C   UNL A   1      42.449  28.809  33.408  1.00  0.00     0.074 A 
ATOM     51  C   UNL A   1      45.465  26.520  29.478  1.00  0.00     0.029 A 
ATOM     52  N   UNL A   1      43.986  25.238  30.533  1.00  0.00    -0.354 N 
ATOM     53  N   UNL A   1      43.060  27.932  32.660  1.00  0.00    -0.248 NA
ATOM     54  C   UNL A   1      42.513  28.468  34.828  1.00  0.00     0.031 C 
ATOM     55  C   UNL A   1      45.532  26.797  30.866  1.00  0.00     0.029 A 
ATOM     56  C   UNL A   1      44.596  26.006  31.506  1.00  0.00     0.049 A 
ATOM     57  H   UNL A   1      43.302  24.552  30.706  1.00  0.00     0.167 HD
ATOM     58  C   UNL A   1      43.572  26.933  33.447  1.00  0.00     0.074 A 
ATOM     59  C   UNL A   1      43.215  27.321  34.799  1.00  0.00     0.031 C 
ATOM     60  C   UNL A   1      44.227  25.863  32.908  1.00  0.00     0.031 A 
BRANCH  47  61
ATOM     61  C   UNL A   1      44.457  24.468  26.900  1.00  0.00    -0.014 A 
ATOM     62  C   UNL A   1      44.603  23.068  26.867  1.00  0.00     0.009 A 
ATOM     63  C   UNL A   1      45.039  25.171  25.832  1.00  0.00     0.009 A 
ATOM     64  C   UNL A   1      45.391  22.424  25.904  1.00  0.00     0.001 A 
ATOM     65  C   UNL A   1      45.864  24.540  24.890  1.00  0.00     0.001 A 
ATOM     66  C   UNL A   1      46.054  23.166  24.936  1.00  0.00     0.000 A 
ENDBRANCH  47  61
BRANCH  48  67
ATOM     67  C   UNL A   1      40.310  30.361  33.297  1.00  0.00    -0.014 A 
ATOM     68  C   UNL A   1      39.944  31.721  33.306  1.00  0.00     0.009 A 
ATOM     69  C   UNL A   1      39.299  29.394  33.367  1.00  0.00     0.009 A 
ATOM     70  C   UNL A   1      38.599  32.101  33.284  1.00  0.00     0.001 A 
ATOM     71  C   UNL A   1      37.953  29.779  33.356  1.00  0.00     0.001 A 
ATOM     72  C   UNL A   1      37.604  31.128  33.283  1.00  0.00     0.000 A 
ENDBRANCH  48  67
BRANCH  60  73
ATOM     73  C   UNL A   1      44.663  24.617  33.642  1.00  0.00    -0.014 A 
ATOM     74  C   UNL A   1      43.947  23.414  33.662  1.00  0.00     0.009 A 
ATOM     75  C   UNL A   1      45.934  24.605  34.262  1.00  0.00     0.009 A 
ATOM     76  C   UNL A   1      44.450  22.275  34.309  1.00  0.00     0.001 A 
ATOM     77  C   UNL A   1      46.458  23.461  34.869  1.00  0.00     0.001 A 
ATOM     78  C   UNL A   1      45.708  22.296  34.904  1.00  0.00     0.000 A 
ENDBRANCH  60  73
ENDBRANCH  34  35
ENDBRANCH  26  29
ENDBRANCH  24  25
ENDBRANCH  23  24
ENDBRANCH   1  23
TORSDOF 14
ENDMDL
MODEL 3
REMARK VINA RESULT:     -11.6      2.252      3.539
REMARK SMILES Cc1cccc(-c2ccc(Cl)c(C(=O)NCCCCCCNC(=O)c3ccc(-c4c5nc(c(-c6ccccc6)c6ccc([nH]6)c(-c6ccccc6)c6nc(c(-c7ccccc7)c7ccc4[nH]7)C=C6)C=C5)cc3)c2)c1
REMARK SMILES IDX 19 1 18 2 17 3 16 4 15 5 13 6 14 7 12 9 7 10 8 11 73 12 9 13
REMARK SMILES IDX 10 14 11 15 6 16 1 17 2 18 3 19 74 20 4 21 5 22 20 23 21 24
REMARK SMILES IDX 22 25 23 26 24 28 25 29 26 30 72 31 27 32 71 33 28 34 29 35
REMARK SMILES IDX 30 36 65 37 31 38 70 39 64 40 66 41 32 42 69 43 63 44 62 45
REMARK SMILES IDX 33 47 55 48 40 49 54 50 41 51 44 52 53 53 67 54 42 55 43 56
REMARK SMILES IDX 52 58 68 59 45 60 34 61 35 62 39 63 36 64 38 65 37 66 56 67
REMARK SMILES IDX 57 68 61 69 58 70 60 71 59 72 46 73 47 74 51 75 48 76 50 77
REMARK SMILES IDX 49 78
REMARK H PARENT 15 8 22 27 66 46 44 57
REMARK Flexibility Score: inf
ROOT
ATOM      1  C   UNL A   1      34.102  29.230  26.405  1.00  0.00     0.002 C 
ENDROOT
BRANCH   1   2
ATOM      2  C   UNL A   1      32.579  29.154  26.215  1.00  0.00     0.002 C 
BRANCH   2   3
ATOM      3  C   UNL A   1      31.791  27.984  26.824  1.00  0.00     0.021 C 
BRANCH   3   4
ATOM      4  C   UNL A   1      32.095  26.568  26.338  1.00  0.00     0.116 C 
BRANCH   4   5
ATOM      5  N   UNL A   1      31.263  25.511  26.873  1.00  0.00    -0.352 N 
ATOM      6  C   UNL A   1      31.273  24.157  26.608  1.00  0.00     0.252 C 
ATOM      7  O   UNL A   1      30.530  23.433  27.270  1.00  0.00    -0.269 OA
ATOM      8  H   UNL A   1      30.586  25.803  27.525  1.00  0.00     0.163 HD
BRANCH   6   9
ATOM      9  C   UNL A   1      32.057  23.541  25.497  1.00  0.00     0.059 A 
ATOM     10  C   UNL A   1      34.221  22.535  24.874  1.00  0.00    -0.017 A 
ATOM     11  C   UNL A   1      33.715  22.316  23.587  1.00  0.00     0.010 A 
ATOM     12  C   UNL A   1      33.356  23.087  25.836  1.00  0.00     0.024 A 
ATOM     13  C   UNL A   1      32.464  22.806  23.223  1.00  0.00     0.022 A 
ATOM     14  C   UNL A   1      31.677  23.494  24.151  1.00  0.00     0.053 A 
ATOM     15  Cl  UNL A   1      30.390  24.424  23.471  1.00  0.00    -0.083 Cl
BRANCH  10  16
ATOM     16  C   UNL A   1      35.658  22.328  25.128  1.00  0.00    -0.018 A 
ATOM     17  C   UNL A   1      38.546  24.414  26.542  1.00  0.00     0.044 C 
ATOM     18  C   UNL A   1      37.779  23.266  25.956  1.00  0.00    -0.051 A 
ATOM     19  C   UNL A   1      38.417  22.062  25.656  1.00  0.00     0.003 A 
ATOM     20  C   UNL A   1      36.410  23.384  25.690  1.00  0.00     0.012 A 
ATOM     21  C   UNL A   1      37.693  20.999  25.110  1.00  0.00     0.001 A 
ATOM     22  C   UNL A   1      36.322  21.128  24.851  1.00  0.00     0.009 A 
ENDBRANCH  10  16
ENDBRANCH   6   9
ENDBRANCH   4   5
ENDBRANCH   3   4
ENDBRANCH   2   3
ENDBRANCH   1   2
BRANCH   1  23
ATOM     23  C   UNL A   1      34.650  29.797  27.715  1.00  0.00     0.021 C 
BRANCH  23  24
ATOM     24  C   UNL A   1      35.100  31.251  27.676  1.00  0.00     0.116 C 
BRANCH  24  25
ATOM     25  N   UNL A   1      34.136  32.200  28.229  1.00  0.00    -0.352 N 
ATOM     26  C   UNL A   1      34.338  33.141  29.235  1.00  0.00     0.251 C 
ATOM     27  H   UNL A   1      33.230  32.171  27.842  1.00  0.00     0.163 HD
ATOM     28  O   UNL A   1      33.476  33.927  29.557  1.00  0.00    -0.269 OA
BRANCH  26  29
ATOM     29  C   UNL A   1      35.698  33.230  29.820  1.00  0.00     0.039 A 
ATOM     30  C   UNL A   1      36.693  33.837  29.050  1.00  0.00     0.014 A 
ATOM     31  C   UNL A   1      36.022  32.475  30.945  1.00  0.00     0.014 A 
ATOM     32  C   UNL A   1      38.016  33.459  29.246  1.00  0.00     0.010 A 
ATOM     33  C   UNL A   1      37.323  32.027  31.082  1.00  0.00     0.010 A 
ATOM     34  C   UNL A   1      38.298  32.456  30.178  1.00  0.00    -0.014 A 
BRANCH  34  35
ATOM     35  C   UNL A   1      39.539  31.690  30.128  1.00  0.00     0.031 A 
ATOM     36  C   UNL A   1      39.568  30.346  29.529  1.00  0.00     0.074 A 
ATOM     37  C   UNL A   1      40.670  32.199  30.668  1.00  0.00     0.049 A 
ATOM     38  N   UNL A   1      40.290  29.370  29.971  1.00  0.00    -0.248 NA
ATOM     39  C   UNL A   1      38.736  29.992  28.388  1.00  0.00     0.031 C 
ATOM     40  C   UNL A   1      42.015  31.633  30.592  1.00  0.00     0.029 A 
ATOM     41  N   UNL A   1      40.786  33.220  31.615  1.00  0.00    -0.354 N 
ATOM     42  C   UNL A   1      40.262  28.387  29.009  1.00  0.00     0.074 A 
ATOM     43  C   UNL A   1      39.204  28.773  28.102  1.00  0.00     0.031 C 
ATOM     44  C   UNL A   1      42.718  32.068  31.651  1.00  0.00     0.029 A 
ATOM     45  C   UNL A   1      41.809  32.831  32.492  1.00  0.00     0.049 A 
ATOM     46  H   UNL A   1      40.254  34.047  31.658  1.00  0.00     0.167 HD
ATOM     47  C   UNL A   1      41.244  27.440  28.968  1.00  0.00     0.031 A 
ATOM     48  C   UNL A   1      41.631  32.658  33.832  1.00  0.00     0.031 A 
ATOM     49  C   UNL A   1      42.213  27.597  30.051  1.00  0.00     0.049 A 
ATOM     50  C   UNL A   1      42.001  31.270  34.307  1.00  0.00     0.074 A 
ATOM     51  C   UNL A   1      43.488  28.139  30.093  1.00  0.00     0.029 A 
ATOM     52  N   UNL A   1      41.811  27.433  31.371  1.00  0.00    -0.354 N 
ATOM     53  N   UNL A   1      42.166  30.248  33.514  1.00  0.00    -0.248 NA
ATOM     54  C   UNL A   1      42.132  30.906  35.716  1.00  0.00     0.031 C 
ATOM     55  C   UNL A   1      43.831  28.353  31.450  1.00  0.00     0.029 A 
ATOM     56  C   UNL A   1      42.773  27.926  32.232  1.00  0.00     0.049 A 
ATOM     57  H   UNL A   1      40.962  27.024  31.654  1.00  0.00     0.167 HD
ATOM     58  C   UNL A   1      42.401  29.121  34.259  1.00  0.00     0.074 A 
ATOM     59  C   UNL A   1      42.384  29.588  35.633  1.00  0.00     0.031 C 
ATOM     60  C   UNL A   1      42.568  27.899  33.674  1.00  0.00     0.031 A 
BRANCH  47  61
ATOM     61  C   UNL A   1      41.500  26.604  27.735  1.00  0.00    -0.014 A 
ATOM     62  C   UNL A   1      41.890  25.258  27.870  1.00  0.00     0.009 A 
ATOM     63  C   UNL A   1      41.438  27.096  26.420  1.00  0.00     0.009 A 
ATOM     64  C   UNL A   1      42.319  24.493  26.777  1.00  0.00     0.001 A 
ATOM     65  C   UNL A   1      41.907  26.353  25.327  1.00  0.00     0.001 A 
ATOM     66  C   UNL A   1      42.364  25.054  25.509  1.00  0.00     0.000 A 
ENDBRANCH  47  61
BRANCH  48  67
ATOM     67  C   UNL A   1      40.536  33.470  34.426  1.00  0.00    -0.014 A 
ATOM     68  C   UNL A   1      39.294  32.853  34.668  1.00  0.00     0.009 A 
ATOM     69  C   UNL A   1      40.807  34.698  35.044  1.00  0.00     0.009 A 
ATOM     70  C   UNL A   1      38.388  33.401  35.580  1.00  0.00     0.001 A 
ATOM     71  C   UNL A   1      39.892  35.249  35.949  1.00  0.00     0.001 A 
ATOM     72  C   UNL A   1      38.699  34.586  36.240  1.00  0.00     0.000 A 
ENDBRANCH  48  67
BRANCH  60  73
ATOM     73  C   UNL A   1      42.639  26.568  34.384  1.00  0.00    -0.014 A 
ATOM     74  C   UNL A   1      41.650  26.068  35.240  1.00  0.00     0.009 A 
ATOM     75  C   UNL A   1      43.715  25.698  34.088  1.00  0.00     0.009 A 
ATOM     76  C   UNL A   1      41.755  24.790  35.811  1.00  0.00     0.001 A 
ATOM     77  C   UNL A   1      43.801  24.408  34.618  1.00  0.00     0.001 A 
ATOM     78  C   UNL A   1      42.824  23.958  35.493  1.00  0.00     0.000 A 
ENDBRANCH  60  73
ENDBRANCH  34  35
ENDBRANCH  26  29
ENDBRANCH  24  25
ENDBRANCH  23  24
ENDBRANCH   1  23
TORSDOF 14
ENDMDL
