MODEL 1
REMARK VINA RESULT:     -10.8      0.000      0.000
REMARK SMILES CC(C)(C)OC(=O)N1CCC[C@@H](CC2CCCCC2)[C@@H]1C(=O)NCCCCCCNC(=O)c1ccc(-c2c3nc(c(-c4ccccc4)c4ccc([nH]4)c(-c4ccccc4)c4nc(c(-c5ccccc5)c5ccc2[nH]5)C=C4)C=C3)cc1
REMARK SMILES IDX 26 1 25 2 24 3 23 4 21 5 22 6 20 8 8 9 9 10 10 11 12 12
REMARK SMILES IDX 11 13 6 14 7 15 5 16 2 17 1 18 3 19 4 20 13 21 14 22 15 23
REMARK SMILES IDX 19 24 16 25 18 26 17 27 27 28 28 29 29 30 30 31 31 32 32 34
REMARK SMILES IDX 33 35 34 36 80 37 35 38 79 39 36 40 37 41 38 42 73 43 39 44
REMARK SMILES IDX 78 45 72 46 74 47 40 48 77 49 71 50 70 51 41 53 63 54 48 55
REMARK SMILES IDX 62 56 49 57 52 58 61 59 75 60 50 61 51 62 60 64 76 65 53 66
REMARK SMILES IDX 42 67 43 68 47 69 44 70 46 71 45 72 64 73 65 74 69 75 66 76
REMARK SMILES IDX 68 77 67 78 54 79 55 80 59 81 56 82 58 83 57 84
REMARK H PARENT 23 7 30 33 74 52 52 63
REMARK Flexibility Score: inf
ROOT
ATOM      1  C   UNL A   1      33.282  30.344  27.622  1.00  0.00     0.002 C 
ENDROOT
BRANCH   1   2
ATOM      2  C   UNL A   1      34.447  29.929  26.718  1.00  0.00     0.021 C 
BRANCH   2   3
ATOM      3  C   UNL A   1      34.234  28.582  26.042  1.00  0.00     0.116 C 
BRANCH   3   4
ATOM      4  N   UNL A   1      34.133  28.745  24.606  1.00  0.00    -0.354 N 
ATOM      5  C   UNL A   1      33.257  28.180  23.727  1.00  0.00     0.243 C 
ATOM      6  O   UNL A   1      33.424  28.412  22.527  1.00  0.00    -0.273 OA
ATOM      7  H   UNL A   1      34.795  29.355  24.206  1.00  0.00     0.163 HD
BRANCH   5   8
ATOM      8  C   UNL A   1      32.195  27.163  24.209  1.00  0.00     0.181 C 
ATOM      9  N   UNL A   1      32.488  25.759  23.797  1.00  0.00    -0.296 N 
ATOM     10  C   UNL A   1      31.391  24.806  23.883  1.00  0.00     0.124 C 
ATOM     11  C   UNL A   1      30.159  25.289  23.144  1.00  0.00     0.022 C 
ATOM     12  C   UNL A   1      30.806  27.673  23.671  1.00  0.00     0.022 C 
ATOM     13  C   UNL A   1      29.698  26.612  23.742  1.00  0.00     0.008 C 
BRANCH   9  14
ATOM     14  C   UNL A   1      33.770  25.201  23.771  1.00  0.00     0.410 C 
ATOM     15  O   UNL A   1      34.361  24.955  22.726  1.00  0.00    -0.224 OA
BRANCH  14  16
ATOM     16  O   UNL A   1      34.307  25.011  25.001  1.00  0.00    -0.444 OA
BRANCH  16  17
ATOM     17  C   UNL A   1      34.646  23.686  25.500  1.00  0.00     0.106 C 
ATOM     18  C   UNL A   1      36.166  23.720  25.717  1.00  0.00     0.056 C 
ATOM     19  C   UNL A   1      34.332  22.638  24.428  1.00  0.00     0.056 C 
ATOM     20  C   UNL A   1      33.972  23.326  26.828  1.00  0.00     0.056 C 
ENDBRANCH  16  17
ENDBRANCH  14  16
ENDBRANCH   9  14
BRANCH  12  21
ATOM     21  C   UNL A   1      30.355  29.109  24.087  1.00  0.00     0.010 C 
BRANCH  21  22
ATOM     22  C   UNL A   1      29.229  29.903  23.383  1.00  0.00    -0.011 C 
ATOM     23  C   UNL A   1      29.077  31.337  23.906  1.00  0.00     0.003 C 
ATOM     24  C   UNL A   1      29.271  29.803  21.853  1.00  0.00     0.003 C 
ATOM     25  C   UNL A   1      28.023  32.143  23.156  1.00  0.00     0.000 C 
ATOM     26  C   UNL A   1      28.243  30.682  21.149  1.00  0.00     0.000 C 
ATOM     27  C   UNL A   1      28.308  32.114  21.661  1.00  0.00     0.000 C 
ENDBRANCH  21  22
ENDBRANCH  12  21
ENDBRANCH   5   8
ENDBRANCH   3   4
ENDBRANCH   2   3
ENDBRANCH   1   2
BRANCH   1  28
ATOM     28  C   UNL A   1      31.963  30.605  26.887  1.00  0.00     0.002 C 
BRANCH  28  29
ATOM     29  C   UNL A   1      31.486  32.058  26.913  1.00  0.00     0.021 C 
BRANCH  29  30
ATOM     30  C   UNL A   1      32.610  33.081  26.867  1.00  0.00     0.116 C 
BRANCH  30  31
ATOM     31  N   UNL A   1      32.389  34.171  27.799  1.00  0.00    -0.352 N 
ATOM     32  C   UNL A   1      33.109  34.511  28.911  1.00  0.00     0.251 C 
ATOM     33  H   UNL A   1      31.612  34.745  27.604  1.00  0.00     0.163 HD
ATOM     34  O   UNL A   1      32.677  35.350  29.695  1.00  0.00    -0.269 OA
BRANCH  32  35
ATOM     35  C   UNL A   1      34.407  33.858  29.169  1.00  0.00     0.039 A 
ATOM     36  C   UNL A   1      34.489  32.923  30.202  1.00  0.00     0.014 A 
ATOM     37  C   UNL A   1      35.543  34.191  28.425  1.00  0.00     0.014 A 
ATOM     38  C   UNL A   1      35.711  32.315  30.485  1.00  0.00     0.010 A 
ATOM     39  C   UNL A   1      36.742  33.528  28.655  1.00  0.00     0.010 A 
ATOM     40  C   UNL A   1      36.845  32.611  29.710  1.00  0.00    -0.014 A 
BRANCH  40  41
ATOM     41  C   UNL A   1      38.160  32.016  30.045  1.00  0.00     0.031 A 
ATOM     42  C   UNL A   1      39.088  32.734  30.986  1.00  0.00     0.074 A 
ATOM     43  C   UNL A   1      38.522  30.844  29.492  1.00  0.00     0.049 A 
ATOM     44  N   UNL A   1      40.267  32.369  31.422  1.00  0.00    -0.248 NA
ATOM     45  C   UNL A   1      38.645  34.047  31.486  1.00  0.00     0.031 C 
ATOM     46  C   UNL A   1      37.728  30.076  28.531  1.00  0.00     0.029 A 
ATOM     47  N   UNL A   1      39.653  30.088  29.671  1.00  0.00    -0.354 N 
ATOM     48  C   UNL A   1      40.709  33.409  32.228  1.00  0.00     0.074 A 
ATOM     49  C   UNL A   1      39.702  34.445  32.176  1.00  0.00     0.031 C 
ATOM     50  C   UNL A   1      38.378  28.939  28.235  1.00  0.00     0.029 A 
ATOM     51  C   UNL A   1      39.643  28.912  28.964  1.00  0.00     0.049 A 
ATOM     52  H   UNL A   1      40.399  30.364  30.250  1.00  0.00     0.167 HD
ATOM     53  C   UNL A   1      41.839  33.487  32.970  1.00  0.00     0.031 A 
ATOM     54  C   UNL A   1      40.547  27.916  28.921  1.00  0.00     0.031 A 
ATOM     55  C   UNL A   1      42.831  32.449  33.037  1.00  0.00     0.049 A 
ATOM     56  C   UNL A   1      41.783  28.015  29.771  1.00  0.00     0.074 A 
ATOM     57  C   UNL A   1      43.988  32.405  33.793  1.00  0.00     0.029 A 
ATOM     58  N   UNL A   1      42.776  31.264  32.317  1.00  0.00    -0.354 N 
ATOM     59  N   UNL A   1      42.156  28.977  30.582  1.00  0.00    -0.248 NA
ATOM     60  C   UNL A   1      42.711  26.878  29.716  1.00  0.00     0.031 C 
ATOM     61  C   UNL A   1      44.655  31.209  33.503  1.00  0.00     0.029 A 
ATOM     62  C   UNL A   1      43.885  30.487  32.605  1.00  0.00     0.049 A 
ATOM     63  H   UNL A   1      42.055  31.013  31.697  1.00  0.00     0.167 HD
ATOM     64  C   UNL A   1      43.344  28.547  31.156  1.00  0.00     0.074 A 
ATOM     65  C   UNL A   1      43.618  27.231  30.614  1.00  0.00     0.031 C 
ATOM     66  C   UNL A   1      44.138  29.182  32.053  1.00  0.00     0.031 A 
BRANCH  53  67
ATOM     67  C   UNL A   1      42.055  34.745  33.766  1.00  0.00    -0.014 A 
ATOM     68  C   UNL A   1      41.587  34.861  35.085  1.00  0.00     0.009 A 
ATOM     69  C   UNL A   1      42.745  35.824  33.194  1.00  0.00     0.009 A 
ATOM     70  C   UNL A   1      41.768  36.046  35.799  1.00  0.00     0.001 A 
ATOM     71  C   UNL A   1      42.953  36.998  33.922  1.00  0.00     0.001 A 
ATOM     72  C   UNL A   1      42.454  37.112  35.220  1.00  0.00     0.000 A 
ENDBRANCH  53  67
BRANCH  54  73
ATOM     73  C   UNL A   1      40.296  26.718  28.081  1.00  0.00    -0.014 A 
ATOM     74  C   UNL A   1      40.822  26.638  26.782  1.00  0.00     0.009 A 
ATOM     75  C   UNL A   1      39.525  25.652  28.569  1.00  0.00     0.009 A 
ATOM     76  C   UNL A   1      40.554  25.528  25.977  1.00  0.00     0.001 A 
ATOM     77  C   UNL A   1      39.282  24.531  27.772  1.00  0.00     0.001 A 
ATOM     78  C   UNL A   1      39.788  24.475  26.474  1.00  0.00     0.000 A 
ENDBRANCH  54  73
BRANCH  66  79
ATOM     79  C   UNL A   1      45.354  28.438  32.530  1.00  0.00    -0.014 A 
ATOM     80  C   UNL A   1      46.592  28.569  31.882  1.00  0.00     0.009 A 
ATOM     81  C   UNL A   1      45.259  27.607  33.657  1.00  0.00     0.009 A 
ATOM     82  C   UNL A   1      47.701  27.845  32.327  1.00  0.00     0.001 A 
ATOM     83  C   UNL A   1      46.375  26.910  34.118  1.00  0.00     0.001 A 
ATOM     84  C   UNL A   1      47.591  27.019  33.445  1.00  0.00     0.000 A 
ENDBRANCH  66  79
ENDBRANCH  40  41
ENDBRANCH  32  35
ENDBRANCH  30  31
ENDBRANCH  29  30
ENDBRANCH  28  29
ENDBRANCH   1  28
TORSDOF 18
ENDMDL
MODEL 2
REMARK VINA RESULT:     -10.6      3.379      9.328
REMARK SMILES CC(C)(C)OC(=O)N1CCC[C@@H](CC2CCCCC2)[C@@H]1C(=O)NCCCCCCNC(=O)c1ccc(-c2c3nc(c(-c4ccccc4)c4ccc([nH]4)c(-c4ccccc4)c4nc(c(-c5ccccc5)c5ccc2[nH]5)C=C4)C=C3)cc1
REMARK SMILES IDX 26 1 25 2 24 3 23 4 21 5 22 6 20 8 8 9 9 10 10 11 12 12
REMARK SMILES IDX 11 13 6 14 7 15 5 16 2 17 1 18 3 19 4 20 13 21 14 22 15 23
REMARK SMILES IDX 19 24 16 25 18 26 17 27 27 28 28 29 29 30 30 31 31 32 32 34
REMARK SMILES IDX 33 35 34 36 80 37 35 38 79 39 36 40 37 41 38 42 73 43 39 44
REMARK SMILES IDX 78 45 72 46 74 47 40 48 77 49 71 50 70 51 41 53 63 54 48 55
REMARK SMILES IDX 62 56 49 57 52 58 61 59 75 60 50 61 51 62 60 64 76 65 53 66
REMARK SMILES IDX 42 67 43 68 47 69 44 70 46 71 45 72 64 73 65 74 69 75 66 76
REMARK SMILES IDX 68 77 67 78 54 79 55 80 59 81 56 82 58 83 57 84
REMARK H PARENT 23 7 30 33 74 52 52 63
REMARK Flexibility Score: inf
ROOT
ATOM      1  C   UNL A   1      38.710  22.343  26.028  1.00  0.00     0.002 C 
ENDROOT
BRANCH   1   2
ATOM      2  C   UNL A   1      37.915  23.593  26.419  1.00  0.00     0.021 C 
BRANCH   2   3
ATOM      3  C   UNL A   1      36.552  23.675  25.745  1.00  0.00     0.116 C 
BRANCH   3   4
ATOM      4  N   UNL A   1      35.511  23.240  26.653  1.00  0.00    -0.354 N 
ATOM      5  C   UNL A   1      34.184  23.032  26.417  1.00  0.00     0.243 C 
ATOM      6  O   UNL A   1      33.473  22.737  27.382  1.00  0.00    -0.273 OA
ATOM      7  H   UNL A   1      35.805  23.067  27.577  1.00  0.00     0.163 HD
BRANCH   5   8
ATOM      8  C   UNL A   1      33.573  23.311  25.023  1.00  0.00     0.181 C 
ATOM      9  N   UNL A   1      32.479  24.326  25.048  1.00  0.00    -0.296 N 
ATOM     10  C   UNL A   1      31.613  24.388  23.878  1.00  0.00     0.124 C 
ATOM     11  C   UNL A   1      31.024  23.034  23.536  1.00  0.00     0.022 C 
ATOM     12  C   UNL A   1      33.097  21.923  24.454  1.00  0.00     0.022 C 
ATOM     13  C   UNL A   1      32.150  22.049  23.252  1.00  0.00     0.008 C 
BRANCH   9  14
ATOM     14  C   UNL A   1      32.488  25.470  25.852  1.00  0.00     0.410 C 
ATOM     15  O   UNL A   1      31.722  25.618  26.797  1.00  0.00    -0.224 OA
BRANCH  14  16
ATOM     16  O   UNL A   1      33.451  26.363  25.518  1.00  0.00    -0.444 OA
BRANCH  16  17
ATOM     17  C   UNL A   1      33.140  27.744  25.176  1.00  0.00     0.106 C 
ATOM     18  C   UNL A   1      33.519  28.557  26.422  1.00  0.00     0.056 C 
ATOM     19  C   UNL A   1      31.633  27.888  24.943  1.00  0.00     0.056 C 
ATOM     20  C   UNL A   1      33.929  28.287  23.981  1.00  0.00     0.056 C 
ENDBRANCH  16  17
ENDBRANCH  14  16
ENDBRANCH   9  14
BRANCH  12  21
ATOM     21  C   UNL A   1      34.168  20.794  24.319  1.00  0.00     0.010 C 
BRANCH  21  22
ATOM     22  C   UNL A   1      33.974  19.348  24.834  1.00  0.00    -0.011 C 
ATOM     23  C   UNL A   1      32.535  18.838  24.688  1.00  0.00     0.003 C 
ATOM     24  C   UNL A   1      35.035  18.365  24.321  1.00  0.00     0.003 C 
ATOM     25  C   UNL A   1      32.363  17.387  25.120  1.00  0.00     0.000 C 
ATOM     26  C   UNL A   1      34.778  16.916  24.723  1.00  0.00     0.000 C 
ATOM     27  C   UNL A   1      33.355  16.499  24.381  1.00  0.00     0.000 C 
ENDBRANCH  21  22
ENDBRANCH  12  21
ENDBRANCH   5   8
ENDBRANCH   3   4
ENDBRANCH   2   3
ENDBRANCH   1   2
BRANCH   1  28
ATOM     28  C   UNL A   1      37.956  21.363  25.124  1.00  0.00     0.002 C 
BRANCH  28  29
ATOM     29  C   UNL A   1      38.573  19.966  25.030  1.00  0.00     0.021 C 
BRANCH  29  30
ATOM     30  C   UNL A   1      39.446  19.592  26.218  1.00  0.00     0.116 C 
BRANCH  30  31
ATOM     31  N   UNL A   1      40.728  19.056  25.799  1.00  0.00    -0.352 N 
ATOM     32  C   UNL A   1      41.946  19.676  25.757  1.00  0.00     0.251 C 
ATOM     33  H   UNL A   1      40.719  18.115  25.506  1.00  0.00     0.163 HD
ATOM     34  O   UNL A   1      42.896  19.134  25.200  1.00  0.00    -0.269 OA
BRANCH  32  35
ATOM     35  C   UNL A   1      42.112  21.005  26.376  1.00  0.00     0.039 A 
ATOM     36  C   UNL A   1      42.376  22.097  25.549  1.00  0.00     0.014 A 
ATOM     37  C   UNL A   1      42.047  21.168  27.764  1.00  0.00     0.014 A 
ATOM     38  C   UNL A   1      42.567  23.358  26.113  1.00  0.00     0.010 A 
ATOM     39  C   UNL A   1      42.159  22.436  28.319  1.00  0.00     0.010 A 
ATOM     40  C   UNL A   1      42.456  23.536  27.502  1.00  0.00    -0.014 A 
BRANCH  40  41
ATOM     41  C   UNL A   1      42.719  24.859  28.113  1.00  0.00     0.031 A 
ATOM     42  C   UNL A   1      44.119  25.229  28.523  1.00  0.00     0.074 A 
ATOM     43  C   UNL A   1      41.702  25.717  28.312  1.00  0.00     0.049 A 
ATOM     44  N   UNL A   1      44.557  26.343  29.051  1.00  0.00    -0.248 NA
ATOM     45  C   UNL A   1      45.159  24.203  28.340  1.00  0.00     0.031 C 
ATOM     46  C   UNL A   1      40.296  25.455  27.998  1.00  0.00     0.029 A 
ATOM     47  N   UNL A   1      41.699  26.992  28.818  1.00  0.00    -0.354 N 
ATOM     48  C   UNL A   1      45.913  26.145  29.276  1.00  0.00     0.074 A 
ATOM     49  C   UNL A   1      46.215  24.787  28.885  1.00  0.00     0.031 C 
ATOM     50  C   UNL A   1      39.572  26.551  28.281  1.00  0.00     0.029 A 
ATOM     51  C   UNL A   1      40.458  27.578  28.820  1.00  0.00     0.049 A 
ATOM     52  H   UNL A   1      42.509  27.441  29.149  1.00  0.00     0.167 HD
ATOM     53  C   UNL A   1      46.834  27.023  29.740  1.00  0.00     0.031 A 
ATOM     54  C   UNL A   1      40.081  28.812  29.200  1.00  0.00     0.031 A 
ATOM     55  C   UNL A   1      46.537  28.379  30.111  1.00  0.00     0.049 A 
ATOM     56  C   UNL A   1      41.125  29.776  29.691  1.00  0.00     0.074 A 
ATOM     57  C   UNL A   1      47.402  29.366  30.548  1.00  0.00     0.029 A 
ATOM     58  N   UNL A   1      45.269  28.941  30.083  1.00  0.00    -0.354 N 
ATOM     59  N   UNL A   1      42.416  29.596  29.835  1.00  0.00    -0.248 NA
ATOM     60  C   UNL A   1      40.659  31.123  30.049  1.00  0.00     0.031 C 
ATOM     61  C   UNL A   1      46.652  30.515  30.821  1.00  0.00     0.029 A 
ATOM     62  C   UNL A   1      45.327  30.258  30.504  1.00  0.00     0.049 A 
ATOM     63  H   UNL A   1      44.450  28.473  29.803  1.00  0.00     0.167 HD
ATOM     64  C   UNL A   1      42.921  30.814  30.269  1.00  0.00     0.074 A 
ATOM     65  C   UNL A   1      41.799  31.728  30.348  1.00  0.00     0.031 C 
ATOM     66  C   UNL A   1      44.199  31.148  30.576  1.00  0.00     0.031 A 
BRANCH  53  67
ATOM     67  C   UNL A   1      48.249  26.530  29.872  1.00  0.00    -0.014 A 
ATOM     68  C   UNL A   1      49.193  26.749  28.855  1.00  0.00     0.009 A 
ATOM     69  C   UNL A   1      48.648  25.850  31.032  1.00  0.00     0.009 A 
ATOM     70  C   UNL A   1      50.494  26.259  28.978  1.00  0.00     0.001 A 
ATOM     71  C   UNL A   1      49.959  25.388  31.167  1.00  0.00     0.001 A 
ATOM     72  C   UNL A   1      50.878  25.583  30.135  1.00  0.00     0.000 A 
ENDBRANCH  53  67
BRANCH  54  73
ATOM     73  C   UNL A   1      38.659  29.225  29.087  1.00  0.00    -0.014 A 
ATOM     74  C   UNL A   1      37.797  29.115  30.189  1.00  0.00     0.009 A 
ATOM     75  C   UNL A   1      38.154  29.722  27.876  1.00  0.00     0.009 A 
ATOM     76  C   UNL A   1      36.450  29.466  30.073  1.00  0.00     0.001 A 
ATOM     77  C   UNL A   1      36.813  30.099  27.770  1.00  0.00     0.001 A 
ATOM     78  C   UNL A   1      35.961  29.961  28.865  1.00  0.00     0.000 A 
ENDBRANCH  54  73
BRANCH  66  79
ATOM     79  C   UNL A   1      44.449  32.574  30.983  1.00  0.00    -0.014 A 
ATOM     80  C   UNL A   1      44.743  33.564  30.033  1.00  0.00     0.009 A 
ATOM     81  C   UNL A   1      44.372  32.930  32.338  1.00  0.00     0.009 A 
ATOM     82  C   UNL A   1      45.000  34.876  30.439  1.00  0.00     0.001 A 
ATOM     83  C   UNL A   1      44.598  34.246  32.737  1.00  0.00     0.001 A 
ATOM     84  C   UNL A   1      44.925  35.215  31.790  1.00  0.00     0.000 A 
ENDBRANCH  66  79
ENDBRANCH  40  41
ENDBRANCH  32  35
ENDBRANCH  30  31
ENDBRANCH  29  30
ENDBRANCH  28  29
ENDBRANCH   1  28
TORSDOF 18
ENDMDL
MODEL 3
REMARK VINA RESULT:     -10.5      1.032      4.118
REMARK SMILES CC(C)(C)OC(=O)N1CCC[C@@H](CC2CCCCC2)[C@@H]1C(=O)NCCCCCCNC(=O)c1ccc(-c2c3nc(c(-c4ccccc4)c4ccc([nH]4)c(-c4ccccc4)c4nc(c(-c5ccccc5)c5ccc2[nH]5)C=C4)C=C3)cc1
REMARK SMILES IDX 26 1 25 2 24 3 23 4 21 5 22 6 20 8 8 9 9 10 10 11 12 12
REMARK SMILES IDX 11 13 6 14 7 15 5 16 2 17 1 18 3 19 4 20 13 21 14 22 15 23
REMARK SMILES IDX 19 24 16 25 18 26 17 27 27 28 28 29 29 30 30 31 31 32 32 34
REMARK SMILES IDX 33 35 34 36 80 37 35 38 79 39 36 40 37 41 38 42 73 43 39 44
REMARK SMILES IDX 78 45 72 46 74 47 40 48 77 49 71 50 70 51 41 53 63 54 48 55
REMARK SMILES IDX 62 56 49 57 52 58 61 59 75 60 50 61 51 62 60 64 76 65 53 66
REMARK SMILES IDX 42 67 43 68 47 69 44 70 46 71 45 72 64 73 65 74 69 75 66 76
REMARK SMILES IDX 68 77 67 78 54 79 55 80 59 81 56 82 58 83 57 84
REMARK H PARENT 23 7 30 33 74 52 52 63
REMARK Flexibility Score: inf
ROOT
ATOM      1  C   UNL A   1      33.005  29.727  26.201  1.00  0.00     0.002 C 
ENDROOT
BRANCH   1   2
ATOM      2  C   UNL A   1      33.373  29.268  24.787  1.00  0.00     0.021 C 
BRANCH   2   3
ATOM      3  C   UNL A   1      33.561  27.762  24.671  1.00  0.00     0.116 C 
BRANCH   3   4
ATOM      4  N   UNL A   1      33.842  27.390  23.300  1.00  0.00    -0.354 N 
ATOM      5  C   UNL A   1      33.078  26.687  22.417  1.00  0.00     0.243 C 
ATOM      6  O   UNL A   1      33.573  26.422  21.318  1.00  0.00    -0.273 OA
ATOM      7  H   UNL A   1      34.714  27.690  22.955  1.00  0.00     0.163 HD
BRANCH   5   8
ATOM      8  C   UNL A   1      31.705  26.110  22.839  1.00  0.00     0.181 C 
ATOM      9  N   UNL A   1      30.699  27.160  23.176  1.00  0.00    -0.296 N 
ATOM     10  C   UNL A   1      29.523  26.728  23.918  1.00  0.00     0.124 C 
ATOM     11  C   UNL A   1      29.892  25.976  25.180  1.00  0.00     0.022 C 
ATOM     12  C   UNL A   1      31.979  25.128  24.038  1.00  0.00     0.022 C 
ATOM     13  C   UNL A   1      30.710  24.744  24.813  1.00  0.00     0.008 C 
BRANCH   9  14
ATOM     14  C   UNL A   1      30.567  28.369  22.487  1.00  0.00     0.410 C 
ATOM     15  O   UNL A   1      31.517  29.115  22.275  1.00  0.00    -0.224 OA
BRANCH  14  16
ATOM     16  O   UNL A   1      29.311  28.605  22.036  1.00  0.00    -0.444 OA
BRANCH  16  17
ATOM     17  C   UNL A   1      28.561  29.791  22.424  1.00  0.00     0.106 C 
ATOM     18  C   UNL A   1      27.232  29.258  22.978  1.00  0.00     0.056 C 
ATOM     19  C   UNL A   1      28.263  30.639  21.183  1.00  0.00     0.056 C 
ATOM     20  C   UNL A   1      29.238  30.635  23.508  1.00  0.00     0.056 C 
ENDBRANCH  16  17
ENDBRANCH  14  16
ENDBRANCH   9  14
BRANCH  12  21
ATOM     21  C   UNL A   1      32.968  23.945  23.790  1.00  0.00     0.010 C 
BRANCH  21  22
ATOM     22  C   UNL A   1      34.490  24.017  24.061  1.00  0.00    -0.011 C 
ATOM     23  C   UNL A   1      34.843  24.031  25.554  1.00  0.00     0.003 C 
ATOM     24  C   UNL A   1      35.308  23.011  23.240  1.00  0.00     0.003 C 
ATOM     25  C   UNL A   1      36.344  24.018  25.818  1.00  0.00     0.000 C 
ATOM     26  C   UNL A   1      36.792  22.989  23.593  1.00  0.00     0.000 C 
ATOM     27  C   UNL A   1      36.994  22.846  25.095  1.00  0.00     0.000 C 
ENDBRANCH  21  22
ENDBRANCH  12  21
ENDBRANCH   5   8
ENDBRANCH   3   4
ENDBRANCH   2   3
ENDBRANCH   1   2
BRANCH   1  28
ATOM     28  C   UNL A   1      31.563  30.220  26.358  1.00  0.00     0.002 C 
BRANCH  28  29
ATOM     29  C   UNL A   1      31.419  31.715  26.650  1.00  0.00     0.021 C 
BRANCH  29  30
ATOM     30  C   UNL A   1      32.727  32.407  26.999  1.00  0.00     0.116 C 
BRANCH  30  31
ATOM     31  N   UNL A   1      32.506  33.710  27.598  1.00  0.00    -0.352 N 
ATOM     32  C   UNL A   1      33.211  34.330  28.593  1.00  0.00     0.251 C 
ATOM     33  H   UNL A   1      31.743  34.219  27.238  1.00  0.00     0.163 HD
ATOM     34  O   UNL A   1      32.777  35.354  29.112  1.00  0.00    -0.269 OA
BRANCH  32  35
ATOM     35  C   UNL A   1      34.493  33.757  29.047  1.00  0.00     0.039 A 
ATOM     36  C   UNL A   1      35.661  34.122  28.376  1.00  0.00     0.014 A 
ATOM     37  C   UNL A   1      34.539  32.839  30.101  1.00  0.00     0.014 A 
ATOM     38  C   UNL A   1      36.880  33.570  28.767  1.00  0.00     0.010 A 
ATOM     39  C   UNL A   1      35.763  32.350  30.540  1.00  0.00     0.010 A 
ATOM     40  C   UNL A   1      36.939  32.683  29.855  1.00  0.00    -0.014 A 
BRANCH  40  41
ATOM     41  C   UNL A   1      38.221  32.046  30.236  1.00  0.00     0.031 A 
ATOM     42  C   UNL A   1      39.101  32.696  31.268  1.00  0.00     0.074 A 
ATOM     43  C   UNL A   1      38.598  30.898  29.644  1.00  0.00     0.049 A 
ATOM     44  N   UNL A   1      40.245  32.286  31.754  1.00  0.00    -0.248 NA
ATOM     45  C   UNL A   1      38.650  33.989  31.809  1.00  0.00     0.031 C 
ATOM     46  C   UNL A   1      37.852  30.196  28.597  1.00  0.00     0.029 A 
ATOM     47  N   UNL A   1      39.703  30.112  29.851  1.00  0.00    -0.354 N 
ATOM     48  C   UNL A   1      40.654  33.274  32.640  1.00  0.00     0.074 A 
ATOM     49  C   UNL A   1      39.669  34.331  32.581  1.00  0.00     0.031 C 
ATOM     50  C   UNL A   1      38.501  29.063  28.282  1.00  0.00     0.029 A 
ATOM     51  C   UNL A   1      39.717  28.975  29.083  1.00  0.00     0.049 A 
ATOM     52  H   UNL A   1      40.417  30.343  30.487  1.00  0.00     0.167 HD
ATOM     53  C   UNL A   1      41.738  33.292  33.451  1.00  0.00     0.031 A 
ATOM     54  C   UNL A   1      40.606  27.965  29.042  1.00  0.00     0.031 A 
ATOM     55  C   UNL A   1      42.707  32.233  33.522  1.00  0.00     0.049 A 
ATOM     56  C   UNL A   1      41.790  27.996  29.969  1.00  0.00     0.074 A 
ATOM     57  C   UNL A   1      43.815  32.127  34.344  1.00  0.00     0.029 A 
ATOM     58  N   UNL A   1      42.677  31.088  32.739  1.00  0.00    -0.354 N 
ATOM     59  N   UNL A   1      42.128  28.907  30.850  1.00  0.00    -0.248 NA
ATOM     60  C   UNL A   1      42.701  26.845  29.910  1.00  0.00     0.031 C 
ATOM     61  C   UNL A   1      44.479  30.936  34.031  1.00  0.00     0.029 A 
ATOM     62  C   UNL A   1      43.754  30.276  33.051  1.00  0.00     0.049 A 
ATOM     63  H   UNL A   1      41.992  30.884  32.064  1.00  0.00     0.167 HD
ATOM     64  C   UNL A   1      43.271  28.425  31.472  1.00  0.00     0.074 A 
ATOM     65  C   UNL A   1      43.557  27.134  30.878  1.00  0.00     0.031 C 
ATOM     66  C   UNL A   1      44.019  28.997  32.448  1.00  0.00     0.031 A 
BRANCH  53  67
ATOM     67  C   UNL A   1      41.925  34.503  34.324  1.00  0.00    -0.014 A 
ATOM     68  C   UNL A   1      41.382  34.558  35.618  1.00  0.00     0.009 A 
ATOM     69  C   UNL A   1      42.664  35.598  33.852  1.00  0.00     0.009 A 
ATOM     70  C   UNL A   1      41.538  35.701  36.404  1.00  0.00     0.001 A 
ATOM     71  C   UNL A   1      42.845  36.728  34.652  1.00  0.00     0.001 A 
ATOM     72  C   UNL A   1      42.272  36.783  35.923  1.00  0.00     0.000 A 
ENDBRANCH  53  67
BRANCH  54  73
ATOM     73  C   UNL A   1      40.388  26.817  28.126  1.00  0.00    -0.014 A 
ATOM     74  C   UNL A   1      39.659  25.696  28.551  1.00  0.00     0.009 A 
ATOM     75  C   UNL A   1      40.914  26.833  26.825  1.00  0.00     0.009 A 
ATOM     76  C   UNL A   1      39.488  24.600  27.703  1.00  0.00     0.001 A 
ATOM     77  C   UNL A   1      40.717  25.747  25.969  1.00  0.00     0.001 A 
ATOM     78  C   UNL A   1      40.013  24.628  26.412  1.00  0.00     0.000 A 
ENDBRANCH  54  73
BRANCH  66  79
ATOM     79  C   UNL A   1      45.192  28.206  32.957  1.00  0.00    -0.014 A 
ATOM     80  C   UNL A   1      45.052  27.288  34.009  1.00  0.00     0.009 A 
ATOM     81  C   UNL A   1      46.450  28.373  32.360  1.00  0.00     0.009 A 
ATOM     82  C   UNL A   1      46.163  26.586  34.484  1.00  0.00     0.001 A 
ATOM     83  C   UNL A   1      47.551  27.647  32.815  1.00  0.00     0.001 A 
ATOM     84  C   UNL A   1      47.409  26.765  33.885  1.00  0.00     0.000 A 
ENDBRANCH  66  79
ENDBRANCH  40  41
ENDBRANCH  32  35
ENDBRANCH  30  31
ENDBRANCH  29  30
ENDBRANCH  28  29
ENDBRANCH   1  28
TORSDOF 18
ENDMDL
