MODEL 1
REMARK VINA RESULT:     -11.3      0.000      0.000
REMARK SMILES COc1cccc(N2/C(=[NH+]/C(=O)CCC(=O)NCCCCCCNC(=O)c3ccc(-c4c5nc(c(-c6ccccc6)c6ccc([nH]6)c(-c6ccccc6)c6nc(c(-c7ccccc7)c7ccc4[nH]7)C=C6)C=C5)cc3)S[C@@H]3CS(=O)(=O)C[C@H]32)c1
REMARK SMILES IDX 19 1 18 2 17 3 15 4 16 5 14 7 13 8 11 9 8 10 9 11 82 12
REMARK SMILES IDX 10 13 75 14 76 15 81 16 77 18 78 19 12 20 79 21 80 22 7 23
REMARK SMILES IDX 3 24 4 25 83 26 5 27 6 28 2 29 1 30 20 31 21 32 22 33 23 34
REMARK SMILES IDX 24 35 25 36 26 38 27 39 28 40 74 41 29 42 73 43 30 44 31 45
REMARK SMILES IDX 32 46 67 47 33 48 72 49 66 50 68 51 34 52 71 53 65 54 64 55
REMARK SMILES IDX 35 57 57 58 42 59 56 60 43 61 46 62 55 63 69 64 44 65 45 66
REMARK SMILES IDX 54 68 70 69 47 70 36 71 37 72 41 73 38 74 40 75 39 76 58 77
REMARK SMILES IDX 59 78 63 79 60 80 62 81 61 82 48 83 49 84 53 85 50 86 52 87
REMARK SMILES IDX 51 88
REMARK H PARENT 17 6 10 17 24 37 68 56 46 67
REMARK Flexibility Score: inf
ROOT
ATOM      1  C   UNL A   1      33.538  27.805  24.828  1.00  0.00     0.021 C 
ENDROOT
BRANCH   1   2
ATOM      2  C   UNL A   1      32.057  28.007  24.418  1.00  0.00     0.116 C 
BRANCH   2   3
ATOM      3  N   UNL A   1      31.066  27.421  25.317  1.00  0.00    -0.356 N 
ATOM      4  C   UNL A   1      30.776  26.146  25.695  1.00  0.00     0.220 C 
ATOM      5  O   UNL A   1      29.900  25.989  26.549  1.00  0.00    -0.275 OA
ATOM      6  H   UNL A   1      30.484  28.093  25.741  1.00  0.00     0.163 HD
BRANCH   4   7
ATOM      7  C   UNL A   1      31.465  24.945  25.090  1.00  0.00     0.112 C 
BRANCH   7   8
ATOM      8  C   UNL A   1      32.330  24.266  26.149  1.00  0.00     0.138 C 
BRANCH   8   9
ATOM      9  C   UNL A   1      32.351  22.812  25.792  1.00  0.00     0.308 C 
ATOM     10  N   UNL A   1      34.843  20.360  24.764  1.00  0.00    -0.216 N 
ATOM     11  C   UNL A   1      33.720  21.193  24.888  1.00  0.00     0.319 C 
ATOM     12  C   UNL A   1      34.388  18.960  24.786  1.00  0.00     0.212 C 
ATOM     13  N   UNL A   1      33.604  22.304  25.532  1.00  0.00    -0.204 N 
ATOM     14  S   UNL A   1      32.336  20.414  24.042  1.00  0.00    -0.029 SA
ATOM     15  C   UNL A   1      33.243  18.912  23.766  1.00  0.00     0.120 C 
ATOM     16  C   UNL A   1      35.210  17.739  24.453  1.00  0.00     0.188 C 
ATOM     17  H   UNL A   1      34.407  22.787  25.835  1.00  0.00     0.316 HD
ATOM     18  C   UNL A   1      32.510  17.642  24.059  1.00  0.00     0.156 C 
ATOM     19  S   UNL A   1      33.866  16.517  24.179  1.00  0.00     0.155 S 
ATOM     20  O   UNL A   1      31.328  22.154  25.984  1.00  0.00    -0.247 OA
ATOM     21  O   UNL A   1      34.063  15.872  22.906  1.00  0.00    -0.229 OA
ATOM     22  O   UNL A   1      33.583  15.781  25.393  1.00  0.00    -0.229 OA
BRANCH  10  23
ATOM     23  C   UNL A   1      36.178  20.703  25.036  1.00  0.00     0.132 A 
ATOM     24  C   UNL A   1      38.559  20.174  25.365  1.00  0.00     0.123 A 
ATOM     25  C   UNL A   1      38.806  21.487  25.753  1.00  0.00     0.047 A 
ATOM     26  C   UNL A   1      37.247  19.780  25.048  1.00  0.00     0.098 A 
ATOM     27  C   UNL A   1      37.768  22.411  25.786  1.00  0.00     0.008 A 
ATOM     28  C   UNL A   1      36.476  22.023  25.418  1.00  0.00     0.052 A 
BRANCH  24  29
ATOM     29  O   UNL A   1      39.652  19.355  25.442  1.00  0.00    -0.497 OA
ATOM     30  C   UNL A   1      40.754  19.813  26.213  1.00  0.00     0.278 C 
ENDBRANCH  24  29
ENDBRANCH  10  23
ENDBRANCH   8   9
ENDBRANCH   7   8
ENDBRANCH   4   7
ENDBRANCH   2   3
ENDBRANCH   1   2
BRANCH   1  31
ATOM     31  C   UNL A   1      33.843  27.680  26.337  1.00  0.00     0.002 C 
BRANCH  31  32
ATOM     32  C   UNL A   1      34.062  28.909  27.253  1.00  0.00     0.002 C 
BRANCH  32  33
ATOM     33  C   UNL A   1      33.005  30.030  27.386  1.00  0.00     0.021 C 
BRANCH  33  34
ATOM     34  C   UNL A   1      33.345  31.473  26.930  1.00  0.00     0.116 C 
BRANCH  34  35
ATOM     35  N   UNL A   1      32.667  32.604  27.569  1.00  0.00    -0.352 N 
ATOM     36  C   UNL A   1      33.194  33.616  28.379  1.00  0.00     0.251 C 
ATOM     37  H   UNL A   1      31.697  32.660  27.404  1.00  0.00     0.163 HD
ATOM     38  O   UNL A   1      32.584  34.679  28.474  1.00  0.00    -0.269 OA
BRANCH  36  39
ATOM     39  C   UNL A   1      34.486  33.486  29.113  1.00  0.00     0.039 A 
ATOM     40  C   UNL A   1      34.620  32.702  30.251  1.00  0.00     0.014 A 
ATOM     41  C   UNL A   1      35.590  34.244  28.735  1.00  0.00     0.014 A 
ATOM     42  C   UNL A   1      35.893  32.525  30.841  1.00  0.00     0.010 A 
ATOM     43  C   UNL A   1      36.883  33.889  29.178  1.00  0.00     0.010 A 
ATOM     44  C   UNL A   1      37.079  32.970  30.213  1.00  0.00    -0.014 A 
BRANCH  44  45
ATOM     45  C   UNL A   1      38.433  32.375  30.584  1.00  0.00     0.031 A 
ATOM     46  C   UNL A   1      39.391  32.966  31.618  1.00  0.00     0.074 A 
ATOM     47  C   UNL A   1      38.879  31.283  29.908  1.00  0.00     0.049 A 
ATOM     48  N   UNL A   1      40.532  32.475  32.065  1.00  0.00    -0.248 NA
ATOM     49  C   UNL A   1      39.078  34.285  32.186  1.00  0.00     0.031 C 
ATOM     50  C   UNL A   1      38.215  30.670  28.752  1.00  0.00     0.029 A 
ATOM     51  N   UNL A   1      39.980  30.469  30.097  1.00  0.00    -0.354 N 
ATOM     52  C   UNL A   1      41.064  33.429  32.933  1.00  0.00     0.074 A 
ATOM     53  C   UNL A   1      40.169  34.562  32.886  1.00  0.00     0.031 C 
ATOM     54  C   UNL A   1      38.828  29.523  28.431  1.00  0.00     0.029 A 
ATOM     55  C   UNL A   1      39.988  29.347  29.293  1.00  0.00     0.049 A 
ATOM     56  H   UNL A   1      40.693  30.671  30.747  1.00  0.00     0.167 HD
ATOM     57  C   UNL A   1      42.162  33.372  33.734  1.00  0.00     0.031 A 
ATOM     58  C   UNL A   1      40.811  28.279  29.242  1.00  0.00     0.031 A 
ATOM     59  C   UNL A   1      43.058  32.246  33.819  1.00  0.00     0.049 A 
ATOM     60  C   UNL A   1      41.979  28.196  30.182  1.00  0.00     0.074 A 
ATOM     61  C   UNL A   1      44.130  32.056  34.679  1.00  0.00     0.029 A 
ATOM     62  N   UNL A   1      42.996  31.123  33.012  1.00  0.00    -0.354 N 
ATOM     63  N   UNL A   1      42.359  29.045  31.103  1.00  0.00    -0.248 NA
ATOM     64  C   UNL A   1      42.827  26.998  30.083  1.00  0.00     0.031 C 
ATOM     65  C   UNL A   1      44.749  30.845  34.353  1.00  0.00     0.029 A 
ATOM     66  C   UNL A   1      44.022  30.250  33.336  1.00  0.00     0.049 A 
ATOM     67  H   UNL A   1      42.321  30.968  32.312  1.00  0.00     0.167 HD
ATOM     68  C   UNL A   1      43.472  28.476  31.707  1.00  0.00     0.074 A 
ATOM     69  C   UNL A   1      43.691  27.197  31.069  1.00  0.00     0.031 C 
ATOM     70  C   UNL A   1      44.245  28.977  32.701  1.00  0.00     0.031 A 
BRANCH  57  71
ATOM     71  C   UNL A   1      42.446  34.560  34.629  1.00  0.00    -0.014 A 
ATOM     72  C   UNL A   1      41.974  34.601  35.952  1.00  0.00     0.009 A 
ATOM     73  C   UNL A   1      43.243  35.623  34.171  1.00  0.00     0.009 A 
ATOM     74  C   UNL A   1      42.239  35.700  36.774  1.00  0.00     0.001 A 
ATOM     75  C   UNL A   1      43.539  36.705  35.007  1.00  0.00     0.001 A 
ATOM     76  C   UNL A   1      43.024  36.750  36.302  1.00  0.00     0.000 A 
ENDBRANCH  57  71
BRANCH  58  77
ATOM     77  C   UNL A   1      40.537  27.164  28.288  1.00  0.00    -0.014 A 
ATOM     78  C   UNL A   1      41.091  27.180  26.996  1.00  0.00     0.009 A 
ATOM     79  C   UNL A   1      39.719  26.084  28.654  1.00  0.00     0.009 A 
ATOM     80  C   UNL A   1      40.808  26.156  26.086  1.00  0.00     0.001 A 
ATOM     81  C   UNL A   1      39.468  25.043  27.755  1.00  0.00     0.001 A 
ATOM     82  C   UNL A   1      40.002  25.086  26.469  1.00  0.00     0.000 A 
ENDBRANCH  58  77
BRANCH  70  83
ATOM     83  C   UNL A   1      45.386  28.129  33.188  1.00  0.00    -0.014 A 
ATOM     84  C   UNL A   1      45.207  27.170  34.197  1.00  0.00     0.009 A 
ATOM     85  C   UNL A   1      46.652  28.263  32.597  1.00  0.00     0.009 A 
ATOM     86  C   UNL A   1      46.281  26.387  34.627  1.00  0.00     0.001 A 
ATOM     87  C   UNL A   1      47.716  27.456  33.005  1.00  0.00     0.001 A 
ATOM     88  C   UNL A   1      47.533  26.526  34.026  1.00  0.00     0.000 A 
ENDBRANCH  70  83
ENDBRANCH  44  45
ENDBRANCH  36  39
ENDBRANCH  34  35
ENDBRANCH  33  34
ENDBRANCH  32  33
ENDBRANCH  31  32
ENDBRANCH   1  31
TORSDOF 17
ENDMDL
MODEL 2
REMARK VINA RESULT:     -11.0      5.365     11.298
REMARK SMILES COc1cccc(N2/C(=[NH+]/C(=O)CCC(=O)NCCCCCCNC(=O)c3ccc(-c4c5nc(c(-c6ccccc6)c6ccc([nH]6)c(-c6ccccc6)c6nc(c(-c7ccccc7)c7ccc4[nH]7)C=C6)C=C5)cc3)S[C@@H]3CS(=O)(=O)C[C@H]32)c1
REMARK SMILES IDX 19 1 18 2 17 3 15 4 16 5 14 7 13 8 11 9 8 10 9 11 82 12
REMARK SMILES IDX 10 13 75 14 76 15 81 16 77 18 78 19 12 20 79 21 80 22 7 23
REMARK SMILES IDX 3 24 4 25 83 26 5 27 6 28 2 29 1 30 20 31 21 32 22 33 23 34
REMARK SMILES IDX 24 35 25 36 26 38 27 39 28 40 74 41 29 42 73 43 30 44 31 45
REMARK SMILES IDX 32 46 67 47 33 48 72 49 66 50 68 51 34 52 71 53 65 54 64 55
REMARK SMILES IDX 35 57 57 58 42 59 56 60 43 61 46 62 55 63 69 64 44 65 45 66
REMARK SMILES IDX 54 68 70 69 47 70 36 71 37 72 41 73 38 74 40 75 39 76 58 77
REMARK SMILES IDX 59 78 63 79 60 80 62 81 61 82 48 83 49 84 53 85 50 86 52 87
REMARK SMILES IDX 51 88
REMARK H PARENT 17 6 10 17 24 37 68 56 46 67
REMARK Flexibility Score: inf
ROOT
ATOM      1  C   UNL A   1      33.032  36.205  29.759  1.00  0.00     0.021 C 
ENDROOT
BRANCH   1   2
ATOM      2  C   UNL A   1      32.523  35.852  31.180  1.00  0.00     0.116 C 
BRANCH   2   3
ATOM      3  N   UNL A   1      32.905  36.784  32.238  1.00  0.00    -0.356 N 
ATOM      4  C   UNL A   1      33.819  36.739  33.247  1.00  0.00     0.220 C 
ATOM      5  O   UNL A   1      33.948  37.747  33.945  1.00  0.00    -0.275 OA
ATOM      6  H   UNL A   1      32.392  37.624  32.218  1.00  0.00     0.163 HD
BRANCH   4   7
ATOM      7  C   UNL A   1      34.643  35.507  33.540  1.00  0.00     0.112 C 
BRANCH   7   8
ATOM      8  C   UNL A   1      35.770  35.391  32.517  1.00  0.00     0.138 C 
BRANCH   8   9
ATOM      9  C   UNL A   1      36.582  34.203  32.933  1.00  0.00     0.308 C 
ATOM     10  N   UNL A   1      39.859  32.815  32.155  1.00  0.00    -0.216 N 
ATOM     11  C   UNL A   1      38.493  33.038  32.384  1.00  0.00     0.319 C 
ATOM     12  C   UNL A   1      40.311  31.739  33.053  1.00  0.00     0.212 C 
ATOM     13  N   UNL A   1      37.845  34.152  32.388  1.00  0.00    -0.204 N 
ATOM     14  S   UNL A   1      37.717  31.465  32.783  1.00  0.00    -0.029 SA
ATOM     15  C   UNL A   1      39.277  30.621  32.862  1.00  0.00     0.120 C 
ATOM     16  C   UNL A   1      41.633  31.012  32.996  1.00  0.00     0.188 C 
ATOM     17  H   UNL A   1      38.251  34.963  32.002  1.00  0.00     0.316 HD
ATOM     18  C   UNL A   1      39.469  29.707  34.031  1.00  0.00     0.156 C 
ATOM     19  S   UNL A   1      41.227  29.536  34.011  1.00  0.00     0.155 S 
ATOM     20  O   UNL A   1      36.171  33.523  33.873  1.00  0.00    -0.247 OA
ATOM     21  O   UNL A   1      41.580  28.345  33.281  1.00  0.00    -0.229 OA
ATOM     22  O   UNL A   1      41.598  29.743  35.394  1.00  0.00    -0.229 OA
BRANCH  10  23
ATOM     23  C   UNL A   1      40.769  33.706  31.561  1.00  0.00     0.132 A 
ATOM     24  C   UNL A   1      41.651  35.007  29.667  1.00  0.00     0.123 A 
ATOM     25  C   UNL A   1      42.753  35.384  30.429  1.00  0.00     0.047 A 
ATOM     26  C   UNL A   1      40.689  34.143  30.221  1.00  0.00     0.098 A 
ATOM     27  C   UNL A   1      42.878  34.941  31.740  1.00  0.00     0.008 A 
ATOM     28  C   UNL A   1      41.890  34.125  32.299  1.00  0.00     0.052 A 
BRANCH  24  29
ATOM     29  O   UNL A   1      41.686  35.456  28.375  1.00  0.00    -0.497 OA
ATOM     30  C   UNL A   1      42.610  36.492  28.072  1.00  0.00     0.278 C 
ENDBRANCH  24  29
ENDBRANCH  10  23
ENDBRANCH   8   9
ENDBRANCH   7   8
ENDBRANCH   4   7
ENDBRANCH   2   3
ENDBRANCH   1   2
BRANCH   1  31
ATOM     31  C   UNL A   1      33.235  35.037  28.770  1.00  0.00     0.002 C 
BRANCH  31  32
ATOM     32  C   UNL A   1      34.622  34.655  28.195  1.00  0.00     0.002 C 
BRANCH  32  33
ATOM     33  C   UNL A   1      35.150  33.202  28.232  1.00  0.00     0.021 C 
BRANCH  33  34
ATOM     34  C   UNL A   1      34.312  32.090  28.915  1.00  0.00     0.116 C 
BRANCH  34  35
ATOM     35  N   UNL A   1      34.010  30.864  28.173  1.00  0.00    -0.352 N 
ATOM     36  C   UNL A   1      34.766  29.694  28.041  1.00  0.00     0.251 C 
ATOM     37  H   UNL A   1      33.147  30.862  27.697  1.00  0.00     0.163 HD
ATOM     38  O   UNL A   1      34.194  28.646  27.746  1.00  0.00    -0.269 OA
BRANCH  36  39
ATOM     39  C   UNL A   1      36.239  29.642  28.275  1.00  0.00     0.039 A 
ATOM     40  C   UNL A   1      36.788  29.166  29.458  1.00  0.00     0.014 A 
ATOM     41  C   UNL A   1      37.120  30.176  27.340  1.00  0.00     0.014 A 
ATOM     42  C   UNL A   1      38.190  29.033  29.583  1.00  0.00     0.010 A 
ATOM     43  C   UNL A   1      38.489  29.833  27.375  1.00  0.00     0.010 A 
ATOM     44  C   UNL A   1      39.060  29.195  28.479  1.00  0.00    -0.014 A 
BRANCH  44  45
ATOM     45  C   UNL A   1      40.462  28.597  28.493  1.00  0.00     0.031 A 
ATOM     46  C   UNL A   1      40.791  27.140  28.166  1.00  0.00     0.074 A 
ATOM     47  C   UNL A   1      41.504  29.372  28.895  1.00  0.00     0.049 A 
ATOM     48  N   UNL A   1      41.974  26.562  28.064  1.00  0.00    -0.248 NA
ATOM     49  C   UNL A   1      39.679  26.197  27.982  1.00  0.00     0.031 C 
ATOM     50  C   UNL A   1      41.392  30.732  29.434  1.00  0.00     0.029 A 
ATOM     51  N   UNL A   1      42.869  29.152  28.897  1.00  0.00    -0.354 N 
ATOM     52  C   UNL A   1      41.736  25.207  27.833  1.00  0.00     0.074 A 
ATOM     53  C   UNL A   1      40.304  25.032  27.893  1.00  0.00     0.031 C 
ATOM     54  C   UNL A   1      42.612  31.265  29.578  1.00  0.00     0.029 A 
ATOM     55  C   UNL A   1      43.612  30.266  29.229  1.00  0.00     0.049 A 
ATOM     56  H   UNL A   1      43.273  28.280  28.679  1.00  0.00     0.167 HD
ATOM     57  C   UNL A   1      42.604  24.199  27.551  1.00  0.00     0.031 A 
ATOM     58  C   UNL A   1      44.942  30.491  29.248  1.00  0.00     0.031 A 
ATOM     59  C   UNL A   1      44.035  24.349  27.461  1.00  0.00     0.049 A 
ATOM     60  C   UNL A   1      45.887  29.390  28.864  1.00  0.00     0.074 A 
ATOM     61  C   UNL A   1      44.982  23.412  27.075  1.00  0.00     0.029 A 
ATOM     62  N   UNL A   1      44.729  25.507  27.769  1.00  0.00    -0.354 N 
ATOM     63  N   UNL A   1      45.617  28.163  28.493  1.00  0.00    -0.248 NA
ATOM     64  C   UNL A   1      47.324  29.707  28.891  1.00  0.00     0.031 C 
ATOM     65  C   UNL A   1      46.250  23.986  27.205  1.00  0.00     0.029 A 
ATOM     66  C   UNL A   1      46.090  25.301  27.606  1.00  0.00     0.049 A 
ATOM     67  H   UNL A   1      44.316  26.352  28.060  1.00  0.00     0.167 HD
ATOM     68  C   UNL A   1      46.844  27.571  28.221  1.00  0.00     0.074 A 
ATOM     69  C   UNL A   1      47.858  28.579  28.442  1.00  0.00     0.031 C 
ATOM     70  C   UNL A   1      47.102  26.301  27.827  1.00  0.00     0.031 A 
BRANCH  57  71
ATOM     71  C   UNL A   1      42.028  22.826  27.275  1.00  0.00    -0.014 A 
ATOM     72  C   UNL A   1      41.524  22.492  26.007  1.00  0.00     0.009 A 
ATOM     73  C   UNL A   1      42.042  21.834  28.270  1.00  0.00     0.009 A 
ATOM     74  C   UNL A   1      40.992  21.224  25.758  1.00  0.00     0.001 A 
ATOM     75  C   UNL A   1      41.545  20.552  28.008  1.00  0.00     0.001 A 
ATOM     76  C   UNL A   1      41.006  20.254  26.757  1.00  0.00     0.000 A 
ENDBRANCH  57  71
BRANCH  58  77
ATOM     77  C   UNL A   1      45.471  31.841  29.602  1.00  0.00    -0.014 A 
ATOM     78  C   UNL A   1      45.771  32.161  30.938  1.00  0.00     0.009 A 
ATOM     79  C   UNL A   1      45.674  32.820  28.616  1.00  0.00     0.009 A 
ATOM     80  C   UNL A   1      46.232  33.436  31.280  1.00  0.00     0.001 A 
ATOM     81  C   UNL A   1      46.171  34.082  28.956  1.00  0.00     0.001 A 
ATOM     82  C   UNL A   1      46.437  34.393  30.288  1.00  0.00     0.000 A 
ENDBRANCH  58  77
BRANCH  70  83
ATOM     83  C   UNL A   1      48.536  25.929  27.576  1.00  0.00    -0.014 A 
ATOM     84  C   UNL A   1      49.112  26.048  26.302  1.00  0.00     0.009 A 
ATOM     85  C   UNL A   1      49.338  25.493  28.644  1.00  0.00     0.009 A 
ATOM     86  C   UNL A   1      50.450  25.705  26.095  1.00  0.00     0.001 A 
ATOM     87  C   UNL A   1      50.683  25.183  28.441  1.00  0.00     0.001 A 
ATOM     88  C   UNL A   1      51.236  25.280  27.166  1.00  0.00     0.000 A 
ENDBRANCH  70  83
ENDBRANCH  44  45
ENDBRANCH  36  39
ENDBRANCH  34  35
ENDBRANCH  33  34
ENDBRANCH  32  33
ENDBRANCH  31  32
ENDBRANCH   1  31
TORSDOF 17
ENDMDL
MODEL 3
REMARK VINA RESULT:     -11.0      3.927      9.793
REMARK SMILES COc1cccc(N2/C(=[NH+]/C(=O)CCC(=O)NCCCCCCNC(=O)c3ccc(-c4c5nc(c(-c6ccccc6)c6ccc([nH]6)c(-c6ccccc6)c6nc(c(-c7ccccc7)c7ccc4[nH]7)C=C6)C=C5)cc3)S[C@@H]3CS(=O)(=O)C[C@H]32)c1
REMARK SMILES IDX 19 1 18 2 17 3 15 4 16 5 14 7 13 8 11 9 8 10 9 11 82 12
REMARK SMILES IDX 10 13 75 14 76 15 81 16 77 18 78 19 12 20 79 21 80 22 7 23
REMARK SMILES IDX 3 24 4 25 83 26 5 27 6 28 2 29 1 30 20 31 21 32 22 33 23 34
REMARK SMILES IDX 24 35 25 36 26 38 27 39 28 40 74 41 29 42 73 43 30 44 31 45
REMARK SMILES IDX 32 46 67 47 33 48 72 49 66 50 68 51 34 52 71 53 65 54 64 55
REMARK SMILES IDX 35 57 57 58 42 59 56 60 43 61 46 62 55 63 69 64 44 65 45 66
REMARK SMILES IDX 54 68 70 69 47 70 36 71 37 72 41 73 38 74 40 75 39 76 58 77
REMARK SMILES IDX 59 78 63 79 60 80 62 81 61 82 48 83 49 84 53 85 50 86 52 87
REMARK SMILES IDX 51 88
REMARK H PARENT 17 6 10 17 24 37 68 56 46 67
REMARK Flexibility Score: inf
ROOT
ATOM      1  C   UNL A   1      34.863  21.517  26.435  1.00  0.00     0.021 C 
ENDROOT
BRANCH   1   2
ATOM      2  C   UNL A   1      34.317  22.065  27.777  1.00  0.00     0.116 C 
BRANCH   2   3
ATOM      3  N   UNL A   1      32.868  22.237  27.848  1.00  0.00    -0.356 N 
ATOM      4  C   UNL A   1      31.962  22.910  27.086  1.00  0.00     0.220 C 
ATOM      5  O   UNL A   1      30.770  22.793  27.381  1.00  0.00    -0.275 OA
ATOM      6  H   UNL A   1      32.459  21.764  28.609  1.00  0.00     0.163 HD
BRANCH   4   7
ATOM      7  C   UNL A   1      32.372  23.794  25.932  1.00  0.00     0.112 C 
BRANCH   7   8
ATOM      8  C   UNL A   1      31.732  23.281  24.644  1.00  0.00     0.138 C 
BRANCH   8   9
ATOM      9  C   UNL A   1      30.971  24.438  24.075  1.00  0.00     0.308 C 
ATOM     10  N   UNL A   1      30.733  28.024  24.677  1.00  0.00    -0.216 N 
ATOM     11  C   UNL A   1      30.490  26.657  24.472  1.00  0.00     0.319 C 
ATOM     12  C   UNL A   1      30.012  28.785  23.643  1.00  0.00     0.212 C 
ATOM     13  N   UNL A   1      31.296  25.661  24.616  1.00  0.00    -0.204 N 
ATOM     14  S   UNL A   1      28.811  26.462  23.854  1.00  0.00    -0.029 SA
ATOM     15  C   UNL A   1      28.587  28.214  23.671  1.00  0.00     0.120 C 
ATOM     16  C   UNL A   1      29.794  30.277  23.609  1.00  0.00     0.188 C 
ATOM     17  H   UNL A   1      32.139  25.775  25.113  1.00  0.00     0.316 HD
ATOM     18  C   UNL A   1      27.961  28.663  22.389  1.00  0.00     0.156 C 
ATOM     19  S   UNL A   1      28.417  30.370  22.397  1.00  0.00     0.155 S 
ATOM     20  O   UNL A   1      30.319  24.251  23.046  1.00  0.00    -0.247 OA
ATOM     21  O   UNL A   1      27.341  31.147  22.959  1.00  0.00    -0.229 OA
ATOM     22  O   UNL A   1      28.921  30.588  21.058  1.00  0.00    -0.229 OA
BRANCH  10  23
ATOM     23  C   UNL A   1      31.800  28.589  25.395  1.00  0.00     0.132 A 
ATOM     24  C   UNL A   1      32.856  30.377  26.716  1.00  0.00     0.123 A 
ATOM     25  C   UNL A   1      34.070  29.697  26.681  1.00  0.00     0.047 A 
ATOM     26  C   UNL A   1      31.743  29.842  26.044  1.00  0.00     0.098 A 
ATOM     27  C   UNL A   1      34.167  28.479  26.019  1.00  0.00     0.008 A 
ATOM     28  C   UNL A   1      33.041  27.929  25.398  1.00  0.00     0.052 A 
BRANCH  24  29
ATOM     29  O   UNL A   1      32.916  31.593  27.341  1.00  0.00    -0.497 OA
ATOM     30  C   UNL A   1      34.154  31.957  27.935  1.00  0.00     0.278 C 
ENDBRANCH  24  29
ENDBRANCH  10  23
ENDBRANCH   8   9
ENDBRANCH   7   8
ENDBRANCH   4   7
ENDBRANCH   2   3
ENDBRANCH   1   2
BRANCH   1  31
ATOM     31  C   UNL A   1      35.860  22.406  25.660  1.00  0.00     0.002 C 
BRANCH  31  32
ATOM     32  C   UNL A   1      36.880  21.836  24.645  1.00  0.00     0.002 C 
BRANCH  32  33
ATOM     33  C   UNL A   1      37.630  20.507  24.897  1.00  0.00     0.021 C 
BRANCH  33  34
ATOM     34  C   UNL A   1      38.920  20.497  25.758  1.00  0.00     0.116 C 
BRANCH  34  35
ATOM     35  N   UNL A   1      39.897  19.420  25.572  1.00  0.00    -0.352 N 
ATOM     36  C   UNL A   1      41.211  19.319  26.042  1.00  0.00     0.251 C 
ATOM     37  H   UNL A   1      39.582  18.655  25.036  1.00  0.00     0.163 HD
ATOM     38  O   UNL A   1      41.720  18.205  26.148  1.00  0.00    -0.269 OA
BRANCH  36  39
ATOM     39  C   UNL A   1      42.023  20.499  26.459  1.00  0.00     0.039 A 
ATOM     40  C   UNL A   1      42.850  21.182  25.578  1.00  0.00     0.014 A 
ATOM     41  C   UNL A   1      42.059  20.893  27.793  1.00  0.00     0.014 A 
ATOM     42  C   UNL A   1      43.509  22.361  25.998  1.00  0.00     0.010 A 
ATOM     43  C   UNL A   1      42.526  22.178  28.144  1.00  0.00     0.010 A 
ATOM     44  C   UNL A   1      43.220  22.982  27.235  1.00  0.00    -0.014 A 
BRANCH  44  45
ATOM     45  C   UNL A   1      43.549  24.452  27.469  1.00  0.00     0.031 A 
ATOM     46  C   UNL A   1      42.525  25.528  27.831  1.00  0.00     0.074 A 
ATOM     47  C   UNL A   1      44.825  24.880  27.272  1.00  0.00     0.049 A 
ATOM     48  N   UNL A   1      42.730  26.795  28.138  1.00  0.00    -0.248 NA
ATOM     49  C   UNL A   1      41.099  25.174  27.797  1.00  0.00     0.031 C 
ATOM     50  C   UNL A   1      45.921  24.064  26.740  1.00  0.00     0.029 A 
ATOM     51  N   UNL A   1      45.436  26.095  27.516  1.00  0.00    -0.354 N 
ATOM     52  C   UNL A   1      41.471  27.373  28.305  1.00  0.00     0.074 A 
ATOM     53  C   UNL A   1      40.509  26.346  27.983  1.00  0.00     0.031 C 
ATOM     54  C   UNL A   1      47.075  24.739  26.827  1.00  0.00     0.029 A 
ATOM     55  C   UNL A   1      46.805  26.076  27.339  1.00  0.00     0.049 A 
ATOM     56  H   UNL A   1      44.941  26.901  27.792  1.00  0.00     0.167 HD
ATOM     57  C   UNL A   1      41.126  28.619  28.726  1.00  0.00     0.031 A 
ATOM     58  C   UNL A   1      47.758  27.003  27.565  1.00  0.00     0.031 A 
ATOM     59  C   UNL A   1      42.064  29.656  29.076  1.00  0.00     0.049 A 
ATOM     60  C   UNL A   1      47.370  28.352  28.100  1.00  0.00     0.074 A 
ATOM     61  C   UNL A   1      41.809  30.909  29.615  1.00  0.00     0.029 A 
ATOM     62  N   UNL A   1      43.437  29.568  28.915  1.00  0.00    -0.354 N 
ATOM     63  N   UNL A   1      46.180  28.809  28.399  1.00  0.00    -0.248 NA
ATOM     64  C   UNL A   1      48.459  29.311  28.338  1.00  0.00     0.031 C 
ATOM     65  C   UNL A   1      43.021  31.597  29.726  1.00  0.00     0.029 A 
ATOM     66  C   UNL A   1      44.038  30.750  29.320  1.00  0.00     0.049 A 
ATOM     67  H   UNL A   1      43.914  28.782  28.565  1.00  0.00     0.167 HD
ATOM     68  C   UNL A   1      46.379  30.095  28.882  1.00  0.00     0.074 A 
ATOM     69  C   UNL A   1      47.805  30.338  28.862  1.00  0.00     0.031 C 
ATOM     70  C   UNL A   1      45.456  30.995  29.299  1.00  0.00     0.031 A 
BRANCH  57  71
ATOM     71  C   UNL A   1      39.652  28.933  28.874  1.00  0.00    -0.014 A 
ATOM     72  C   UNL A   1      38.906  29.436  27.795  1.00  0.00     0.009 A 
ATOM     73  C   UNL A   1      38.984  28.667  30.081  1.00  0.00     0.009 A 
ATOM     74  C   UNL A   1      37.546  29.725  27.937  1.00  0.00     0.001 A 
ATOM     75  C   UNL A   1      37.614  28.920  30.210  1.00  0.00     0.001 A 
ATOM     76  C   UNL A   1      36.900  29.463  29.143  1.00  0.00     0.000 A 
ENDBRANCH  57  71
BRANCH  58  77
ATOM     77  C   UNL A   1      49.196  26.677  27.330  1.00  0.00    -0.014 A 
ATOM     78  C   UNL A   1      49.979  26.127  28.360  1.00  0.00     0.009 A 
ATOM     79  C   UNL A   1      49.797  26.918  26.085  1.00  0.00     0.009 A 
ATOM     80  C   UNL A   1      51.335  25.854  28.155  1.00  0.00     0.001 A 
ATOM     81  C   UNL A   1      51.144  26.609  25.872  1.00  0.00     0.001 A 
ATOM     82  C   UNL A   1      51.914  26.089  26.910  1.00  0.00     0.000 A 
ENDBRANCH  58  77
BRANCH  70  83
ATOM     83  C   UNL A   1      45.956  32.321  29.802  1.00  0.00    -0.014 A 
ATOM     84  C   UNL A   1      45.905  33.473  29.002  1.00  0.00     0.009 A 
ATOM     85  C   UNL A   1      46.447  32.426  31.113  1.00  0.00     0.009 A 
ATOM     86  C   UNL A   1      46.368  34.696  29.494  1.00  0.00     0.001 A 
ATOM     87  C   UNL A   1      46.878  33.656  31.613  1.00  0.00     0.001 A 
ATOM     88  C   UNL A   1      46.846  34.788  30.801  1.00  0.00     0.000 A 
ENDBRANCH  70  83
ENDBRANCH  44  45
ENDBRANCH  36  39
ENDBRANCH  34  35
ENDBRANCH  33  34
ENDBRANCH  32  33
ENDBRANCH  31  32
ENDBRANCH   1  31
TORSDOF 17
ENDMDL
