MODEL 1
REMARK VINA RESULT:     -11.7      0.000      0.000
REMARK SMILES CC[C@H](C)N1C(=O)c2ccccc2[C@@H](C(=O)NCCCCCCNC(=O)c2ccc(-c3c4nc(c(-c5ccccc5)c5ccc([nH]5)c(-c5ccccc5)c5nc(c(-c6ccccc6)c6ccc3[nH]6)C=C5)C=C4)cc2)C12CCCCC2
REMARK SMILES IDX 20 1 19 2 18 3 17 4 15 5 16 6 14 8 5 9 6 10 75 11 7 12 8 13
REMARK SMILES IDX 76 14 80 15 9 16 13 17 77 18 79 19 10 20 12 21 78 22 11 23
REMARK SMILES IDX 3 24 4 25 2 26 1 27 21 28 22 29 23 30 24 31 25 32 26 34
REMARK SMILES IDX 27 35 28 36 74 37 29 38 73 39 30 40 31 41 32 42 67 43 33 44
REMARK SMILES IDX 72 45 66 46 68 47 34 48 71 49 65 50 64 51 35 53 57 54 42 55
REMARK SMILES IDX 56 56 43 57 46 58 55 59 69 60 44 61 45 62 54 64 70 65 47 66
REMARK SMILES IDX 36 67 37 68 41 69 38 70 40 71 39 72 58 73 59 74 63 75 60 76
REMARK SMILES IDX 62 77 61 78 48 79 49 80 53 81 50 82 52 83 51 84
REMARK H PARENT 17 7 24 33 68 52 46 63
REMARK Flexibility Score: inf
ROOT
ATOM      1  C   UNL A   1      37.238  23.308  25.444  1.00  0.00     0.002 C 
ENDROOT
BRANCH   1   2
ATOM      2  C   UNL A   1      35.951  24.033  25.847  1.00  0.00     0.021 C 
BRANCH   2   3
ATOM      3  C   UNL A   1      34.671  23.212  25.703  1.00  0.00     0.116 C 
BRANCH   3   4
ATOM      4  N   UNL A   1      33.646  23.632  26.644  1.00  0.00    -0.355 N 
ATOM      5  C   UNL A   1      32.450  24.262  26.486  1.00  0.00     0.229 C 
ATOM      6  O   UNL A   1      31.793  24.441  27.517  1.00  0.00    -0.274 OA
ATOM      7  H   UNL A   1      33.859  23.418  27.582  1.00  0.00     0.163 HD
BRANCH   5   8
ATOM      8  C   UNL A   1      31.877  24.675  25.116  1.00  0.00     0.135 C 
ATOM      9  N   UNL A   1      32.188  26.172  23.049  1.00  0.00    -0.329 N 
ATOM     10  C   UNL A   1      32.607  25.082  22.278  1.00  0.00     0.254 C 
ATOM     11  C   UNL A   1      32.226  26.136  24.589  1.00  0.00     0.059 C 
ATOM     12  O   UNL A   1      32.993  25.159  21.115  1.00  0.00    -0.269 OA
ATOM     13  C   UNL A   1      32.477  23.725  22.845  1.00  0.00     0.044 A 
ATOM     14  C   UNL A   1      33.632  26.686  24.957  1.00  0.00     0.030 C 
ATOM     15  C   UNL A   1      31.173  27.128  25.221  1.00  0.00     0.030 C 
ATOM     16  C   UNL A   1      32.719  22.619  22.010  1.00  0.00     0.014 A 
ATOM     17  C   UNL A   1      32.008  23.527  24.135  1.00  0.00    -0.020 A 
ATOM     18  C   UNL A   1      33.864  27.099  26.412  1.00  0.00     0.002 C 
ATOM     19  C   UNL A   1      31.386  27.466  26.696  1.00  0.00     0.002 C 
ATOM     20  C   UNL A   1      32.437  21.323  22.439  1.00  0.00     0.001 A 
ATOM     21  C   UNL A   1      31.664  22.216  24.534  1.00  0.00     0.005 A 
ATOM     22  C   UNL A   1      32.780  28.017  26.952  1.00  0.00     0.000 C 
ATOM     23  C   UNL A   1      31.881  21.125  23.696  1.00  0.00     0.000 A 
BRANCH   9  24
ATOM     24  C   UNL A   1      31.809  27.430  22.343  1.00  0.00     0.082 C 
ATOM     25  C   UNL A   1      30.340  27.876  22.455  1.00  0.00     0.031 C 
BRANCH  24  26
ATOM     26  C   UNL A   1      32.762  28.558  22.783  1.00  0.00     0.021 C 
ATOM     27  C   UNL A   1      34.132  28.460  22.130  1.00  0.00     0.006 C 
ENDBRANCH  24  26
ENDBRANCH   9  24
ENDBRANCH   5   8
ENDBRANCH   3   4
ENDBRANCH   2   3
ENDBRANCH   1   2
BRANCH   1  28
ATOM     28  C   UNL A   1      37.058  22.247  24.361  1.00  0.00     0.002 C 
BRANCH  28  29
ATOM     29  C   UNL A   1      37.641  20.876  24.702  1.00  0.00     0.021 C 
BRANCH  29  30
ATOM     30  C   UNL A   1      38.712  20.885  25.788  1.00  0.00     0.116 C 
BRANCH  30  31
ATOM     31  N   UNL A   1      39.607  19.743  25.702  1.00  0.00    -0.352 N 
ATOM     32  C   UNL A   1      40.952  19.708  25.988  1.00  0.00     0.251 C 
ATOM     33  H   UNL A   1      39.203  18.895  25.405  1.00  0.00     0.163 HD
ATOM     34  O   UNL A   1      41.636  18.721  25.752  1.00  0.00    -0.269 OA
BRANCH  32  35
ATOM     35  C   UNL A   1      41.557  20.923  26.563  1.00  0.00     0.039 A 
ATOM     36  C   UNL A   1      41.488  21.137  27.943  1.00  0.00     0.014 A 
ATOM     37  C   UNL A   1      42.064  21.903  25.707  1.00  0.00     0.014 A 
ATOM     38  C   UNL A   1      41.792  22.393  28.450  1.00  0.00     0.010 A 
ATOM     39  C   UNL A   1      42.440  23.140  26.233  1.00  0.00     0.010 A 
ATOM     40  C   UNL A   1      42.266  23.409  27.601  1.00  0.00    -0.014 A 
BRANCH  40  41
ATOM     41  C   UNL A   1      42.588  24.741  28.167  1.00  0.00     0.031 A 
ATOM     42  C   UNL A   1      44.001  25.116  28.521  1.00  0.00     0.074 A 
ATOM     43  C   UNL A   1      41.594  25.636  28.322  1.00  0.00     0.049 A 
ATOM     44  N   UNL A   1      44.451  26.239  29.020  1.00  0.00    -0.248 NA
ATOM     45  C   UNL A   1      45.046  24.104  28.286  1.00  0.00     0.031 C 
ATOM     46  C   UNL A   1      40.188  25.394  27.992  1.00  0.00     0.029 A 
ATOM     47  N   UNL A   1      41.615  26.932  28.769  1.00  0.00    -0.354 N 
ATOM     48  C   UNL A   1      45.821  26.065  29.177  1.00  0.00     0.074 A 
ATOM     49  C   UNL A   1      46.129  24.721  28.740  1.00  0.00     0.031 C 
ATOM     50  C   UNL A   1      39.492  26.522  28.194  1.00  0.00     0.029 A 
ATOM     51  C   UNL A   1      40.385  27.541  28.734  1.00  0.00     0.049 A 
ATOM     52  H   UNL A   1      42.432  27.381  29.086  1.00  0.00     0.167 HD
ATOM     53  C   UNL A   1      46.736  26.951  29.639  1.00  0.00     0.031 A 
ATOM     54  C   UNL A   1      40.007  28.777  29.108  1.00  0.00     0.031 A 
ATOM     55  C   UNL A   1      46.427  28.292  30.059  1.00  0.00     0.049 A 
ATOM     56  C   UNL A   1      41.031  29.717  29.669  1.00  0.00     0.074 A 
ATOM     57  C   UNL A   1      47.295  29.271  30.510  1.00  0.00     0.029 A 
ATOM     58  N   UNL A   1      45.156  28.843  30.080  1.00  0.00    -0.354 N 
ATOM     59  N   UNL A   1      42.321  29.538  29.809  1.00  0.00    -0.248 NA
ATOM     60  C   UNL A   1      40.548  31.024  30.134  1.00  0.00     0.031 C 
ATOM     61  C   UNL A   1      46.542  30.395  30.859  1.00  0.00     0.029 A 
ATOM     62  C   UNL A   1      45.212  30.137  30.569  1.00  0.00     0.049 A 
ATOM     63  H   UNL A   1      44.334  28.384  29.790  1.00  0.00     0.167 HD
ATOM     64  C   UNL A   1      42.807  30.707  30.377  1.00  0.00     0.074 A 
ATOM     65  C   UNL A   1      41.677  31.599  30.534  1.00  0.00     0.031 C 
ATOM     66  C   UNL A   1      44.077  31.008  30.739  1.00  0.00     0.031 A 
BRANCH  53  67
ATOM     67  C   UNL A   1      48.169  26.504  29.736  1.00  0.00    -0.014 A 
ATOM     68  C   UNL A   1      48.627  25.895  30.916  1.00  0.00     0.009 A 
ATOM     69  C   UNL A   1      49.086  26.776  28.711  1.00  0.00     0.009 A 
ATOM     70  C   UNL A   1      49.976  25.575  31.072  1.00  0.00     0.001 A 
ATOM     71  C   UNL A   1      50.433  26.433  28.861  1.00  0.00     0.001 A 
ATOM     72  C   UNL A   1      50.878  25.842  30.043  1.00  0.00     0.000 A 
ENDBRANCH  53  67
BRANCH  54  73
ATOM     73  C   UNL A   1      38.583  29.171  28.965  1.00  0.00    -0.014 A 
ATOM     74  C   UNL A   1      38.113  29.717  27.759  1.00  0.00     0.009 A 
ATOM     75  C   UNL A   1      37.707  29.077  30.055  1.00  0.00     0.009 A 
ATOM     76  C   UNL A   1      36.804  30.189  27.657  1.00  0.00     0.001 A 
ATOM     77  C   UNL A   1      36.389  29.524  29.941  1.00  0.00     0.001 A 
ATOM     78  C   UNL A   1      35.943  30.090  28.747  1.00  0.00     0.000 A 
ENDBRANCH  54  73
BRANCH  66  79
ATOM     79  C   UNL A   1      44.325  32.355  31.352  1.00  0.00    -0.014 A 
ATOM     80  C   UNL A   1      44.211  32.524  32.740  1.00  0.00     0.009 A 
ATOM     81  C   UNL A   1      44.575  33.475  30.545  1.00  0.00     0.009 A 
ATOM     82  C   UNL A   1      44.328  33.793  33.310  1.00  0.00     0.001 A 
ATOM     83  C   UNL A   1      44.717  34.739  31.120  1.00  0.00     0.001 A 
ATOM     84  C   UNL A   1      44.585  34.899  32.499  1.00  0.00     0.000 A 
ENDBRANCH  66  79
ENDBRANCH  40  41
ENDBRANCH  32  35
ENDBRANCH  30  31
ENDBRANCH  29  30
ENDBRANCH  28  29
ENDBRANCH   1  28
TORSDOF 15
ENDMDL
MODEL 2
REMARK VINA RESULT:     -11.6      0.286      5.718
REMARK SMILES CC[C@H](C)N1C(=O)c2ccccc2[C@@H](C(=O)NCCCCCCNC(=O)c2ccc(-c3c4nc(c(-c5ccccc5)c5ccc([nH]5)c(-c5ccccc5)c5nc(c(-c6ccccc6)c6ccc3[nH]6)C=C5)C=C4)cc2)C12CCCCC2
REMARK SMILES IDX 20 1 19 2 18 3 17 4 15 5 16 6 14 8 5 9 6 10 75 11 7 12 8 13
REMARK SMILES IDX 76 14 80 15 9 16 13 17 77 18 79 19 10 20 12 21 78 22 11 23
REMARK SMILES IDX 3 24 4 25 2 26 1 27 21 28 22 29 23 30 24 31 25 32 26 34
REMARK SMILES IDX 27 35 28 36 74 37 29 38 73 39 30 40 31 41 32 42 67 43 33 44
REMARK SMILES IDX 72 45 66 46 68 47 34 48 71 49 65 50 64 51 35 53 57 54 42 55
REMARK SMILES IDX 56 56 43 57 46 58 55 59 69 60 44 61 45 62 54 64 70 65 47 66
REMARK SMILES IDX 36 67 37 68 41 69 38 70 40 71 39 72 58 73 59 74 63 75 60 76
REMARK SMILES IDX 62 77 61 78 48 79 49 80 53 81 50 82 52 83 51 84
REMARK H PARENT 17 7 24 33 68 52 46 63
REMARK Flexibility Score: inf
ROOT
ATOM      1  C   UNL A   1      37.044  23.442  24.899  1.00  0.00     0.002 C 
ENDROOT
BRANCH   1   2
ATOM      2  C   UNL A   1      36.018  23.529  26.032  1.00  0.00     0.021 C 
BRANCH   2   3
ATOM      3  C   UNL A   1      34.610  23.055  25.670  1.00  0.00     0.116 C 
BRANCH   3   4
ATOM      4  N   UNL A   1      33.616  23.531  26.617  1.00  0.00    -0.355 N 
ATOM      5  C   UNL A   1      32.447  24.212  26.465  1.00  0.00     0.229 C 
ATOM      6  O   UNL A   1      31.811  24.431  27.500  1.00  0.00    -0.274 OA
ATOM      7  H   UNL A   1      33.830  23.318  27.555  1.00  0.00     0.163 HD
BRANCH   5   8
ATOM      8  C   UNL A   1      31.879  24.636  25.096  1.00  0.00     0.135 C 
ATOM      9  N   UNL A   1      32.203  26.136  23.035  1.00  0.00    -0.329 N 
ATOM     10  C   UNL A   1      32.612  25.045  22.259  1.00  0.00     0.254 C 
ATOM     11  C   UNL A   1      32.242  26.095  24.574  1.00  0.00     0.059 C 
ATOM     12  O   UNL A   1      32.998  25.122  21.097  1.00  0.00    -0.269 OA
ATOM     13  C   UNL A   1      32.468  23.688  22.822  1.00  0.00     0.044 A 
ATOM     14  C   UNL A   1      33.653  26.629  24.944  1.00  0.00     0.030 C 
ATOM     15  C   UNL A   1      31.198  27.095  25.210  1.00  0.00     0.030 C 
ATOM     16  C   UNL A   1      32.700  22.582  21.983  1.00  0.00     0.014 A 
ATOM     17  C   UNL A   1      31.998  23.490  24.112  1.00  0.00    -0.020 A 
ATOM     18  C   UNL A   1      33.889  27.036  26.400  1.00  0.00     0.002 C 
ATOM     19  C   UNL A   1      31.415  27.426  26.687  1.00  0.00     0.002 C 
ATOM     20  C   UNL A   1      32.405  21.287  22.408  1.00  0.00     0.001 A 
ATOM     21  C   UNL A   1      31.641  22.181  24.506  1.00  0.00     0.005 A 
ATOM     22  C   UNL A   1      32.815  27.962  26.943  1.00  0.00     0.000 C 
ATOM     23  C   UNL A   1      31.847  21.090  23.665  1.00  0.00     0.000 A 
BRANCH   9  24
ATOM     24  C   UNL A   1      31.837  27.401  22.333  1.00  0.00     0.082 C 
ATOM     25  C   UNL A   1      30.371  27.856  22.439  1.00  0.00     0.031 C 
BRANCH  24  26
ATOM     26  C   UNL A   1      32.795  28.520  22.784  1.00  0.00     0.021 C 
ATOM     27  C   UNL A   1      34.161  28.427  22.123  1.00  0.00     0.006 C 
ENDBRANCH  24  26
ENDBRANCH   9  24
ENDBRANCH   5   8
ENDBRANCH   3   4
ENDBRANCH   2   3
ENDBRANCH   1   2
BRANCH   1  28
ATOM     28  C   UNL A   1      37.044  22.117  24.140  1.00  0.00     0.002 C 
BRANCH  28  29
ATOM     29  C   UNL A   1      37.500  20.909  24.958  1.00  0.00     0.021 C 
BRANCH  29  30
ATOM     30  C   UNL A   1      38.799  21.110  25.731  1.00  0.00     0.116 C 
BRANCH  30  31
ATOM     31  N   UNL A   1      39.657  19.937  25.698  1.00  0.00    -0.352 N 
ATOM     32  C   UNL A   1      40.994  19.867  26.016  1.00  0.00     0.251 C 
ATOM     33  H   UNL A   1      39.233  19.094  25.415  1.00  0.00     0.163 HD
ATOM     34  O   UNL A   1      41.650  18.852  25.823  1.00  0.00    -0.269 OA
BRANCH  32  35
ATOM     35  C   UNL A   1      41.626  21.078  26.571  1.00  0.00     0.039 A 
ATOM     36  C   UNL A   1      41.556  21.318  27.946  1.00  0.00     0.014 A 
ATOM     37  C   UNL A   1      42.159  22.029  25.699  1.00  0.00     0.014 A 
ATOM     38  C   UNL A   1      41.889  22.577  28.431  1.00  0.00     0.010 A 
ATOM     39  C   UNL A   1      42.563  23.266  26.203  1.00  0.00     0.010 A 
ATOM     40  C   UNL A   1      42.390  23.565  27.565  1.00  0.00    -0.014 A 
BRANCH  40  41
ATOM     41  C   UNL A   1      42.742  24.899  28.108  1.00  0.00     0.031 A 
ATOM     42  C   UNL A   1      41.692  25.953  28.327  1.00  0.00     0.074 A 
ATOM     43  C   UNL A   1      44.022  25.142  28.448  1.00  0.00     0.049 A 
ATOM     44  N   UNL A   1      41.833  27.166  28.798  1.00  0.00    -0.248 NA
ATOM     45  C   UNL A   1      40.305  25.606  27.974  1.00  0.00     0.031 C 
ATOM     46  C   UNL A   1      45.124  24.188  28.303  1.00  0.00     0.029 A 
ATOM     47  N   UNL A   1      44.608  26.248  29.006  1.00  0.00    -0.354 N 
ATOM     48  C   UNL A   1      40.564  27.733  28.780  1.00  0.00     0.074 A 
ATOM     49  C   UNL A   1      39.666  26.740  28.233  1.00  0.00     0.031 C 
ATOM     50  C   UNL A   1      46.240  24.729  28.813  1.00  0.00     0.029 A 
ATOM     51  C   UNL A   1      45.950  26.089  29.252  1.00  0.00     0.049 A 
ATOM     52  H   UNL A   1      44.115  27.076  29.209  1.00  0.00     0.167 HD
ATOM     53  C   UNL A   1      40.187  28.968  29.190  1.00  0.00     0.031 A 
ATOM     54  C   UNL A   1      46.856  26.944  29.760  1.00  0.00     0.031 A 
ATOM     55  C   UNL A   1      41.082  29.947  29.746  1.00  0.00     0.049 A 
ATOM     56  C   UNL A   1      46.421  28.324  30.152  1.00  0.00     0.074 A 
ATOM     57  C   UNL A   1      40.782  31.213  30.219  1.00  0.00     0.029 A 
ATOM     58  N   UNL A   1      42.448  29.773  29.907  1.00  0.00    -0.354 N 
ATOM     59  N   UNL A   1      45.218  28.843  30.131  1.00  0.00    -0.248 NA
ATOM     60  C   UNL A   1      47.466  29.241  30.626  1.00  0.00     0.031 C 
ATOM     61  C   UNL A   1      41.974  31.826  30.612  1.00  0.00     0.029 A 
ATOM     62  C   UNL A   1      43.009  30.921  30.439  1.00  0.00     0.049 A 
ATOM     63  H   UNL A   1      42.945  28.955  29.676  1.00  0.00     0.167 HD
ATOM     64  C   UNL A   1      45.358  30.145  30.588  1.00  0.00     0.074 A 
ATOM     65  C   UNL A   1      46.760  30.331  30.903  1.00  0.00     0.031 C 
ATOM     66  C   UNL A   1      44.408  31.100  30.729  1.00  0.00     0.031 A 
BRANCH  53  67
ATOM     67  C   UNL A   1      38.741  29.352  29.040  1.00  0.00    -0.014 A 
ATOM     68  C   UNL A   1      37.866  29.198  30.128  1.00  0.00     0.009 A 
ATOM     69  C   UNL A   1      38.222  29.764  27.804  1.00  0.00     0.009 A 
ATOM     70  C   UNL A   1      36.500  29.440  29.980  1.00  0.00     0.001 A 
ATOM     71  C   UNL A   1      36.856  30.029  27.666  1.00  0.00     0.001 A 
ATOM     72  C   UNL A   1      35.996  29.859  28.750  1.00  0.00     0.000 A 
ENDBRANCH  53  67
BRANCH  54  73
ATOM     73  C   UNL A   1      48.265  26.501  29.908  1.00  0.00    -0.014 A 
ATOM     74  C   UNL A   1      48.697  25.888  31.097  1.00  0.00     0.009 A 
ATOM     75  C   UNL A   1      49.200  26.756  28.896  1.00  0.00     0.009 A 
ATOM     76  C   UNL A   1      50.043  25.570  31.281  1.00  0.00     0.001 A 
ATOM     77  C   UNL A   1      50.541  26.409  29.072  1.00  0.00     0.001 A 
ATOM     78  C   UNL A   1      50.963  25.828  30.267  1.00  0.00     0.000 A 
ENDBRANCH  54  73
BRANCH  66  79
ATOM     79  C   UNL A   1      44.842  32.443  31.238  1.00  0.00    -0.014 A 
ATOM     80  C   UNL A   1      44.812  32.715  32.614  1.00  0.00     0.009 A 
ATOM     81  C   UNL A   1      45.188  33.470  30.346  1.00  0.00     0.009 A 
ATOM     82  C   UNL A   1      45.107  33.994  33.089  1.00  0.00     0.001 A 
ATOM     83  C   UNL A   1      45.507  34.742  30.826  1.00  0.00     0.001 A 
ATOM     84  C   UNL A   1      45.457  35.005  32.195  1.00  0.00     0.000 A 
ENDBRANCH  66  79
ENDBRANCH  40  41
ENDBRANCH  32  35
ENDBRANCH  30  31
ENDBRANCH  29  30
ENDBRANCH  28  29
ENDBRANCH   1  28
TORSDOF 15
ENDMDL
MODEL 3
REMARK VINA RESULT:     -11.5      3.204      8.499
REMARK SMILES CC[C@H](C)N1C(=O)c2ccccc2[C@@H](C(=O)NCCCCCCNC(=O)c2ccc(-c3c4nc(c(-c5ccccc5)c5ccc([nH]5)c(-c5ccccc5)c5nc(c(-c6ccccc6)c6ccc3[nH]6)C=C5)C=C4)cc2)C12CCCCC2
REMARK SMILES IDX 20 1 19 2 18 3 17 4 15 5 16 6 14 8 5 9 6 10 75 11 7 12 8 13
REMARK SMILES IDX 76 14 80 15 9 16 13 17 77 18 79 19 10 20 12 21 78 22 11 23
REMARK SMILES IDX 3 24 4 25 2 26 1 27 21 28 22 29 23 30 24 31 25 32 26 34
REMARK SMILES IDX 27 35 28 36 74 37 29 38 73 39 30 40 31 41 32 42 67 43 33 44
REMARK SMILES IDX 72 45 66 46 68 47 34 48 71 49 65 50 64 51 35 53 57 54 42 55
REMARK SMILES IDX 56 56 43 57 46 58 55 59 69 60 44 61 45 62 54 64 70 65 47 66
REMARK SMILES IDX 36 67 37 68 41 69 38 70 40 71 39 72 58 73 59 74 63 75 60 76
REMARK SMILES IDX 62 77 61 78 48 79 49 80 53 81 50 82 52 83 51 84
REMARK H PARENT 17 7 24 33 68 52 46 63
REMARK Flexibility Score: inf
ROOT
ATOM      1  C   UNL A   1      32.103  29.839  25.789  1.00  0.00     0.002 C 
ENDROOT
BRANCH   1   2
ATOM      2  C   UNL A   1      32.867  29.245  24.603  1.00  0.00     0.021 C 
BRANCH   2   3
ATOM      3  C   UNL A   1      33.495  27.875  24.856  1.00  0.00     0.116 C 
BRANCH   3   4
ATOM      4  N   UNL A   1      33.981  27.265  23.630  1.00  0.00    -0.355 N 
ATOM      5  C   UNL A   1      33.665  26.106  22.988  1.00  0.00     0.229 C 
ATOM      6  O   UNL A   1      34.256  25.901  21.923  1.00  0.00    -0.274 OA
ATOM      7  H   UNL A   1      34.675  27.793  23.173  1.00  0.00     0.163 HD
BRANCH   5   8
ATOM      8  C   UNL A   1      32.590  25.120  23.486  1.00  0.00     0.135 C 
ATOM      9  N   UNL A   1      31.781  23.675  25.451  1.00  0.00    -0.329 N 
ATOM     10  C   UNL A   1      30.746  24.574  25.733  1.00  0.00     0.254 C 
ATOM     11  C   UNL A   1      33.013  24.092  24.625  1.00  0.00     0.059 C 
ATOM     12  O   UNL A   1      29.973  24.472  26.682  1.00  0.00    -0.269 OA
ATOM     13  C   UNL A   1      30.478  25.664  24.774  1.00  0.00     0.044 A 
ATOM     14  C   UNL A   1      34.032  24.609  25.678  1.00  0.00     0.030 C 
ATOM     15  C   UNL A   1      33.685  22.852  23.915  1.00  0.00     0.030 C 
ATOM     16  C   UNL A   1      29.328  26.454  24.955  1.00  0.00     0.014 A 
ATOM     17  C   UNL A   1      31.266  25.840  23.647  1.00  0.00    -0.020 A 
ATOM     18  C   UNL A   1      35.483  24.780  25.223  1.00  0.00     0.002 C 
ATOM     19  C   UNL A   1      35.108  23.075  23.405  1.00  0.00     0.002 C 
ATOM     20  C   UNL A   1      28.931  27.373  23.985  1.00  0.00     0.001 A 
ATOM     21  C   UNL A   1      30.818  26.725  22.641  1.00  0.00     0.005 A 
ATOM     22  C   UNL A   1      36.034  23.557  24.511  1.00  0.00     0.000 C 
ATOM     23  C   UNL A   1      29.665  27.488  22.811  1.00  0.00     0.000 A 
BRANCH   9  24
ATOM     24  C   UNL A   1      31.726  22.320  26.074  1.00  0.00     0.082 C 
ATOM     25  C   UNL A   1      32.066  21.124  25.168  1.00  0.00     0.031 C 
BRANCH  24  26
ATOM     26  C   UNL A   1      32.600  22.316  27.343  1.00  0.00     0.021 C 
ATOM     27  C   UNL A   1      33.816  21.411  27.217  1.00  0.00     0.006 C 
ENDBRANCH  24  26
ENDBRANCH   9  24
ENDBRANCH   5   8
ENDBRANCH   3   4
ENDBRANCH   2   3
ENDBRANCH   1   2
BRANCH   1  28
ATOM     28  C   UNL A   1      30.953  30.768  25.406  1.00  0.00     0.002 C 
BRANCH  28  29
ATOM     29  C   UNL A   1      30.912  32.089  26.174  1.00  0.00     0.021 C 
BRANCH  29  30
ATOM     30  C   UNL A   1      32.197  32.442  26.915  1.00  0.00     0.116 C 
BRANCH  30  31
ATOM     31  N   UNL A   1      32.176  33.788  27.463  1.00  0.00    -0.352 N 
ATOM     32  C   UNL A   1      33.090  34.360  28.317  1.00  0.00     0.251 C 
ATOM     33  H   UNL A   1      31.419  34.358  27.191  1.00  0.00     0.163 HD
ATOM     34  O   UNL A   1      32.901  35.458  28.823  1.00  0.00    -0.269 OA
BRANCH  32  35
ATOM     35  C   UNL A   1      34.302  33.583  28.636  1.00  0.00     0.039 A 
ATOM     36  C   UNL A   1      34.251  32.612  29.639  1.00  0.00     0.014 A 
ATOM     37  C   UNL A   1      35.512  33.929  28.029  1.00  0.00     0.014 A 
ATOM     38  C   UNL A   1      35.437  32.089  30.138  1.00  0.00     0.010 A 
ATOM     39  C   UNL A   1      36.694  33.344  28.483  1.00  0.00     0.010 A 
ATOM     40  C   UNL A   1      36.671  32.453  29.570  1.00  0.00    -0.014 A 
BRANCH  40  41
ATOM     41  C   UNL A   1      37.923  31.877  30.117  1.00  0.00     0.031 A 
ATOM     42  C   UNL A   1      38.632  32.517  31.279  1.00  0.00     0.074 A 
ATOM     43  C   UNL A   1      38.399  30.737  29.582  1.00  0.00     0.049 A 
ATOM     44  N   UNL A   1      39.732  32.137  31.879  1.00  0.00    -0.248 NA
ATOM     45  C   UNL A   1      38.034  33.739  31.844  1.00  0.00     0.031 C 
ATOM     46  C   UNL A   1      37.784  30.013  28.467  1.00  0.00     0.029 A 
ATOM     47  N   UNL A   1      39.488  29.974  29.916  1.00  0.00    -0.354 N 
ATOM     48  C   UNL A   1      39.969  33.078  32.874  1.00  0.00     0.074 A 
ATOM     49  C   UNL A   1      38.910  34.059  32.787  1.00  0.00     0.031 C 
ATOM     50  C   UNL A   1      38.471  28.883  28.248  1.00  0.00     0.029 A 
ATOM     51  C   UNL A   1      39.613  28.839  29.154  1.00  0.00     0.049 A 
ATOM     52  H   UNL A   1      40.118  30.218  30.632  1.00  0.00     0.167 HD
ATOM     53  C   UNL A   1      40.976  33.111  33.779  1.00  0.00     0.031 A 
ATOM     54  C   UNL A   1      40.550  27.873  29.167  1.00  0.00     0.031 A 
ATOM     55  C   UNL A   1      42.018  32.124  33.870  1.00  0.00     0.049 A 
ATOM     56  C   UNL A   1      41.685  27.966  30.142  1.00  0.00     0.074 A 
ATOM     57  C   UNL A   1      43.062  32.060  34.778  1.00  0.00     0.029 A 
ATOM     58  N   UNL A   1      42.152  31.031  33.029  1.00  0.00    -0.354 N 
ATOM     59  N   UNL A   1      41.892  28.861  31.077  1.00  0.00    -0.248 NA
ATOM     60  C   UNL A   1      42.719  26.927  30.059  1.00  0.00     0.031 C 
ATOM     61  C   UNL A   1      43.859  30.961  34.449  1.00  0.00     0.029 A 
ATOM     62  C   UNL A   1      43.279  30.307  33.375  1.00  0.00     0.049 A 
ATOM     63  H   UNL A   1      41.536  30.804  32.294  1.00  0.00     0.167 HD
ATOM     64  C   UNL A   1      43.079  28.495  31.695  1.00  0.00     0.074 A 
ATOM     65  C   UNL A   1      43.534  27.283  31.045  1.00  0.00     0.031 C 
ATOM     66  C   UNL A   1      43.732  29.113  32.708  1.00  0.00     0.031 A 
BRANCH  53  67
ATOM     67  C   UNL A   1      41.021  34.263  34.745  1.00  0.00    -0.014 A 
ATOM     68  C   UNL A   1      40.394  34.144  35.996  1.00  0.00     0.009 A 
ATOM     69  C   UNL A   1      41.587  35.494  34.383  1.00  0.00     0.009 A 
ATOM     70  C   UNL A   1      40.325  35.236  36.862  1.00  0.00     0.001 A 
ATOM     71  C   UNL A   1      41.537  36.579  35.263  1.00  0.00     0.001 A 
ATOM     72  C   UNL A   1      40.900  36.453  36.497  1.00  0.00     0.000 A 
ENDBRANCH  53  67
BRANCH  54  73
ATOM     73  C   UNL A   1      40.439  26.746  28.206  1.00  0.00    -0.014 A 
ATOM     74  C   UNL A   1      41.023  26.839  26.932  1.00  0.00     0.009 A 
ATOM     75  C   UNL A   1      39.687  25.609  28.528  1.00  0.00     0.009 A 
ATOM     76  C   UNL A   1      40.829  25.829  25.988  1.00  0.00     0.001 A 
ATOM     77  C   UNL A   1      39.519  24.586  27.592  1.00  0.00     0.001 A 
ATOM     78  C   UNL A   1      40.079  24.703  26.320  1.00  0.00     0.000 A 
ENDBRANCH  54  73
BRANCH  66  79
ATOM     79  C   UNL A   1      45.020  28.503  33.179  1.00  0.00    -0.014 A 
ATOM     80  C   UNL A   1      45.009  27.559  34.218  1.00  0.00     0.009 A 
ATOM     81  C   UNL A   1      46.250  28.936  32.662  1.00  0.00     0.009 A 
ATOM     82  C   UNL A   1      46.206  27.069  34.740  1.00  0.00     0.001 A 
ATOM     83  C   UNL A   1      47.446  28.425  33.170  1.00  0.00     0.001 A 
ATOM     84  C   UNL A   1      47.424  27.500  34.214  1.00  0.00     0.000 A 
ENDBRANCH  66  79
ENDBRANCH  40  41
ENDBRANCH  32  35
ENDBRANCH  30  31
ENDBRANCH  29  30
ENDBRANCH  28  29
ENDBRANCH   1  28
TORSDOF 15
ENDMDL
