MODEL 1
REMARK VINA RESULT:     -10.9      0.000      0.000
REMARK SMILES Cc1c[nH]c(C[N@H+]2C[C@@H]3CN(S(C)(=O)=O)C[C@]3(C(=O)NCCCCCCNC(=O)c3ccc(-c4c5nc(c(-c6ccccc6)c6ccc([nH]6)c(-c6ccccc6)c6nc(c(-c7ccccc7)c7ccc4[nH]7)C=C6)C=C5)cc3)C2)n1
REMARK SMILES IDX 23 1 22 2 21 3 20 4 18 5 19 6 17 8 7 9 8 10 78 11 9 13 10 14
REMARK SMILES IDX 16 15 11 16 6 17 5 18 1 19 2 20 3 21 79 22 4 23 12 25 13 26
REMARK SMILES IDX 14 27 15 28 24 29 25 30 26 31 27 32 28 33 29 35 30 36 31 37
REMARK SMILES IDX 77 38 32 39 76 40 33 41 34 42 35 43 70 44 36 45 75 46 69 47
REMARK SMILES IDX 71 48 37 49 74 50 68 51 67 52 38 54 60 55 45 56 59 57 46 58
REMARK SMILES IDX 49 59 58 60 72 61 47 62 48 63 57 65 73 66 50 67 39 68 40 69
REMARK SMILES IDX 44 70 41 71 43 72 42 73 61 74 62 75 66 76 63 77 65 78 64 79
REMARK SMILES IDX 51 80 52 81 56 82 53 83 55 84 54 85
REMARK H PARENT 20 7 7 12 4 24 27 34 71 53 49 64
REMARK Flexibility Score: inf
ROOT
ATOM      1  C   UNL A   1      38.582  22.447  25.959  1.00  0.00     0.002 C 
ENDROOT
BRANCH   1   2
ATOM      2  C   UNL A   1      37.709  23.641  26.336  1.00  0.00     0.021 C 
BRANCH   2   3
ATOM      3  C   UNL A   1      36.272  23.528  25.818  1.00  0.00     0.116 C 
BRANCH   3   4
ATOM      4  N   UNL A   1      35.461  22.814  26.786  1.00  0.00    -0.355 N 
ATOM      5  C   UNL A   1      34.093  22.642  26.733  1.00  0.00     0.233 C 
ATOM      6  O   UNL A   1      33.481  22.582  27.799  1.00  0.00    -0.274 OA
ATOM      7  H   UNL A   1      35.931  22.416  27.554  1.00  0.00     0.163 HD
BRANCH   5   8
ATOM      8  C   UNL A   1      33.448  22.501  25.298  1.00  0.00     0.121 C 
ATOM      9  N   UNL A   1      32.852  20.164  24.525  1.00  0.00    -0.327 N 
ATOM     10  C   UNL A   1      32.087  21.096  23.735  1.00  0.00     0.268 C 
ATOM     11  C   UNL A   1      33.340  20.948  25.683  1.00  0.00     0.281 C 
ATOM     12  H   UNL A   1      33.621  19.776  23.979  1.00  0.00     0.348 HD
ATOM     13  C   UNL A   1      32.000  22.319  24.628  1.00  0.00     0.082 C 
ATOM     14  C   UNL A   1      31.625  23.518  23.757  1.00  0.00     0.113 C 
ATOM     15  C   UNL A   1      33.071  24.020  25.489  1.00  0.00     0.125 C 
ATOM     16  N   UNL A   1      32.600  24.507  24.169  1.00  0.00    -0.200 NA
BRANCH   9  17
ATOM     17  C   UNL A   1      32.096  18.956  24.929  1.00  0.00     0.338 C 
BRANCH  17  18
ATOM     18  C   UNL A   1      32.891  17.677  24.958  1.00  0.00     0.161 A 
ATOM     19  C   UNL A   1      35.856  15.764  25.402  1.00  0.00     0.068 C 
ATOM     20  C   UNL A   1      34.465  16.225  25.203  1.00  0.00     0.056 A 
ATOM     21  C   UNL A   1      33.290  15.509  25.190  1.00  0.00     0.107 A 
ATOM     22  N   UNL A   1      34.202  17.560  25.030  1.00  0.00    -0.233 NA
ATOM     23  N   UNL A   1      32.303  16.436  24.999  1.00  0.00    -0.344 N 
ATOM     24  H   UNL A   1      31.341  16.248  24.909  1.00  0.00     0.167 HD
ENDBRANCH  17  18
ENDBRANCH   9  17
BRANCH  16  25
ATOM     25  S   UNL A   1      33.671  25.115  23.020  1.00  0.00     0.211 S 
ATOM     26  C   UNL A   1      32.698  25.276  21.524  1.00  0.00     0.176 C 
ATOM     27  O   UNL A   1      34.031  26.454  23.426  1.00  0.00    -0.213 OA
ATOM     28  O   UNL A   1      34.687  24.112  22.776  1.00  0.00    -0.213 OA
ENDBRANCH  16  25
ENDBRANCH   5   8
ENDBRANCH   3   4
ENDBRANCH   2   3
ENDBRANCH   1   2
BRANCH   1  29
ATOM     29  C   UNL A   1      37.913  21.471  24.985  1.00  0.00     0.002 C 
BRANCH  29  30
ATOM     30  C   UNL A   1      38.513  20.062  24.975  1.00  0.00     0.021 C 
BRANCH  30  31
ATOM     31  C   UNL A   1      39.299  19.710  26.235  1.00  0.00     0.116 C 
BRANCH  31  32
ATOM     32  N   UNL A   1      40.587  19.123  25.900  1.00  0.00    -0.352 N 
ATOM     33  C   UNL A   1      41.813  19.720  25.793  1.00  0.00     0.251 C 
ATOM     34  H   UNL A   1      40.574  18.154  25.725  1.00  0.00     0.163 HD
ATOM     35  O   UNL A   1      42.725  19.150  25.201  1.00  0.00    -0.269 OA
BRANCH  33  36
ATOM     36  C   UNL A   1      42.041  21.045  26.400  1.00  0.00     0.039 A 
ATOM     37  C   UNL A   1      42.338  22.126  25.567  1.00  0.00     0.014 A 
ATOM     38  C   UNL A   1      42.017  21.210  27.789  1.00  0.00     0.014 A 
ATOM     39  C   UNL A   1      42.587  23.378  26.129  1.00  0.00     0.010 A 
ATOM     40  C   UNL A   1      42.180  22.475  28.340  1.00  0.00     0.010 A 
ATOM     41  C   UNL A   1      42.493  23.566  27.518  1.00  0.00    -0.014 A 
BRANCH  41  42
ATOM     42  C   UNL A   1      42.749  24.895  28.122  1.00  0.00     0.031 A 
ATOM     43  C   UNL A   1      44.134  25.266  28.578  1.00  0.00     0.074 A 
ATOM     44  C   UNL A   1      41.727  25.756  28.284  1.00  0.00     0.049 A 
ATOM     45  N   UNL A   1      44.551  26.381  29.121  1.00  0.00    -0.248 NA
ATOM     46  C   UNL A   1      45.183  24.244  28.425  1.00  0.00     0.031 C 
ATOM     47  C   UNL A   1      40.333  25.496  27.918  1.00  0.00     0.029 A 
ATOM     48  N   UNL A   1      41.704  27.029  28.794  1.00  0.00    -0.354 N 
ATOM     49  C   UNL A   1      45.902  26.190  29.384  1.00  0.00     0.074 A 
ATOM     50  C   UNL A   1      46.222  24.834  28.997  1.00  0.00     0.031 C 
ATOM     51  C   UNL A   1      39.600  26.590  28.178  1.00  0.00     0.029 A 
ATOM     52  C   UNL A   1      40.460  27.609  28.768  1.00  0.00     0.049 A 
ATOM     53  H   UNL A   1      42.504  27.483  29.146  1.00  0.00     0.167 HD
ATOM     54  C   UNL A   1      46.803  27.070  29.882  1.00  0.00     0.031 A 
ATOM     55  C   UNL A   1      40.057  28.827  29.176  1.00  0.00     0.031 A 
ATOM     56  C   UNL A   1      46.481  28.418  30.268  1.00  0.00     0.049 A 
ATOM     57  C   UNL A   1      41.072  29.777  29.747  1.00  0.00     0.074 A 
ATOM     58  C   UNL A   1      47.329  29.406  30.738  1.00  0.00     0.029 A 
ATOM     59  N   UNL A   1      45.207  28.965  30.236  1.00  0.00    -0.354 N 
ATOM     60  N   UNL A   1      42.362  29.608  29.918  1.00  0.00    -0.248 NA
ATOM     61  C   UNL A   1      40.576  31.095  30.168  1.00  0.00     0.031 C 
ATOM     62  C   UNL A   1      46.557  30.530  31.050  1.00  0.00     0.029 A 
ATOM     63  C   UNL A   1      45.240  30.267  30.706  1.00  0.00     0.049 A 
ATOM     64  H   UNL A   1      44.399  28.496  29.926  1.00  0.00     0.167 HD
ATOM     65  C   UNL A   1      42.836  30.807  30.435  1.00  0.00     0.074 A 
ATOM     66  C   UNL A   1      41.698  31.700  30.531  1.00  0.00     0.031 C 
ATOM     67  C   UNL A   1      44.099  31.141  30.798  1.00  0.00     0.031 A 
BRANCH  54  68
ATOM     68  C   UNL A   1      48.221  26.594  30.049  1.00  0.00    -0.014 A 
ATOM     69  C   UNL A   1      48.639  25.938  31.219  1.00  0.00     0.009 A 
ATOM     70  C   UNL A   1      49.146  26.776  29.009  1.00  0.00     0.009 A 
ATOM     71  C   UNL A   1      49.962  25.513  31.359  1.00  0.00     0.001 A 
ATOM     72  C   UNL A   1      50.459  26.318  29.138  1.00  0.00     0.001 A 
ATOM     73  C   UNL A   1      50.868  25.698  30.316  1.00  0.00     0.000 A 
ENDBRANCH  54  68
BRANCH  55  74
ATOM     74  C   UNL A   1      38.631  29.224  29.043  1.00  0.00    -0.014 A 
ATOM     75  C   UNL A   1      37.748  29.096  30.126  1.00  0.00     0.009 A 
ATOM     76  C   UNL A   1      38.142  29.727  27.827  1.00  0.00     0.009 A 
ATOM     77  C   UNL A   1      36.400  29.430  29.985  1.00  0.00     0.001 A 
ATOM     78  C   UNL A   1      36.800  30.093  27.699  1.00  0.00     0.001 A 
ATOM     79  C   UNL A   1      35.928  29.932  28.773  1.00  0.00     0.000 A 
ENDBRANCH  55  74
BRANCH  67  80
ATOM     80  C   UNL A   1      44.324  32.544  31.290  1.00  0.00    -0.014 A 
ATOM     81  C   UNL A   1      44.622  33.595  30.408  1.00  0.00     0.009 A 
ATOM     82  C   UNL A   1      44.205  32.822  32.662  1.00  0.00     0.009 A 
ATOM     83  C   UNL A   1      44.839  34.886  30.896  1.00  0.00     0.001 A 
ATOM     84  C   UNL A   1      44.387  34.119  33.142  1.00  0.00     0.001 A 
ATOM     85  C   UNL A   1      44.716  35.147  32.260  1.00  0.00     0.000 A 
ENDBRANCH  67  80
ENDBRANCH  41  42
ENDBRANCH  33  36
ENDBRANCH  31  32
ENDBRANCH  30  31
ENDBRANCH  29  30
ENDBRANCH   1  29
TORSDOF 16
ENDMDL
MODEL 2
REMARK VINA RESULT:     -10.9      4.522      9.860
REMARK SMILES Cc1c[nH]c(C[N@H+]2C[C@@H]3CN(S(C)(=O)=O)C[C@]3(C(=O)NCCCCCCNC(=O)c3ccc(-c4c5nc(c(-c6ccccc6)c6ccc([nH]6)c(-c6ccccc6)c6nc(c(-c7ccccc7)c7ccc4[nH]7)C=C6)C=C5)cc3)C2)n1
REMARK SMILES IDX 23 1 22 2 21 3 20 4 18 5 19 6 17 8 7 9 8 10 78 11 9 13 10 14
REMARK SMILES IDX 16 15 11 16 6 17 5 18 1 19 2 20 3 21 79 22 4 23 12 25 13 26
REMARK SMILES IDX 14 27 15 28 24 29 25 30 26 31 27 32 28 33 29 35 30 36 31 37
REMARK SMILES IDX 77 38 32 39 76 40 33 41 34 42 35 43 70 44 36 45 75 46 69 47
REMARK SMILES IDX 71 48 37 49 74 50 68 51 67 52 38 54 60 55 45 56 59 57 46 58
REMARK SMILES IDX 49 59 58 60 72 61 47 62 48 63 57 65 73 66 50 67 39 68 40 69
REMARK SMILES IDX 44 70 41 71 43 72 42 73 61 74 62 75 66 76 63 77 65 78 64 79
REMARK SMILES IDX 51 80 52 81 56 82 53 83 55 84 54 85
REMARK H PARENT 20 7 7 12 4 24 27 34 71 53 49 64
REMARK Flexibility Score: inf
ROOT
ATOM      1  C   UNL A   1      31.949  29.837  26.701  1.00  0.00     0.002 C 
ENDROOT
BRANCH   1   2
ATOM      2  C   UNL A   1      33.426  29.578  26.417  1.00  0.00     0.021 C 
BRANCH   2   3
ATOM      3  C   UNL A   1      33.662  28.408  25.457  1.00  0.00     0.116 C 
BRANCH   3   4
ATOM      4  N   UNL A   1      33.273  28.795  24.114  1.00  0.00    -0.355 N 
ATOM      5  C   UNL A   1      32.518  28.043  23.237  1.00  0.00     0.233 C 
ATOM      6  O   UNL A   1      32.750  28.162  22.034  1.00  0.00    -0.274 OA
ATOM      7  H   UNL A   1      33.576  29.676  23.799  1.00  0.00     0.163 HD
BRANCH   5   8
ATOM      8  C   UNL A   1      31.398  27.124  23.868  1.00  0.00     0.121 C 
ATOM      9  N   UNL A   1      29.012  27.961  23.739  1.00  0.00    -0.327 N 
ATOM     10  C   UNL A   1      28.965  26.536  23.955  1.00  0.00     0.268 C 
ATOM     11  C   UNL A   1      30.398  28.241  23.299  1.00  0.00     0.281 C 
ATOM     12  H   UNL A   1      28.776  28.462  24.595  1.00  0.00     0.348 HD
ATOM     13  C   UNL A   1      30.293  26.058  23.398  1.00  0.00     0.082 C 
ATOM     14  C   UNL A   1      30.573  24.666  23.965  1.00  0.00     0.113 C 
ATOM     15  C   UNL A   1      32.459  25.972  23.684  1.00  0.00     0.125 C 
ATOM     16  N   UNL A   1      31.940  24.797  24.427  1.00  0.00    -0.200 NA
BRANCH   9  17
ATOM     17  C   UNL A   1      27.996  28.456  22.780  1.00  0.00     0.338 C 
BRANCH  17  18
ATOM     18  C   UNL A   1      28.087  29.922  22.445  1.00  0.00     0.161 A 
ATOM     19  C   UNL A   1      28.984  33.301  23.093  1.00  0.00     0.068 C 
ATOM     20  C   UNL A   1      28.537  32.029  22.487  1.00  0.00     0.056 A 
ATOM     21  C   UNL A   1      28.222  31.737  21.179  1.00  0.00     0.107 A 
ATOM     22  N   UNL A   1      28.421  30.902  23.260  1.00  0.00    -0.233 NA
ATOM     23  N   UNL A   1      27.905  30.406  21.172  1.00  0.00    -0.344 N 
ATOM     24  H   UNL A   1      27.601  29.887  20.393  1.00  0.00     0.167 HD
ENDBRANCH  17  18
ENDBRANCH   9  17
BRANCH  16  25
ATOM     25  S   UNL A   1      32.264  24.576  26.065  1.00  0.00     0.211 S 
ATOM     26  C   UNL A   1      32.132  22.808  26.325  1.00  0.00     0.176 C 
ATOM     27  O   UNL A   1      33.649  24.925  26.286  1.00  0.00    -0.213 OA
ATOM     28  O   UNL A   1      31.206  25.211  26.824  1.00  0.00    -0.213 OA
ENDBRANCH  16  25
ENDBRANCH   5   8
ENDBRANCH   3   4
ENDBRANCH   2   3
ENDBRANCH   1   2
BRANCH   1  29
ATOM     29  C   UNL A   1      31.337  30.952  25.845  1.00  0.00     0.002 C 
BRANCH  29  30
ATOM     30  C   UNL A   1      31.244  32.315  26.537  1.00  0.00     0.021 C 
BRANCH  30  31
ATOM     31  C   UNL A   1      32.538  32.762  27.211  1.00  0.00     0.116 C 
BRANCH  31  32
ATOM     32  N   UNL A   1      32.463  34.158  27.612  1.00  0.00    -0.352 N 
ATOM     33  C   UNL A   1      33.110  34.808  28.627  1.00  0.00     0.251 C 
ATOM     34  H   UNL A   1      31.857  34.718  27.074  1.00  0.00     0.163 HD
ATOM     35  O   UNL A   1      32.699  35.895  29.022  1.00  0.00    -0.269 OA
BRANCH  33  36
ATOM     36  C   UNL A   1      34.310  34.204  29.239  1.00  0.00     0.039 A 
ATOM     37  C   UNL A   1      35.552  34.417  28.638  1.00  0.00     0.014 A 
ATOM     38  C   UNL A   1      34.202  33.386  30.368  1.00  0.00     0.014 A 
ATOM     39  C   UNL A   1      36.690  33.827  29.187  1.00  0.00     0.010 A 
ATOM     40  C   UNL A   1      35.347  32.871  30.963  1.00  0.00     0.010 A 
ATOM     41  C   UNL A   1      36.599  33.064  30.363  1.00  0.00    -0.014 A 
BRANCH  41  42
ATOM     42  C   UNL A   1      37.806  32.439  30.957  1.00  0.00     0.031 A 
ATOM     43  C   UNL A   1      38.402  31.205  30.338  1.00  0.00     0.074 A 
ATOM     44  C   UNL A   1      38.346  32.971  32.070  1.00  0.00     0.049 A 
ATOM     45  N   UNL A   1      39.456  30.523  30.710  1.00  0.00    -0.248 NA
ATOM     46  C   UNL A   1      37.713  30.648  29.161  1.00  0.00     0.031 C 
ATOM     47  C   UNL A   1      37.835  34.143  32.784  1.00  0.00     0.029 A 
ATOM     48  N   UNL A   1      39.450  32.596  32.792  1.00  0.00    -0.354 N 
ATOM     49  C   UNL A   1      39.548  29.457  29.824  1.00  0.00     0.074 A 
ATOM     50  C   UNL A   1      38.412  29.547  28.933  1.00  0.00     0.031 C 
ATOM     51  C   UNL A   1      38.647  34.414  33.817  1.00  0.00     0.029 A 
ATOM     52  C   UNL A   1      39.707  33.413  33.866  1.00  0.00     0.049 A 
ATOM     53  H   UNL A   1      40.005  31.816  32.563  1.00  0.00     0.167 HD
ATOM     54  C   UNL A   1      40.504  28.501  29.742  1.00  0.00     0.031 A 
ATOM     55  C   UNL A   1      40.687  33.361  34.786  1.00  0.00     0.031 A 
ATOM     56  C   UNL A   1      41.631  28.414  30.631  1.00  0.00     0.049 A 
ATOM     57  C   UNL A   1      41.722  32.275  34.688  1.00  0.00     0.074 A 
ATOM     58  C   UNL A   1      42.682  27.513  30.605  1.00  0.00     0.029 A 
ATOM     59  N   UNL A   1      41.850  29.254  31.713  1.00  0.00    -0.354 N 
ATOM     60  N   UNL A   1      41.839  31.320  33.797  1.00  0.00    -0.248 NA
ATOM     61  C   UNL A   1      42.773  32.273  35.716  1.00  0.00     0.031 C 
ATOM     62  C   UNL A   1      43.502  27.770  31.709  1.00  0.00     0.029 A 
ATOM     63  C   UNL A   1      43.003  28.876  32.379  1.00  0.00     0.049 A 
ATOM     64  H   UNL A   1      41.271  30.008  31.969  1.00  0.00     0.167 HD
ATOM     65  C   UNL A   1      42.990  30.622  34.138  1.00  0.00     0.074 A 
ATOM     66  C   UNL A   1      43.546  31.278  35.305  1.00  0.00     0.031 C 
ATOM     67  C   UNL A   1      43.541  29.537  33.540  1.00  0.00     0.031 A 
BRANCH  54  68
ATOM     68  C   UNL A   1      40.359  27.465  28.660  1.00  0.00    -0.014 A 
ATOM     69  C   UNL A   1      39.637  26.279  28.875  1.00  0.00     0.009 A 
ATOM     70  C   UNL A   1      40.928  27.691  27.397  1.00  0.00     0.009 A 
ATOM     71  C   UNL A   1      39.524  25.325  27.861  1.00  0.00     0.001 A 
ATOM     72  C   UNL A   1      40.783  26.751  26.375  1.00  0.00     0.001 A 
ATOM     73  C   UNL A   1      40.091  25.564  26.611  1.00  0.00     0.000 A 
ENDBRANCH  54  68
BRANCH  55  74
ATOM     74  C   UNL A   1      40.747  34.376  35.871  1.00  0.00    -0.014 A 
ATOM     75  C   UNL A   1      40.047  34.184  37.070  1.00  0.00     0.009 A 
ATOM     76  C   UNL A   1      41.501  35.549  35.707  1.00  0.00     0.009 A 
ATOM     77  C   UNL A   1      40.071  35.159  38.070  1.00  0.00     0.001 A 
ATOM     78  C   UNL A   1      41.552  36.507  36.722  1.00  0.00     0.001 A 
ATOM     79  C   UNL A   1      40.827  36.317  37.897  1.00  0.00     0.000 A 
ENDBRANCH  55  74
BRANCH  67  80
ATOM     80  C   UNL A   1      44.832  29.018  34.112  1.00  0.00    -0.014 A 
ATOM     81  C   UNL A   1      44.851  28.022  35.100  1.00  0.00     0.009 A 
ATOM     82  C   UNL A   1      46.052  29.520  33.629  1.00  0.00     0.009 A 
ATOM     83  C   UNL A   1      46.065  27.570  35.624  1.00  0.00     0.001 A 
ATOM     84  C   UNL A   1      47.263  29.040  34.128  1.00  0.00     0.001 A 
ATOM     85  C   UNL A   1      47.268  28.075  35.133  1.00  0.00     0.000 A 
ENDBRANCH  67  80
ENDBRANCH  41  42
ENDBRANCH  33  36
ENDBRANCH  31  32
ENDBRANCH  30  31
ENDBRANCH  29  30
ENDBRANCH   1  29
TORSDOF 16
ENDMDL
MODEL 3
REMARK VINA RESULT:     -10.8      3.263      8.238
REMARK SMILES Cc1c[nH]c(C[N@H+]2C[C@@H]3CN(S(C)(=O)=O)C[C@]3(C(=O)NCCCCCCNC(=O)c3ccc(-c4c5nc(c(-c6ccccc6)c6ccc([nH]6)c(-c6ccccc6)c6nc(c(-c7ccccc7)c7ccc4[nH]7)C=C6)C=C5)cc3)C2)n1
REMARK SMILES IDX 23 1 22 2 21 3 20 4 18 5 19 6 17 8 7 9 8 10 78 11 9 13 10 14
REMARK SMILES IDX 16 15 11 16 6 17 5 18 1 19 2 20 3 21 79 22 4 23 12 25 13 26
REMARK SMILES IDX 14 27 15 28 24 29 25 30 26 31 27 32 28 33 29 35 30 36 31 37
REMARK SMILES IDX 77 38 32 39 76 40 33 41 34 42 35 43 70 44 36 45 75 46 69 47
REMARK SMILES IDX 71 48 37 49 74 50 68 51 67 52 38 54 60 55 45 56 59 57 46 58
REMARK SMILES IDX 49 59 58 60 72 61 47 62 48 63 57 65 73 66 50 67 39 68 40 69
REMARK SMILES IDX 44 70 41 71 43 72 42 73 61 74 62 75 66 76 63 77 65 78 64 79
REMARK SMILES IDX 51 80 52 81 56 82 53 83 55 84 54 85
REMARK H PARENT 20 7 7 12 4 24 27 34 71 53 49 64
REMARK Flexibility Score: inf
ROOT
ATOM      1  C   UNL A   1      32.241  29.522  26.831  1.00  0.00     0.002 C 
ENDROOT
BRANCH   1   2
ATOM      2  C   UNL A   1      31.547  28.193  27.119  1.00  0.00     0.021 C 
BRANCH   2   3
ATOM      3  C   UNL A   1      32.174  27.009  26.378  1.00  0.00     0.116 C 
BRANCH   3   4
ATOM      4  N   UNL A   1      31.587  25.771  26.854  1.00  0.00    -0.355 N 
ATOM      5  C   UNL A   1      31.422  24.613  26.121  1.00  0.00     0.233 C 
ATOM      6  O   UNL A   1      30.450  23.905  26.380  1.00  0.00    -0.274 OA
ATOM      7  H   UNL A   1      31.276  25.755  27.787  1.00  0.00     0.163 HD
BRANCH   5   8
ATOM      8  C   UNL A   1      32.528  24.292  25.039  1.00  0.00     0.121 C 
ATOM      9  N   UNL A   1      34.473  22.846  25.773  1.00  0.00    -0.327 N 
ATOM     10  C   UNL A   1      34.403  22.789  24.334  1.00  0.00     0.268 C 
ATOM     11  C   UNL A   1      33.165  23.391  26.203  1.00  0.00     0.281 C 
ATOM     12  H   UNL A   1      35.248  23.438  26.072  1.00  0.00     0.348 HD
ATOM     13  C   UNL A   1      32.947  23.103  24.045  1.00  0.00     0.082 C 
ATOM     14  C   UNL A   1      32.832  23.523  22.580  1.00  0.00     0.113 C 
ATOM     15  C   UNL A   1      31.392  24.640  24.002  1.00  0.00     0.125 C 
ATOM     16  N   UNL A   1      32.048  24.738  22.675  1.00  0.00    -0.200 NA
BRANCH   9  17
ATOM     17  C   UNL A   1      34.789  21.546  26.410  1.00  0.00     0.338 C 
BRANCH  17  18
ATOM     18  C   UNL A   1      34.153  20.342  25.767  1.00  0.00     0.161 A 
ATOM     19  C   UNL A   1      34.147  17.443  23.708  1.00  0.00     0.068 C 
ATOM     20  C   UNL A   1      33.815  18.524  24.661  1.00  0.00     0.056 A 
ATOM     21  C   UNL A   1      32.747  18.646  25.521  1.00  0.00     0.107 A 
ATOM     22  N   UNL A   1      34.659  19.595  24.807  1.00  0.00    -0.233 NA
ATOM     23  N   UNL A   1      32.954  19.820  26.191  1.00  0.00    -0.344 N 
ATOM     24  H   UNL A   1      32.352  20.219  26.860  1.00  0.00     0.167 HD
ENDBRANCH  17  18
ENDBRANCH   9  17
BRANCH  16  25
ATOM     25  S   UNL A   1      32.725  26.181  22.130  1.00  0.00     0.211 S 
ATOM     26  C   UNL A   1      31.372  27.355  22.135  1.00  0.00     0.176 C 
ATOM     27  O   UNL A   1      33.665  26.627  23.133  1.00  0.00    -0.213 OA
ATOM     28  O   UNL A   1      33.139  25.993  20.754  1.00  0.00    -0.213 OA
ENDBRANCH  16  25
ENDBRANCH   5   8
ENDBRANCH   3   4
ENDBRANCH   2   3
ENDBRANCH   1   2
BRANCH   1  29
ATOM     29  C   UNL A   1      31.394  30.500  26.009  1.00  0.00     0.002 C 
BRANCH  29  30
ATOM     30  C   UNL A   1      31.341  31.926  26.565  1.00  0.00     0.021 C 
BRANCH  30  31
ATOM     31  C   UNL A   1      32.668  32.426  27.129  1.00  0.00     0.116 C 
BRANCH  31  32
ATOM     32  N   UNL A   1      32.543  33.785  27.632  1.00  0.00    -0.352 N 
ATOM     33  C   UNL A   1      33.223  34.402  28.645  1.00  0.00     0.251 C 
ATOM     34  H   UNL A   1      31.871  34.341  27.177  1.00  0.00     0.163 HD
ATOM     35  O   UNL A   1      32.781  35.433  29.144  1.00  0.00    -0.269 OA
BRANCH  33  36
ATOM     36  C   UNL A   1      34.495  33.833  29.131  1.00  0.00     0.039 A 
ATOM     37  C   UNL A   1      35.676  34.154  28.461  1.00  0.00     0.014 A 
ATOM     38  C   UNL A   1      34.514  32.943  30.209  1.00  0.00     0.014 A 
ATOM     39  C   UNL A   1      36.882  33.599  28.889  1.00  0.00     0.010 A 
ATOM     40  C   UNL A   1      35.726  32.459  30.688  1.00  0.00     0.010 A 
ATOM     41  C   UNL A   1      36.918  32.761  30.017  1.00  0.00    -0.014 A 
BRANCH  41  42
ATOM     42  C   UNL A   1      38.197  32.173  30.483  1.00  0.00     0.031 A 
ATOM     43  C   UNL A   1      38.690  30.876  29.901  1.00  0.00     0.074 A 
ATOM     44  C   UNL A   1      38.897  32.794  31.449  1.00  0.00     0.049 A 
ATOM     45  N   UNL A   1      39.784  30.213  30.177  1.00  0.00    -0.248 NA
ATOM     46  C   UNL A   1      37.833  30.226  28.895  1.00  0.00     0.031 C 
ATOM     47  C   UNL A   1      38.502  34.036  32.118  1.00  0.00     0.029 A 
ATOM     48  N   UNL A   1      40.094  32.468  32.034  1.00  0.00    -0.354 N 
ATOM     49  C   UNL A   1      39.741  29.068  29.390  1.00  0.00     0.074 A 
ATOM     50  C   UNL A   1      38.486  29.096  28.671  1.00  0.00     0.031 C 
ATOM     51  C   UNL A   1      39.459  34.387  32.992  1.00  0.00     0.029 A 
ATOM     52  C   UNL A   1      40.510  33.376  32.977  1.00  0.00     0.049 A 
ATOM     53  H   UNL A   1      40.606  31.661  31.799  1.00  0.00     0.167 HD
ATOM     54  C   UNL A   1      40.670  28.092  29.259  1.00  0.00     0.031 A 
ATOM     55  C   UNL A   1      41.615  33.391  33.745  1.00  0.00     0.031 A 
ATOM     56  C   UNL A   1      41.916  28.067  29.977  1.00  0.00     0.049 A 
ATOM     57  C   UNL A   1      42.621  32.283  33.597  1.00  0.00     0.074 A 
ATOM     58  C   UNL A   1      42.948  27.150  29.881  1.00  0.00     0.029 A 
ATOM     59  N   UNL A   1      42.295  28.999  30.931  1.00  0.00    -0.354 N 
ATOM     60  N   UNL A   1      42.600  31.247  32.793  1.00  0.00    -0.248 NA
ATOM     61  C   UNL A   1      43.811  32.356  34.456  1.00  0.00     0.031 C 
ATOM     62  C   UNL A   1      43.923  27.492  30.824  1.00  0.00     0.029 A 
ATOM     63  C   UNL A   1      43.533  28.663  31.454  1.00  0.00     0.049 A 
ATOM     64  H   UNL A   1      41.764  29.784  31.198  1.00  0.00     0.167 HD
ATOM     65  C   UNL A   1      43.787  30.564  33.025  1.00  0.00     0.074 A 
ATOM     66  C   UNL A   1      44.512  31.315  34.031  1.00  0.00     0.031 C 
ATOM     67  C   UNL A   1      44.239  29.418  32.456  1.00  0.00     0.031 A 
BRANCH  54  68
ATOM     68  C   UNL A   1      40.364  26.964  28.311  1.00  0.00    -0.014 A 
ATOM     69  C   UNL A   1      40.846  26.966  26.992  1.00  0.00     0.009 A 
ATOM     70  C   UNL A   1      39.606  25.868  28.752  1.00  0.00     0.009 A 
ATOM     71  C   UNL A   1      40.541  25.914  26.124  1.00  0.00     0.001 A 
ATOM     72  C   UNL A   1      39.333  24.801  27.894  1.00  0.00     0.001 A 
ATOM     73  C   UNL A   1      39.791  24.831  26.578  1.00  0.00     0.000 A 
ENDBRANCH  54  68
BRANCH  55  74
ATOM     74  C   UNL A   1      41.839  34.500  34.709  1.00  0.00    -0.014 A 
ATOM     75  C   UNL A   1      41.459  34.368  36.053  1.00  0.00     0.009 A 
ATOM     76  C   UNL A   1      42.427  35.703  34.287  1.00  0.00     0.009 A 
ATOM     77  C   UNL A   1      41.632  35.427  36.946  1.00  0.00     0.001 A 
ATOM     78  C   UNL A   1      42.631  36.748  35.190  1.00  0.00     0.001 A 
ATOM     79  C   UNL A   1      42.221  36.615  36.515  1.00  0.00     0.000 A 
ENDBRANCH  55  74
BRANCH  67  80
ATOM     80  C   UNL A   1      45.598  28.932  32.879  1.00  0.00    -0.014 A 
ATOM     81  C   UNL A   1      46.766  29.350  32.222  1.00  0.00     0.009 A 
ATOM     82  C   UNL A   1      45.710  28.061  33.975  1.00  0.00     0.009 A 
ATOM     83  C   UNL A   1      48.014  28.871  32.626  1.00  0.00     0.001 A 
ATOM     84  C   UNL A   1      46.961  27.613  34.400  1.00  0.00     0.001 A 
ATOM     85  C   UNL A   1      48.111  28.008  33.718  1.00  0.00     0.000 A 
ENDBRANCH  67  80
ENDBRANCH  41  42
ENDBRANCH  33  36
ENDBRANCH  31  32
ENDBRANCH  30  31
ENDBRANCH  29  30
ENDBRANCH   1  29
TORSDOF 16
ENDMDL
