MODEL 1
REMARK VINA RESULT:     -12.2      0.000      0.000
REMARK SMILES COc1ccc(NC(=O)[C@@H]2[C@@H](C(=O)NCCCCCCNC(=O)c3ccc(-c4c5nc(c(-c6ccccc6)c6ccc([nH]6)c(-c6ccccc6)c6nc(c(-c7ccccc7)c7ccc4[nH]7)C=C6)C=C5)cc3)[C@@H]3CC[C@H]2C3=C(C)C)cc1
REMARK SMILES IDX 17 1 16 2 15 3 14 4 12 5 13 6 11 8 10 9 75 10 72 11 74 12
REMARK SMILES IDX 76 13 73 14 77 15 78 16 79 17 8 18 7 19 9 21 6 22 3 23 4 24
REMARK SMILES IDX 81 25 5 26 80 27 2 28 1 29 18 30 19 31 20 32 21 33 22 34
REMARK SMILES IDX 23 36 24 37 25 38 71 39 26 40 70 41 27 42 28 43 29 44 64 45
REMARK SMILES IDX 30 46 69 47 63 48 65 49 31 50 68 51 62 52 61 53 32 55 54 56
REMARK SMILES IDX 39 57 53 58 40 59 43 60 52 61 66 62 41 63 42 64 51 66 67 67
REMARK SMILES IDX 44 68 33 69 34 70 38 71 35 72 37 73 36 74 55 75 56 76 60 77
REMARK SMILES IDX 57 78 59 79 58 80 45 81 46 82 50 83 47 84 49 85 48 86
REMARK H PARENT 14 7 7 20 21 35 65 54 43 65
REMARK Flexibility Score: inf
ROOT
ATOM      1  C   UNL A   1      30.650  26.170  26.146  1.00  0.00     0.002 C 
ENDROOT
BRANCH   1   2
ATOM      2  C   UNL A   1      30.571  24.734  25.633  1.00  0.00     0.021 C 
BRANCH   2   3
ATOM      3  C   UNL A   1      30.472  23.649  26.697  1.00  0.00     0.116 C 
BRANCH   3   4
ATOM      4  N   UNL A   1      31.759  23.335  27.278  1.00  0.00    -0.356 N 
ATOM      5  C   UNL A   1      32.988  23.092  26.765  1.00  0.00     0.224 C 
ATOM      6  O   UNL A   1      33.847  22.767  27.597  1.00  0.00    -0.275 OA
ATOM      7  H   UNL A   1      31.737  23.288  28.261  1.00  0.00     0.163 HD
BRANCH   5   8
ATOM      8  C   UNL A   1      33.372  23.100  25.288  1.00  0.00     0.098 C 
ATOM      9  C   UNL A   1      33.638  21.760  24.537  1.00  0.00     0.099 C 
ATOM     10  C   UNL A   1      35.004  22.059  23.878  1.00  0.00     0.028 C 
ATOM     11  C   UNL A   1      34.639  23.960  25.030  1.00  0.00     0.028 C 
ATOM     12  C   UNL A   1      34.885  23.126  22.777  1.00  0.00     0.009 C 
ATOM     13  C   UNL A   1      35.692  22.899  24.920  1.00  0.00    -0.064 C 
ATOM     14  C   UNL A   1      34.630  24.424  23.563  1.00  0.00     0.009 C 
ATOM     15  C   UNL A   1      36.921  22.771  25.449  1.00  0.00    -0.077 C 
ATOM     16  C   UNL A   1      37.579  23.841  26.276  1.00  0.00     0.039 C 
ATOM     17  C   UNL A   1      37.769  21.549  25.217  1.00  0.00     0.039 C 
BRANCH   9  18
ATOM     18  C   UNL A   1      32.495  21.379  23.587  1.00  0.00     0.228 C 
ATOM     19  N   UNL A   1      32.174  20.079  23.305  1.00  0.00    -0.326 N 
ATOM     20  H   UNL A   1      31.419  19.967  22.684  1.00  0.00     0.169 HD
ATOM     21  O   UNL A   1      31.805  22.246  23.042  1.00  0.00    -0.274 OA
BRANCH  19  22
ATOM     22  C   UNL A   1      32.743  18.882  23.756  1.00  0.00     0.041 A 
ATOM     23  C   UNL A   1      33.342  16.319  24.685  1.00  0.00     0.119 A 
ATOM     24  C   UNL A   1      33.695  16.696  23.389  1.00  0.00     0.048 A 
ATOM     25  C   UNL A   1      32.836  17.276  25.562  1.00  0.00     0.048 A 
ATOM     26  C   UNL A   1      33.405  17.983  22.924  1.00  0.00     0.030 A 
ATOM     27  C   UNL A   1      32.556  18.565  25.102  1.00  0.00     0.030 A 
BRANCH  23  28
ATOM     28  O   UNL A   1      33.529  14.999  24.991  1.00  0.00    -0.497 OA
ATOM     29  C   UNL A   1      32.527  14.422  25.826  1.00  0.00     0.278 C 
ENDBRANCH  23  28
ENDBRANCH  19  22
ENDBRANCH   9  18
ENDBRANCH   5   8
ENDBRANCH   3   4
ENDBRANCH   2   3
ENDBRANCH   1   2
BRANCH   1  30
ATOM     30  C   UNL A   1      32.054  26.768  26.271  1.00  0.00     0.002 C 
BRANCH  30  31
ATOM     31  C   UNL A   1      32.179  28.048  27.104  1.00  0.00     0.021 C 
BRANCH  31  32
ATOM     32  C   UNL A   1      33.589  28.616  27.242  1.00  0.00     0.116 C 
BRANCH  32  33
ATOM     33  N   UNL A   1      33.589  30.008  27.659  1.00  0.00    -0.352 N 
ATOM     34  C   UNL A   1      34.549  30.736  28.311  1.00  0.00     0.251 C 
ATOM     35  H   UNL A   1      32.770  30.507  27.438  1.00  0.00     0.163 HD
ATOM     36  O   UNL A   1      34.279  31.859  28.741  1.00  0.00    -0.269 OA
BRANCH  34  37
ATOM     37  C   UNL A   1      35.903  30.185  28.522  1.00  0.00     0.039 A 
ATOM     38  C   UNL A   1      36.822  30.238  27.470  1.00  0.00     0.014 A 
ATOM     39  C   UNL A   1      36.262  29.582  29.732  1.00  0.00     0.014 A 
ATOM     40  C   UNL A   1      38.116  29.745  27.649  1.00  0.00     0.010 A 
ATOM     41  C   UNL A   1      37.572  29.151  29.932  1.00  0.00     0.010 A 
ATOM     42  C   UNL A   1      38.513  29.228  28.892  1.00  0.00    -0.014 A 
BRANCH  42  43
ATOM     43  C   UNL A   1      39.907  28.774  29.126  1.00  0.00     0.031 A 
ATOM     44  C   UNL A   1      40.923  29.708  29.723  1.00  0.00     0.074 A 
ATOM     45  C   UNL A   1      40.276  27.537  28.742  1.00  0.00     0.049 A 
ATOM     46  N   UNL A   1      42.199  29.510  29.939  1.00  0.00    -0.248 NA
ATOM     47  C   UNL A   1      40.448  31.046  30.109  1.00  0.00     0.031 C 
ATOM     48  C   UNL A   1      39.397  26.543  28.123  1.00  0.00     0.029 A 
ATOM     49  N   UNL A   1      41.494  26.907  28.808  1.00  0.00    -0.354 N 
ATOM     50  C   UNL A   1      42.682  30.700  30.469  1.00  0.00     0.074 A 
ATOM     51  C   UNL A   1      41.572  31.628  30.502  1.00  0.00     0.031 C 
ATOM     52  C   UNL A   1      40.098  25.423  27.886  1.00  0.00     0.029 A 
ATOM     53  C   UNL A   1      41.482  25.632  28.297  1.00  0.00     0.049 A 
ATOM     54  H   UNL A   1      42.300  27.328  29.186  1.00  0.00     0.167 HD
ATOM     55  C   UNL A   1      43.932  30.991  30.903  1.00  0.00     0.031 A 
ATOM     56  C   UNL A   1      42.477  24.734  28.162  1.00  0.00     0.031 A 
ATOM     57  C   UNL A   1      45.035  30.068  30.878  1.00  0.00     0.049 A 
ATOM     58  C   UNL A   1      43.859  25.089  28.630  1.00  0.00     0.074 A 
ATOM     59  C   UNL A   1      46.325  30.253  31.346  1.00  0.00     0.029 A 
ATOM     60  N   UNL A   1      44.982  28.787  30.352  1.00  0.00    -0.354 N 
ATOM     61  N   UNL A   1      44.284  26.198  29.186  1.00  0.00    -0.248 NA
ATOM     62  C   UNL A   1      44.899  24.064  28.458  1.00  0.00     0.031 C 
ATOM     63  C   UNL A   1      47.065  29.102  31.058  1.00  0.00     0.029 A 
ATOM     64  C   UNL A   1      46.221  28.179  30.460  1.00  0.00     0.049 A 
ATOM     65  H   UNL A   1      44.180  28.370  29.960  1.00  0.00     0.167 HD
ATOM     66  C   UNL A   1      45.631  25.995  29.454  1.00  0.00     0.074 A 
ATOM     67  C   UNL A   1      45.949  24.651  29.014  1.00  0.00     0.031 C 
ATOM     68  C   UNL A   1      46.525  26.845  30.015  1.00  0.00     0.031 A 
BRANCH  55  69
ATOM     69  C   UNL A   1      44.175  32.376  31.436  1.00  0.00    -0.014 A 
ATOM     70  C   UNL A   1      44.413  33.457  30.572  1.00  0.00     0.009 A 
ATOM     71  C   UNL A   1      44.129  32.610  32.820  1.00  0.00     0.009 A 
ATOM     72  C   UNL A   1      44.636  34.737  31.085  1.00  0.00     0.001 A 
ATOM     73  C   UNL A   1      44.324  33.896  33.327  1.00  0.00     0.001 A 
ATOM     74  C   UNL A   1      44.587  34.956  32.460  1.00  0.00     0.000 A 
ENDBRANCH  55  69
BRANCH  56  75
ATOM     75  C   UNL A   1      42.199  23.402  27.565  1.00  0.00    -0.014 A 
ATOM     76  C   UNL A   1      42.568  23.126  26.239  1.00  0.00     0.009 A 
ATOM     77  C   UNL A   1      41.558  22.403  28.313  1.00  0.00     0.009 A 
ATOM     78  C   UNL A   1      42.278  21.885  25.667  1.00  0.00     0.001 A 
ATOM     79  C   UNL A   1      41.296  21.153  27.748  1.00  0.00     0.001 A 
ATOM     80  C   UNL A   1      41.646  20.900  26.423  1.00  0.00     0.000 A 
ENDBRANCH  56  75
BRANCH  68  81
ATOM     81  C   UNL A   1      47.925  26.336  30.213  1.00  0.00    -0.014 A 
ATOM     82  C   UNL A   1      48.883  26.421  29.192  1.00  0.00     0.009 A 
ATOM     83  C   UNL A   1      48.299  25.799  31.455  1.00  0.00     0.009 A 
ATOM     84  C   UNL A   1      50.181  25.949  29.400  1.00  0.00     0.001 A 
ATOM     85  C   UNL A   1      49.603  25.353  31.670  1.00  0.00     0.001 A 
ATOM     86  C   UNL A   1      50.541  25.420  30.640  1.00  0.00     0.000 A 
ENDBRANCH  68  81
ENDBRANCH  42  43
ENDBRANCH  34  37
ENDBRANCH  32  33
ENDBRANCH  31  32
ENDBRANCH  30  31
ENDBRANCH   1  30
TORSDOF 16
ENDMDL
MODEL 2
REMARK VINA RESULT:     -11.4      2.389      8.182
REMARK SMILES COc1ccc(NC(=O)[C@@H]2[C@@H](C(=O)NCCCCCCNC(=O)c3ccc(-c4c5nc(c(-c6ccccc6)c6ccc([nH]6)c(-c6ccccc6)c6nc(c(-c7ccccc7)c7ccc4[nH]7)C=C6)C=C5)cc3)[C@@H]3CC[C@H]2C3=C(C)C)cc1
REMARK SMILES IDX 17 1 16 2 15 3 14 4 12 5 13 6 11 8 10 9 75 10 72 11 74 12
REMARK SMILES IDX 76 13 73 14 77 15 78 16 79 17 8 18 7 19 9 21 6 22 3 23 4 24
REMARK SMILES IDX 81 25 5 26 80 27 2 28 1 29 18 30 19 31 20 32 21 33 22 34
REMARK SMILES IDX 23 36 24 37 25 38 71 39 26 40 70 41 27 42 28 43 29 44 64 45
REMARK SMILES IDX 30 46 69 47 63 48 65 49 31 50 68 51 62 52 61 53 32 55 54 56
REMARK SMILES IDX 39 57 53 58 40 59 43 60 52 61 66 62 41 63 42 64 51 66 67 67
REMARK SMILES IDX 44 68 33 69 34 70 38 71 35 72 37 73 36 74 55 75 56 76 60 77
REMARK SMILES IDX 57 78 59 79 58 80 45 81 46 82 50 83 47 84 49 85 48 86
REMARK H PARENT 14 7 7 20 21 35 65 54 43 65
REMARK Flexibility Score: inf
ROOT
ATOM      1  C   UNL A   1      38.717  22.409  26.020  1.00  0.00     0.002 C 
ENDROOT
BRANCH   1   2
ATOM      2  C   UNL A   1      37.964  23.722  26.221  1.00  0.00     0.021 C 
BRANCH   2   3
ATOM      3  C   UNL A   1      36.578  23.800  25.595  1.00  0.00     0.116 C 
BRANCH   3   4
ATOM      4  N   UNL A   1      35.545  23.344  26.499  1.00  0.00    -0.356 N 
ATOM      5  C   UNL A   1      34.220  23.103  26.369  1.00  0.00     0.224 C 
ATOM      6  O   UNL A   1      33.638  22.797  27.418  1.00  0.00    -0.275 OA
ATOM      7  H   UNL A   1      35.879  23.170  27.409  1.00  0.00     0.163 HD
BRANCH   5   8
ATOM      8  C   UNL A   1      33.391  23.256  25.096  1.00  0.00     0.098 C 
ATOM      9  C   UNL A   1      33.029  24.674  24.559  1.00  0.00     0.099 C 
ATOM     10  C   UNL A   1      31.503  24.529  24.356  1.00  0.00     0.028 C 
ATOM     11  C   UNL A   1      32.033  22.512  25.204  1.00  0.00     0.028 C 
ATOM     12  C   UNL A   1      31.170  23.562  23.208  1.00  0.00     0.009 C 
ATOM     13  C   UNL A   1      31.103  23.647  25.507  1.00  0.00    -0.064 C 
ATOM     14  C   UNL A   1      31.537  22.184  23.784  1.00  0.00     0.009 C 
ATOM     15  C   UNL A   1      30.120  23.809  26.409  1.00  0.00    -0.077 C 
ATOM     16  C   UNL A   1      29.659  22.715  27.333  1.00  0.00     0.039 C 
ATOM     17  C   UNL A   1      29.360  25.102  26.542  1.00  0.00     0.039 C 
BRANCH   9  18
ATOM     18  C   UNL A   1      33.845  25.062  23.319  1.00  0.00     0.228 C 
ATOM     19  N   UNL A   1      33.920  26.348  22.858  1.00  0.00    -0.326 N 
ATOM     20  H   UNL A   1      34.478  26.467  22.057  1.00  0.00     0.169 HD
ATOM     21  O   UNL A   1      34.485  24.214  22.687  1.00  0.00    -0.274 OA
BRANCH  19  22
ATOM     22  C   UNL A   1      33.331  27.523  23.341  1.00  0.00     0.041 A 
ATOM     23  C   UNL A   1      31.812  29.512  24.577  1.00  0.00     0.119 A 
ATOM     24  C   UNL A   1      33.146  29.321  24.939  1.00  0.00     0.048 A 
ATOM     25  C   UNL A   1      31.292  28.815  23.488  1.00  0.00     0.048 A 
ATOM     26  C   UNL A   1      33.913  28.332  24.314  1.00  0.00     0.030 A 
ATOM     27  C   UNL A   1      32.059  27.835  22.856  1.00  0.00     0.030 A 
BRANCH  23  28
ATOM     28  O   UNL A   1      31.108  30.394  25.350  1.00  0.00    -0.497 OA
ATOM     29  C   UNL A   1      31.792  30.866  26.509  1.00  0.00     0.278 C 
ENDBRANCH  23  28
ENDBRANCH  19  22
ENDBRANCH   9  18
ENDBRANCH   5   8
ENDBRANCH   3   4
ENDBRANCH   2   3
ENDBRANCH   1   2
BRANCH   1  30
ATOM     30  C   UNL A   1      37.973  21.312  25.251  1.00  0.00     0.002 C 
BRANCH  30  31
ATOM     31  C   UNL A   1      38.740  20.008  25.010  1.00  0.00     0.021 C 
BRANCH  31  32
ATOM     32  C   UNL A   1      39.481  19.440  26.218  1.00  0.00     0.116 C 
BRANCH  32  33
ATOM     33  N   UNL A   1      40.792  18.919  25.873  1.00  0.00    -0.352 N 
ATOM     34  C   UNL A   1      42.010  19.545  25.829  1.00  0.00     0.251 C 
ATOM     35  H   UNL A   1      40.808  17.964  25.632  1.00  0.00     0.163 HD
ATOM     36  O   UNL A   1      42.977  18.968  25.328  1.00  0.00    -0.269 OA
BRANCH  34  37
ATOM     37  C   UNL A   1      42.176  20.914  26.359  1.00  0.00     0.039 A 
ATOM     38  C   UNL A   1      42.065  21.118  27.737  1.00  0.00     0.014 A 
ATOM     39  C   UNL A   1      42.401  22.000  25.508  1.00  0.00     0.014 A 
ATOM     40  C   UNL A   1      42.241  22.398  28.268  1.00  0.00     0.010 A 
ATOM     41  C   UNL A   1      42.641  23.265  26.043  1.00  0.00     0.010 A 
ATOM     42  C   UNL A   1      42.563  23.477  27.429  1.00  0.00    -0.014 A 
BRANCH  42  43
ATOM     43  C   UNL A   1      42.833  24.827  27.983  1.00  0.00     0.031 A 
ATOM     44  C   UNL A   1      44.217  25.203  28.438  1.00  0.00     0.074 A 
ATOM     45  C   UNL A   1      41.817  25.698  28.136  1.00  0.00     0.049 A 
ATOM     46  N   UNL A   1      44.627  26.308  29.007  1.00  0.00    -0.248 NA
ATOM     47  C   UNL A   1      45.273  24.196  28.248  1.00  0.00     0.031 C 
ATOM     48  C   UNL A   1      40.423  25.448  27.764  1.00  0.00     0.029 A 
ATOM     49  N   UNL A   1      41.800  26.969  28.654  1.00  0.00    -0.354 N 
ATOM     50  C   UNL A   1      45.981  26.126  29.257  1.00  0.00     0.074 A 
ATOM     51  C   UNL A   1      46.314  24.787  28.818  1.00  0.00     0.031 C 
ATOM     52  C   UNL A   1      39.691  26.538  28.046  1.00  0.00     0.029 A 
ATOM     53  C   UNL A   1      40.552  27.545  28.655  1.00  0.00     0.049 A 
ATOM     54  H   UNL A   1      42.604  27.425  28.993  1.00  0.00     0.167 HD
ATOM     55  C   UNL A   1      46.871  26.997  29.789  1.00  0.00     0.031 A 
ATOM     56  C   UNL A   1      40.144  28.747  29.106  1.00  0.00     0.031 A 
ATOM     57  C   UNL A   1      46.544  28.330  30.220  1.00  0.00     0.049 A 
ATOM     58  C   UNL A   1      41.147  29.685  29.714  1.00  0.00     0.074 A 
ATOM     59  C   UNL A   1      47.389  29.305  30.722  1.00  0.00     0.029 A 
ATOM     60  N   UNL A   1      45.270  28.875  30.204  1.00  0.00    -0.354 N 
ATOM     61  N   UNL A   1      42.436  29.519  29.887  1.00  0.00    -0.248 NA
ATOM     62  C   UNL A   1      40.638  30.982  30.184  1.00  0.00     0.031 C 
ATOM     63  C   UNL A   1      46.617  30.422  31.057  1.00  0.00     0.029 A 
ATOM     64  C   UNL A   1      45.301  30.163  30.712  1.00  0.00     0.049 A 
ATOM     65  H   UNL A   1      44.463  28.414  29.880  1.00  0.00     0.167 HD
ATOM     66  C   UNL A   1      42.896  30.698  30.459  1.00  0.00     0.074 A 
ATOM     67  C   UNL A   1      41.751  31.576  30.591  1.00  0.00     0.031 C 
ATOM     68  C   UNL A   1      44.155  31.024  30.841  1.00  0.00     0.031 A 
BRANCH  55  69
ATOM     69  C   UNL A   1      48.291  26.526  29.946  1.00  0.00    -0.014 A 
ATOM     70  C   UNL A   1      49.243  26.737  28.936  1.00  0.00     0.009 A 
ATOM     71  C   UNL A   1      48.691  25.896  31.135  1.00  0.00     0.009 A 
ATOM     72  C   UNL A   1      50.558  26.294  29.100  1.00  0.00     0.001 A 
ATOM     73  C   UNL A   1      50.012  25.481  31.307  1.00  0.00     0.001 A 
ATOM     74  C   UNL A   1      50.942  25.671  30.285  1.00  0.00     0.000 A 
ENDBRANCH  55  69
BRANCH  56  75
ATOM     75  C   UNL A   1      38.715  29.137  28.991  1.00  0.00    -0.014 A 
ATOM     76  C   UNL A   1      38.212  29.647  27.784  1.00  0.00     0.009 A 
ATOM     77  C   UNL A   1      37.848  29.008  30.087  1.00  0.00     0.009 A 
ATOM     78  C   UNL A   1      36.876  30.043  27.685  1.00  0.00     0.001 A 
ATOM     79  C   UNL A   1      36.506  29.377  29.976  1.00  0.00     0.001 A 
ATOM     80  C   UNL A   1      36.025  29.904  28.779  1.00  0.00     0.000 A 
ENDBRANCH  56  75
BRANCH  68  81
ATOM     81  C   UNL A   1      44.365  32.399  31.409  1.00  0.00    -0.014 A 
ATOM     82  C   UNL A   1      44.286  32.638  32.790  1.00  0.00     0.009 A 
ATOM     83  C   UNL A   1      44.685  33.463  30.551  1.00  0.00     0.009 A 
ATOM     84  C   UNL A   1      44.493  33.922  33.297  1.00  0.00     0.001 A 
ATOM     85  C   UNL A   1      44.919  34.740  31.063  1.00  0.00     0.001 A 
ATOM     86  C   UNL A   1      44.813  34.970  32.434  1.00  0.00     0.000 A 
ENDBRANCH  68  81
ENDBRANCH  42  43
ENDBRANCH  34  37
ENDBRANCH  32  33
ENDBRANCH  31  32
ENDBRANCH  30  31
ENDBRANCH   1  30
TORSDOF 16
ENDMDL
MODEL 3
REMARK VINA RESULT:     -11.4      2.312      7.324
REMARK SMILES COc1ccc(NC(=O)[C@@H]2[C@@H](C(=O)NCCCCCCNC(=O)c3ccc(-c4c5nc(c(-c6ccccc6)c6ccc([nH]6)c(-c6ccccc6)c6nc(c(-c7ccccc7)c7ccc4[nH]7)C=C6)C=C5)cc3)[C@@H]3CC[C@H]2C3=C(C)C)cc1
REMARK SMILES IDX 17 1 16 2 15 3 14 4 12 5 13 6 11 8 10 9 75 10 72 11 74 12
REMARK SMILES IDX 76 13 73 14 77 15 78 16 79 17 8 18 7 19 9 21 6 22 3 23 4 24
REMARK SMILES IDX 81 25 5 26 80 27 2 28 1 29 18 30 19 31 20 32 21 33 22 34
REMARK SMILES IDX 23 36 24 37 25 38 71 39 26 40 70 41 27 42 28 43 29 44 64 45
REMARK SMILES IDX 30 46 69 47 63 48 65 49 31 50 68 51 62 52 61 53 32 55 54 56
REMARK SMILES IDX 39 57 53 58 40 59 43 60 52 61 66 62 41 63 42 64 51 66 67 67
REMARK SMILES IDX 44 68 33 69 34 70 38 71 35 72 37 73 36 74 55 75 56 76 60 77
REMARK SMILES IDX 57 78 59 79 58 80 45 81 46 82 50 83 47 84 49 85 48 86
REMARK H PARENT 14 7 7 20 21 35 65 54 43 65
REMARK Flexibility Score: inf
ROOT
ATOM      1  C   UNL A   1      38.931  23.458  26.027  1.00  0.00     0.002 C 
ENDROOT
BRANCH   1   2
ATOM      2  C   UNL A   1      37.428  23.702  26.140  1.00  0.00     0.021 C 
BRANCH   2   3
ATOM      3  C   UNL A   1      36.529  22.590  25.615  1.00  0.00     0.116 C 
BRANCH   3   4
ATOM      4  N   UNL A   1      35.894  22.947  24.365  1.00  0.00    -0.356 N 
ATOM      5  C   UNL A   1      34.829  23.714  24.036  1.00  0.00     0.224 C 
ATOM      6  O   UNL A   1      34.532  23.710  22.834  1.00  0.00    -0.275 OA
ATOM      7  H   UNL A   1      36.333  22.544  23.581  1.00  0.00     0.163 HD
BRANCH   5   8
ATOM      8  C   UNL A   1      33.939  24.491  25.003  1.00  0.00     0.098 C 
ATOM      9  C   UNL A   1      32.402  24.230  25.040  1.00  0.00     0.099 C 
ATOM     10  C   UNL A   1      31.857  25.672  24.930  1.00  0.00     0.028 C 
ATOM     11  C   UNL A   1      34.078  26.024  24.802  1.00  0.00     0.028 C 
ATOM     12  C   UNL A   1      32.161  26.494  26.194  1.00  0.00     0.009 C 
ATOM     13  C   UNL A   1      32.846  26.325  24.003  1.00  0.00    -0.064 C 
ATOM     14  C   UNL A   1      33.679  26.731  26.111  1.00  0.00     0.009 C 
ATOM     15  C   UNL A   1      32.630  27.056  22.896  1.00  0.00    -0.077 C 
ATOM     16  C   UNL A   1      33.698  27.876  22.226  1.00  0.00     0.039 C 
ATOM     17  C   UNL A   1      31.272  27.150  22.251  1.00  0.00     0.039 C 
BRANCH   9  18
ATOM     18  C   UNL A   1      31.969  23.432  26.276  1.00  0.00     0.228 C 
ATOM     19  N   UNL A   1      32.028  22.066  26.330  1.00  0.00    -0.326 N 
ATOM     20  H   UNL A   1      31.725  21.674  27.180  1.00  0.00     0.169 HD
ATOM     21  O   UNL A   1      31.553  24.005  27.289  1.00  0.00    -0.274 OA
BRANCH  19  22
ATOM     22  C   UNL A   1      32.451  21.135  25.375  1.00  0.00     0.041 A 
ATOM     23  C   UNL A   1      32.935  18.930  23.732  1.00  0.00     0.119 A 
ATOM     24  C   UNL A   1      32.290  20.057  23.222  1.00  0.00     0.048 A 
ATOM     25  C   UNL A   1      33.476  18.974  25.015  1.00  0.00     0.048 A 
ATOM     26  C   UNL A   1      32.055  21.168  24.040  1.00  0.00     0.030 A 
ATOM     27  C   UNL A   1      33.252  20.086  25.829  1.00  0.00     0.030 A 
BRANCH  23  28
ATOM     28  O   UNL A   1      32.979  17.845  22.901  1.00  0.00    -0.497 OA
ATOM     29  C   UNL A   1      33.958  16.864  23.235  1.00  0.00     0.278 C 
ENDBRANCH  23  28
ENDBRANCH  19  22
ENDBRANCH   9  18
ENDBRANCH   5   8
ENDBRANCH   3   4
ENDBRANCH   2   3
ENDBRANCH   1   2
BRANCH   1  30
ATOM     30  C   UNL A   1      39.482  22.255  26.798  1.00  0.00     0.002 C 
BRANCH  30  31
ATOM     31  C   UNL A   1      39.864  21.028  25.965  1.00  0.00     0.021 C 
BRANCH  31  32
ATOM     32  C   UNL A   1      40.732  19.989  26.672  1.00  0.00     0.116 C 
BRANCH  32  33
ATOM     33  N   UNL A   1      41.980  19.738  25.973  1.00  0.00    -0.352 N 
ATOM     34  C   UNL A   1      42.984  20.600  25.618  1.00  0.00     0.251 C 
ATOM     35  H   UNL A   1      42.128  18.800  25.713  1.00  0.00     0.163 HD
ATOM     36  O   UNL A   1      43.879  20.219  24.861  1.00  0.00    -0.269 OA
BRANCH  34  37
ATOM     37  C   UNL A   1      43.000  21.990  26.117  1.00  0.00     0.039 A 
ATOM     38  C   UNL A   1      43.078  22.208  27.496  1.00  0.00     0.014 A 
ATOM     39  C   UNL A   1      42.898  23.077  25.243  1.00  0.00     0.014 A 
ATOM     40  C   UNL A   1      43.118  23.512  27.994  1.00  0.00     0.010 A 
ATOM     41  C   UNL A   1      43.004  24.377  25.736  1.00  0.00     0.010 A 
ATOM     42  C   UNL A   1      43.115  24.607  27.117  1.00  0.00    -0.014 A 
BRANCH  42  43
ATOM     43  C   UNL A   1      43.238  25.998  27.623  1.00  0.00     0.031 A 
ATOM     44  C   UNL A   1      44.592  26.602  27.870  1.00  0.00     0.074 A 
ATOM     45  C   UNL A   1      42.126  26.697  27.920  1.00  0.00     0.049 A 
ATOM     46  N   UNL A   1      44.894  27.774  28.370  1.00  0.00    -0.248 NA
ATOM     47  C   UNL A   1      45.760  25.774  27.529  1.00  0.00     0.031 C 
ATOM     48  C   UNL A   1      40.752  26.217  27.756  1.00  0.00     0.029 A 
ATOM     49  N   UNL A   1      41.976  27.962  28.433  1.00  0.00    -0.354 N 
ATOM     50  C   UNL A   1      46.282  27.818  28.420  1.00  0.00     0.074 A 
ATOM     51  C   UNL A   1      46.761  26.540  27.940  1.00  0.00     0.031 C 
ATOM     52  C   UNL A   1      39.901  27.181  28.140  1.00  0.00     0.029 A 
ATOM     53  C   UNL A   1      40.665  28.330  28.616  1.00  0.00     0.049 A 
ATOM     54  H   UNL A   1      42.736  28.549  28.650  1.00  0.00     0.167 HD
ATOM     55  C   UNL A   1      47.085  28.834  28.815  1.00  0.00     0.031 A 
ATOM     56  C   UNL A   1      40.135  29.461  29.119  1.00  0.00     0.031 A 
ATOM     57  C   UNL A   1      46.611  30.108  29.287  1.00  0.00     0.049 A 
ATOM     58  C   UNL A   1      41.049  30.564  29.572  1.00  0.00     0.074 A 
ATOM     59  C   UNL A   1      47.349  31.220  29.658  1.00  0.00     0.029 A 
ATOM     60  N   UNL A   1      45.276  30.441  29.456  1.00  0.00    -0.354 N 
ATOM     61  N   UNL A   1      42.359  30.612  29.555  1.00  0.00    -0.248 NA
ATOM     62  C   UNL A   1      40.408  31.773  30.109  1.00  0.00     0.031 C 
ATOM     63  C   UNL A   1      46.461  32.206  30.100  1.00  0.00     0.029 A 
ATOM     64  C   UNL A   1      45.169  31.729  29.951  1.00  0.00     0.049 A 
ATOM     65  H   UNL A   1      44.516  29.848  29.254  1.00  0.00     0.167 HD
ATOM     66  C   UNL A   1      42.698  31.863  30.051  1.00  0.00     0.074 A 
ATOM     67  C   UNL A   1      41.456  32.549  30.347  1.00  0.00     0.031 C 
ATOM     68  C   UNL A   1      43.929  32.398  30.245  1.00  0.00     0.031 A 
BRANCH  55  69
ATOM     69  C   UNL A   1      48.570  28.603  28.764  1.00  0.00    -0.014 A 
ATOM     70  C   UNL A   1      49.263  28.072  29.865  1.00  0.00     0.009 A 
ATOM     71  C   UNL A   1      49.281  28.885  27.587  1.00  0.00     0.009 A 
ATOM     72  C   UNL A   1      50.642  27.863  29.798  1.00  0.00     0.001 A 
ATOM     73  C   UNL A   1      50.655  28.648  27.515  1.00  0.00     0.001 A 
ATOM     74  C   UNL A   1      51.336  28.147  28.624  1.00  0.00     0.000 A 
ENDBRANCH  55  69
BRANCH  56  75
ATOM     75  C   UNL A   1      38.660  29.613  29.213  1.00  0.00    -0.014 A 
ATOM     76  C   UNL A   1      37.927  30.121  28.129  1.00  0.00     0.009 A 
ATOM     77  C   UNL A   1      37.979  29.257  30.386  1.00  0.00     0.009 A 
ATOM     78  C   UNL A   1      36.545  30.294  28.229  1.00  0.00     0.001 A 
ATOM     79  C   UNL A   1      36.593  29.403  30.473  1.00  0.00     0.001 A 
ATOM     80  C   UNL A   1      35.879  29.931  29.398  1.00  0.00     0.000 A 
ENDBRANCH  56  75
BRANCH  68  81
ATOM     81  C   UNL A   1      43.991  33.803  30.773  1.00  0.00    -0.014 A 
ATOM     82  C   UNL A   1      43.953  34.909  29.910  1.00  0.00     0.009 A 
ATOM     83  C   UNL A   1      44.049  34.022  32.158  1.00  0.00     0.009 A 
ATOM     84  C   UNL A   1      44.003  36.207  30.424  1.00  0.00     0.001 A 
ATOM     85  C   UNL A   1      44.071  35.319  32.670  1.00  0.00     0.001 A 
ATOM     86  C   UNL A   1      44.058  36.410  31.802  1.00  0.00     0.000 A 
ENDBRANCH  68  81
ENDBRANCH  42  43
ENDBRANCH  34  37
ENDBRANCH  32  33
ENDBRANCH  31  32
ENDBRANCH  30  31
ENDBRANCH   1  30
TORSDOF 16
ENDMDL
