MODEL 1
REMARK VINA RESULT:     -11.0      0.000      0.000
REMARK SMILES Cc1cc(C[NH+]2C[C@@H](C)[C@H](C)C2)oc1C(=O)NCCCCCCNC(=O)c1ccc(-c2c3nc(c(-c4ccccc4)c4ccc([nH]4)c(-c4ccccc4)c4nc(c(-c5ccccc5)c5ccc2[nH]5)C=C4)C=C3)cc1
REMARK SMILES IDX 20 1 19 2 18 3 17 4 15 5 16 6 14 8 1 9 2 10 3 11 4 12 13 13
REMARK SMILES IDX 5 14 6 15 7 16 12 17 8 19 10 20 9 21 11 22 21 23 22 24 23 25
REMARK SMILES IDX 24 26 25 27 26 29 27 30 28 31 74 32 29 33 73 34 30 35 31 36
REMARK SMILES IDX 32 37 67 38 33 39 72 40 66 41 68 42 34 43 71 44 65 45 64 46
REMARK SMILES IDX 35 48 57 49 42 50 56 51 43 52 46 53 55 54 69 55 44 56 45 57
REMARK SMILES IDX 54 59 70 60 47 61 36 62 37 63 41 64 38 65 40 66 39 67 58 68
REMARK SMILES IDX 59 69 63 70 60 71 62 72 61 73 48 74 49 75 53 76 50 77 52 78
REMARK SMILES IDX 51 79
REMARK H PARENT 17 7 6 18 24 28 68 47 46 58
REMARK Flexibility Score: inf
ROOT
ATOM      1  C   UNL A   1      36.989  22.049  24.239  1.00  0.00     0.002 C 
ENDROOT
BRANCH   1   2
ATOM      2  C   UNL A   1      37.143  23.258  25.166  1.00  0.00     0.021 C 
BRANCH   2   3
ATOM      3  C   UNL A   1      35.855  23.896  25.673  1.00  0.00     0.116 C 
BRANCH   3   4
ATOM      4  N   UNL A   1      35.076  24.547  24.653  1.00  0.00    -0.349 N 
ATOM      5  C   UNL A   1      33.866  24.179  24.108  1.00  0.00     0.287 C 
ATOM      6  O   UNL A   1      33.479  24.876  23.166  1.00  0.00    -0.266 OA
ATOM      7  H   UNL A   1      35.466  25.376  24.291  1.00  0.00     0.163 HD
BRANCH   5   8
ATOM      8  C   UNL A   1      33.115  23.025  24.588  1.00  0.00     0.194 A 
ATOM      9  C   UNL A   1      31.511  23.656  26.563  1.00  0.00     0.049 C 
ATOM     10  C   UNL A   1      32.146  22.768  25.562  1.00  0.00     0.001 A 
ATOM     11  C   UNL A   1      31.790  21.396  25.418  1.00  0.00     0.056 A 
ATOM     12  C   UNL A   1      32.577  20.871  24.424  1.00  0.00     0.159 A 
ATOM     13  O   UNL A   1      33.354  21.854  23.898  1.00  0.00    -0.450 OA
BRANCH  12  14
ATOM     14  C   UNL A   1      32.731  19.500  23.852  1.00  0.00     0.338 C 
BRANCH  14  15
ATOM     15  N   UNL A   1      33.212  18.489  24.801  1.00  0.00    -0.328 N 
ATOM     16  C   UNL A   1      32.283  17.381  25.025  1.00  0.00     0.266 C 
ATOM     17  C   UNL A   1      34.552  17.954  24.549  1.00  0.00     0.266 C 
ATOM     18  H   UNL A   1      33.272  19.047  25.653  1.00  0.00     0.348 HD
ATOM     19  C   UNL A   1      33.183  16.288  25.597  1.00  0.00     0.049 C 
ATOM     20  C   UNL A   1      34.434  16.438  24.733  1.00  0.00     0.049 C 
ATOM     21  C   UNL A   1      32.540  14.910  25.519  1.00  0.00     0.014 C 
ATOM     22  C   UNL A   1      35.688  15.818  25.328  1.00  0.00     0.014 C 
ENDBRANCH  14  15
ENDBRANCH  12  14
ENDBRANCH   5   8
ENDBRANCH   3   4
ENDBRANCH   2   3
ENDBRANCH   1   2
BRANCH   1  23
ATOM     23  C   UNL A   1      36.736  20.688  24.896  1.00  0.00     0.002 C 
BRANCH  23  24
ATOM     24  C   UNL A   1      37.913  19.715  24.962  1.00  0.00     0.021 C 
BRANCH  24  25
ATOM     25  C   UNL A   1      39.003  20.033  25.980  1.00  0.00     0.116 C 
BRANCH  25  26
ATOM     26  N   UNL A   1      40.182  19.199  25.841  1.00  0.00    -0.352 N 
ATOM     27  C   UNL A   1      41.504  19.504  26.051  1.00  0.00     0.251 C 
ATOM     28  H   UNL A   1      40.007  18.275  25.551  1.00  0.00     0.163 HD
ATOM     29  O   UNL A   1      42.371  18.679  25.776  1.00  0.00    -0.269 OA
BRANCH  27  30
ATOM     30  C   UNL A   1      41.901  20.830  26.577  1.00  0.00     0.039 A 
ATOM     31  C   UNL A   1      42.305  21.813  25.668  1.00  0.00     0.014 A 
ATOM     32  C   UNL A   1      41.900  21.108  27.947  1.00  0.00     0.014 A 
ATOM     33  C   UNL A   1      42.647  23.088  26.126  1.00  0.00     0.010 A 
ATOM     34  C   UNL A   1      42.178  22.398  28.396  1.00  0.00     0.010 A 
ATOM     35  C   UNL A   1      42.554  23.403  27.491  1.00  0.00    -0.014 A 
BRANCH  35  36
ATOM     36  C   UNL A   1      42.840  24.774  27.985  1.00  0.00     0.031 A 
ATOM     37  C   UNL A   1      44.243  25.173  28.353  1.00  0.00     0.074 A 
ATOM     38  C   UNL A   1      41.828  25.646  28.158  1.00  0.00     0.049 A 
ATOM     39  N   UNL A   1      44.675  26.302  28.857  1.00  0.00    -0.248 NA
ATOM     40  C   UNL A   1      45.295  24.165  28.149  1.00  0.00     0.031 C 
ATOM     41  C   UNL A   1      40.417  25.376  27.870  1.00  0.00     0.029 A 
ATOM     42  N   UNL A   1      41.829  26.936  28.625  1.00  0.00    -0.354 N 
ATOM     43  C   UNL A   1      46.041  26.134  29.047  1.00  0.00     0.074 A 
ATOM     44  C   UNL A   1      46.359  24.781  28.645  1.00  0.00     0.031 C 
ATOM     45  C   UNL A   1      39.695  26.474  28.144  1.00  0.00     0.029 A 
ATOM     46  C   UNL A   1      40.581  27.510  28.665  1.00  0.00     0.049 A 
ATOM     47  H   UNL A   1      42.648  27.407  28.906  1.00  0.00     0.167 HD
ATOM     48  C   UNL A   1      46.952  27.028  29.499  1.00  0.00     0.031 A 
ATOM     49  C   UNL A   1      40.191  28.730  29.080  1.00  0.00     0.031 A 
ATOM     50  C   UNL A   1      46.641  28.379  29.886  1.00  0.00     0.049 A 
ATOM     51  C   UNL A   1      41.219  29.699  29.591  1.00  0.00     0.074 A 
ATOM     52  C   UNL A   1      47.506  29.375  30.305  1.00  0.00     0.029 A 
ATOM     53  N   UNL A   1      45.366  28.921  29.904  1.00  0.00    -0.354 N 
ATOM     54  N   UNL A   1      42.516  29.544  29.705  1.00  0.00    -0.248 NA
ATOM     55  C   UNL A   1      40.731  31.018  30.019  1.00  0.00     0.031 C 
ATOM     56  C   UNL A   1      46.747  30.508  30.623  1.00  0.00     0.029 A 
ATOM     57  C   UNL A   1      45.417  30.232  30.348  1.00  0.00     0.049 A 
ATOM     58  H   UNL A   1      44.546  28.445  29.640  1.00  0.00     0.167 HD
ATOM     59  C   UNL A   1      43.001  30.751  30.188  1.00  0.00     0.074 A 
ATOM     60  C   UNL A   1      41.862  31.634  30.333  1.00  0.00     0.031 C 
ATOM     61  C   UNL A   1      44.277  31.098  30.485  1.00  0.00     0.031 A 
BRANCH  48  62
ATOM     62  C   UNL A   1      48.380  26.570  29.603  1.00  0.00    -0.014 A 
ATOM     63  C   UNL A   1      49.312  26.853  28.592  1.00  0.00     0.009 A 
ATOM     64  C   UNL A   1      48.810  25.882  30.749  1.00  0.00     0.009 A 
ATOM     65  C   UNL A   1      50.636  26.426  28.710  1.00  0.00     0.001 A 
ATOM     66  C   UNL A   1      50.141  25.480  30.876  1.00  0.00     0.001 A 
ATOM     67  C   UNL A   1      51.050  25.744  29.854  1.00  0.00     0.000 A 
ENDBRANCH  48  62
BRANCH  49  68
ATOM     68  C   UNL A   1      38.756  29.114  29.021  1.00  0.00    -0.014 A 
ATOM     69  C   UNL A   1      38.218  29.675  27.854  1.00  0.00     0.009 A 
ATOM     70  C   UNL A   1      37.921  28.933  30.135  1.00  0.00     0.009 A 
ATOM     71  C   UNL A   1      36.879  30.073  27.812  1.00  0.00     0.001 A 
ATOM     72  C   UNL A   1      36.576  29.304  30.081  1.00  0.00     0.001 A 
ATOM     73  C   UNL A   1      36.059  29.884  28.923  1.00  0.00     0.000 A 
ENDBRANCH  49  68
BRANCH  61  74
ATOM     74  C   UNL A   1      44.515  32.505  30.958  1.00  0.00    -0.014 A 
ATOM     75  C   UNL A   1      44.822  33.537  30.057  1.00  0.00     0.009 A 
ATOM     76  C   UNL A   1      44.388  32.808  32.323  1.00  0.00     0.009 A 
ATOM     77  C   UNL A   1      45.029  34.837  30.519  1.00  0.00     0.001 A 
ATOM     78  C   UNL A   1      44.568  34.115  32.777  1.00  0.00     0.001 A 
ATOM     79  C   UNL A   1      44.897  35.126  31.877  1.00  0.00     0.000 A 
ENDBRANCH  61  74
ENDBRANCH  35  36
ENDBRANCH  27  30
ENDBRANCH  25  26
ENDBRANCH  24  25
ENDBRANCH  23  24
ENDBRANCH   1  23
TORSDOF 15
ENDMDL
MODEL 2
REMARK VINA RESULT:     -10.8      0.388      5.946
REMARK SMILES Cc1cc(C[NH+]2C[C@@H](C)[C@H](C)C2)oc1C(=O)NCCCCCCNC(=O)c1ccc(-c2c3nc(c(-c4ccccc4)c4ccc([nH]4)c(-c4ccccc4)c4nc(c(-c5ccccc5)c5ccc2[nH]5)C=C4)C=C3)cc1
REMARK SMILES IDX 20 1 19 2 18 3 17 4 15 5 16 6 14 8 1 9 2 10 3 11 4 12 13 13
REMARK SMILES IDX 5 14 6 15 7 16 12 17 8 19 10 20 9 21 11 22 21 23 22 24 23 25
REMARK SMILES IDX 24 26 25 27 26 29 27 30 28 31 74 32 29 33 73 34 30 35 31 36
REMARK SMILES IDX 32 37 67 38 33 39 72 40 66 41 68 42 34 43 71 44 65 45 64 46
REMARK SMILES IDX 35 48 57 49 42 50 56 51 43 52 46 53 55 54 69 55 44 56 45 57
REMARK SMILES IDX 54 59 70 60 47 61 36 62 37 63 41 64 38 65 40 66 39 67 58 68
REMARK SMILES IDX 59 69 63 70 60 71 62 72 61 73 48 74 49 75 53 76 50 77 52 78
REMARK SMILES IDX 51 79
REMARK H PARENT 17 7 6 18 24 28 68 47 46 58
REMARK Flexibility Score: inf
ROOT
ATOM      1  C   UNL A   1      37.325  21.899  24.343  1.00  0.00     0.002 C 
ENDROOT
BRANCH   1   2
ATOM      2  C   UNL A   1      37.381  22.989  25.418  1.00  0.00     0.021 C 
BRANCH   2   3
ATOM      3  C   UNL A   1      36.054  23.632  25.805  1.00  0.00     0.116 C 
BRANCH   3   4
ATOM      4  N   UNL A   1      35.398  24.326  24.729  1.00  0.00    -0.349 N 
ATOM      5  C   UNL A   1      34.196  24.049  24.114  1.00  0.00     0.287 C 
ATOM      6  O   UNL A   1      33.928  24.758  23.140  1.00  0.00    -0.266 OA
ATOM      7  H   UNL A   1      35.877  25.113  24.381  1.00  0.00     0.163 HD
BRANCH   5   8
ATOM      8  C   UNL A   1      33.323  22.970  24.561  1.00  0.00     0.194 A 
ATOM      9  C   UNL A   1      31.650  23.773  26.413  1.00  0.00     0.049 C 
ATOM     10  C   UNL A   1      32.275  22.814  25.471  1.00  0.00     0.001 A 
ATOM     11  C   UNL A   1      31.818  21.473  25.327  1.00  0.00     0.056 A 
ATOM     12  C   UNL A   1      32.623  20.864  24.397  1.00  0.00     0.159 A 
ATOM     13  O   UNL A   1      33.510  21.769  23.908  1.00  0.00    -0.450 OA
BRANCH  12  14
ATOM     14  C   UNL A   1      32.701  19.472  23.860  1.00  0.00     0.338 C 
BRANCH  14  15
ATOM     15  N   UNL A   1      33.198  18.473  24.812  1.00  0.00    -0.328 N 
ATOM     16  C   UNL A   1      32.274  17.367  25.064  1.00  0.00     0.266 C 
ATOM     17  C   UNL A   1      34.533  17.936  24.544  1.00  0.00     0.266 C 
ATOM     18  H   UNL A   1      33.271  19.041  25.657  1.00  0.00     0.348 HD
ATOM     19  C   UNL A   1      33.183  16.281  25.634  1.00  0.00     0.049 C 
ATOM     20  C   UNL A   1      34.420  16.422  24.748  1.00  0.00     0.049 C 
ATOM     21  C   UNL A   1      32.541  14.903  25.583  1.00  0.00     0.014 C 
ATOM     22  C   UNL A   1      35.684  15.810  25.330  1.00  0.00     0.014 C 
ENDBRANCH  14  15
ENDBRANCH  12  14
ENDBRANCH   5   8
ENDBRANCH   3   4
ENDBRANCH   2   3
ENDBRANCH   1   2
BRANCH   1  23
ATOM     23  C   UNL A   1      37.022  20.471  24.806  1.00  0.00     0.002 C 
BRANCH  23  24
ATOM     24  C   UNL A   1      38.208  19.514  24.939  1.00  0.00     0.021 C 
BRANCH  24  25
ATOM     25  C   UNL A   1      39.231  19.844  26.020  1.00  0.00     0.116 C 
BRANCH  25  26
ATOM     26  N   UNL A   1      40.491  19.146  25.853  1.00  0.00    -0.352 N 
ATOM     27  C   UNL A   1      41.776  19.596  26.026  1.00  0.00     0.251 C 
ATOM     28  H   UNL A   1      40.413  18.205  25.572  1.00  0.00     0.163 HD
ATOM     29  O   UNL A   1      42.722  18.871  25.730  1.00  0.00    -0.269 OA
BRANCH  27  30
ATOM     30  C   UNL A   1      42.037  20.963  26.534  1.00  0.00     0.039 A 
ATOM     31  C   UNL A   1      42.034  21.170  27.917  1.00  0.00     0.014 A 
ATOM     32  C   UNL A   1      42.262  22.038  25.670  1.00  0.00     0.014 A 
ATOM     33  C   UNL A   1      42.316  22.437  28.433  1.00  0.00     0.010 A 
ATOM     34  C   UNL A   1      42.608  23.286  26.187  1.00  0.00     0.010 A 
ATOM     35  C   UNL A   1      42.640  23.499  27.574  1.00  0.00    -0.014 A 
BRANCH  35  36
ATOM     36  C   UNL A   1      43.017  24.832  28.107  1.00  0.00     0.031 A 
ATOM     37  C   UNL A   1      41.967  25.883  28.344  1.00  0.00     0.074 A 
ATOM     38  C   UNL A   1      44.315  25.121  28.326  1.00  0.00     0.049 A 
ATOM     39  N   UNL A   1      42.113  27.120  28.748  1.00  0.00    -0.248 NA
ATOM     40  C   UNL A   1      40.572  25.500  28.072  1.00  0.00     0.031 C 
ATOM     41  C   UNL A   1      45.436  24.205  28.107  1.00  0.00     0.029 A 
ATOM     42  N   UNL A   1      44.912  26.273  28.776  1.00  0.00    -0.354 N 
ATOM     43  C   UNL A   1      40.836  27.667  28.760  1.00  0.00     0.074 A 
ATOM     44  C   UNL A   1      39.933  26.642  28.283  1.00  0.00     0.031 C 
ATOM     45  C   UNL A   1      46.580  24.821  28.445  1.00  0.00     0.029 A 
ATOM     46  C   UNL A   1      46.280  26.187  28.865  1.00  0.00     0.049 A 
ATOM     47  H   UNL A   1      44.406  27.084  29.012  1.00  0.00     0.167 HD
ATOM     48  C   UNL A   1      40.445  28.905  29.149  1.00  0.00     0.031 A 
ATOM     49  C   UNL A   1      47.193  27.104  29.235  1.00  0.00     0.031 A 
ATOM     50  C   UNL A   1      41.339  29.923  29.637  1.00  0.00     0.049 A 
ATOM     51  C   UNL A   1      46.736  28.475  29.648  1.00  0.00     0.074 A 
ATOM     52  C   UNL A   1      41.029  31.188  30.104  1.00  0.00     0.029 A 
ATOM     53  N   UNL A   1      42.716  29.791  29.718  1.00  0.00    -0.354 N 
ATOM     54  N   UNL A   1      45.518  28.955  29.712  1.00  0.00    -0.248 NA
ATOM     55  C   UNL A   1      47.780  29.427  30.052  1.00  0.00     0.031 C 
ATOM     56  C   UNL A   1      42.225  31.840  30.424  1.00  0.00     0.029 A 
ATOM     57  C   UNL A   1      43.273  30.960  30.207  1.00  0.00     0.049 A 
ATOM     58  H   UNL A   1      43.222  28.985  29.465  1.00  0.00     0.167 HD
ATOM     59  C   UNL A   1      45.646  30.252  30.190  1.00  0.00     0.074 A 
ATOM     60  C   UNL A   1      47.059  30.479  30.413  1.00  0.00     0.031 C 
ATOM     61  C   UNL A   1      44.679  31.172  30.425  1.00  0.00     0.031 A 
BRANCH  48  62
ATOM     62  C   UNL A   1      38.980  29.231  29.056  1.00  0.00    -0.014 A 
ATOM     63  C   UNL A   1      38.414  29.707  27.864  1.00  0.00     0.009 A 
ATOM     64  C   UNL A   1      38.147  29.018  30.166  1.00  0.00     0.009 A 
ATOM     65  C   UNL A   1      37.050  29.997  27.794  1.00  0.00     0.001 A 
ATOM     66  C   UNL A   1      36.779  29.283  30.085  1.00  0.00     0.001 A 
ATOM     67  C   UNL A   1      36.233  29.780  28.904  1.00  0.00     0.000 A 
ENDBRANCH  48  62
BRANCH  49  68
ATOM     68  C   UNL A   1      48.638  26.756  29.245  1.00  0.00    -0.014 A 
ATOM     69  C   UNL A   1      49.428  26.967  28.105  1.00  0.00     0.009 A 
ATOM     70  C   UNL A   1      49.232  26.201  30.390  1.00  0.00     0.009 A 
ATOM     71  C   UNL A   1      50.778  26.603  28.102  1.00  0.00     0.001 A 
ATOM     72  C   UNL A   1      50.588  25.865  30.393  1.00  0.00     0.001 A 
ATOM     73  C   UNL A   1      51.357  26.057  29.246  1.00  0.00     0.000 A 
ENDBRANCH  49  68
BRANCH  61  74
ATOM     74  C   UNL A   1      45.113  32.496  30.988  1.00  0.00    -0.014 A 
ATOM     75  C   UNL A   1      45.422  33.579  30.152  1.00  0.00     0.009 A 
ATOM     76  C   UNL A   1      45.173  32.671  32.380  1.00  0.00     0.009 A 
ATOM     77  C   UNL A   1      45.814  34.803  30.698  1.00  0.00     0.001 A 
ATOM     78  C   UNL A   1      45.537  33.904  32.923  1.00  0.00     0.001 A 
ATOM     79  C   UNL A   1      45.866  34.965  32.082  1.00  0.00     0.000 A 
ENDBRANCH  61  74
ENDBRANCH  35  36
ENDBRANCH  27  30
ENDBRANCH  25  26
ENDBRANCH  24  25
ENDBRANCH  23  24
ENDBRANCH   1  23
TORSDOF 15
ENDMDL
MODEL 3
REMARK VINA RESULT:     -10.8      4.664      9.987
REMARK SMILES Cc1cc(C[NH+]2C[C@@H](C)[C@H](C)C2)oc1C(=O)NCCCCCCNC(=O)c1ccc(-c2c3nc(c(-c4ccccc4)c4ccc([nH]4)c(-c4ccccc4)c4nc(c(-c5ccccc5)c5ccc2[nH]5)C=C4)C=C3)cc1
REMARK SMILES IDX 20 1 19 2 18 3 17 4 15 5 16 6 14 8 1 9 2 10 3 11 4 12 13 13
REMARK SMILES IDX 5 14 6 15 7 16 12 17 8 19 10 20 9 21 11 22 21 23 22 24 23 25
REMARK SMILES IDX 24 26 25 27 26 29 27 30 28 31 74 32 29 33 73 34 30 35 31 36
REMARK SMILES IDX 32 37 67 38 33 39 72 40 66 41 68 42 34 43 71 44 65 45 64 46
REMARK SMILES IDX 35 48 57 49 42 50 56 51 43 52 46 53 55 54 69 55 44 56 45 57
REMARK SMILES IDX 54 59 70 60 47 61 36 62 37 63 41 64 38 65 40 66 39 67 58 68
REMARK SMILES IDX 59 69 63 70 60 71 62 72 61 73 48 74 49 75 53 76 50 77 52 78
REMARK SMILES IDX 51 79
REMARK H PARENT 17 7 6 18 24 28 68 47 46 58
REMARK Flexibility Score: inf
ROOT
ATOM      1  C   UNL A   1      33.606  30.077  27.359  1.00  0.00     0.002 C 
ENDROOT
BRANCH   1   2
ATOM      2  C   UNL A   1      34.338  29.043  26.499  1.00  0.00     0.021 C 
BRANCH   2   3
ATOM      3  C   UNL A   1      33.472  27.996  25.808  1.00  0.00     0.116 C 
BRANCH   3   4
ATOM      4  N   UNL A   1      33.819  27.756  24.433  1.00  0.00    -0.349 N 
ATOM      5  C   UNL A   1      33.035  27.289  23.401  1.00  0.00     0.287 C 
ATOM      6  O   UNL A   1      33.630  27.079  22.341  1.00  0.00    -0.266 OA
ATOM      7  H   UNL A   1      34.754  27.953  24.194  1.00  0.00     0.163 HD
BRANCH   5   8
ATOM      8  C   UNL A   1      31.609  27.027  23.564  1.00  0.00     0.194 A 
ATOM      9  C   UNL A   1      31.165  24.695  24.676  1.00  0.00     0.049 C 
ATOM     10  C   UNL A   1      30.810  26.006  24.084  1.00  0.00     0.001 A 
ATOM     11  C   UNL A   1      29.465  26.466  23.990  1.00  0.00     0.056 A 
ATOM     12  C   UNL A   1      29.494  27.696  23.380  1.00  0.00     0.159 A 
ATOM     13  O   UNL A   1      30.784  28.053  23.150  1.00  0.00    -0.450 OA
BRANCH  12  14
ATOM     14  C   UNL A   1      28.432  28.651  22.945  1.00  0.00     0.338 C 
BRANCH  14  15
ATOM     15  N   UNL A   1      28.927  29.955  22.491  1.00  0.00    -0.328 N 
ATOM     16  C   UNL A   1      28.283  30.456  21.276  1.00  0.00     0.266 C 
ATOM     17  C   UNL A   1      28.954  31.019  23.497  1.00  0.00     0.266 C 
ATOM     18  H   UNL A   1      29.897  29.723  22.280  1.00  0.00     0.348 HD
ATOM     19  C   UNL A   1      28.581  31.952  21.320  1.00  0.00     0.049 C 
ATOM     20  C   UNL A   1      28.383  32.260  22.804  1.00  0.00     0.049 C 
ATOM     21  C   UNL A   1      27.671  32.750  20.397  1.00  0.00     0.014 C 
ATOM     22  C   UNL A   1      29.037  33.550  23.272  1.00  0.00     0.014 C 
ENDBRANCH  14  15
ENDBRANCH  12  14
ENDBRANCH   5   8
ENDBRANCH   3   4
ENDBRANCH   2   3
ENDBRANCH   1   2
BRANCH   1  23
ATOM     23  C   UNL A   1      32.080  30.141  27.234  1.00  0.00     0.002 C 
BRANCH  23  24
ATOM     24  C   UNL A   1      31.464  31.501  26.905  1.00  0.00     0.021 C 
BRANCH  24  25
ATOM     25  C   UNL A   1      32.434  32.618  26.537  1.00  0.00     0.116 C 
BRANCH  25  26
ATOM     26  N   UNL A   1      32.271  33.813  27.344  1.00  0.00    -0.352 N 
ATOM     27  C   UNL A   1      33.019  34.271  28.399  1.00  0.00     0.251 C 
ATOM     28  H   UNL A   1      31.506  34.381  27.096  1.00  0.00     0.163 HD
ATOM     29  O   UNL A   1      32.652  35.263  29.023  1.00  0.00    -0.269 OA
BRANCH  27  30
ATOM     30  C   UNL A   1      34.250  33.562  28.818  1.00  0.00     0.039 A 
ATOM     31  C   UNL A   1      35.423  33.776  28.087  1.00  0.00     0.014 A 
ATOM     32  C   UNL A   1      34.258  32.678  29.901  1.00  0.00     0.014 A 
ATOM     33  C   UNL A   1      36.612  33.156  28.478  1.00  0.00     0.010 A 
ATOM     34  C   UNL A   1      35.457  32.113  30.330  1.00  0.00     0.010 A 
ATOM     35  C   UNL A   1      36.648  32.345  29.624  1.00  0.00    -0.014 A 
BRANCH  35  36
ATOM     36  C   UNL A   1      37.919  31.740  30.098  1.00  0.00     0.031 A 
ATOM     37  C   UNL A   1      38.758  32.442  31.130  1.00  0.00     0.074 A 
ATOM     38  C   UNL A   1      38.350  30.583  29.558  1.00  0.00     0.049 A 
ATOM     39  N   UNL A   1      39.922  32.098  31.621  1.00  0.00    -0.248 NA
ATOM     40  C   UNL A   1      38.229  33.706  31.667  1.00  0.00     0.031 C 
ATOM     41  C   UNL A   1      37.649  29.816  28.526  1.00  0.00     0.029 A 
ATOM     42  N   UNL A   1      39.487  29.854  29.797  1.00  0.00    -0.354 N 
ATOM     43  C   UNL A   1      40.273  33.110  32.506  1.00  0.00     0.074 A 
ATOM     44  C   UNL A   1      39.220  34.101  32.454  1.00  0.00     0.031 C 
ATOM     45  C   UNL A   1      38.360  28.714  28.239  1.00  0.00     0.029 A 
ATOM     46  C   UNL A   1      39.583  28.715  29.034  1.00  0.00     0.049 A 
ATOM     47  H   UNL A   1      40.171  30.121  30.454  1.00  0.00     0.167 HD
ATOM     48  C   UNL A   1      41.365  33.200  33.304  1.00  0.00     0.031 A 
ATOM     49  C   UNL A   1      40.550  27.779  28.975  1.00  0.00     0.031 A 
ATOM     50  C   UNL A   1      42.407  32.210  33.368  1.00  0.00     0.049 A 
ATOM     51  C   UNL A   1      41.758  27.909  29.859  1.00  0.00     0.074 A 
ATOM     52  C   UNL A   1      43.524  32.188  34.185  1.00  0.00     0.029 A 
ATOM     53  N   UNL A   1      42.461  31.068  32.584  1.00  0.00    -0.354 N 
ATOM     54  N   UNL A   1      42.043  28.842  30.736  1.00  0.00    -0.248 NA
ATOM     55  C   UNL A   1      42.772  26.850  29.755  1.00  0.00     0.031 C 
ATOM     56  C   UNL A   1      44.280  31.055  33.861  1.00  0.00     0.029 A 
ATOM     57  C   UNL A   1      43.604  30.345  32.882  1.00  0.00     0.049 A 
ATOM     58  H   UNL A   1      41.787  30.810  31.915  1.00  0.00     0.167 HD
ATOM     59  C   UNL A   1      43.252  28.467  31.307  1.00  0.00     0.074 A 
ATOM     60  C   UNL A   1      43.639  27.216  30.688  1.00  0.00     0.031 C 
ATOM     61  C   UNL A   1      43.975  29.102  32.260  1.00  0.00     0.031 A 
BRANCH  48  62
ATOM     62  C   UNL A   1      41.489  34.420  34.173  1.00  0.00    -0.014 A 
ATOM     63  C   UNL A   1      42.165  35.567  33.726  1.00  0.00     0.009 A 
ATOM     64  C   UNL A   1      40.886  34.439  35.440  1.00  0.00     0.009 A 
ATOM     65  C   UNL A   1      42.264  36.694  34.543  1.00  0.00     0.001 A 
ATOM     66  C   UNL A   1      40.964  35.577  36.245  1.00  0.00     0.001 A 
ATOM     67  C   UNL A   1      41.660  36.700  35.800  1.00  0.00     0.000 A 
ENDBRANCH  48  62
BRANCH  49  68
ATOM     68  C   UNL A   1      40.414  26.624  28.049  1.00  0.00    -0.014 A 
ATOM     69  C   UNL A   1      40.927  26.694  26.745  1.00  0.00     0.009 A 
ATOM     70  C   UNL A   1      39.760  25.452  28.460  1.00  0.00     0.009 A 
ATOM     71  C   UNL A   1      40.764  25.623  25.863  1.00  0.00     0.001 A 
ATOM     72  C   UNL A   1      39.624  24.372  27.585  1.00  0.00     0.001 A 
ATOM     73  C   UNL A   1      40.117  24.463  26.283  1.00  0.00     0.000 A 
ENDBRANCH  49  68
BRANCH  61  74
ATOM     74  C   UNL A   1      45.240  28.435  32.722  1.00  0.00    -0.014 A 
ATOM     75  C   UNL A   1      45.237  27.517  33.784  1.00  0.00     0.009 A 
ATOM     76  C   UNL A   1      46.447  28.700  32.055  1.00  0.00     0.009 A 
ATOM     77  C   UNL A   1      46.423  26.903  34.188  1.00  0.00     0.001 A 
ATOM     78  C   UNL A   1      47.626  28.062  32.443  1.00  0.00     0.001 A 
ATOM     79  C   UNL A   1      47.615  27.172  33.515  1.00  0.00     0.000 A 
ENDBRANCH  61  74
ENDBRANCH  35  36
ENDBRANCH  27  30
ENDBRANCH  25  26
ENDBRANCH  24  25
ENDBRANCH  23  24
ENDBRANCH   1  23
TORSDOF 15
ENDMDL
