MODEL 1
REMARK VINA RESULT:      -9.0      0.000      0.000
REMARK SMILES Cc1c(Cl)ccc2c(OCC(=O)NCCCCCCNC(=O)c3ccc(-c4c5nc(c(-c6ccccc6)c6ccc([nH]6)c(-c6ccccc6)c6nc(c(-c7ccccc7)c7ccc4[nH]7)C=C6)C=C5)cc3)ccnc12
REMARK SMILES IDX 16 1 15 2 14 3 13 4 11 5 12 6 10 8 9 9 8 10 1 11 2 12 3 13
REMARK SMILES IDX 74 14 4 15 5 16 7 17 73 18 6 19 72 20 71 21 17 22 18 23
REMARK SMILES IDX 19 24 20 25 21 26 22 28 23 29 24 30 70 31 25 32 69 33 26 34
REMARK SMILES IDX 27 35 28 36 63 37 29 38 68 39 62 40 64 41 30 42 67 43 61 44
REMARK SMILES IDX 60 45 31 47 53 48 38 49 52 50 39 51 42 52 51 53 65 54 40 55
REMARK SMILES IDX 41 56 50 58 66 59 43 60 32 61 33 62 37 63 34 64 36 65 35 66
REMARK SMILES IDX 54 67 55 68 59 69 56 70 58 71 57 72 44 73 45 74 49 75 46 76
REMARK SMILES IDX 48 77 47 78
REMARK H PARENT 13 7 20 27 64 46 42 57
REMARK Flexibility Score: inf
ROOT
ATOM      1  C   UNL A   1      34.011  36.360  33.471  1.00  0.00     0.002 C 
ENDROOT
BRANCH   1   2
ATOM      2  C   UNL A   1      34.362  34.889  33.207  1.00  0.00     0.021 C 
BRANCH   2   3
ATOM      3  C   UNL A   1      35.754  34.474  33.682  1.00  0.00     0.116 C 
BRANCH   3   4
ATOM      4  N   UNL A   1      35.738  34.028  35.061  1.00  0.00    -0.353 N 
ATOM      5  C   UNL A   1      36.776  33.594  35.830  1.00  0.00     0.257 C 
ATOM      6  O   UNL A   1      36.546  33.232  36.986  1.00  0.00    -0.271 OA
ATOM      7  H   UNL A   1      34.857  34.038  35.501  1.00  0.00     0.163 HD
BRANCH   5   8
ATOM      8  C   UNL A   1      38.203  33.606  35.267  1.00  0.00     0.329 C 
BRANCH   8   9
ATOM      9  O   UNL A   1      38.808  32.356  34.981  1.00  0.00    -0.483 OA
BRANCH   9  10
ATOM     10  C   UNL A   1      39.893  31.954  35.719  1.00  0.00     0.131 A 
ATOM     11  C   UNL A   1      43.380  28.574  36.539  1.00  0.00     0.048 C 
ATOM     12  C   UNL A   1      42.238  29.068  35.684  1.00  0.00    -0.006 A 
ATOM     13  C   UNL A   1      41.797  28.375  34.543  1.00  0.00     0.046 A 
ATOM     14  C   UNL A   1      41.604  30.264  36.065  1.00  0.00     0.078 A 
ATOM     15  Cl  UNL A   1      42.538  26.912  33.997  1.00  0.00    -0.084 Cl
ATOM     16  C   UNL A   1      40.726  28.853  33.794  1.00  0.00     0.022 A 
ATOM     17  C   UNL A   1      40.513  30.748  35.307  1.00  0.00     0.043 A 
ATOM     18  N   UNL A   1      42.049  30.929  37.148  1.00  0.00    -0.256 NA
ATOM     19  C   UNL A   1      40.084  30.026  34.176  1.00  0.00     0.016 A 
ATOM     20  C   UNL A   1      41.456  32.087  37.496  1.00  0.00     0.115 A 
ATOM     21  C   UNL A   1      40.392  32.641  36.818  1.00  0.00     0.067 A 
ENDBRANCH   9  10
ENDBRANCH   8   9
ENDBRANCH   5   8
ENDBRANCH   3   4
ENDBRANCH   2   3
ENDBRANCH   1   2
BRANCH   1  22
ATOM     22  C   UNL A   1      33.594  37.168  32.236  1.00  0.00     0.002 C 
BRANCH  22  23
ATOM     23  C   UNL A   1      32.735  36.407  31.225  1.00  0.00     0.021 C 
BRANCH  23  24
ATOM     24  C   UNL A   1      33.334  36.328  29.824  1.00  0.00     0.116 C 
BRANCH  24  25
ATOM     25  N   UNL A   1      32.641  35.359  28.991  1.00  0.00    -0.352 N 
ATOM     26  C   UNL A   1      33.121  34.196  28.445  1.00  0.00     0.251 C 
ATOM     27  H   UNL A   1      31.699  35.565  28.794  1.00  0.00     0.163 HD
ATOM     28  O   UNL A   1      32.474  33.587  27.598  1.00  0.00    -0.269 OA
BRANCH  26  29
ATOM     29  C   UNL A   1      34.435  33.683  28.877  1.00  0.00     0.039 A 
ATOM     30  C   UNL A   1      34.524  32.953  30.065  1.00  0.00     0.014 A 
ATOM     31  C   UNL A   1      35.577  33.936  28.110  1.00  0.00     0.014 A 
ATOM     32  C   UNL A   1      35.759  32.439  30.466  1.00  0.00     0.010 A 
ATOM     33  C   UNL A   1      36.796  33.379  28.483  1.00  0.00     0.010 A 
ATOM     34  C   UNL A   1      36.898  32.639  29.672  1.00  0.00    -0.014 A 
BRANCH  34  35
ATOM     35  C   UNL A   1      38.229  32.151  30.101  1.00  0.00     0.031 A 
ATOM     36  C   UNL A   1      38.708  30.810  29.622  1.00  0.00     0.074 A 
ATOM     37  C   UNL A   1      38.988  32.888  30.934  1.00  0.00     0.049 A 
ATOM     38  N   UNL A   1      39.806  30.170  29.933  1.00  0.00    -0.248 NA
ATOM     39  C   UNL A   1      37.837  30.087  28.676  1.00  0.00     0.031 C 
ATOM     40  C   UNL A   1      38.642  34.211  31.455  1.00  0.00     0.029 A 
ATOM     41  N   UNL A   1      40.218  32.625  31.485  1.00  0.00    -0.354 N 
ATOM     42  C   UNL A   1      39.756  28.976  29.226  1.00  0.00     0.074 A 
ATOM     43  C   UNL A   1      38.505  28.956  28.501  1.00  0.00     0.031 C 
ATOM     44  C   UNL A   1      39.649  34.656  32.226  1.00  0.00     0.029 A 
ATOM     45  C   UNL A   1      40.692  33.635  32.286  1.00  0.00     0.049 A 
ATOM     46  H   UNL A   1      40.713  31.790  31.321  1.00  0.00     0.167 HD
ATOM     47  C   UNL A   1      40.683  27.995  29.169  1.00  0.00     0.031 A 
ATOM     48  C   UNL A   1      41.837  33.726  32.990  1.00  0.00     0.031 A 
ATOM     49  C   UNL A   1      41.937  28.023  29.865  1.00  0.00     0.049 A 
ATOM     50  C   UNL A   1      42.816  32.584  32.959  1.00  0.00     0.074 A 
ATOM     51  C   UNL A   1      42.950  27.080  29.837  1.00  0.00     0.029 A 
ATOM     52  N   UNL A   1      42.354  29.041  30.704  1.00  0.00    -0.354 N 
ATOM     53  N   UNL A   1      42.762  31.471  32.272  1.00  0.00    -0.248 NA
ATOM     54  C   UNL A   1      44.014  32.711  33.805  1.00  0.00     0.031 C 
ATOM     55  C   UNL A   1      43.963  27.507  30.696  1.00  0.00     0.029 A 
ATOM     56  C   UNL A   1      43.601  28.738  31.218  1.00  0.00     0.049 A 
ATOM     57  H   UNL A   1      41.840  29.857  30.904  1.00  0.00     0.167 HD
ATOM     58  C   UNL A   1      43.927  30.778  32.580  1.00  0.00     0.074 A 
ATOM     59  C   UNL A   1      44.673  31.600  33.509  1.00  0.00     0.031 C 
ATOM     60  C   UNL A   1      44.336  29.568  32.133  1.00  0.00     0.031 A 
BRANCH  47  61
ATOM     61  C   UNL A   1      40.406  26.803  28.304  1.00  0.00    -0.014 A 
ATOM     62  C   UNL A   1      39.541  25.790  28.745  1.00  0.00     0.009 A 
ATOM     63  C   UNL A   1      40.889  26.768  26.986  1.00  0.00     0.009 A 
ATOM     64  C   UNL A   1      39.152  24.771  27.875  1.00  0.00     0.001 A 
ATOM     65  C   UNL A   1      40.483  25.758  26.114  1.00  0.00     0.001 A 
ATOM     66  C   UNL A   1      39.611  24.763  26.558  1.00  0.00     0.000 A 
ENDBRANCH  47  61
BRANCH  48  67
ATOM     67  C   UNL A   1      42.140  34.953  33.771  1.00  0.00    -0.014 A 
ATOM     68  C   UNL A   1      43.078  35.879  33.289  1.00  0.00     0.009 A 
ATOM     69  C   UNL A   1      41.508  35.202  34.999  1.00  0.00     0.009 A 
ATOM     70  C   UNL A   1      43.391  37.021  34.030  1.00  0.00     0.001 A 
ATOM     71  C   UNL A   1      41.805  36.358  35.725  1.00  0.00     0.001 A 
ATOM     72  C   UNL A   1      42.750  37.262  35.244  1.00  0.00     0.000 A 
ENDBRANCH  48  67
BRANCH  60  73
ATOM     73  C   UNL A   1      45.659  29.049  32.615  1.00  0.00    -0.014 A 
ATOM     74  C   UNL A   1      45.728  28.123  33.665  1.00  0.00     0.009 A 
ATOM     75  C   UNL A   1      46.836  29.401  31.933  1.00  0.00     0.009 A 
ATOM     76  C   UNL A   1      46.954  27.564  34.029  1.00  0.00     0.001 A 
ATOM     77  C   UNL A   1      48.055  28.823  32.284  1.00  0.00     0.001 A 
ATOM     78  C   UNL A   1      48.114  27.907  33.333  1.00  0.00     0.000 A 
ENDBRANCH  60  73
ENDBRANCH  34  35
ENDBRANCH  26  29
ENDBRANCH  24  25
ENDBRANCH  23  24
ENDBRANCH  22  23
ENDBRANCH   1  22
TORSDOF 15
ENDMDL
MODEL 2
REMARK VINA RESULT:      -8.8      5.117     11.230
REMARK SMILES Cc1c(Cl)ccc2c(OCC(=O)NCCCCCCNC(=O)c3ccc(-c4c5nc(c(-c6ccccc6)c6ccc([nH]6)c(-c6ccccc6)c6nc(c(-c7ccccc7)c7ccc4[nH]7)C=C6)C=C5)cc3)ccnc12
REMARK SMILES IDX 16 1 15 2 14 3 13 4 11 5 12 6 10 8 9 9 8 10 1 11 2 12 3 13
REMARK SMILES IDX 74 14 4 15 5 16 7 17 73 18 6 19 72 20 71 21 17 22 18 23
REMARK SMILES IDX 19 24 20 25 21 26 22 28 23 29 24 30 70 31 25 32 69 33 26 34
REMARK SMILES IDX 27 35 28 36 63 37 29 38 68 39 62 40 64 41 30 42 67 43 61 44
REMARK SMILES IDX 60 45 31 47 53 48 38 49 52 50 39 51 42 52 51 53 65 54 40 55
REMARK SMILES IDX 41 56 50 58 66 59 43 60 32 61 33 62 37 63 34 64 36 65 35 66
REMARK SMILES IDX 54 67 55 68 59 69 56 70 58 71 57 72 44 73 45 74 49 75 46 76
REMARK SMILES IDX 48 77 47 78
REMARK H PARENT 13 7 20 27 64 46 42 57
REMARK Flexibility Score: inf
ROOT
ATOM      1  C   UNL A   1      45.681  21.205  25.079  1.00  0.00     0.002 C 
ENDROOT
BRANCH   1   2
ATOM      2  C   UNL A   1      46.158  22.425  24.280  1.00  0.00     0.021 C 
BRANCH   2   3
ATOM      3  C   UNL A   1      46.184  23.732  25.072  1.00  0.00     0.116 C 
BRANCH   3   4
ATOM      4  N   UNL A   1      44.955  24.481  24.909  1.00  0.00    -0.353 N 
ATOM      5  C   UNL A   1      44.710  25.792  25.188  1.00  0.00     0.257 C 
ATOM      6  O   UNL A   1      43.576  26.237  24.998  1.00  0.00    -0.271 OA
ATOM      7  H   UNL A   1      44.192  23.973  24.549  1.00  0.00     0.163 HD
BRANCH   5   8
ATOM      8  C   UNL A   1      45.848  26.693  25.686  1.00  0.00     0.329 C 
BRANCH   8   9
ATOM      9  O   UNL A   1      45.515  27.737  26.586  1.00  0.00    -0.483 OA
BRANCH   9  10
ATOM     10  C   UNL A   1      46.375  28.798  26.726  1.00  0.00     0.131 A 
ATOM     11  C   UNL A   1      46.979  33.660  27.219  1.00  0.00     0.048 C 
ATOM     12  C   UNL A   1      46.043  32.478  27.147  1.00  0.00    -0.006 A 
ATOM     13  C   UNL A   1      44.647  32.616  27.227  1.00  0.00     0.046 A 
ATOM     14  C   UNL A   1      46.612  31.202  26.989  1.00  0.00     0.078 A 
ATOM     15  Cl  UNL A   1      43.873  34.146  27.446  1.00  0.00    -0.084 Cl
ATOM     16  C   UNL A   1      43.817  31.502  27.135  1.00  0.00     0.022 A 
ATOM     17  C   UNL A   1      45.771  30.069  26.890  1.00  0.00     0.043 A 
ATOM     18  N   UNL A   1      47.952  31.080  26.934  1.00  0.00    -0.256 NA
ATOM     19  C   UNL A   1      44.374  30.240  26.960  1.00  0.00     0.016 A 
ATOM     20  C   UNL A   1      48.495  29.854  26.807  1.00  0.00     0.115 A 
ATOM     21  C   UNL A   1      47.759  28.693  26.709  1.00  0.00     0.067 A 
ENDBRANCH   9  10
ENDBRANCH   8   9
ENDBRANCH   5   8
ENDBRANCH   3   4
ENDBRANCH   2   3
ENDBRANCH   1   2
BRANCH   1  22
ATOM     22  C   UNL A   1      44.784  20.226  24.312  1.00  0.00     0.002 C 
BRANCH  22  23
ATOM     23  C   UNL A   1      44.689  18.824  24.917  1.00  0.00     0.021 C 
BRANCH  23  24
ATOM     24  C   UNL A   1      43.780  18.726  26.137  1.00  0.00     0.116 C 
BRANCH  24  25
ATOM     25  N   UNL A   1      42.379  18.623  25.764  1.00  0.00    -0.352 N 
ATOM     26  C   UNL A   1      41.351  19.490  26.031  1.00  0.00     0.251 C 
ATOM     27  H   UNL A   1      42.135  17.820  25.247  1.00  0.00     0.163 HD
ATOM     28  O   UNL A   1      40.186  19.166  25.824  1.00  0.00    -0.269 OA
BRANCH  26  29
ATOM     29  C   UNL A   1      41.657  20.824  26.584  1.00  0.00     0.039 A 
ATOM     30  C   UNL A   1      41.591  21.020  27.966  1.00  0.00     0.014 A 
ATOM     31  C   UNL A   1      41.996  21.879  25.732  1.00  0.00     0.014 A 
ATOM     32  C   UNL A   1      41.907  22.271  28.499  1.00  0.00     0.010 A 
ATOM     33  C   UNL A   1      42.361  23.109  26.268  1.00  0.00     0.010 A 
ATOM     34  C   UNL A   1      42.305  23.319  27.655  1.00  0.00    -0.014 A 
BRANCH  34  35
ATOM     35  C   UNL A   1      42.593  24.669  28.189  1.00  0.00     0.031 A 
ATOM     36  C   UNL A   1      43.993  25.004  28.619  1.00  0.00     0.074 A 
ATOM     37  C   UNL A   1      41.605  25.576  28.316  1.00  0.00     0.049 A 
ATOM     38  N   UNL A   1      44.442  26.100  29.175  1.00  0.00    -0.248 NA
ATOM     39  C   UNL A   1      45.024  23.972  28.405  1.00  0.00     0.031 C 
ATOM     40  C   UNL A   1      40.210  25.376  27.920  1.00  0.00     0.029 A 
ATOM     41  N   UNL A   1      41.630  26.856  28.812  1.00  0.00    -0.354 N 
ATOM     42  C   UNL A   1      45.799  25.888  29.377  1.00  0.00     0.074 A 
ATOM     43  C   UNL A   1      46.098  24.549  28.924  1.00  0.00     0.031 C 
ATOM     44  C   UNL A   1      39.521  26.504  28.162  1.00  0.00     0.029 A 
ATOM     45  C   UNL A   1      40.413  27.490  28.766  1.00  0.00     0.049 A 
ATOM     46  H   UNL A   1      42.445  27.279  29.169  1.00  0.00     0.167 HD
ATOM     47  C   UNL A   1      46.718  26.745  29.874  1.00  0.00     0.031 A 
ATOM     48  C   UNL A   1      40.059  28.727  29.165  1.00  0.00     0.031 A 
ATOM     49  C   UNL A   1      46.430  28.085  30.299  1.00  0.00     0.049 A 
ATOM     50  C   UNL A   1      41.092  29.631  29.780  1.00  0.00     0.074 A 
ATOM     51  C   UNL A   1      47.312  29.033  30.788  1.00  0.00     0.029 A 
ATOM     52  N   UNL A   1      45.177  28.669  30.281  1.00  0.00    -0.354 N 
ATOM     53  N   UNL A   1      42.374  29.421  29.947  1.00  0.00    -0.248 NA
ATOM     54  C   UNL A   1      40.629  30.941  30.263  1.00  0.00     0.031 C 
ATOM     55  C   UNL A   1      46.583  30.178  31.109  1.00  0.00     0.029 A 
ATOM     56  C   UNL A   1      45.257  29.958  30.773  1.00  0.00     0.049 A 
ATOM     57  H   UNL A   1      44.352  28.232  29.966  1.00  0.00     0.167 HD
ATOM     58  C   UNL A   1      42.875  30.580  30.529  1.00  0.00     0.074 A 
ATOM     59  C   UNL A   1      41.761  31.493  30.677  1.00  0.00     0.031 C 
ATOM     60  C   UNL A   1      44.144  30.859  30.906  1.00  0.00     0.031 A 
BRANCH  47  61
ATOM     61  C   UNL A   1      48.142  26.287  29.970  1.00  0.00    -0.014 A 
ATOM     62  C   UNL A   1      49.023  26.480  28.896  1.00  0.00     0.009 A 
ATOM     63  C   UNL A   1      48.640  25.804  31.190  1.00  0.00     0.009 A 
ATOM     64  C   UNL A   1      50.385  26.211  29.049  1.00  0.00     0.001 A 
ATOM     65  C   UNL A   1      50.003  25.554  31.344  1.00  0.00     0.001 A 
ATOM     66  C   UNL A   1      50.874  25.762  30.275  1.00  0.00     0.000 A 
ENDBRANCH  47  61
BRANCH  48  67
ATOM     67  C   UNL A   1      38.663  29.201  28.981  1.00  0.00    -0.014 A 
ATOM     68  C   UNL A   1      37.746  29.116  30.041  1.00  0.00     0.009 A 
ATOM     69  C   UNL A   1      38.234  29.726  27.753  1.00  0.00     0.009 A 
ATOM     70  C   UNL A   1      36.424  29.533  29.869  1.00  0.00     0.001 A 
ATOM     71  C   UNL A   1      36.917  30.165  27.591  1.00  0.00     0.001 A 
ATOM     72  C   UNL A   1      36.012  30.061  28.646  1.00  0.00     0.000 A 
ENDBRANCH  48  67
BRANCH  60  73
ATOM     73  C   UNL A   1      44.423  32.208  31.502  1.00  0.00    -0.014 A 
ATOM     74  C   UNL A   1      44.361  32.407  32.888  1.00  0.00     0.009 A 
ATOM     75  C   UNL A   1      44.867  33.255  30.677  1.00  0.00     0.009 A 
ATOM     76  C   UNL A   1      44.730  33.636  33.438  1.00  0.00     0.001 A 
ATOM     77  C   UNL A   1      45.258  34.473  31.232  1.00  0.00     0.001 A 
ATOM     78  C   UNL A   1      45.187  34.663  32.611  1.00  0.00     0.000 A 
ENDBRANCH  60  73
ENDBRANCH  34  35
ENDBRANCH  26  29
ENDBRANCH  24  25
ENDBRANCH  23  24
ENDBRANCH  22  23
ENDBRANCH   1  22
TORSDOF 15
ENDMDL
MODEL 3
REMARK VINA RESULT:      -8.6      4.833     10.503
REMARK SMILES Cc1c(Cl)ccc2c(OCC(=O)NCCCCCCNC(=O)c3ccc(-c4c5nc(c(-c6ccccc6)c6ccc([nH]6)c(-c6ccccc6)c6nc(c(-c7ccccc7)c7ccc4[nH]7)C=C6)C=C5)cc3)ccnc12
REMARK SMILES IDX 16 1 15 2 14 3 13 4 11 5 12 6 10 8 9 9 8 10 1 11 2 12 3 13
REMARK SMILES IDX 74 14 4 15 5 16 7 17 73 18 6 19 72 20 71 21 17 22 18 23
REMARK SMILES IDX 19 24 20 25 21 26 22 28 23 29 24 30 70 31 25 32 69 33 26 34
REMARK SMILES IDX 27 35 28 36 63 37 29 38 68 39 62 40 64 41 30 42 67 43 61 44
REMARK SMILES IDX 60 45 31 47 53 48 38 49 52 50 39 51 42 52 51 53 65 54 40 55
REMARK SMILES IDX 41 56 50 58 66 59 43 60 32 61 33 62 37 63 34 64 36 65 35 66
REMARK SMILES IDX 54 67 55 68 59 69 56 70 58 71 57 72 44 73 45 74 49 75 46 76
REMARK SMILES IDX 48 77 47 78
REMARK H PARENT 13 7 20 27 64 46 42 57
REMARK Flexibility Score: inf
ROOT
ATOM      1  C   UNL A   1      31.320  29.594  24.860  1.00  0.00     0.002 C 
ENDROOT
BRANCH   1   2
ATOM      2  C   UNL A   1      32.275  28.946  23.848  1.00  0.00     0.021 C 
BRANCH   2   3
ATOM      3  C   UNL A   1      31.581  28.241  22.683  1.00  0.00     0.116 C 
BRANCH   3   4
ATOM      4  N   UNL A   1      32.501  27.408  21.936  1.00  0.00    -0.353 N 
ATOM      5  C   UNL A   1      32.690  26.061  22.015  1.00  0.00     0.257 C 
ATOM      6  O   UNL A   1      33.551  25.540  21.302  1.00  0.00    -0.271 OA
ATOM      7  H   UNL A   1      33.069  27.880  21.284  1.00  0.00     0.163 HD
BRANCH   5   8
ATOM      8  C   UNL A   1      31.809  25.219  22.946  1.00  0.00     0.329 C 
BRANCH   8   9
ATOM      9  O   UNL A   1      32.389  24.743  24.149  1.00  0.00    -0.483 OA
BRANCH   9  10
ATOM     10  C   UNL A   1      32.822  23.441  24.214  1.00  0.00     0.131 A 
ATOM     11  C   UNL A   1      36.512  20.293  25.063  1.00  0.00     0.048 C 
ATOM     12  C   UNL A   1      36.002  21.714  25.069  1.00  0.00    -0.006 A 
ATOM     13  C   UNL A   1      36.806  22.802  25.453  1.00  0.00     0.046 A 
ATOM     14  C   UNL A   1      34.673  21.934  24.665  1.00  0.00     0.078 A 
ATOM     15  Cl  UNL A   1      38.440  22.611  25.983  1.00  0.00    -0.084 Cl
ATOM     16  C   UNL A   1      36.304  24.099  25.423  1.00  0.00     0.022 A 
ATOM     17  C   UNL A   1      34.164  23.253  24.629  1.00  0.00     0.043 A 
ATOM     18  N   UNL A   1      33.907  20.882  24.319  1.00  0.00    -0.256 NA
ATOM     19  C   UNL A   1      34.996  24.324  25.008  1.00  0.00     0.016 A 
ATOM     20  C   UNL A   1      32.628  21.094  23.957  1.00  0.00     0.115 A 
ATOM     21  C   UNL A   1      32.041  22.339  23.896  1.00  0.00     0.067 A 
ENDBRANCH   9  10
ENDBRANCH   8   9
ENDBRANCH   5   8
ENDBRANCH   3   4
ENDBRANCH   2   3
ENDBRANCH   1   2
BRANCH   1  22
ATOM     22  C   UNL A   1      31.551  29.204  26.325  1.00  0.00     0.002 C 
BRANCH  22  23
ATOM     23  C   UNL A   1      32.598  28.111  26.546  1.00  0.00     0.021 C 
BRANCH  23  24
ATOM     24  C   UNL A   1      33.861  28.585  27.257  1.00  0.00     0.116 C 
BRANCH  24  25
ATOM     25  N   UNL A   1      33.763  29.977  27.666  1.00  0.00    -0.352 N 
ATOM     26  C   UNL A   1      34.680  30.741  28.341  1.00  0.00     0.251 C 
ATOM     27  H   UNL A   1      32.924  30.433  27.425  1.00  0.00     0.163 HD
ATOM     28  O   UNL A   1      34.372  31.840  28.792  1.00  0.00    -0.269 OA
BRANCH  26  29
ATOM     29  C   UNL A   1      36.050  30.225  28.532  1.00  0.00     0.039 A 
ATOM     30  C   UNL A   1      36.398  29.658  29.761  1.00  0.00     0.014 A 
ATOM     31  C   UNL A   1      36.988  30.316  27.499  1.00  0.00     0.014 A 
ATOM     32  C   UNL A   1      37.683  29.141  29.940  1.00  0.00     0.010 A 
ATOM     33  C   UNL A   1      38.249  29.755  27.661  1.00  0.00     0.010 A 
ATOM     34  C   UNL A   1      38.611  29.176  28.887  1.00  0.00    -0.014 A 
BRANCH  34  35
ATOM     35  C   UNL A   1      39.996  28.684  29.069  1.00  0.00     0.031 A 
ATOM     36  C   UNL A   1      41.022  29.592  29.687  1.00  0.00     0.074 A 
ATOM     37  C   UNL A   1      40.339  27.449  28.658  1.00  0.00     0.049 A 
ATOM     38  N   UNL A   1      42.300  29.383  29.873  1.00  0.00    -0.248 NA
ATOM     39  C   UNL A   1      40.554  30.911  30.152  1.00  0.00     0.031 C 
ATOM     40  C   UNL A   1      39.432  26.469  28.058  1.00  0.00     0.029 A 
ATOM     41  N   UNL A   1      41.551  26.804  28.689  1.00  0.00    -0.354 N 
ATOM     42  C   UNL A   1      42.785  30.538  30.470  1.00  0.00     0.074 A 
ATOM     43  C   UNL A   1      41.680  31.463  30.581  1.00  0.00     0.031 C 
ATOM     44  C   UNL A   1      40.114  25.338  27.806  1.00  0.00     0.029 A 
ATOM     45  C   UNL A   1      41.511  25.527  28.187  1.00  0.00     0.049 A 
ATOM     46  H   UNL A   1      42.373  27.221  29.038  1.00  0.00     0.167 HD
ATOM     47  C   UNL A   1      44.037  30.795  30.907  1.00  0.00     0.031 A 
ATOM     48  C   UNL A   1      42.491  24.612  28.050  1.00  0.00     0.031 A 
ATOM     49  C   UNL A   1      45.131  29.869  30.822  1.00  0.00     0.049 A 
ATOM     50  C   UNL A   1      43.889  24.956  28.484  1.00  0.00     0.074 A 
ATOM     51  C   UNL A   1      46.429  30.039  31.272  1.00  0.00     0.029 A 
ATOM     52  N   UNL A   1      45.058  28.607  30.263  1.00  0.00    -0.354 N 
ATOM     53  N   UNL A   1      44.328  26.046  29.063  1.00  0.00    -0.248 NA
ATOM     54  C   UNL A   1      44.930  23.943  28.242  1.00  0.00     0.031 C 
ATOM     55  C   UNL A   1      47.155  28.894  30.943  1.00  0.00     0.029 A 
ATOM     56  C   UNL A   1      46.295  27.994  30.334  1.00  0.00     0.049 A 
ATOM     57  H   UNL A   1      44.247  28.205  29.873  1.00  0.00     0.167 HD
ATOM     58  C   UNL A   1      45.685  25.841  29.278  1.00  0.00     0.074 A 
ATOM     59  C   UNL A   1      45.998  24.519  28.777  1.00  0.00     0.031 C 
ATOM     60  C   UNL A   1      46.590  26.676  29.840  1.00  0.00     0.031 A 
BRANCH  47  61
ATOM     61  C   UNL A   1      44.311  32.121  31.549  1.00  0.00    -0.014 A 
ATOM     62  C   UNL A   1      44.641  33.235  30.763  1.00  0.00     0.009 A 
ATOM     63  C   UNL A   1      44.086  32.292  32.923  1.00  0.00     0.009 A 
ATOM     64  C   UNL A   1      44.727  34.502  31.343  1.00  0.00     0.001 A 
ATOM     65  C   UNL A   1      44.155  33.562  33.495  1.00  0.00     0.001 A 
ATOM     66  C   UNL A   1      44.471  34.666  32.704  1.00  0.00     0.000 A 
ENDBRANCH  47  61
BRANCH  48  67
ATOM     67  C   UNL A   1      42.186  23.268  27.496  1.00  0.00    -0.014 A 
ATOM     68  C   UNL A   1      42.510  22.968  26.163  1.00  0.00     0.009 A 
ATOM     69  C   UNL A   1      41.566  22.285  28.282  1.00  0.00     0.009 A 
ATOM     70  C   UNL A   1      42.202  21.716  25.624  1.00  0.00     0.001 A 
ATOM     71  C   UNL A   1      41.282  21.026  27.747  1.00  0.00     0.001 A 
ATOM     72  C   UNL A   1      41.593  20.746  26.418  1.00  0.00     0.000 A 
ENDBRANCH  48  67
BRANCH  60  73
ATOM     73  C   UNL A   1      48.006  26.198  29.971  1.00  0.00    -0.014 A 
ATOM     74  C   UNL A   1      48.930  26.399  28.935  1.00  0.00     0.009 A 
ATOM     75  C   UNL A   1      48.446  25.648  31.186  1.00  0.00     0.009 A 
ATOM     76  C   UNL A   1      50.270  26.050  29.112  1.00  0.00     0.001 A 
ATOM     77  C   UNL A   1      49.791  25.323  31.368  1.00  0.00     0.001 A 
ATOM     78  C   UNL A   1      50.701  25.522  30.330  1.00  0.00     0.000 A 
ENDBRANCH  60  73
ENDBRANCH  34  35
ENDBRANCH  26  29
ENDBRANCH  24  25
ENDBRANCH  23  24
ENDBRANCH  22  23
ENDBRANCH   1  22
TORSDOF 15
ENDMDL
