MODEL 1
REMARK VINA RESULT:     -12.9      0.000      0.000
REMARK SMILES O=C(NCCCCCCNC(=O)c1ccc(-c2c3nc(c(-c4ccccc4)c4ccc([nH]4)c(-c4ccccc4)c4nc(c(-c5ccccc5)c5ccc2[nH]5)C=C4)C=C3)cc1)c1ccc(NC(=O)[C@@H]2CC=CC[C@H]2C(=O)Nc2cccc([N+](=O)[O-])c2)cc1
REMARK SMILES IDX 5 1 4 2 3 3 1 4 2 5 61 7 62 8 87 9 63 10 86 11 64 12 65 13
REMARK SMILES IDX 66 14 67 16 68 17 69 18 73 19 70 20 72 21 71 22 74 23 75 24
REMARK SMILES IDX 76 25 77 27 78 28 85 29 79 30 81 31 80 32 82 33 83 34 84 35
REMARK SMILES IDX 6 36 7 37 8 38 9 39 10 40 11 41 12 43 13 44 14 45 60 46
REMARK SMILES IDX 15 47 59 48 16 49 17 50 18 51 53 52 19 53 58 54 52 55 54 56
REMARK SMILES IDX 20 57 57 58 51 59 50 60 21 62 43 63 28 64 42 65 29 66 32 67
REMARK SMILES IDX 41 68 55 69 30 70 31 71 40 73 56 74 33 75 22 76 23 77 27 78
REMARK SMILES IDX 24 79 26 80 25 81 44 82 45 83 49 84 46 85 48 86 47 87 34 88
REMARK SMILES IDX 35 89 39 90 36 91 38 92 37 93
REMARK H PARENT 3 6 65 15 76 26 10 42 54 61 32 72
REMARK Flexibility Score: inf
ROOT
ATOM      1  C   UNL A   1      32.806  30.158  26.953  1.00  0.00     0.021 C 
ENDROOT
BRANCH   1   2
ATOM      2  C   UNL A   1      32.706  29.680  25.513  1.00  0.00     0.116 C 
BRANCH   2   3
ATOM      3  N   UNL A   1      31.462  30.070  24.862  1.00  0.00    -0.352 N 
ATOM      4  O   UNL A   1      29.700  29.794  23.453  1.00  0.00    -0.269 OA
ATOM      5  C   UNL A   1      30.659  29.314  24.031  1.00  0.00     0.251 C 
ATOM      6  H   UNL A   1      31.155  30.988  25.037  1.00  0.00     0.163 HD
BRANCH   5   7
ATOM      7  C   UNL A   1      31.010  27.892  23.846  1.00  0.00     0.039 A 
ATOM      8  C   UNL A   1      31.732  27.527  22.716  1.00  0.00     0.016 A 
ATOM      9  C   UNL A   1      30.512  26.920  24.713  1.00  0.00     0.016 A 
ATOM     10  C   UNL A   1      31.804  26.189  22.364  1.00  0.00     0.027 A 
ATOM     11  C   UNL A   1      30.657  25.568  24.381  1.00  0.00     0.027 A 
ATOM     12  C   UNL A   1      31.293  25.194  23.189  1.00  0.00     0.041 A 
BRANCH  12  13
ATOM     13  N   UNL A   1      31.339  23.835  22.860  1.00  0.00    -0.326 N 
ATOM     14  C   UNL A   1      32.293  22.874  22.993  1.00  0.00     0.228 C 
ATOM     15  H   UNL A   1      30.509  23.505  22.447  1.00  0.00     0.169 HD
ATOM     16  O   UNL A   1      32.106  21.818  22.373  1.00  0.00    -0.274 OA
BRANCH  14  17
ATOM     17  C   UNL A   1      33.536  22.980  23.882  1.00  0.00     0.095 C 
ATOM     18  C   UNL A   1      34.633  23.926  23.353  1.00  0.00     0.041 C 
ATOM     19  C   UNL A   1      33.942  21.616  24.476  1.00  0.00     0.095 C 
ATOM     20  C   UNL A   1      36.043  23.452  23.493  1.00  0.00    -0.030 C 
ATOM     21  C   UNL A   1      35.434  21.428  24.824  1.00  0.00     0.041 C 
ATOM     22  C   UNL A   1      36.398  22.340  24.142  1.00  0.00    -0.030 C 
BRANCH  19  23
ATOM     23  C   UNL A   1      33.088  21.082  25.649  1.00  0.00     0.228 C 
ATOM     24  O   UNL A   1      32.753  21.867  26.546  1.00  0.00    -0.274 OA
ATOM     25  N   UNL A   1      32.501  19.843  25.660  1.00  0.00    -0.326 N 
ATOM     26  H   UNL A   1      31.798  19.719  26.338  1.00  0.00     0.169 HD
BRANCH  25  27
ATOM     27  C   UNL A   1      32.749  18.729  24.855  1.00  0.00     0.048 A 
ATOM     28  C   UNL A   1      32.522  18.810  23.481  1.00  0.00     0.026 A 
ATOM     29  C   UNL A   1      33.183  17.532  25.409  1.00  0.00     0.111 A 
ATOM     30  C   UNL A   1      32.903  17.752  22.649  1.00  0.00     0.009 A 
ATOM     31  C   UNL A   1      33.629  16.503  24.577  1.00  0.00     0.271 A 
ATOM     32  C   UNL A   1      33.498  16.610  23.190  1.00  0.00     0.086 A 
BRANCH  31  33
ATOM     33  N   UNL A   1      34.310  15.346  25.170  1.00  0.00     0.062 N 
ATOM     34  O   UNL A   1      33.635  14.332  25.390  1.00  0.00    -0.258 OA
ATOM     35  O   UNL A   1      35.528  15.439  25.378  1.00  0.00    -0.258 OA
ENDBRANCH  31  33
ENDBRANCH  25  27
ENDBRANCH  19  23
ENDBRANCH  14  17
ENDBRANCH  12  13
ENDBRANCH   5   7
ENDBRANCH   2   3
ENDBRANCH   1   2
BRANCH   1  36
ATOM     36  C   UNL A   1      34.229  30.329  27.475  1.00  0.00     0.002 C 
BRANCH  36  37
ATOM     37  C   UNL A   1      34.599  31.743  27.934  1.00  0.00     0.002 C 
BRANCH  37  38
ATOM     38  C   UNL A   1      33.512  32.809  27.767  1.00  0.00     0.021 C 
BRANCH  38  39
ATOM     39  C   UNL A   1      33.930  34.238  28.101  1.00  0.00     0.116 C 
BRANCH  39  40
ATOM     40  N   UNL A   1      33.308  34.739  29.314  1.00  0.00    -0.352 N 
ATOM     41  C   UNL A   1      33.656  34.541  30.626  1.00  0.00     0.251 C 
ATOM     42  H   UNL A   1      32.516  35.307  29.173  1.00  0.00     0.163 HD
ATOM     43  O   UNL A   1      32.926  34.955  31.523  1.00  0.00    -0.269 OA
BRANCH  41  44
ATOM     44  C   UNL A   1      34.892  33.807  30.969  1.00  0.00     0.039 A 
ATOM     45  C   UNL A   1      34.783  32.636  31.725  1.00  0.00     0.014 A 
ATOM     46  C   UNL A   1      36.150  34.272  30.575  1.00  0.00     0.014 A 
ATOM     47  C   UNL A   1      35.927  31.901  32.038  1.00  0.00     0.010 A 
ATOM     48  C   UNL A   1      37.285  33.507  30.838  1.00  0.00     0.010 A 
ATOM     49  C   UNL A   1      37.184  32.316  31.573  1.00  0.00    -0.014 A 
BRANCH  49  50
ATOM     50  C   UNL A   1      38.403  31.516  31.844  1.00  0.00     0.031 A 
ATOM     51  C   UNL A   1      39.283  31.847  33.016  1.00  0.00     0.074 A 
ATOM     52  C   UNL A   1      38.752  30.528  30.999  1.00  0.00     0.049 A 
ATOM     53  N   UNL A   1      40.417  31.300  33.377  1.00  0.00    -0.248 NA
ATOM     54  C   UNL A   1      38.842  32.951  33.883  1.00  0.00     0.031 C 
ATOM     55  C   UNL A   1      38.005  30.131  29.803  1.00  0.00     0.029 A 
ATOM     56  N   UNL A   1      39.834  29.683  31.013  1.00  0.00    -0.354 N 
ATOM     57  C   UNL A   1      40.832  32.004  34.500  1.00  0.00     0.074 A 
ATOM     58  C   UNL A   1      39.852  33.042  34.736  1.00  0.00     0.031 C 
ATOM     59  C   UNL A   1      38.643  29.110  29.208  1.00  0.00     0.029 A 
ATOM     60  C   UNL A   1      39.856  28.803  29.960  1.00  0.00     0.049 A 
ATOM     61  H   UNL A   1      40.527  29.706  31.711  1.00  0.00     0.167 HD
ATOM     62  C   UNL A   1      41.924  31.798  35.275  1.00  0.00     0.031 A 
ATOM     63  C   UNL A   1      40.755  27.857  29.629  1.00  0.00     0.031 A 
ATOM     64  C   UNL A   1      42.896  30.762  35.049  1.00  0.00     0.049 A 
ATOM     65  C   UNL A   1      41.957  27.645  30.505  1.00  0.00     0.074 A 
ATOM     66  C   UNL A   1      44.009  30.442  35.808  1.00  0.00     0.029 A 
ATOM     67  N   UNL A   1      42.873  29.880  33.981  1.00  0.00    -0.354 N 
ATOM     68  N   UNL A   1      42.306  28.281  31.596  1.00  0.00    -0.248 NA
ATOM     69  C   UNL A   1      42.883  26.575  30.107  1.00  0.00     0.031 C 
ATOM     70  C   UNL A   1      44.680  29.387  35.178  1.00  0.00     0.029 A 
ATOM     71  C   UNL A   1      43.961  29.024  34.050  1.00  0.00     0.049 A 
ATOM     72  H   UNL A   1      42.185  29.863  33.276  1.00  0.00     0.167 HD
ATOM     73  C   UNL A   1      43.480  27.678  32.026  1.00  0.00     0.074 A 
ATOM     74  C   UNL A   1      43.774  26.615  31.087  1.00  0.00     0.031 C 
ATOM     75  C   UNL A   1      44.243  27.977  33.105  1.00  0.00     0.031 A 
BRANCH  62  76
ATOM     76  C   UNL A   1      42.121  32.724  36.442  1.00  0.00    -0.014 A 
ATOM     77  C   UNL A   1      41.566  32.434  37.699  1.00  0.00     0.009 A 
ATOM     78  C   UNL A   1      42.883  33.892  36.288  1.00  0.00     0.009 A 
ATOM     79  C   UNL A   1      41.738  33.316  38.768  1.00  0.00     0.001 A 
ATOM     80  C   UNL A   1      43.075  34.758  37.365  1.00  0.00     0.001 A 
ATOM     81  C   UNL A   1      42.493  34.476  38.600  1.00  0.00     0.000 A 
ENDBRANCH  62  76
BRANCH  63  82
ATOM     82  C   UNL A   1      40.541  27.028  28.417  1.00  0.00    -0.014 A 
ATOM     83  C   UNL A   1      41.167  27.365  27.208  1.00  0.00     0.009 A 
ATOM     84  C   UNL A   1      39.723  25.889  28.468  1.00  0.00     0.009 A 
ATOM     85  C   UNL A   1      40.962  26.587  26.067  1.00  0.00     0.001 A 
ATOM     86  C   UNL A   1      39.539  25.100  27.331  1.00  0.00     0.001 A 
ATOM     87  C   UNL A   1      40.152  25.453  26.130  1.00  0.00     0.000 A 
ENDBRANCH  63  82
BRANCH  75  88
ATOM     88  C   UNL A   1      45.458  27.127  33.339  1.00  0.00    -0.014 A 
ATOM     89  C   UNL A   1      46.693  27.451  32.757  1.00  0.00     0.009 A 
ATOM     90  C   UNL A   1      45.373  26.008  34.183  1.00  0.00     0.009 A 
ATOM     91  C   UNL A   1      47.815  26.653  32.994  1.00  0.00     0.001 A 
ATOM     92  C   UNL A   1      46.501  25.226  34.437  1.00  0.00     0.001 A 
ATOM     93  C   UNL A   1      47.718  25.545  33.836  1.00  0.00     0.000 A 
ENDBRANCH  75  88
ENDBRANCH  49  50
ENDBRANCH  41  44
ENDBRANCH  39  40
ENDBRANCH  38  39
ENDBRANCH  37  38
ENDBRANCH  36  37
ENDBRANCH   1  36
TORSDOF 18
ENDMDL
MODEL 2
REMARK VINA RESULT:     -12.4      1.283      5.691
REMARK SMILES O=C(NCCCCCCNC(=O)c1ccc(-c2c3nc(c(-c4ccccc4)c4ccc([nH]4)c(-c4ccccc4)c4nc(c(-c5ccccc5)c5ccc2[nH]5)C=C4)C=C3)cc1)c1ccc(NC(=O)[C@@H]2CC=CC[C@H]2C(=O)Nc2cccc([N+](=O)[O-])c2)cc1
REMARK SMILES IDX 5 1 4 2 3 3 1 4 2 5 61 7 62 8 87 9 63 10 86 11 64 12 65 13
REMARK SMILES IDX 66 14 67 16 68 17 69 18 73 19 70 20 72 21 71 22 74 23 75 24
REMARK SMILES IDX 76 25 77 27 78 28 85 29 79 30 81 31 80 32 82 33 83 34 84 35
REMARK SMILES IDX 6 36 7 37 8 38 9 39 10 40 11 41 12 43 13 44 14 45 60 46
REMARK SMILES IDX 15 47 59 48 16 49 17 50 18 51 53 52 19 53 58 54 52 55 54 56
REMARK SMILES IDX 20 57 57 58 51 59 50 60 21 62 43 63 28 64 42 65 29 66 32 67
REMARK SMILES IDX 41 68 55 69 30 70 31 71 40 73 56 74 33 75 22 76 23 77 27 78
REMARK SMILES IDX 24 79 26 80 25 81 44 82 45 83 49 84 46 85 48 86 47 87 34 88
REMARK SMILES IDX 35 89 39 90 36 91 38 92 37 93
REMARK H PARENT 3 6 65 15 76 26 10 42 54 61 32 72
REMARK Flexibility Score: inf
ROOT
ATOM      1  C   UNL A   1      35.792  30.299  27.710  1.00  0.00     0.021 C 
ENDROOT
BRANCH   1   2
ATOM      2  C   UNL A   1      34.774  29.343  27.110  1.00  0.00     0.116 C 
BRANCH   2   3
ATOM      3  N   UNL A   1      33.524  29.992  26.738  1.00  0.00    -0.352 N 
ATOM      4  O   UNL A   1      31.600  30.230  25.551  1.00  0.00    -0.269 OA
ATOM      5  C   UNL A   1      32.551  29.538  25.869  1.00  0.00     0.251 C 
ATOM      6  H   UNL A   1      33.351  30.864  27.160  1.00  0.00     0.163 HD
BRANCH   5   7
ATOM      7  C   UNL A   1      32.706  28.178  25.316  1.00  0.00     0.039 A 
ATOM      8  C   UNL A   1      33.273  28.033  24.057  1.00  0.00     0.016 A 
ATOM      9  C   UNL A   1      32.170  27.076  25.983  1.00  0.00     0.016 A 
ATOM     10  C   UNL A   1      33.148  26.823  23.394  1.00  0.00     0.027 A 
ATOM     11  C   UNL A   1      32.116  25.840  25.328  1.00  0.00     0.027 A 
ATOM     12  C   UNL A   1      32.594  25.711  24.016  1.00  0.00     0.041 A 
BRANCH  12  13
ATOM     13  N   UNL A   1      32.441  24.477  23.374  1.00  0.00    -0.326 N 
ATOM     14  C   UNL A   1      33.208  23.355  23.316  1.00  0.00     0.228 C 
ATOM     15  H   UNL A   1      31.606  24.405  22.858  1.00  0.00     0.169 HD
ATOM     16  O   UNL A   1      32.902  22.519  22.453  1.00  0.00    -0.274 OA
BRANCH  14  17
ATOM     17  C   UNL A   1      34.371  23.029  24.258  1.00  0.00     0.095 C 
ATOM     18  C   UNL A   1      35.710  23.702  23.892  1.00  0.00     0.041 C 
ATOM     19  C   UNL A   1      34.367  21.549  24.693  1.00  0.00     0.095 C 
ATOM     20  C   UNL A   1      36.935  22.858  24.026  1.00  0.00    -0.030 C 
ATOM     21  C   UNL A   1      35.732  20.935  25.072  1.00  0.00     0.041 C 
ATOM     22  C   UNL A   1      36.945  21.627  24.545  1.00  0.00    -0.030 C 
BRANCH  19  23
ATOM     23  C   UNL A   1      33.325  21.136  25.757  1.00  0.00     0.228 C 
ATOM     24  O   UNL A   1      33.015  21.953  26.634  1.00  0.00    -0.274 OA
ATOM     25  N   UNL A   1      32.566  19.998  25.676  1.00  0.00    -0.326 N 
ATOM     26  H   UNL A   1      31.784  19.972  26.274  1.00  0.00     0.169 HD
BRANCH  25  27
ATOM     27  C   UNL A   1      32.732  18.867  24.873  1.00  0.00     0.048 A 
ATOM     28  C   UNL A   1      32.491  18.956  23.502  1.00  0.00     0.026 A 
ATOM     29  C   UNL A   1      33.098  17.647  25.427  1.00  0.00     0.111 A 
ATOM     30  C   UNL A   1      32.793  17.874  22.670  1.00  0.00     0.009 A 
ATOM     31  C   UNL A   1      33.467  16.589  24.594  1.00  0.00     0.271 A 
ATOM     32  C   UNL A   1      33.323  16.699  23.208  1.00  0.00     0.086 A 
BRANCH  31  33
ATOM     33  N   UNL A   1      34.082  15.395  25.183  1.00  0.00     0.062 N 
ATOM     34  O   UNL A   1      35.308  15.406  25.359  1.00  0.00    -0.258 OA
ATOM     35  O   UNL A   1      33.334  14.461  25.507  1.00  0.00    -0.258 OA
ENDBRANCH  31  33
ENDBRANCH  25  27
ENDBRANCH  19  23
ENDBRANCH  14  17
ENDBRANCH  12  13
ENDBRANCH   5   7
ENDBRANCH   2   3
ENDBRANCH   1   2
BRANCH   1  36
ATOM     36  C   UNL A   1      35.213  31.329  28.676  1.00  0.00     0.002 C 
BRANCH  36  37
ATOM     37  C   UNL A   1      35.133  32.763  28.144  1.00  0.00     0.002 C 
BRANCH  37  38
ATOM     38  C   UNL A   1      33.760  33.435  28.229  1.00  0.00     0.021 C 
BRANCH  38  39
ATOM     39  C   UNL A   1      33.774  34.937  28.501  1.00  0.00     0.116 C 
BRANCH  39  40
ATOM     40  N   UNL A   1      33.048  35.299  29.705  1.00  0.00    -0.352 N 
ATOM     41  C   UNL A   1      33.306  34.981  31.014  1.00  0.00     0.251 C 
ATOM     42  H   UNL A   1      32.251  35.859  29.560  1.00  0.00     0.163 HD
ATOM     43  O   UNL A   1      32.498  35.285  31.888  1.00  0.00    -0.269 OA
BRANCH  41  44
ATOM     44  C   UNL A   1      34.536  34.248  31.378  1.00  0.00     0.039 A 
ATOM     45  C   UNL A   1      35.770  34.860  31.141  1.00  0.00     0.014 A 
ATOM     46  C   UNL A   1      34.485  32.962  31.923  1.00  0.00     0.014 A 
ATOM     47  C   UNL A   1      36.951  34.208  31.503  1.00  0.00     0.010 A 
ATOM     48  C   UNL A   1      35.659  32.337  32.337  1.00  0.00     0.010 A 
ATOM     49  C   UNL A   1      36.903  32.954  32.130  1.00  0.00    -0.014 A 
BRANCH  49  50
ATOM     50  C   UNL A   1      38.143  32.274  32.576  1.00  0.00     0.031 A 
ATOM     51  C   UNL A   1      38.749  31.179  31.745  1.00  0.00     0.074 A 
ATOM     52  C   UNL A   1      38.691  32.600  33.762  1.00  0.00     0.049 A 
ATOM     53  N   UNL A   1      39.793  30.430  32.000  1.00  0.00    -0.248 NA
ATOM     54  C   UNL A   1      38.082  30.870  30.470  1.00  0.00     0.031 C 
ATOM     55  C   UNL A   1      38.179  33.618  34.682  1.00  0.00     0.029 A 
ATOM     56  N   UNL A   1      39.797  32.098  34.401  1.00  0.00    -0.354 N 
ATOM     57  C   UNL A   1      39.897  29.552  30.929  1.00  0.00     0.074 A 
ATOM     58  C   UNL A   1      38.787  29.833  30.043  1.00  0.00     0.031 C 
ATOM     59  C   UNL A   1      38.979  33.677  35.758  1.00  0.00     0.029 A 
ATOM     60  C   UNL A   1      40.037  32.681  35.621  1.00  0.00     0.049 A 
ATOM     61  H   UNL A   1      40.364  31.390  34.021  1.00  0.00     0.167 HD
ATOM     62  C   UNL A   1      40.838  28.607  30.695  1.00  0.00     0.031 A 
ATOM     63  C   UNL A   1      40.998  32.438  36.531  1.00  0.00     0.031 A 
ATOM     64  C   UNL A   1      41.946  28.330  31.570  1.00  0.00     0.049 A 
ATOM     65  C   UNL A   1      42.032  31.386  36.250  1.00  0.00     0.074 A 
ATOM     66  C   UNL A   1      42.980  27.426  31.394  1.00  0.00     0.029 A 
ATOM     67  N   UNL A   1      42.164  28.955  32.787  1.00  0.00    -0.354 N 
ATOM     68  N   UNL A   1      42.149  30.603  35.206  1.00  0.00    -0.248 NA
ATOM     69  C   UNL A   1      43.072  31.193  37.270  1.00  0.00     0.031 C 
ATOM     70  C   UNL A   1      43.803  27.478  32.524  1.00  0.00     0.029 A 
ATOM     71  C   UNL A   1      43.306  28.445  33.383  1.00  0.00     0.049 A 
ATOM     72  H   UNL A   1      41.591  29.657  33.172  1.00  0.00     0.167 HD
ATOM     73  C   UNL A   1      43.286  29.839  35.432  1.00  0.00     0.074 A 
ATOM     74  C   UNL A   1      43.830  30.263  36.706  1.00  0.00     0.031 C 
ATOM     75  C   UNL A   1      43.830  28.873  34.652  1.00  0.00     0.031 A 
BRANCH  62  76
ATOM     76  C   UNL A   1      40.698  27.797  29.437  1.00  0.00    -0.014 A 
ATOM     77  C   UNL A   1      39.822  26.701  29.374  1.00  0.00     0.009 A 
ATOM     78  C   UNL A   1      41.439  28.142  28.296  1.00  0.00     0.009 A 
ATOM     79  C   UNL A   1      39.721  25.943  28.206  1.00  0.00     0.001 A 
ATOM     80  C   UNL A   1      41.316  27.398  27.122  1.00  0.00     0.001 A 
ATOM     81  C   UNL A   1      40.466  26.293  27.081  1.00  0.00     0.000 A 
ENDBRANCH  62  76
BRANCH  63  82
ATOM     82  C   UNL A   1      41.033  33.221  37.792  1.00  0.00    -0.014 A 
ATOM     83  C   UNL A   1      41.727  34.438  37.851  1.00  0.00     0.009 A 
ATOM     84  C   UNL A   1      40.362  32.762  38.935  1.00  0.00     0.009 A 
ATOM     85  C   UNL A   1      41.764  35.173  39.039  1.00  0.00     0.001 A 
ATOM     86  C   UNL A   1      40.382  33.510  40.114  1.00  0.00     0.001 A 
ATOM     87  C   UNL A   1      41.088  34.710  40.167  1.00  0.00     0.000 A 
ENDBRANCH  63  82
BRANCH  75  88
ATOM     88  C   UNL A   1      45.092  28.227  35.146  1.00  0.00    -0.014 A 
ATOM     89  C   UNL A   1      45.054  27.043  35.899  1.00  0.00     0.009 A 
ATOM     90  C   UNL A   1      46.336  28.792  34.822  1.00  0.00     0.009 A 
ATOM     91  C   UNL A   1      46.239  26.451  36.341  1.00  0.00     0.001 A 
ATOM     92  C   UNL A   1      47.519  28.185  35.247  1.00  0.00     0.001 A 
ATOM     93  C   UNL A   1      47.469  27.020  36.012  1.00  0.00     0.000 A 
ENDBRANCH  75  88
ENDBRANCH  49  50
ENDBRANCH  41  44
ENDBRANCH  39  40
ENDBRANCH  38  39
ENDBRANCH  37  38
ENDBRANCH  36  37
ENDBRANCH   1  36
TORSDOF 18
ENDMDL
MODEL 3
REMARK VINA RESULT:     -12.3      4.254     10.229
REMARK SMILES O=C(NCCCCCCNC(=O)c1ccc(-c2c3nc(c(-c4ccccc4)c4ccc([nH]4)c(-c4ccccc4)c4nc(c(-c5ccccc5)c5ccc2[nH]5)C=C4)C=C3)cc1)c1ccc(NC(=O)[C@@H]2CC=CC[C@H]2C(=O)Nc2cccc([N+](=O)[O-])c2)cc1
REMARK SMILES IDX 5 1 4 2 3 3 1 4 2 5 61 7 62 8 87 9 63 10 86 11 64 12 65 13
REMARK SMILES IDX 66 14 67 16 68 17 69 18 73 19 70 20 72 21 71 22 74 23 75 24
REMARK SMILES IDX 76 25 77 27 78 28 85 29 79 30 81 31 80 32 82 33 83 34 84 35
REMARK SMILES IDX 6 36 7 37 8 38 9 39 10 40 11 41 12 43 13 44 14 45 60 46
REMARK SMILES IDX 15 47 59 48 16 49 17 50 18 51 53 52 19 53 58 54 52 55 54 56
REMARK SMILES IDX 20 57 57 58 51 59 50 60 21 62 43 63 28 64 42 65 29 66 32 67
REMARK SMILES IDX 41 68 55 69 30 70 31 71 40 73 56 74 33 75 22 76 23 77 27 78
REMARK SMILES IDX 24 79 26 80 25 81 44 82 45 83 49 84 46 85 48 86 47 87 34 88
REMARK SMILES IDX 35 89 39 90 36 91 38 92 37 93
REMARK H PARENT 3 6 65 15 76 26 10 42 54 61 32 72
REMARK Flexibility Score: inf
ROOT
ATOM      1  C   UNL A   1      38.695  24.475  27.160  1.00  0.00     0.021 C 
ENDROOT
BRANCH   1   2
ATOM      2  C   UNL A   1      37.642  24.100  26.130  1.00  0.00     0.116 C 
BRANCH   2   3
ATOM      3  N   UNL A   1      37.937  22.854  25.434  1.00  0.00    -0.352 N 
ATOM      4  O   UNL A   1      37.414  20.959  24.292  1.00  0.00    -0.269 OA
ATOM      5  C   UNL A   1      37.068  22.040  24.733  1.00  0.00     0.251 C 
ATOM      6  H   UNL A   1      38.873  22.554  25.467  1.00  0.00     0.163 HD
BRANCH   5   7
ATOM      7  C   UNL A   1      35.682  22.517  24.546  1.00  0.00     0.039 A 
ATOM      8  C   UNL A   1      35.397  23.316  23.447  1.00  0.00     0.016 A 
ATOM      9  C   UNL A   1      34.714  22.283  25.523  1.00  0.00     0.016 A 
ATOM     10  C   UNL A   1      34.205  24.019  23.415  1.00  0.00     0.027 A 
ATOM     11  C   UNL A   1      33.484  22.946  25.439  1.00  0.00     0.027 A 
ATOM     12  C   UNL A   1      33.228  23.835  24.386  1.00  0.00     0.041 A 
BRANCH  12  13
ATOM     13  N   UNL A   1      32.017  24.538  24.391  1.00  0.00    -0.326 N 
ATOM     14  C   UNL A   1      31.676  25.804  24.748  1.00  0.00     0.228 C 
ATOM     15  H   UNL A   1      31.256  24.004  24.068  1.00  0.00     0.169 HD
ATOM     16  O   UNL A   1      30.465  26.039  24.865  1.00  0.00    -0.274 OA
BRANCH  14  17
ATOM     17  C   UNL A   1      32.660  26.959  24.962  1.00  0.00     0.095 C 
ATOM     18  C   UNL A   1      33.305  27.010  26.362  1.00  0.00     0.041 C 
ATOM     19  C   UNL A   1      32.167  28.268  24.312  1.00  0.00     0.095 C 
ATOM     20  C   UNL A   1      33.439  28.363  26.982  1.00  0.00    -0.030 C 
ATOM     21  C   UNL A   1      32.664  29.586  24.946  1.00  0.00     0.041 C 
ATOM     22  C   UNL A   1      33.150  29.507  26.355  1.00  0.00    -0.030 C 
BRANCH  19  23
ATOM     23  C   UNL A   1      32.296  28.378  22.776  1.00  0.00     0.228 C 
ATOM     24  O   UNL A   1      33.330  27.964  22.235  1.00  0.00    -0.274 OA
ATOM     25  N   UNL A   1      31.256  28.714  21.948  1.00  0.00    -0.326 N 
ATOM     26  H   UNL A   1      31.400  28.515  20.994  1.00  0.00     0.169 HD
BRANCH  25  27
ATOM     27  C   UNL A   1      30.024  29.297  22.251  1.00  0.00     0.048 A 
ATOM     28  C   UNL A   1      29.027  28.525  22.847  1.00  0.00     0.026 A 
ATOM     29  C   UNL A   1      29.766  30.624  21.934  1.00  0.00     0.111 A 
ATOM     30  C   UNL A   1      27.846  29.131  23.286  1.00  0.00     0.009 A 
ATOM     31  C   UNL A   1      28.621  31.247  22.432  1.00  0.00     0.271 A 
ATOM     32  C   UNL A   1      27.655  30.505  23.118  1.00  0.00     0.086 A 
BRANCH  31  33
ATOM     33  N   UNL A   1      28.480  32.702  22.299  1.00  0.00     0.062 N 
ATOM     34  O   UNL A   1      27.756  33.129  21.391  1.00  0.00    -0.258 OA
ATOM     35  O   UNL A   1      29.063  33.415  23.128  1.00  0.00    -0.258 OA
ENDBRANCH  31  33
ENDBRANCH  25  27
ENDBRANCH  19  23
ENDBRANCH  14  17
ENDBRANCH  12  13
ENDBRANCH   5   7
ENDBRANCH   2   3
ENDBRANCH   1   2
BRANCH   1  36
ATOM     36  C   UNL A   1      40.088  23.915  26.887  1.00  0.00     0.002 C 
BRANCH  36  37
ATOM     37  C   UNL A   1      40.645  22.976  27.961  1.00  0.00     0.002 C 
BRANCH  37  38
ATOM     38  C   UNL A   1      41.056  21.580  27.485  1.00  0.00     0.021 C 
BRANCH  38  39
ATOM     39  C   UNL A   1      41.284  21.434  25.983  1.00  0.00     0.116 C 
BRANCH  39  40
ATOM     40  N   UNL A   1      42.609  20.937  25.659  1.00  0.00    -0.352 N 
ATOM     41  C   UNL A   1      43.824  21.571  25.720  1.00  0.00     0.251 C 
ATOM     42  H   UNL A   1      42.641  20.002  25.349  1.00  0.00     0.163 HD
ATOM     43  O   UNL A   1      44.828  21.014  25.285  1.00  0.00    -0.269 OA
BRANCH  41  44
ATOM     44  C   UNL A   1      43.928  22.934  26.280  1.00  0.00     0.039 A 
ATOM     45  C   UNL A   1      43.702  24.022  25.431  1.00  0.00     0.014 A 
ATOM     46  C   UNL A   1      44.268  23.149  27.619  1.00  0.00     0.014 A 
ATOM     47  C   UNL A   1      43.760  25.322  25.935  1.00  0.00     0.010 A 
ATOM     48  C   UNL A   1      44.269  24.444  28.135  1.00  0.00     0.010 A 
ATOM     49  C   UNL A   1      44.017  25.541  27.298  1.00  0.00    -0.014 A 
BRANCH  49  50
ATOM     50  C   UNL A   1      44.022  26.912  27.864  1.00  0.00     0.031 A 
ATOM     51  C   UNL A   1      42.731  27.586  28.232  1.00  0.00     0.074 A 
ATOM     52  C   UNL A   1      45.187  27.575  27.991  1.00  0.00     0.049 A 
ATOM     53  N   UNL A   1      42.533  28.800  28.682  1.00  0.00    -0.248 NA
ATOM     54  C   UNL A   1      41.500  26.802  28.049  1.00  0.00     0.031 C 
ATOM     55  C   UNL A   1      46.506  27.048  27.634  1.00  0.00     0.029 A 
ATOM     56  N   UNL A   1      45.446  28.844  28.446  1.00  0.00    -0.354 N 
ATOM     57  C   UNL A   1      41.157  28.930  28.819  1.00  0.00     0.074 A 
ATOM     58  C   UNL A   1      40.567  27.688  28.366  1.00  0.00     0.031 C 
ATOM     59  C   UNL A   1      47.436  27.980  27.900  1.00  0.00     0.029 A 
ATOM     60  C   UNL A   1      46.778  29.177  28.412  1.00  0.00     0.049 A 
ATOM     61  H   UNL A   1      44.745  29.455  28.766  1.00  0.00     0.167 HD
ATOM     62  C   UNL A   1      40.447  29.982  29.293  1.00  0.00     0.031 A 
ATOM     63  C   UNL A   1      47.401  30.322  28.749  1.00  0.00     0.031 A 
ATOM     64  C   UNL A   1      41.029  31.214  29.752  1.00  0.00     0.049 A 
ATOM     65  C   UNL A   1      46.593  31.474  29.274  1.00  0.00     0.074 A 
ATOM     66  C   UNL A   1      40.396  32.318  30.296  1.00  0.00     0.029 A 
ATOM     67  N   UNL A   1      42.383  31.506  29.718  1.00  0.00    -0.354 N 
ATOM     68  N   UNL A   1      45.298  31.561  29.451  1.00  0.00    -0.248 NA
ATOM     69  C   UNL A   1      47.338  32.683  29.655  1.00  0.00     0.031 C 
ATOM     70  C   UNL A   1      41.365  33.294  30.558  1.00  0.00     0.029 A 
ATOM     71  C   UNL A   1      42.606  32.779  30.216  1.00  0.00     0.049 A 
ATOM     72  H   UNL A   1      43.084  30.898  29.388  1.00  0.00     0.167 HD
ATOM     73  C   UNL A   1      45.073  32.824  29.982  1.00  0.00     0.074 A 
ATOM     74  C   UNL A   1      46.367  33.461  30.113  1.00  0.00     0.031 C 
ATOM     75  C   UNL A   1      43.898  33.401  30.333  1.00  0.00     0.031 A 
BRANCH  62  76
ATOM     76  C   UNL A   1      38.951  29.838  29.330  1.00  0.00    -0.014 A 
ATOM     77  C   UNL A   1      38.284  29.504  30.519  1.00  0.00     0.009 A 
ATOM     78  C   UNL A   1      38.198  30.054  28.166  1.00  0.00     0.009 A 
ATOM     79  C   UNL A   1      36.896  29.351  30.533  1.00  0.00     0.001 A 
ATOM     80  C   UNL A   1      36.808  29.926  28.188  1.00  0.00     0.001 A 
ATOM     81  C   UNL A   1      36.161  29.564  29.368  1.00  0.00     0.000 A 
ENDBRANCH  62  76
BRANCH  63  82
ATOM     82  C   UNL A   1      48.875  30.426  28.614  1.00  0.00    -0.014 A 
ATOM     83  C   UNL A   1      49.713  30.032  29.668  1.00  0.00     0.009 A 
ATOM     84  C   UNL A   1      49.450  30.905  27.428  1.00  0.00     0.009 A 
ATOM     85  C   UNL A   1      51.100  30.133  29.542  1.00  0.00     0.001 A 
ATOM     86  C   UNL A   1      50.838  30.984  27.297  1.00  0.00     0.001 A 
ATOM     87  C   UNL A   1      51.662  30.605  28.356  1.00  0.00     0.000 A 
ENDBRANCH  63  82
BRANCH  75  88
ATOM     88  C   UNL A   1      43.963  34.784  30.913  1.00  0.00    -0.014 A 
ATOM     89  C   UNL A   1      44.090  34.986  32.296  1.00  0.00     0.009 A 
ATOM     90  C   UNL A   1      43.933  35.899  30.059  1.00  0.00     0.009 A 
ATOM     91  C   UNL A   1      44.158  36.280  32.816  1.00  0.00     0.001 A 
ATOM     92  C   UNL A   1      44.025  37.191  30.581  1.00  0.00     0.001 A 
ATOM     93  C   UNL A   1      44.130  37.380  31.958  1.00  0.00     0.000 A 
ENDBRANCH  75  88
ENDBRANCH  49  50
ENDBRANCH  41  44
ENDBRANCH  39  40
ENDBRANCH  38  39
ENDBRANCH  37  38
ENDBRANCH  36  37
ENDBRANCH   1  36
TORSDOF 18
ENDMDL
