MODEL 1
REMARK VINA RESULT:     -10.6      0.000      0.000
REMARK SMILES CCc1ccsc1-c1nnnn1C[C@H](CC(C)C)C(=O)NCCCCCCNC(=O)c1ccc(-c2c3nc(c(-c4ccccc4)c4ccc([nH]4)c(-c4ccccc4)c4nc(c(-c5ccccc5)c5ccc2[nH]5)C=C4)C=C3)cc1
REMARK SMILES IDX 23 1 22 2 21 3 19 4 20 5 14 7 13 8 12 9 8 10 9 11 10 12
REMARK SMILES IDX 11 13 7 14 3 15 4 16 5 17 6 18 2 19 1 20 15 21 16 22 17 23
REMARK SMILES IDX 18 24 24 25 25 26 26 27 27 28 28 29 29 30 30 32 31 33 32 34
REMARK SMILES IDX 78 35 33 36 77 37 34 38 35 39 36 40 71 41 37 42 76 43 70 44
REMARK SMILES IDX 72 45 38 46 75 47 69 48 68 49 39 51 61 52 46 53 60 54 47 55
REMARK SMILES IDX 50 56 59 57 73 58 48 59 49 60 58 62 74 63 51 64 40 65 41 66
REMARK SMILES IDX 45 67 42 68 44 69 43 70 62 71 63 72 67 73 64 74 66 75 65 76
REMARK SMILES IDX 52 77 53 78 57 79 54 80 56 81 55 82
REMARK H PARENT 21 6 28 31 72 50 50 61
REMARK Flexibility Score: inf
ROOT
ATOM      1  C   UNL A   1      37.661  23.588  26.026  1.00  0.00     0.021 C 
ENDROOT
BRANCH   1   2
ATOM      2  C   UNL A   1      36.160  23.602  25.724  1.00  0.00     0.116 C 
BRANCH   2   3
ATOM      3  N   UNL A   1      35.393  22.946  26.753  1.00  0.00    -0.356 N 
ATOM      4  C   UNL A   1      34.398  22.035  26.673  1.00  0.00     0.224 C 
ATOM      5  O   UNL A   1      33.975  21.585  27.743  1.00  0.00    -0.275 OA
ATOM      6  H   UNL A   1      35.635  23.207  27.672  1.00  0.00     0.163 HD
BRANCH   4   7
ATOM      7  C   UNL A   1      33.826  21.511  25.355  1.00  0.00     0.100 C 
BRANCH   7   8
ATOM      8  C   UNL A   1      32.711  22.405  24.764  1.00  0.00     0.162 C 
BRANCH   8   9
ATOM      9  N   UNL A   1      31.918  23.224  25.640  1.00  0.00    -0.224 N 
ATOM     10  C   UNL A   1      31.838  24.588  25.741  1.00  0.00     0.192 A 
ATOM     11  N   UNL A   1      31.008  24.871  26.726  1.00  0.00    -0.108 NA
ATOM     12  N   UNL A   1      30.413  23.686  27.060  1.00  0.00    -0.023 NA
ATOM     13  N   UNL A   1      30.884  22.699  26.314  1.00  0.00    -0.045 NA
BRANCH  10  14
ATOM     14  C   UNL A   1      32.305  25.556  24.808  1.00  0.00     0.077 A 
ATOM     15  C   UNL A   1      33.074  26.686  25.063  1.00  0.00    -0.026 A 
ATOM     16  C   UNL A   1      33.458  27.307  23.818  1.00  0.00     0.016 A 
ATOM     17  C   UNL A   1      32.987  26.646  22.707  1.00  0.00     0.066 A 
ATOM     18  S   UNL A   1      32.044  25.293  23.135  1.00  0.00    -0.140 S 
BRANCH  15  19
ATOM     19  C   UNL A   1      33.555  27.273  26.377  1.00  0.00     0.034 C 
ATOM     20  C   UNL A   1      34.302  28.594  26.376  1.00  0.00     0.009 C 
ENDBRANCH  15  19
ENDBRANCH  10  14
ENDBRANCH   8   9
ENDBRANCH   7   8
BRANCH   7  21
ATOM     21  C   UNL A   1      33.855  19.979  25.100  1.00  0.00     0.018 C 
BRANCH  21  22
ATOM     22  C   UNL A   1      32.604  19.161  24.696  1.00  0.00    -0.017 C 
ATOM     23  C   UNL A   1      32.416  18.902  23.200  1.00  0.00     0.007 C 
ATOM     24  C   UNL A   1      32.659  17.769  25.349  1.00  0.00     0.007 C 
ENDBRANCH  21  22
ENDBRANCH   7  21
ENDBRANCH   4   7
ENDBRANCH   2   3
ENDBRANCH   1   2
BRANCH   1  25
ATOM     25  C   UNL A   1      38.349  22.241  25.822  1.00  0.00     0.002 C 
BRANCH  25  26
ATOM     26  C   UNL A   1      37.624  21.253  24.897  1.00  0.00     0.002 C 
BRANCH  26  27
ATOM     27  C   UNL A   1      38.272  19.873  24.716  1.00  0.00     0.021 C 
BRANCH  27  28
ATOM     28  C   UNL A   1      38.970  19.361  25.963  1.00  0.00     0.116 C 
BRANCH  28  29
ATOM     29  N   UNL A   1      40.330  18.886  25.699  1.00  0.00    -0.352 N 
ATOM     30  C   UNL A   1      41.526  19.577  25.762  1.00  0.00     0.251 C 
ATOM     31  H   UNL A   1      40.402  17.939  25.439  1.00  0.00     0.163 HD
ATOM     32  O   UNL A   1      42.535  19.140  25.238  1.00  0.00    -0.269 OA
BRANCH  30  33
ATOM     33  C   UNL A   1      41.558  20.854  26.495  1.00  0.00     0.039 A 
ATOM     34  C   UNL A   1      41.188  20.947  27.839  1.00  0.00     0.014 A 
ATOM     35  C   UNL A   1      41.995  21.975  25.799  1.00  0.00     0.014 A 
ATOM     36  C   UNL A   1      41.316  22.178  28.476  1.00  0.00     0.010 A 
ATOM     37  C   UNL A   1      42.345  23.102  26.479  1.00  0.00     0.010 A 
ATOM     38  C   UNL A   1      41.905  23.247  27.782  1.00  0.00    -0.014 A 
BRANCH  38  39
ATOM     39  C   UNL A   1      42.169  24.527  28.415  1.00  0.00     0.031 A 
ATOM     40  C   UNL A   1      41.125  25.534  28.134  1.00  0.00     0.074 A 
ATOM     41  C   UNL A   1      43.126  24.695  29.354  1.00  0.00     0.049 A 
ATOM     42  N   UNL A   1      41.201  26.521  27.308  1.00  0.00    -0.248 NA
ATOM     43  C   UNL A   1      39.774  25.315  28.683  1.00  0.00     0.031 C 
ATOM     44  C   UNL A   1      43.969  23.666  29.985  1.00  0.00     0.029 A 
ATOM     45  N   UNL A   1      43.479  25.819  30.035  1.00  0.00    -0.354 N 
ATOM     46  C   UNL A   1      39.996  27.203  27.437  1.00  0.00     0.074 A 
ATOM     47  C   UNL A   1      39.090  26.297  28.092  1.00  0.00     0.031 C 
ATOM     48  C   UNL A   1      44.548  24.168  31.100  1.00  0.00     0.029 A 
ATOM     49  C   UNL A   1      44.279  25.592  31.150  1.00  0.00     0.049 A 
ATOM     50  H   UNL A   1      43.191  26.719  29.761  1.00  0.00     0.167 HD
ATOM     51  C   UNL A   1      39.964  28.560  27.320  1.00  0.00     0.031 A 
ATOM     52  C   UNL A   1      44.692  26.517  32.049  1.00  0.00     0.031 A 
ATOM     53  C   UNL A   1      41.225  29.055  26.824  1.00  0.00     0.049 A 
ATOM     54  C   UNL A   1      44.595  27.835  31.387  1.00  0.00     0.074 A 
ATOM     55  C   UNL A   1      41.894  29.084  25.621  1.00  0.00     0.029 A 
ATOM     56  N   UNL A   1      42.154  29.244  27.817  1.00  0.00    -0.354 N 
ATOM     57  N   UNL A   1      45.323  28.168  30.359  1.00  0.00    -0.248 NA
ATOM     58  C   UNL A   1      43.421  28.665  31.617  1.00  0.00     0.031 C 
ATOM     59  C   UNL A   1      43.285  29.102  25.947  1.00  0.00     0.029 A 
ATOM     60  C   UNL A   1      43.429  29.148  27.333  1.00  0.00     0.049 A 
ATOM     61  H   UNL A   1      41.929  29.426  28.759  1.00  0.00     0.167 HD
ATOM     62  C   UNL A   1      44.478  28.934  29.578  1.00  0.00     0.074 A 
ATOM     63  C   UNL A   1      43.406  29.355  30.474  1.00  0.00     0.031 C 
ATOM     64  C   UNL A   1      44.548  28.887  28.216  1.00  0.00     0.031 A 
BRANCH  51  65
ATOM     65  C   UNL A   1      39.068  29.461  28.143  1.00  0.00    -0.014 A 
ATOM     66  C   UNL A   1      39.366  29.625  29.510  1.00  0.00     0.009 A 
ATOM     67  C   UNL A   1      37.802  29.909  27.720  1.00  0.00     0.009 A 
ATOM     68  C   UNL A   1      38.426  30.146  30.408  1.00  0.00     0.001 A 
ATOM     69  C   UNL A   1      36.873  30.461  28.608  1.00  0.00     0.001 A 
ATOM     70  C   UNL A   1      37.177  30.557  29.958  1.00  0.00     0.000 A 
ENDBRANCH  51  65
BRANCH  52  71
ATOM     71  C   UNL A   1      44.937  26.388  33.500  1.00  0.00    -0.014 A 
ATOM     72  C   UNL A   1      43.900  26.028  34.378  1.00  0.00     0.009 A 
ATOM     73  C   UNL A   1      46.257  26.313  33.977  1.00  0.00     0.009 A 
ATOM     74  C   UNL A   1      44.181  25.558  35.669  1.00  0.00     0.001 A 
ATOM     75  C   UNL A   1      46.537  25.840  35.264  1.00  0.00     0.001 A 
ATOM     76  C   UNL A   1      45.500  25.446  36.104  1.00  0.00     0.000 A 
ENDBRANCH  52  71
BRANCH  64  77
ATOM     77  C   UNL A   1      45.822  28.381  27.600  1.00  0.00    -0.014 A 
ATOM     78  C   UNL A   1      46.944  29.183  27.336  1.00  0.00     0.009 A 
ATOM     79  C   UNL A   1      45.911  27.004  27.351  1.00  0.00     0.009 A 
ATOM     80  C   UNL A   1      48.117  28.619  26.817  1.00  0.00     0.001 A 
ATOM     81  C   UNL A   1      47.085  26.438  26.854  1.00  0.00     0.001 A 
ATOM     82  C   UNL A   1      48.186  27.246  26.581  1.00  0.00     0.000 A 
ENDBRANCH  64  77
ENDBRANCH  38  39
ENDBRANCH  30  33
ENDBRANCH  28  29
ENDBRANCH  27  28
ENDBRANCH  26  27
ENDBRANCH  25  26
ENDBRANCH   1  25
TORSDOF 19
ENDMDL
MODEL 2
REMARK VINA RESULT:     -10.3      4.019      9.056
REMARK SMILES CCc1ccsc1-c1nnnn1C[C@H](CC(C)C)C(=O)NCCCCCCNC(=O)c1ccc(-c2c3nc(c(-c4ccccc4)c4ccc([nH]4)c(-c4ccccc4)c4nc(c(-c5ccccc5)c5ccc2[nH]5)C=C4)C=C3)cc1
REMARK SMILES IDX 23 1 22 2 21 3 19 4 20 5 14 7 13 8 12 9 8 10 9 11 10 12
REMARK SMILES IDX 11 13 7 14 3 15 4 16 5 17 6 18 2 19 1 20 15 21 16 22 17 23
REMARK SMILES IDX 18 24 24 25 25 26 26 27 27 28 28 29 29 30 30 32 31 33 32 34
REMARK SMILES IDX 78 35 33 36 77 37 34 38 35 39 36 40 71 41 37 42 76 43 70 44
REMARK SMILES IDX 72 45 38 46 75 47 69 48 68 49 39 51 61 52 46 53 60 54 47 55
REMARK SMILES IDX 50 56 59 57 73 58 48 59 49 60 58 62 74 63 51 64 40 65 41 66
REMARK SMILES IDX 45 67 42 68 44 69 43 70 62 71 63 72 67 73 64 74 66 75 65 76
REMARK SMILES IDX 52 77 53 78 57 79 54 80 56 81 55 82
REMARK H PARENT 21 6 28 31 72 50 50 61
REMARK Flexibility Score: inf
ROOT
ATOM      1  C   UNL A   1      34.661  30.751  27.252  1.00  0.00     0.021 C 
ENDROOT
BRANCH   1   2
ATOM      2  C   UNL A   1      33.815  29.556  26.806  1.00  0.00     0.116 C 
BRANCH   2   3
ATOM      3  N   UNL A   1      34.177  29.094  25.490  1.00  0.00    -0.356 N 
ATOM      4  C   UNL A   1      33.709  28.064  24.751  1.00  0.00     0.224 C 
ATOM      5  O   UNL A   1      34.162  27.956  23.606  1.00  0.00    -0.275 OA
ATOM      6  H   UNL A   1      34.889  29.619  25.055  1.00  0.00     0.163 HD
BRANCH   4   7
ATOM      7  C   UNL A   1      32.635  27.088  25.232  1.00  0.00     0.100 C 
BRANCH   7   8
ATOM      8  C   UNL A   1      33.196  25.916  26.071  1.00  0.00     0.162 C 
BRANCH   8   9
ATOM      9  N   UNL A   1      32.391  24.743  26.281  1.00  0.00    -0.224 N 
ATOM     10  C   UNL A   1      32.598  23.448  25.885  1.00  0.00     0.192 A 
ATOM     11  N   UNL A   1      31.556  22.738  26.270  1.00  0.00    -0.108 NA
ATOM     12  N   UNL A   1      30.837  23.555  27.098  1.00  0.00    -0.023 NA
ATOM     13  N   UNL A   1      31.412  24.743  27.198  1.00  0.00    -0.045 NA
BRANCH  10  14
ATOM     14  C   UNL A   1      33.808  22.869  25.409  1.00  0.00     0.077 A 
ATOM     15  C   UNL A   1      34.451  23.109  24.200  1.00  0.00    -0.026 A 
ATOM     16  C   UNL A   1      35.728  22.436  24.185  1.00  0.00     0.016 A 
ATOM     17  C   UNL A   1      35.996  21.741  25.341  1.00  0.00     0.066 A 
ATOM     18  S   UNL A   1      34.709  21.850  26.451  1.00  0.00    -0.140 S 
BRANCH  15  19
ATOM     19  C   UNL A   1      34.031  23.954  23.013  1.00  0.00     0.034 C 
ATOM     20  C   UNL A   1      33.350  23.293  21.828  1.00  0.00     0.009 C 
ENDBRANCH  15  19
ENDBRANCH  10  14
ENDBRANCH   8   9
ENDBRANCH   7   8
BRANCH   7  21
ATOM     21  C   UNL A   1      31.350  26.929  24.374  1.00  0.00     0.018 C 
BRANCH  21  22
ATOM     22  C   UNL A   1      30.279  28.039  24.238  1.00  0.00    -0.017 C 
ATOM     23  C   UNL A   1      30.795  29.476  24.159  1.00  0.00     0.007 C 
ATOM     24  C   UNL A   1      29.469  27.824  22.947  1.00  0.00     0.007 C 
ENDBRANCH  21  22
ENDBRANCH   7  21
ENDBRANCH   4   7
ENDBRANCH   2   3
ENDBRANCH   1   2
BRANCH   1  25
ATOM     25  C   UNL A   1      33.983  31.690  28.245  1.00  0.00     0.002 C 
BRANCH  25  26
ATOM     26  C   UNL A   1      34.331  33.178  28.102  1.00  0.00     0.002 C 
BRANCH  26  27
ATOM     27  C   UNL A   1      33.245  34.184  28.510  1.00  0.00     0.021 C 
BRANCH  27  28
ATOM     28  C   UNL A   1      33.792  35.432  29.178  1.00  0.00     0.116 C 
BRANCH  28  29
ATOM     29  N   UNL A   1      33.240  35.647  30.518  1.00  0.00    -0.352 N 
ATOM     30  C   UNL A   1      33.461  34.931  31.681  1.00  0.00     0.251 C 
ATOM     31  H   UNL A   1      32.625  36.411  30.603  1.00  0.00     0.163 HD
ATOM     32  O   UNL A   1      32.719  35.041  32.640  1.00  0.00    -0.269 OA
BRANCH  30  33
ATOM     33  C   UNL A   1      34.629  34.036  31.739  1.00  0.00     0.039 A 
ATOM     34  C   UNL A   1      34.497  32.645  31.766  1.00  0.00     0.014 A 
ATOM     35  C   UNL A   1      35.885  34.631  31.746  1.00  0.00     0.014 A 
ATOM     36  C   UNL A   1      35.653  31.871  31.748  1.00  0.00     0.010 A 
ATOM     37  C   UNL A   1      36.993  33.881  31.486  1.00  0.00     0.010 A 
ATOM     38  C   UNL A   1      36.897  32.506  31.600  1.00  0.00    -0.014 A 
BRANCH  38  39
ATOM     39  C   UNL A   1      38.135  31.759  31.466  1.00  0.00     0.031 A 
ATOM     40  C   UNL A   1      38.769  31.456  32.767  1.00  0.00     0.074 A 
ATOM     41  C   UNL A   1      38.525  31.191  30.303  1.00  0.00     0.049 A 
ATOM     42  N   UNL A   1      39.793  32.042  33.286  1.00  0.00    -0.248 NA
ATOM     43  C   UNL A   1      38.077  30.533  33.685  1.00  0.00     0.031 C 
ATOM     44  C   UNL A   1      37.775  31.109  29.038  1.00  0.00     0.029 A 
ATOM     45  N   UNL A   1      39.640  30.462  30.030  1.00  0.00    -0.354 N 
ATOM     46  C   UNL A   1      40.033  31.373  34.481  1.00  0.00     0.074 A 
ATOM     47  C   UNL A   1      38.830  30.643  34.781  1.00  0.00     0.031 C 
ATOM     48  C   UNL A   1      38.343  30.183  28.230  1.00  0.00     0.029 A 
ATOM     49  C   UNL A   1      39.592  29.759  28.830  1.00  0.00     0.049 A 
ATOM     50  H   UNL A   1      40.418  30.434  30.632  1.00  0.00     0.167 HD
ATOM     51  C   UNL A   1      41.311  31.197  34.920  1.00  0.00     0.031 A 
ATOM     52  C   UNL A   1      40.522  28.891  28.366  1.00  0.00     0.031 A 
ATOM     53  C   UNL A   1      42.229  31.985  34.134  1.00  0.00     0.049 A 
ATOM     54  C   UNL A   1      41.788  29.200  29.063  1.00  0.00     0.074 A 
ATOM     55  C   UNL A   1      42.575  33.313  34.019  1.00  0.00     0.029 A 
ATOM     56  N   UNL A   1      42.625  31.355  32.981  1.00  0.00    -0.354 N 
ATOM     57  N   UNL A   1      42.425  30.327  28.911  1.00  0.00    -0.248 NA
ATOM     58  C   UNL A   1      42.169  28.419  30.232  1.00  0.00     0.031 C 
ATOM     59  C   UNL A   1      43.016  33.488  32.672  1.00  0.00     0.029 A 
ATOM     60  C   UNL A   1      42.989  32.256  32.019  1.00  0.00     0.049 A 
ATOM     61  H   UNL A   1      42.643  30.377  32.861  1.00  0.00     0.167 HD
ATOM     62  C   UNL A   1      42.938  30.599  30.165  1.00  0.00     0.074 A 
ATOM     63  C   UNL A   1      42.911  29.325  30.875  1.00  0.00     0.031 C 
ATOM     64  C   UNL A   1      43.032  31.883  30.620  1.00  0.00     0.031 A 
BRANCH  51  65
ATOM     65  C   UNL A   1      41.799  29.954  35.632  1.00  0.00    -0.014 A 
ATOM     66  C   UNL A   1      42.940  30.063  36.451  1.00  0.00     0.009 A 
ATOM     67  C   UNL A   1      41.383  28.648  35.311  1.00  0.00     0.009 A 
ATOM     68  C   UNL A   1      43.655  28.933  36.868  1.00  0.00     0.001 A 
ATOM     69  C   UNL A   1      42.074  27.516  35.752  1.00  0.00     0.001 A 
ATOM     70  C   UNL A   1      43.226  27.660  36.511  1.00  0.00     0.000 A 
ENDBRANCH  51  65
BRANCH  52  71
ATOM     71  C   UNL A   1      40.357  27.669  27.552  1.00  0.00    -0.014 A 
ATOM     72  C   UNL A   1      41.142  27.453  26.407  1.00  0.00     0.009 A 
ATOM     73  C   UNL A   1      39.648  26.575  28.079  1.00  0.00     0.009 A 
ATOM     74  C   UNL A   1      41.255  26.174  25.843  1.00  0.00     0.001 A 
ATOM     75  C   UNL A   1      39.765  25.298  27.518  1.00  0.00     0.001 A 
ATOM     76  C   UNL A   1      40.582  25.094  26.410  1.00  0.00     0.000 A 
ENDBRANCH  52  71
BRANCH  64  77
ATOM     77  C   UNL A   1      43.021  32.987  29.599  1.00  0.00    -0.014 A 
ATOM     78  C   UNL A   1      42.022  33.969  29.511  1.00  0.00     0.009 A 
ATOM     79  C   UNL A   1      44.125  33.075  28.739  1.00  0.00     0.009 A 
ATOM     80  C   UNL A   1      42.120  35.001  28.569  1.00  0.00     0.001 A 
ATOM     81  C   UNL A   1      44.233  34.113  27.814  1.00  0.00     0.001 A 
ATOM     82  C   UNL A   1      43.228  35.073  27.725  1.00  0.00     0.000 A 
ENDBRANCH  64  77
ENDBRANCH  38  39
ENDBRANCH  30  33
ENDBRANCH  28  29
ENDBRANCH  27  28
ENDBRANCH  26  27
ENDBRANCH  25  26
ENDBRANCH   1  25
TORSDOF 19
ENDMDL
MODEL 3
REMARK VINA RESULT:     -10.2      2.116      5.915
REMARK SMILES CCc1ccsc1-c1nnnn1C[C@H](CC(C)C)C(=O)NCCCCCCNC(=O)c1ccc(-c2c3nc(c(-c4ccccc4)c4ccc([nH]4)c(-c4ccccc4)c4nc(c(-c5ccccc5)c5ccc2[nH]5)C=C4)C=C3)cc1
REMARK SMILES IDX 23 1 22 2 21 3 19 4 20 5 14 7 13 8 12 9 8 10 9 11 10 12
REMARK SMILES IDX 11 13 7 14 3 15 4 16 5 17 6 18 2 19 1 20 15 21 16 22 17 23
REMARK SMILES IDX 18 24 24 25 25 26 26 27 27 28 28 29 29 30 30 32 31 33 32 34
REMARK SMILES IDX 78 35 33 36 77 37 34 38 35 39 36 40 71 41 37 42 76 43 70 44
REMARK SMILES IDX 72 45 38 46 75 47 69 48 68 49 39 51 61 52 46 53 60 54 47 55
REMARK SMILES IDX 50 56 59 57 73 58 48 59 49 60 58 62 74 63 51 64 40 65 41 66
REMARK SMILES IDX 45 67 42 68 44 69 43 70 62 71 63 72 67 73 64 74 66 75 65 76
REMARK SMILES IDX 52 77 53 78 57 79 54 80 56 81 55 82
REMARK H PARENT 21 6 28 31 72 50 50 61
REMARK Flexibility Score: inf
ROOT
ATOM      1  C   UNL A   1      39.051  23.153  26.350  1.00  0.00     0.021 C 
ENDROOT
BRANCH   1   2
ATOM      2  C   UNL A   1      37.687  23.646  25.861  1.00  0.00     0.116 C 
BRANCH   2   3
ATOM      3  N   UNL A   1      37.421  23.247  24.502  1.00  0.00    -0.356 N 
ATOM      4  C   UNL A   1      36.279  23.268  23.778  1.00  0.00     0.224 C 
ATOM      5  O   UNL A   1      36.372  22.932  22.593  1.00  0.00    -0.275 OA
ATOM      6  H   UNL A   1      38.204  22.898  24.018  1.00  0.00     0.163 HD
BRANCH   4   7
ATOM      7  C   UNL A   1      34.929  23.729  24.329  1.00  0.00     0.100 C 
BRANCH   7   8
ATOM      8  C   UNL A   1      34.506  22.997  25.624  1.00  0.00     0.162 C 
BRANCH   8   9
ATOM      9  N   UNL A   1      33.114  22.919  25.974  1.00  0.00    -0.224 N 
ATOM     10  C   UNL A   1      32.161  22.005  25.607  1.00  0.00     0.192 A 
ATOM     11  N   UNL A   1      31.016  22.381  26.141  1.00  0.00    -0.108 NA
ATOM     12  N   UNL A   1      31.327  23.385  27.016  1.00  0.00    -0.023 NA
ATOM     13  N   UNL A   1      32.628  23.633  26.999  1.00  0.00    -0.045 NA
BRANCH  10  14
ATOM     14  C   UNL A   1      32.368  20.727  25.015  1.00  0.00     0.077 A 
ATOM     15  C   UNL A   1      32.336  20.398  23.664  1.00  0.00    -0.026 A 
ATOM     16  C   UNL A   1      32.754  19.027  23.487  1.00  0.00     0.016 A 
ATOM     17  C   UNL A   1      33.078  18.396  24.664  1.00  0.00     0.066 A 
ATOM     18  S   UNL A   1      32.852  19.418  26.008  1.00  0.00    -0.140 S 
BRANCH  15  19
ATOM     19  C   UNL A   1      31.988  21.242  22.453  1.00  0.00     0.034 C 
ATOM     20  C   UNL A   1      31.719  20.565  21.122  1.00  0.00     0.009 C 
ENDBRANCH  15  19
ENDBRANCH  10  14
ENDBRANCH   8   9
ENDBRANCH   7   8
BRANCH   7  21
ATOM     21  C   UNL A   1      33.877  24.277  23.327  1.00  0.00     0.018 C 
BRANCH  21  22
ATOM     22  C   UNL A   1      33.105  25.602  23.546  1.00  0.00    -0.017 C 
ATOM     23  C   UNL A   1      31.615  25.476  23.867  1.00  0.00     0.007 C 
ATOM     24  C   UNL A   1      33.716  26.369  24.732  1.00  0.00     0.007 C 
ENDBRANCH  21  22
ENDBRANCH   7  21
ENDBRANCH   4   7
ENDBRANCH   2   3
ENDBRANCH   1   2
BRANCH   1  25
ATOM     25  C   UNL A   1      39.318  21.666  26.136  1.00  0.00     0.002 C 
BRANCH  25  26
ATOM     26  C   UNL A   1      40.572  21.107  26.823  1.00  0.00     0.002 C 
BRANCH  26  27
ATOM     27  C   UNL A   1      41.244  19.899  26.155  1.00  0.00     0.021 C 
BRANCH  27  28
ATOM     28  C   UNL A   1      42.597  19.550  26.750  1.00  0.00     0.116 C 
BRANCH  28  29
ATOM     29  N   UNL A   1      43.662  19.495  25.746  1.00  0.00    -0.352 N 
ATOM     30  C   UNL A   1      44.233  20.524  25.019  1.00  0.00     0.251 C 
ATOM     31  H   UNL A   1      44.023  18.598  25.564  1.00  0.00     0.163 HD
ATOM     32  O   UNL A   1      44.895  20.299  24.021  1.00  0.00    -0.269 OA
BRANCH  30  33
ATOM     33  C   UNL A   1      44.036  21.906  25.489  1.00  0.00     0.039 A 
ATOM     34  C   UNL A   1      43.132  22.776  24.874  1.00  0.00     0.014 A 
ATOM     35  C   UNL A   1      44.775  22.313  26.593  1.00  0.00     0.014 A 
ATOM     36  C   UNL A   1      42.953  24.041  25.425  1.00  0.00     0.010 A 
ATOM     37  C   UNL A   1      44.425  23.445  27.264  1.00  0.00     0.010 A 
ATOM     38  C   UNL A   1      43.603  24.358  26.628  1.00  0.00    -0.014 A 
BRANCH  38  39
ATOM     39  C   UNL A   1      43.381  25.617  27.318  1.00  0.00     0.031 A 
ATOM     40  C   UNL A   1      44.335  26.671  26.913  1.00  0.00     0.074 A 
ATOM     41  C   UNL A   1      42.274  25.864  28.053  1.00  0.00     0.049 A 
ATOM     42  N   UNL A   1      45.356  27.091  27.579  1.00  0.00    -0.248 NA
ATOM     43  C   UNL A   1      44.268  27.185  25.533  1.00  0.00     0.031 C 
ATOM     44  C   UNL A   1      41.080  25.016  28.206  1.00  0.00     0.029 A 
ATOM     45  N   UNL A   1      41.926  26.986  28.740  1.00  0.00    -0.354 N 
ATOM     46  C   UNL A   1      45.903  28.113  26.812  1.00  0.00     0.074 A 
ATOM     47  C   UNL A   1      45.355  27.959  25.489  1.00  0.00     0.031 C 
ATOM     48  C   UNL A   1      40.066  25.745  28.729  1.00  0.00     0.029 A 
ATOM     49  C   UNL A   1      40.591  27.035  29.127  1.00  0.00     0.049 A 
ATOM     50  H   UNL A   1      42.568  27.703  28.946  1.00  0.00     0.167 HD
ATOM     51  C   UNL A   1      46.466  29.195  27.418  1.00  0.00     0.031 A 
ATOM     52  C   UNL A   1      39.966  28.071  29.736  1.00  0.00     0.031 A 
ATOM     53  C   UNL A   1      46.610  28.964  28.834  1.00  0.00     0.049 A 
ATOM     54  C   UNL A   1      41.015  28.896  30.370  1.00  0.00     0.074 A 
ATOM     55  C   UNL A   1      47.429  28.223  29.656  1.00  0.00     0.029 A 
ATOM     56  N   UNL A   1      45.474  29.261  29.544  1.00  0.00    -0.354 N 
ATOM     57  N   UNL A   1      41.762  28.466  31.348  1.00  0.00    -0.248 NA
ATOM     58  C   UNL A   1      41.512  30.077  29.677  1.00  0.00     0.031 C 
ATOM     59  C   UNL A   1      46.652  27.924  30.817  1.00  0.00     0.029 A 
ATOM     60  C   UNL A   1      45.406  28.540  30.704  1.00  0.00     0.049 A 
ATOM     61  H   UNL A   1      44.793  29.911  29.254  1.00  0.00     0.167 HD
ATOM     62  C   UNL A   1      43.001  29.029  31.103  1.00  0.00     0.074 A 
ATOM     63  C   UNL A   1      42.744  30.137  30.189  1.00  0.00     0.031 C 
ATOM     64  C   UNL A   1      44.149  28.352  31.397  1.00  0.00     0.031 A 
BRANCH  51  65
ATOM     65  C   UNL A   1      46.369  30.610  26.888  1.00  0.00    -0.014 A 
ATOM     66  C   UNL A   1      47.547  31.381  26.834  1.00  0.00     0.009 A 
ATOM     67  C   UNL A   1      45.157  31.308  26.724  1.00  0.00     0.009 A 
ATOM     68  C   UNL A   1      47.506  32.774  26.690  1.00  0.00     0.001 A 
ATOM     69  C   UNL A   1      45.113  32.693  26.547  1.00  0.00     0.001 A 
ATOM     70  C   UNL A   1      46.288  33.430  26.554  1.00  0.00     0.000 A 
ENDBRANCH  51  65
BRANCH  52  71
ATOM     71  C   UNL A   1      38.570  28.538  29.620  1.00  0.00    -0.014 A 
ATOM     72  C   UNL A   1      37.828  28.891  30.760  1.00  0.00     0.009 A 
ATOM     73  C   UNL A   1      38.074  28.935  28.365  1.00  0.00     0.009 A 
ATOM     74  C   UNL A   1      36.660  29.658  30.651  1.00  0.00     0.001 A 
ATOM     75  C   UNL A   1      36.910  29.705  28.257  1.00  0.00     0.001 A 
ATOM     76  C   UNL A   1      36.213  30.082  29.401  1.00  0.00     0.000 A 
ENDBRANCH  52  71
BRANCH  64  77
ATOM     77  C   UNL A   1      44.060  27.232  32.397  1.00  0.00    -0.014 A 
ATOM     78  C   UNL A   1      43.675  27.399  33.737  1.00  0.00     0.009 A 
ATOM     79  C   UNL A   1      44.305  25.933  31.927  1.00  0.00     0.009 A 
ATOM     80  C   UNL A   1      43.558  26.292  34.586  1.00  0.00     0.001 A 
ATOM     81  C   UNL A   1      44.170  24.829  32.767  1.00  0.00     0.001 A 
ATOM     82  C   UNL A   1      43.802  25.008  34.099  1.00  0.00     0.000 A 
ENDBRANCH  64  77
ENDBRANCH  38  39
ENDBRANCH  30  33
ENDBRANCH  28  29
ENDBRANCH  27  28
ENDBRANCH  26  27
ENDBRANCH  25  26
ENDBRANCH   1  25
TORSDOF 19
ENDMDL
