MODEL 1
REMARK VINA RESULT:     -12.0      0.000      0.000
REMARK SMILES O=C(NCCCCCCNC(=O)[C@H]1CC[C@@H]2CCCC[C@H]2N1C(=O)N1CCSCC1)c1ccc(-c2c3nc(c(-c4ccccc4)c4ccc([nH]4)c(-c4ccccc4)c4nc(c(-c5ccccc5)c5ccc2[nH]5)C=C4)C=C3)cc1
REMARK SMILES IDX 6 1 5 2 4 3 3 4 1 5 2 6 31 8 32 9 78 10 33 11 77 12 34 13
REMARK SMILES IDX 35 14 36 15 71 16 37 17 76 18 70 19 72 20 38 21 75 22 69 23
REMARK SMILES IDX 68 24 39 26 61 27 46 28 60 29 47 30 50 31 59 32 73 33 48 34
REMARK SMILES IDX 49 35 58 37 74 38 51 39 40 40 41 41 45 42 42 43 44 44 43 45
REMARK SMILES IDX 62 46 63 47 67 48 64 49 66 50 65 51 52 52 53 53 57 54 54 55
REMARK SMILES IDX 56 56 55 57 7 58 8 59 9 60 10 61 11 62 12 64 13 65 14 66
REMARK SMILES IDX 22 67 15 68 21 69 16 70 20 71 17 72 19 73 18 74 23 75 24 76
REMARK SMILES IDX 25 77 26 78 30 79 27 80 29 81 28 82
REMARK H PARENT 3 7 72 25 50 36 10 63
REMARK Flexibility Score: inf
ROOT
ATOM      1  C   UNL A   1      31.447  30.425  26.089  1.00  0.00     0.002 C 
ENDROOT
BRANCH   1   2
ATOM      2  C   UNL A   1      31.350  31.891  26.505  1.00  0.00     0.021 C 
BRANCH   2   3
ATOM      3  C   UNL A   1      32.607  32.451  27.150  1.00  0.00     0.116 C 
BRANCH   3   4
ATOM      4  N   UNL A   1      32.430  33.814  27.618  1.00  0.00    -0.352 N 
ATOM      5  O   UNL A   1      32.803  35.605  28.944  1.00  0.00    -0.269 OA
ATOM      6  C   UNL A   1      33.189  34.519  28.521  1.00  0.00     0.251 C 
ATOM      7  H   UNL A   1      31.662  34.298  27.238  1.00  0.00     0.163 HD
BRANCH   6   8
ATOM      8  C   UNL A   1      34.468  33.952  29.000  1.00  0.00     0.039 A 
ATOM      9  C   UNL A   1      35.663  34.238  28.336  1.00  0.00     0.014 A 
ATOM     10  C   UNL A   1      34.472  33.124  30.125  1.00  0.00     0.014 A 
ATOM     11  C   UNL A   1      36.832  33.586  28.708  1.00  0.00     0.010 A 
ATOM     12  C   UNL A   1      35.667  32.542  30.556  1.00  0.00     0.010 A 
ATOM     13  C   UNL A   1      36.854  32.748  29.835  1.00  0.00    -0.014 A 
BRANCH  13  14
ATOM     14  C   UNL A   1      38.146  32.165  30.276  1.00  0.00     0.031 A 
ATOM     15  C   UNL A   1      38.979  32.819  31.341  1.00  0.00     0.074 A 
ATOM     16  C   UNL A   1      38.543  31.002  29.726  1.00  0.00     0.049 A 
ATOM     17  N   UNL A   1      40.110  32.412  31.864  1.00  0.00    -0.248 NA
ATOM     18  C   UNL A   1      38.489  34.092  31.891  1.00  0.00     0.031 C 
ATOM     19  C   UNL A   1      37.821  30.275  28.677  1.00  0.00     0.029 A 
ATOM     20  N   UNL A   1      39.633  30.212  29.984  1.00  0.00    -0.354 N 
ATOM     21  C   UNL A   1      40.472  33.380  32.793  1.00  0.00     0.074 A 
ATOM     22  C   UNL A   1      39.456  34.410  32.744  1.00  0.00     0.031 C 
ATOM     23  C   UNL A   1      38.459  29.123  28.421  1.00  0.00     0.029 A 
ATOM     24  C   UNL A   1      39.665  29.061  29.236  1.00  0.00     0.049 A 
ATOM     25  H   UNL A   1      40.327  30.448  30.642  1.00  0.00     0.167 HD
ATOM     26  C   UNL A   1      41.548  33.403  33.615  1.00  0.00     0.031 A 
ATOM     27  C   UNL A   1      40.570  28.067  29.196  1.00  0.00     0.031 A 
ATOM     28  C   UNL A   1      42.565  32.383  33.654  1.00  0.00     0.049 A 
ATOM     29  C   UNL A   1      41.770  28.141  30.092  1.00  0.00     0.074 A 
ATOM     30  C   UNL A   1      43.690  32.316  34.458  1.00  0.00     0.029 A 
ATOM     31  N   UNL A   1      42.580  31.252  32.852  1.00  0.00    -0.354 N 
ATOM     32  N   UNL A   1      42.082  29.052  30.981  1.00  0.00    -0.248 NA
ATOM     33  C   UNL A   1      42.743  27.046  29.978  1.00  0.00     0.031 C 
ATOM     34  C   UNL A   1      44.410  31.166  34.112  1.00  0.00     0.029 A 
ATOM     35  C   UNL A   1      43.704  30.490  33.131  1.00  0.00     0.049 A 
ATOM     36  H   UNL A   1      41.894  31.023  32.184  1.00  0.00     0.167 HD
ATOM     37  C   UNL A   1      43.279  28.634  31.544  1.00  0.00     0.074 A 
ATOM     38  C   UNL A   1      43.622  27.374  30.915  1.00  0.00     0.031 C 
ATOM     39  C   UNL A   1      44.032  29.242  32.492  1.00  0.00     0.031 A 
BRANCH  26  40
ATOM     40  C   UNL A   1      41.695  34.583  34.536  1.00  0.00    -0.014 A 
ATOM     41  C   UNL A   1      41.178  34.554  35.842  1.00  0.00     0.009 A 
ATOM     42  C   UNL A   1      42.405  35.718  34.114  1.00  0.00     0.009 A 
ATOM     43  C   UNL A   1      41.347  35.648  36.695  1.00  0.00     0.001 A 
ATOM     44  C   UNL A   1      42.594  36.799  34.976  1.00  0.00     0.001 A 
ATOM     45  C   UNL A   1      42.059  36.766  36.263  1.00  0.00     0.000 A 
ENDBRANCH  26  40
BRANCH  27  46
ATOM     46  C   UNL A   1      40.382  26.930  28.259  1.00  0.00    -0.014 A 
ATOM     47  C   UNL A   1      40.919  26.972  26.964  1.00  0.00     0.009 A 
ATOM     48  C   UNL A   1      39.663  25.793  28.661  1.00  0.00     0.009 A 
ATOM     49  C   UNL A   1      40.716  25.909  26.082  1.00  0.00     0.001 A 
ATOM     50  C   UNL A   1      39.491  24.718  27.788  1.00  0.00     0.001 A 
ATOM     51  C   UNL A   1      40.008  24.782  26.496  1.00  0.00     0.000 A 
ENDBRANCH  27  46
BRANCH  39  52
ATOM     52  C   UNL A   1      45.283  28.531  32.920  1.00  0.00    -0.014 A 
ATOM     53  C   UNL A   1      45.265  27.591  33.962  1.00  0.00     0.009 A 
ATOM     54  C   UNL A   1      46.493  28.799  32.262  1.00  0.00     0.009 A 
ATOM     55  C   UNL A   1      46.445  26.962  34.363  1.00  0.00     0.001 A 
ATOM     56  C   UNL A   1      47.666  28.148  32.648  1.00  0.00     0.001 A 
ATOM     57  C   UNL A   1      47.643  27.239  33.705  1.00  0.00     0.000 A 
ENDBRANCH  39  52
ENDBRANCH  13  14
ENDBRANCH   6   8
ENDBRANCH   3   4
ENDBRANCH   2   3
ENDBRANCH   1   2
BRANCH   1  58
ATOM     58  C   UNL A   1      32.217  29.517  27.055  1.00  0.00     0.002 C 
BRANCH  58  59
ATOM     59  C   UNL A   1      31.520  28.205  27.437  1.00  0.00     0.021 C 
BRANCH  59  60
ATOM     60  C   UNL A   1      31.979  26.981  26.650  1.00  0.00     0.116 C 
BRANCH  60  61
ATOM     61  N   UNL A   1      31.142  25.820  26.890  1.00  0.00    -0.354 N 
ATOM     62  C   UNL A   1      31.416  24.482  26.820  1.00  0.00     0.242 C 
ATOM     63  H   UNL A   1      30.216  26.032  27.149  1.00  0.00     0.163 HD
ATOM     64  O   UNL A   1      30.538  23.707  27.203  1.00  0.00    -0.273 OA
BRANCH  62  65
ATOM     65  C   UNL A   1      32.802  24.004  26.336  1.00  0.00     0.176 C 
ATOM     66  C   UNL A   1      33.052  22.709  27.127  1.00  0.00     0.036 C 
ATOM     67  N   UNL A   1      33.208  23.819  24.916  1.00  0.00    -0.309 N 
ATOM     68  C   UNL A   1      34.518  22.325  27.071  1.00  0.00     0.008 C 
ATOM     69  C   UNL A   1      34.655  23.442  24.775  1.00  0.00     0.091 C 
ATOM     70  C   UNL A   1      34.971  22.172  25.619  1.00  0.00     0.012 C 
ATOM     71  C   UNL A   1      35.225  23.255  23.353  1.00  0.00     0.025 C 
ATOM     72  C   UNL A   1      36.467  21.824  25.604  1.00  0.00     0.006 C 
ATOM     73  C   UNL A   1      36.709  22.885  23.351  1.00  0.00     0.002 C 
ATOM     74  C   UNL A   1      36.985  21.645  24.187  1.00  0.00     0.000 C 
BRANCH  67  75
ATOM     75  C   UNL A   1      32.404  24.041  23.805  1.00  0.00     0.321 C 
ATOM     76  O   UNL A   1      32.030  23.163  23.029  1.00  0.00    -0.248 OA
ATOM     77  N   UNL A   1      31.949  25.330  23.595  1.00  0.00    -0.323 N 
ATOM     78  C   UNL A   1      30.490  25.426  23.508  1.00  0.00     0.132 C 
ATOM     79  C   UNL A   1      32.655  26.104  22.574  1.00  0.00     0.132 C 
ATOM     80  C   UNL A   1      29.941  26.841  23.658  1.00  0.00     0.091 C 
ATOM     81  C   UNL A   1      32.333  27.601  22.572  1.00  0.00     0.091 C 
ATOM     82  S   UNL A   1      30.560  27.941  22.342  1.00  0.00    -0.158 SA
ENDBRANCH  67  75
ENDBRANCH  62  65
ENDBRANCH  60  61
ENDBRANCH  59  60
ENDBRANCH  58  59
ENDBRANCH   1  58
TORSDOF 14
ENDMDL
MODEL 2
REMARK VINA RESULT:     -11.8      0.323      5.821
REMARK SMILES O=C(NCCCCCCNC(=O)[C@H]1CC[C@@H]2CCCC[C@H]2N1C(=O)N1CCSCC1)c1ccc(-c2c3nc(c(-c4ccccc4)c4ccc([nH]4)c(-c4ccccc4)c4nc(c(-c5ccccc5)c5ccc2[nH]5)C=C4)C=C3)cc1
REMARK SMILES IDX 6 1 5 2 4 3 3 4 1 5 2 6 31 8 32 9 78 10 33 11 77 12 34 13
REMARK SMILES IDX 35 14 36 15 71 16 37 17 76 18 70 19 72 20 38 21 75 22 69 23
REMARK SMILES IDX 68 24 39 26 61 27 46 28 60 29 47 30 50 31 59 32 73 33 48 34
REMARK SMILES IDX 49 35 58 37 74 38 51 39 40 40 41 41 45 42 42 43 44 44 43 45
REMARK SMILES IDX 62 46 63 47 67 48 64 49 66 50 65 51 52 52 53 53 57 54 54 55
REMARK SMILES IDX 56 56 55 57 7 58 8 59 9 60 10 61 11 62 12 64 13 65 14 66
REMARK SMILES IDX 22 67 15 68 21 69 16 70 20 71 17 72 19 73 18 74 23 75 24 76
REMARK SMILES IDX 25 77 26 78 30 79 27 80 29 81 28 82
REMARK H PARENT 3 7 72 25 50 36 10 63
REMARK Flexibility Score: inf
ROOT
ATOM      1  C   UNL A   1      31.833  30.509  26.305  1.00  0.00     0.002 C 
ENDROOT
BRANCH   1   2
ATOM      2  C   UNL A   1      31.570  31.845  26.997  1.00  0.00     0.021 C 
BRANCH   2   3
ATOM      3  C   UNL A   1      32.724  32.832  26.926  1.00  0.00     0.116 C 
BRANCH   3   4
ATOM      4  N   UNL A   1      32.477  34.030  27.708  1.00  0.00    -0.352 N 
ATOM      5  O   UNL A   1      32.727  35.441  29.454  1.00  0.00    -0.269 OA
ATOM      6  C   UNL A   1      33.171  34.506  28.795  1.00  0.00     0.251 C 
ATOM      7  H   UNL A   1      31.709  34.574  27.422  1.00  0.00     0.163 HD
BRANCH   6   8
ATOM      8  C   UNL A   1      34.448  33.869  29.182  1.00  0.00     0.039 A 
ATOM      9  C   UNL A   1      34.484  32.918  30.204  1.00  0.00     0.014 A 
ATOM     10  C   UNL A   1      35.622  34.227  28.515  1.00  0.00     0.014 A 
ATOM     11  C   UNL A   1      35.706  32.435  30.654  1.00  0.00     0.010 A 
ATOM     12  C   UNL A   1      36.842  33.669  28.908  1.00  0.00     0.010 A 
ATOM     13  C   UNL A   1      36.897  32.786  29.998  1.00  0.00    -0.014 A 
BRANCH  13  14
ATOM     14  C   UNL A   1      38.171  32.155  30.427  1.00  0.00     0.031 A 
ATOM     15  C   UNL A   1      38.638  30.853  29.843  1.00  0.00     0.074 A 
ATOM     16  C   UNL A   1      38.930  32.801  31.333  1.00  0.00     0.049 A 
ATOM     17  N   UNL A   1      39.747  30.196  30.084  1.00  0.00    -0.248 NA
ATOM     18  C   UNL A   1      37.754  30.198  28.866  1.00  0.00     0.031 C 
ATOM     19  C   UNL A   1      38.578  34.070  31.977  1.00  0.00     0.029 A 
ATOM     20  N   UNL A   1      40.163  32.498  31.851  1.00  0.00    -0.354 N 
ATOM     21  C   UNL A   1      39.688  29.049  29.301  1.00  0.00     0.074 A 
ATOM     22  C   UNL A   1      38.425  29.084  28.597  1.00  0.00     0.031 C 
ATOM     23  C   UNL A   1      39.593  34.462  32.762  1.00  0.00     0.029 A 
ATOM     24  C   UNL A   1      40.635  33.445  32.728  1.00  0.00     0.049 A 
ATOM     25  H   UNL A   1      40.660  31.681  31.619  1.00  0.00     0.167 HD
ATOM     26  C   UNL A   1      40.609  28.063  29.176  1.00  0.00     0.031 A 
ATOM     27  C   UNL A   1      41.775  33.486  33.440  1.00  0.00     0.031 A 
ATOM     28  C   UNL A   1      41.862  28.023  29.886  1.00  0.00     0.049 A 
ATOM     29  C   UNL A   1      42.756  32.360  33.308  1.00  0.00     0.074 A 
ATOM     30  C   UNL A   1      42.861  27.068  29.821  1.00  0.00     0.029 A 
ATOM     31  N   UNL A   1      42.285  28.982  30.795  1.00  0.00    -0.354 N 
ATOM     32  N   UNL A   1      42.695  31.297  32.544  1.00  0.00    -0.248 NA
ATOM     33  C   UNL A   1      43.966  32.442  34.138  1.00  0.00     0.031 C 
ATOM     34  C   UNL A   1      43.871  27.426  30.722  1.00  0.00     0.029 A 
ATOM     35  C   UNL A   1      43.524  28.631  31.308  1.00  0.00     0.049 A 
ATOM     36  H   UNL A   1      41.781  29.792  31.038  1.00  0.00     0.167 HD
ATOM     37  C   UNL A   1      43.863  30.590  32.789  1.00  0.00     0.074 A 
ATOM     38  C   UNL A   1      44.626  31.359  33.752  1.00  0.00     0.031 C 
ATOM     39  C   UNL A   1      44.266  29.406  32.269  1.00  0.00     0.031 A 
BRANCH  26  40
ATOM     40  C   UNL A   1      40.289  26.927  28.243  1.00  0.00    -0.014 A 
ATOM     41  C   UNL A   1      40.790  26.901  26.932  1.00  0.00     0.009 A 
ATOM     42  C   UNL A   1      39.522  25.842  28.697  1.00  0.00     0.009 A 
ATOM     43  C   UNL A   1      40.507  25.825  26.086  1.00  0.00     0.001 A 
ATOM     44  C   UNL A   1      39.261  24.757  27.859  1.00  0.00     0.001 A 
ATOM     45  C   UNL A   1      39.747  24.752  26.552  1.00  0.00     0.000 A 
ENDBRANCH  26  40
BRANCH  27  46
ATOM     46  C   UNL A   1      42.035  34.626  34.356  1.00  0.00    -0.014 A 
ATOM     47  C   UNL A   1      42.684  35.782  33.898  1.00  0.00     0.009 A 
ATOM     48  C   UNL A   1      41.630  34.561  35.699  1.00  0.00     0.009 A 
ATOM     49  C   UNL A   1      42.946  36.838  34.773  1.00  0.00     0.001 A 
ATOM     50  C   UNL A   1      41.863  35.632  36.563  1.00  0.00     0.001 A 
ATOM     51  C   UNL A   1      42.531  36.764  36.102  1.00  0.00     0.000 A 
ENDBRANCH  27  46
BRANCH  39  52
ATOM     52  C   UNL A   1      45.604  28.892  32.715  1.00  0.00    -0.014 A 
ATOM     53  C   UNL A   1      45.724  28.040  33.824  1.00  0.00     0.009 A 
ATOM     54  C   UNL A   1      46.759  29.258  32.007  1.00  0.00     0.009 A 
ATOM     55  C   UNL A   1      46.981  27.597  34.240  1.00  0.00     0.001 A 
ATOM     56  C   UNL A   1      48.012  28.791  32.409  1.00  0.00     0.001 A 
ATOM     57  C   UNL A   1      48.122  27.971  33.531  1.00  0.00     0.000 A 
ENDBRANCH  39  52
ENDBRANCH  13  14
ENDBRANCH   6   8
ENDBRANCH   3   4
ENDBRANCH   2   3
ENDBRANCH   1   2
BRANCH   1  58
ATOM     58  C   UNL A   1      32.330  29.382  27.216  1.00  0.00     0.002 C 
BRANCH  58  59
ATOM     59  C   UNL A   1      31.429  28.143  27.299  1.00  0.00     0.021 C 
BRANCH  59  60
ATOM     60  C   UNL A   1      32.026  26.873  26.700  1.00  0.00     0.116 C 
BRANCH  60  61
ATOM     61  N   UNL A   1      31.181  25.711  26.906  1.00  0.00    -0.354 N 
ATOM     62  C   UNL A   1      31.453  24.373  26.821  1.00  0.00     0.242 C 
ATOM     63  H   UNL A   1      30.250  25.922  27.150  1.00  0.00     0.163 HD
ATOM     64  O   UNL A   1      30.566  23.595  27.176  1.00  0.00    -0.273 OA
BRANCH  62  65
ATOM     65  C   UNL A   1      32.847  23.899  26.357  1.00  0.00     0.176 C 
ATOM     66  C   UNL A   1      33.090  22.605  27.152  1.00  0.00     0.036 C 
ATOM     67  N   UNL A   1      33.272  23.713  24.943  1.00  0.00    -0.309 N 
ATOM     68  C   UNL A   1      34.557  22.225  27.117  1.00  0.00     0.008 C 
ATOM     69  C   UNL A   1      34.722  23.340  24.821  1.00  0.00     0.091 C 
ATOM     70  C   UNL A   1      35.030  22.072  25.671  1.00  0.00     0.012 C 
ATOM     71  C   UNL A   1      35.312  23.154  23.408  1.00  0.00     0.025 C 
ATOM     72  C   UNL A   1      36.527  21.728  25.676  1.00  0.00     0.006 C 
ATOM     73  C   UNL A   1      36.796  22.788  23.426  1.00  0.00     0.002 C 
ATOM     74  C   UNL A   1      37.065  21.549  24.267  1.00  0.00     0.000 C 
BRANCH  67  75
ATOM     75  C   UNL A   1      32.483  23.932  23.821  1.00  0.00     0.321 C 
ATOM     76  O   UNL A   1      32.120  23.052  23.041  1.00  0.00    -0.248 OA
ATOM     77  N   UNL A   1      32.029  25.220  23.601  1.00  0.00    -0.323 N 
ATOM     78  C   UNL A   1      30.571  25.314  23.495  1.00  0.00     0.132 C 
ATOM     79  C   UNL A   1      32.748  25.993  22.589  1.00  0.00     0.132 C 
ATOM     80  C   UNL A   1      30.018  26.728  23.635  1.00  0.00     0.091 C 
ATOM     81  C   UNL A   1      32.424  27.489  22.579  1.00  0.00     0.091 C 
ATOM     82  S   UNL A   1      30.654  27.826  22.326  1.00  0.00    -0.158 SA
ENDBRANCH  67  75
ENDBRANCH  62  65
ENDBRANCH  60  61
ENDBRANCH  59  60
ENDBRANCH  58  59
ENDBRANCH   1  58
TORSDOF 14
ENDMDL
MODEL 3
REMARK VINA RESULT:     -11.4      3.283      8.838
REMARK SMILES O=C(NCCCCCCNC(=O)[C@H]1CC[C@@H]2CCCC[C@H]2N1C(=O)N1CCSCC1)c1ccc(-c2c3nc(c(-c4ccccc4)c4ccc([nH]4)c(-c4ccccc4)c4nc(c(-c5ccccc5)c5ccc2[nH]5)C=C4)C=C3)cc1
REMARK SMILES IDX 6 1 5 2 4 3 3 4 1 5 2 6 31 8 32 9 78 10 33 11 77 12 34 13
REMARK SMILES IDX 35 14 36 15 71 16 37 17 76 18 70 19 72 20 38 21 75 22 69 23
REMARK SMILES IDX 68 24 39 26 61 27 46 28 60 29 47 30 50 31 59 32 73 33 48 34
REMARK SMILES IDX 49 35 58 37 74 38 51 39 40 40 41 41 45 42 42 43 44 44 43 45
REMARK SMILES IDX 62 46 63 47 67 48 64 49 66 50 65 51 52 52 53 53 57 54 54 55
REMARK SMILES IDX 56 56 55 57 7 58 8 59 9 60 10 61 11 62 12 64 13 65 14 66
REMARK SMILES IDX 22 67 15 68 21 69 16 70 20 71 17 72 19 73 18 74 23 75 24 76
REMARK SMILES IDX 25 77 26 78 30 79 27 80 29 81 28 82
REMARK H PARENT 3 7 72 25 50 36 10 63
REMARK Flexibility Score: inf
ROOT
ATOM      1  C   UNL A   1      36.647  20.407  24.635  1.00  0.00     0.002 C 
ENDROOT
BRANCH   1   2
ATOM      2  C   UNL A   1      37.805  19.464  24.957  1.00  0.00     0.021 C 
BRANCH   2   3
ATOM      3  C   UNL A   1      38.964  20.114  25.696  1.00  0.00     0.116 C 
BRANCH   3   4
ATOM      4  N   UNL A   1      40.138  19.262  25.744  1.00  0.00    -0.352 N 
ATOM      5  O   UNL A   1      42.344  18.795  25.887  1.00  0.00    -0.269 OA
ATOM      6  C   UNL A   1      41.432  19.596  26.066  1.00  0.00     0.251 C 
ATOM      7  H   UNL A   1      39.987  18.316  25.515  1.00  0.00     0.163 HD
BRANCH   6   8
ATOM      8  C   UNL A   1      41.724  20.940  26.608  1.00  0.00     0.039 A 
ATOM      9  C   UNL A   1      42.166  21.964  25.767  1.00  0.00     0.014 A 
ATOM     10  C   UNL A   1      41.556  21.179  27.975  1.00  0.00     0.014 A 
ATOM     11  C   UNL A   1      42.573  23.176  26.309  1.00  0.00     0.010 A 
ATOM     12  C   UNL A   1      41.879  22.431  28.507  1.00  0.00     0.010 A 
ATOM     13  C   UNL A   1      42.415  23.433  27.681  1.00  0.00    -0.014 A 
BRANCH  13  14
ATOM     14  C   UNL A   1      42.746  24.781  28.206  1.00  0.00     0.031 A 
ATOM     15  C   UNL A   1      44.162  25.178  28.515  1.00  0.00     0.074 A 
ATOM     16  C   UNL A   1      41.746  25.669  28.363  1.00  0.00     0.049 A 
ATOM     17  N   UNL A   1      44.617  26.331  28.939  1.00  0.00    -0.248 NA
ATOM     18  C   UNL A   1      45.203  24.155  28.328  1.00  0.00     0.031 C 
ATOM     19  C   UNL A   1      40.329  25.398  28.103  1.00  0.00     0.029 A 
ATOM     20  N   UNL A   1      41.764  26.983  28.754  1.00  0.00    -0.354 N 
ATOM     21  C   UNL A   1      45.990  26.170  29.082  1.00  0.00     0.074 A 
ATOM     22  C   UNL A   1      46.292  24.801  28.725  1.00  0.00     0.031 C 
ATOM     23  C   UNL A   1      39.624  26.523  28.289  1.00  0.00     0.029 A 
ATOM     24  C   UNL A   1      40.525  27.574  28.744  1.00  0.00     0.049 A 
ATOM     25  H   UNL A   1      42.587  27.456  29.017  1.00  0.00     0.167 HD
ATOM     26  C   UNL A   1      46.913  27.084  29.467  1.00  0.00     0.031 A 
ATOM     27  C   UNL A   1      40.147  28.822  29.077  1.00  0.00     0.031 A 
ATOM     28  C   UNL A   1      46.610  28.444  29.833  1.00  0.00     0.049 A 
ATOM     29  C   UNL A   1      41.187  29.798  29.537  1.00  0.00     0.074 A 
ATOM     30  C   UNL A   1      47.478  29.446  30.231  1.00  0.00     0.029 A 
ATOM     31  N   UNL A   1      45.336  28.993  29.847  1.00  0.00    -0.354 N 
ATOM     32  N   UNL A   1      42.484  29.635  29.641  1.00  0.00    -0.248 NA
ATOM     33  C   UNL A   1      40.711  31.133  29.923  1.00  0.00     0.031 C 
ATOM     34  C   UNL A   1      46.726  30.588  30.528  1.00  0.00     0.029 A 
ATOM     35  C   UNL A   1      45.395  30.313  30.263  1.00  0.00     0.049 A 
ATOM     36  H   UNL A   1      44.512  28.515  29.597  1.00  0.00     0.167 HD
ATOM     37  C   UNL A   1      42.981  30.849  30.091  1.00  0.00     0.074 A 
ATOM     38  C   UNL A   1      41.850  31.747  30.212  1.00  0.00     0.031 C 
ATOM     39  C   UNL A   1      44.259  31.190  30.383  1.00  0.00     0.031 A 
BRANCH  26  40
ATOM     40  C   UNL A   1      48.349  26.639  29.530  1.00  0.00    -0.014 A 
ATOM     41  C   UNL A   1      48.872  26.034  30.685  1.00  0.00     0.009 A 
ATOM     42  C   UNL A   1      49.175  26.776  28.403  1.00  0.00     0.009 A 
ATOM     43  C   UNL A   1      50.199  25.601  30.718  1.00  0.00     0.001 A 
ATOM     44  C   UNL A   1      50.494  26.319  28.430  1.00  0.00     0.001 A 
ATOM     45  C   UNL A   1      51.007  25.738  29.589  1.00  0.00     0.000 A 
ENDBRANCH  26  40
BRANCH  27  46
ATOM     46  C   UNL A   1      38.714  29.205  29.008  1.00  0.00    -0.014 A 
ATOM     47  C   UNL A   1      37.878  29.062  30.125  1.00  0.00     0.009 A 
ATOM     48  C   UNL A   1      38.176  29.720  27.817  1.00  0.00     0.009 A 
ATOM     49  C   UNL A   1      36.526  29.403  30.043  1.00  0.00     0.001 A 
ATOM     50  C   UNL A   1      36.832  30.091  27.748  1.00  0.00     0.001 A 
ATOM     51  C   UNL A   1      36.006  29.921  28.857  1.00  0.00     0.000 A 
ENDBRANCH  27  46
BRANCH  39  52
ATOM     52  C   UNL A   1      44.495  32.602  30.836  1.00  0.00    -0.014 A 
ATOM     53  C   UNL A   1      44.469  32.943  32.197  1.00  0.00     0.009 A 
ATOM     54  C   UNL A   1      44.759  33.601  29.886  1.00  0.00     0.009 A 
ATOM     55  C   UNL A   1      44.662  34.268  32.594  1.00  0.00     0.001 A 
ATOM     56  C   UNL A   1      44.979  34.918  30.289  1.00  0.00     0.001 A 
ATOM     57  C   UNL A   1      44.920  35.253  31.641  1.00  0.00     0.000 A 
ENDBRANCH  39  52
ENDBRANCH  13  14
ENDBRANCH   6   8
ENDBRANCH   3   4
ENDBRANCH   2   3
ENDBRANCH   1   2
BRANCH   1  58
ATOM     58  C   UNL A   1      36.993  21.900  24.646  1.00  0.00     0.002 C 
BRANCH  58  59
ATOM     59  C   UNL A   1      36.468  22.715  23.456  1.00  0.00     0.021 C 
BRANCH  59  60
ATOM     60  C   UNL A   1      35.359  23.707  23.796  1.00  0.00     0.116 C 
BRANCH  60  61
ATOM     61  N   UNL A   1      34.546  24.048  22.642  1.00  0.00    -0.354 N 
ATOM     62  C   UNL A   1      33.732  25.119  22.400  1.00  0.00     0.242 C 
ATOM     63  H   UNL A   1      34.589  23.395  21.906  1.00  0.00     0.163 HD
ATOM     64  O   UNL A   1      33.254  25.217  21.268  1.00  0.00    -0.273 OA
BRANCH  62  65
ATOM     65  C   UNL A   1      33.497  26.173  23.503  1.00  0.00     0.176 C 
ATOM     66  C   UNL A   1      33.373  27.500  22.737  1.00  0.00     0.036 C 
ATOM     67  N   UNL A   1      32.455  26.100  24.564  1.00  0.00    -0.309 N 
ATOM     68  C   UNL A   1      33.535  28.677  23.679  1.00  0.00     0.008 C 
ATOM     69  C   UNL A   1      32.553  27.231  25.546  1.00  0.00     0.091 C 
ATOM     70  C   UNL A   1      32.503  28.600  24.805  1.00  0.00     0.012 C 
ATOM     71  C   UNL A   1      31.558  27.262  26.725  1.00  0.00     0.025 C 
ATOM     72  C   UNL A   1      32.726  29.783  25.758  1.00  0.00     0.006 C 
ATOM     73  C   UNL A   1      31.773  28.458  27.654  1.00  0.00     0.002 C 
ATOM     74  C   UNL A   1      31.724  29.778  26.901  1.00  0.00     0.000 C 
BRANCH  67  75
ATOM     75  C   UNL A   1      31.529  25.076  24.725  1.00  0.00     0.321 C 
ATOM     76  O   UNL A   1      30.310  25.234  24.728  1.00  0.00    -0.248 OA
ATOM     77  N   UNL A   1      32.017  23.786  24.833  1.00  0.00    -0.323 N 
ATOM     78  C   UNL A   1      31.463  22.869  23.835  1.00  0.00     0.132 C 
ATOM     79  C   UNL A   1      32.071  23.229  26.184  1.00  0.00     0.132 C 
ATOM     80  C   UNL A   1      32.239  21.566  23.676  1.00  0.00     0.091 C 
ATOM     81  C   UNL A   1      32.881  21.935  26.309  1.00  0.00     0.091 C 
ATOM     82  S   UNL A   1      32.262  20.609  25.227  1.00  0.00    -0.158 SA
ENDBRANCH  67  75
ENDBRANCH  62  65
ENDBRANCH  60  61
ENDBRANCH  59  60
ENDBRANCH  58  59
ENDBRANCH   1  58
TORSDOF 14
ENDMDL
