MODEL 1
REMARK VINA RESULT:     -10.7      0.000      0.000
REMARK SMILES COc1cc(NC(=O)[C@@H]2CC=CC[C@H]2C(=O)NCCCCCCNC(=O)c2ccc(-c3c4nc(c(-c5ccccc5)c5ccc([nH]5)c(-c5ccccc5)c5nc(c(-c6ccccc6)c6ccc3[nH]6)C=C5)C=C4)cc2)c(OC)cc1Cl
REMARK SMILES IDX 20 1 19 2 18 3 17 4 15 5 16 6 14 8 9 9 10 10 11 11 13 12
REMARK SMILES IDX 12 13 7 14 6 15 8 17 5 18 3 19 4 20 79 21 78 22 80 23 75 24
REMARK SMILES IDX 2 25 1 26 76 27 77 28 21 29 22 30 23 31 24 32 25 33 26 35
REMARK SMILES IDX 27 36 28 37 74 38 29 39 73 40 30 41 31 42 32 43 67 44 33 45
REMARK SMILES IDX 72 46 66 47 68 48 34 49 71 50 65 51 64 52 35 54 57 55 42 56
REMARK SMILES IDX 56 57 43 58 46 59 55 60 69 61 44 62 45 63 54 65 70 66 47 67
REMARK SMILES IDX 36 68 37 69 41 70 38 71 40 72 39 73 58 74 59 75 63 76 60 77
REMARK SMILES IDX 62 78 61 79 48 80 49 81 53 82 50 83 52 84 51 85
REMARK H PARENT 17 7 6 16 24 34 68 53 46 64
REMARK Flexibility Score: inf
ROOT
ATOM      1  C   UNL A   1      36.790  21.995  25.680  1.00  0.00     0.002 C 
ENDROOT
BRANCH   1   2
ATOM      2  C   UNL A   1      36.571  23.403  25.112  1.00  0.00     0.021 C 
BRANCH   2   3
ATOM      3  C   UNL A   1      35.206  23.622  24.470  1.00  0.00     0.116 C 
BRANCH   3   4
ATOM      4  N   UNL A   1      34.204  23.994  25.442  1.00  0.00    -0.356 N 
ATOM      5  C   UNL A   1      33.313  23.203  26.080  1.00  0.00     0.224 C 
ATOM      6  O   UNL A   1      33.055  23.496  27.253  1.00  0.00    -0.275 OA
ATOM      7  H   UNL A   1      34.166  24.951  25.670  1.00  0.00     0.163 HD
BRANCH   5   8
ATOM      8  C   UNL A   1      32.712  21.935  25.476  1.00  0.00     0.095 C 
ATOM      9  C   UNL A   1      32.883  21.694  23.959  1.00  0.00     0.095 C 
ATOM     10  C   UNL A   1      32.740  20.160  23.637  1.00  0.00     0.041 C 
ATOM     11  C   UNL A   1      33.141  19.159  24.666  1.00  0.00    -0.030 C 
ATOM     12  C   UNL A   1      33.289  20.862  26.442  1.00  0.00     0.041 C 
ATOM     13  C   UNL A   1      33.383  19.473  25.937  1.00  0.00    -0.030 C 
BRANCH   9  14
ATOM     14  C   UNL A   1      32.031  22.357  22.825  1.00  0.00     0.228 C 
ATOM     15  N   UNL A   1      31.815  23.621  22.421  1.00  0.00    -0.323 N 
ATOM     16  H   UNL A   1      31.299  23.592  21.584  1.00  0.00     0.170 HD
ATOM     17  O   UNL A   1      31.524  21.567  21.995  1.00  0.00    -0.274 OA
BRANCH  15  18
ATOM     18  C   UNL A   1      32.050  24.964  22.744  1.00  0.00     0.087 A 
ATOM     19  C   UNL A   1      31.942  26.902  24.193  1.00  0.00     0.139 A 
ATOM     20  C   UNL A   1      31.535  25.609  23.845  1.00  0.00     0.078 A 
ATOM     21  C   UNL A   1      32.802  27.607  23.359  1.00  0.00     0.086 A 
ATOM     22  C   UNL A   1      33.227  27.032  22.166  1.00  0.00     0.073 A 
ATOM     23  Cl  UNL A   1      33.326  29.204  23.749  1.00  0.00    -0.080 Cl
ATOM     24  C   UNL A   1      32.861  25.714  21.855  1.00  0.00     0.144 A 
BRANCH  19  25
ATOM     25  O   UNL A   1      31.620  27.413  25.420  1.00  0.00    -0.495 OA
ATOM     26  C   UNL A   1      31.260  26.413  26.368  1.00  0.00     0.278 C 
ENDBRANCH  19  25
BRANCH  24  27
ATOM     27  O   UNL A   1      33.261  25.063  20.707  1.00  0.00    -0.495 OA
ATOM     28  C   UNL A   1      32.600  25.438  19.499  1.00  0.00     0.278 C 
ENDBRANCH  24  27
ENDBRANCH  15  18
ENDBRANCH   9  14
ENDBRANCH   5   8
ENDBRANCH   3   4
ENDBRANCH   2   3
ENDBRANCH   1   2
BRANCH   1  29
ATOM     29  C   UNL A   1      36.815  20.861  24.650  1.00  0.00     0.002 C 
BRANCH  29  30
ATOM     30  C   UNL A   1      37.916  19.818  24.850  1.00  0.00     0.021 C 
BRANCH  30  31
ATOM     31  C   UNL A   1      39.001  20.222  25.836  1.00  0.00     0.116 C 
BRANCH  31  32
ATOM     32  N   UNL A   1      40.122  19.298  25.823  1.00  0.00    -0.352 N 
ATOM     33  C   UNL A   1      41.451  19.554  26.040  1.00  0.00     0.251 C 
ATOM     34  H   UNL A   1      39.896  18.358  25.635  1.00  0.00     0.163 HD
ATOM     35  O   UNL A   1      42.297  18.695  25.797  1.00  0.00    -0.269 OA
BRANCH  33  36
ATOM     36  C   UNL A   1      41.870  20.878  26.544  1.00  0.00     0.039 A 
ATOM     37  C   UNL A   1      42.290  21.847  25.630  1.00  0.00     0.014 A 
ATOM     38  C   UNL A   1      41.846  21.165  27.913  1.00  0.00     0.014 A 
ATOM     39  C   UNL A   1      42.632  23.122  26.083  1.00  0.00     0.010 A 
ATOM     40  C   UNL A   1      42.109  22.458  28.353  1.00  0.00     0.010 A 
ATOM     41  C   UNL A   1      42.513  23.448  27.445  1.00  0.00    -0.014 A 
BRANCH  41  42
ATOM     42  C   UNL A   1      42.808  24.819  27.933  1.00  0.00     0.031 A 
ATOM     43  C   UNL A   1      44.218  25.209  28.287  1.00  0.00     0.074 A 
ATOM     44  C   UNL A   1      41.801  25.697  28.107  1.00  0.00     0.049 A 
ATOM     45  N   UNL A   1      44.663  26.341  28.772  1.00  0.00    -0.248 NA
ATOM     46  C   UNL A   1      45.261  24.188  28.092  1.00  0.00     0.031 C 
ATOM     47  C   UNL A   1      40.386  25.432  27.834  1.00  0.00     0.029 A 
ATOM     48  N   UNL A   1      41.813  26.993  28.559  1.00  0.00    -0.354 N 
ATOM     49  C   UNL A   1      46.030  26.163  28.948  1.00  0.00     0.074 A 
ATOM     50  C   UNL A   1      46.333  24.800  28.573  1.00  0.00     0.031 C 
ATOM     51  C   UNL A   1      39.673  26.538  28.097  1.00  0.00     0.029 A 
ATOM     52  C   UNL A   1      40.569  27.575  28.598  1.00  0.00     0.049 A 
ATOM     53  H   UNL A   1      42.636  27.462  28.830  1.00  0.00     0.167 HD
ATOM     54  C   UNL A   1      46.954  27.061  29.366  1.00  0.00     0.031 A 
ATOM     55  C   UNL A   1      40.190  28.802  29.002  1.00  0.00     0.031 A 
ATOM     56  C   UNL A   1      46.655  28.418  29.736  1.00  0.00     0.049 A 
ATOM     57  C   UNL A   1      41.233  29.768  29.491  1.00  0.00     0.074 A 
ATOM     58  C   UNL A   1      47.530  29.416  30.128  1.00  0.00     0.029 A 
ATOM     59  N   UNL A   1      45.383  28.966  29.764  1.00  0.00    -0.354 N 
ATOM     60  N   UNL A   1      42.531  29.605  29.587  1.00  0.00    -0.248 NA
ATOM     61  C   UNL A   1      40.760  31.093  29.918  1.00  0.00     0.031 C 
ATOM     62  C   UNL A   1      46.780  30.552  30.450  1.00  0.00     0.029 A 
ATOM     63  C   UNL A   1      45.445  30.281  30.193  1.00  0.00     0.049 A 
ATOM     64  H   UNL A   1      44.556  28.491  29.516  1.00  0.00     0.167 HD
ATOM     65  C   UNL A   1      43.031  30.815  30.054  1.00  0.00     0.074 A 
ATOM     66  C   UNL A   1      41.900  31.707  30.202  1.00  0.00     0.031 C 
ATOM     67  C   UNL A   1      44.311  31.157  30.333  1.00  0.00     0.031 A 
BRANCH  54  68
ATOM     68  C   UNL A   1      48.384  26.598  29.449  1.00  0.00    -0.014 A 
ATOM     69  C   UNL A   1      49.256  26.725  28.356  1.00  0.00     0.009 A 
ATOM     70  C   UNL A   1      48.880  26.075  30.654  1.00  0.00     0.009 A 
ATOM     71  C   UNL A   1      50.584  26.307  28.457  1.00  0.00     0.001 A 
ATOM     72  C   UNL A   1      50.217  25.687  30.762  1.00  0.00     0.001 A 
ATOM     73  C   UNL A   1      51.065  25.795  29.661  1.00  0.00     0.000 A 
ENDBRANCH  54  68
BRANCH  55  74
ATOM     74  C   UNL A   1      38.756  29.196  28.961  1.00  0.00    -0.014 A 
ATOM     75  C   UNL A   1      38.202  29.764  27.803  1.00  0.00     0.009 A 
ATOM     76  C   UNL A   1      37.938  29.032  30.090  1.00  0.00     0.009 A 
ATOM     77  C   UNL A   1      36.873  30.193  27.789  1.00  0.00     0.001 A 
ATOM     78  C   UNL A   1      36.600  29.430  30.063  1.00  0.00     0.001 A 
ATOM     79  C   UNL A   1      36.072  30.022  28.917  1.00  0.00     0.000 A 
ENDBRANCH  55  74
BRANCH  67  80
ATOM     80  C   UNL A   1      44.566  32.569  30.786  1.00  0.00    -0.014 A 
ATOM     81  C   UNL A   1      44.971  33.566  29.885  1.00  0.00     0.009 A 
ATOM     82  C   UNL A   1      44.359  32.911  32.131  1.00  0.00     0.009 A 
ATOM     83  C   UNL A   1      45.197  34.870  30.332  1.00  0.00     0.001 A 
ATOM     84  C   UNL A   1      44.554  34.223  32.567  1.00  0.00     0.001 A 
ATOM     85  C   UNL A   1      44.984  35.198  31.670  1.00  0.00     0.000 A 
ENDBRANCH  67  80
ENDBRANCH  41  42
ENDBRANCH  33  36
ENDBRANCH  31  32
ENDBRANCH  30  31
ENDBRANCH  29  30
ENDBRANCH   1  29
TORSDOF 17
ENDMDL
MODEL 2
REMARK VINA RESULT:     -10.6      1.452      2.074
REMARK SMILES COc1cc(NC(=O)[C@@H]2CC=CC[C@H]2C(=O)NCCCCCCNC(=O)c2ccc(-c3c4nc(c(-c5ccccc5)c5ccc([nH]5)c(-c5ccccc5)c5nc(c(-c6ccccc6)c6ccc3[nH]6)C=C5)C=C4)cc2)c(OC)cc1Cl
REMARK SMILES IDX 20 1 19 2 18 3 17 4 15 5 16 6 14 8 9 9 10 10 11 11 13 12
REMARK SMILES IDX 12 13 7 14 6 15 8 17 5 18 3 19 4 20 79 21 78 22 80 23 75 24
REMARK SMILES IDX 2 25 1 26 76 27 77 28 21 29 22 30 23 31 24 32 25 33 26 35
REMARK SMILES IDX 27 36 28 37 74 38 29 39 73 40 30 41 31 42 32 43 67 44 33 45
REMARK SMILES IDX 72 46 66 47 68 48 34 49 71 50 65 51 64 52 35 54 57 55 42 56
REMARK SMILES IDX 56 57 43 58 46 59 55 60 69 61 44 62 45 63 54 65 70 66 47 67
REMARK SMILES IDX 36 68 37 69 41 70 38 71 40 72 39 73 58 74 59 75 63 76 60 77
REMARK SMILES IDX 62 78 61 79 48 80 49 81 53 82 50 83 52 84 51 85
REMARK H PARENT 17 7 6 16 24 34 68 53 46 64
REMARK Flexibility Score: inf
ROOT
ATOM      1  C   UNL A   1      38.056  22.547  25.669  1.00  0.00     0.002 C 
ENDROOT
BRANCH   1   2
ATOM      2  C   UNL A   1      37.145  23.776  25.770  1.00  0.00     0.021 C 
BRANCH   2   3
ATOM      3  C   UNL A   1      35.665  23.488  25.544  1.00  0.00     0.116 C 
BRANCH   3   4
ATOM      4  N   UNL A   1      35.013  23.028  26.747  1.00  0.00    -0.356 N 
ATOM      5  C   UNL A   1      33.925  22.235  26.867  1.00  0.00     0.224 C 
ATOM      6  O   UNL A   1      33.922  21.440  27.813  1.00  0.00    -0.275 OA
ATOM      7  H   UNL A   1      35.414  23.333  27.593  1.00  0.00     0.163 HD
BRANCH   5   8
ATOM      8  C   UNL A   1      32.783  22.194  25.853  1.00  0.00     0.095 C 
ATOM      9  C   UNL A   1      32.235  23.535  25.313  1.00  0.00     0.095 C 
ATOM     10  C   UNL A   1      31.525  23.308  23.926  1.00  0.00     0.041 C 
ATOM     11  C   UNL A   1      31.997  22.209  23.037  1.00  0.00    -0.030 C 
ATOM     12  C   UNL A   1      33.358  21.187  24.819  1.00  0.00     0.041 C 
ATOM     13  C   UNL A   1      32.820  21.245  23.441  1.00  0.00    -0.030 C 
BRANCH   9  14
ATOM     14  C   UNL A   1      31.232  24.480  26.055  1.00  0.00     0.228 C 
ATOM     15  N   UNL A   1      30.543  25.583  25.713  1.00  0.00    -0.323 N 
ATOM     16  H   UNL A   1      29.926  25.800  26.449  1.00  0.00     0.170 HD
ATOM     17  O   UNL A   1      30.847  24.086  27.180  1.00  0.00    -0.274 OA
BRANCH  15  18
ATOM     18  C   UNL A   1      30.372  26.539  24.703  1.00  0.00     0.087 A 
ATOM     19  C   UNL A   1      29.054  27.844  23.146  1.00  0.00     0.139 A 
ATOM     20  C   UNL A   1      29.196  26.766  24.026  1.00  0.00     0.078 A 
ATOM     21  C   UNL A   1      30.148  28.651  22.854  1.00  0.00     0.086 A 
ATOM     22  C   UNL A   1      31.386  28.359  23.416  1.00  0.00     0.073 A 
ATOM     23  Cl  UNL A   1      30.016  29.988  21.773  1.00  0.00    -0.080 Cl
ATOM     24  C   UNL A   1      31.505  27.312  24.342  1.00  0.00     0.144 A 
BRANCH  19  25
ATOM     25  O   UNL A   1      27.812  28.198  22.694  1.00  0.00    -0.495 OA
ATOM     26  C   UNL A   1      27.218  29.249  23.449  1.00  0.00     0.278 C 
ENDBRANCH  19  25
BRANCH  24  27
ATOM     27  O   UNL A   1      32.689  26.975  24.963  1.00  0.00    -0.495 OA
ATOM     28  C   UNL A   1      33.832  26.833  24.120  1.00  0.00     0.278 C 
ENDBRANCH  24  27
ENDBRANCH  15  18
ENDBRANCH   9  14
ENDBRANCH   5   8
ENDBRANCH   3   4
ENDBRANCH   2   3
ENDBRANCH   1   2
BRANCH   1  29
ATOM     29  C   UNL A   1      37.522  21.394  24.813  1.00  0.00     0.002 C 
BRANCH  29  30
ATOM     30  C   UNL A   1      38.243  20.057  24.990  1.00  0.00     0.021 C 
BRANCH  30  31
ATOM     31  C   UNL A   1      39.179  19.994  26.187  1.00  0.00     0.116 C 
BRANCH  31  32
ATOM     32  N   UNL A   1      40.360  19.193  25.916  1.00  0.00    -0.352 N 
ATOM     33  C   UNL A   1      41.679  19.567  25.940  1.00  0.00     0.251 C 
ATOM     34  H   UNL A   1      40.190  18.251  25.685  1.00  0.00     0.163 HD
ATOM     35  O   UNL A   1      42.545  18.818  25.492  1.00  0.00    -0.269 OA
BRANCH  33  36
ATOM     36  C   UNL A   1      42.056  20.888  26.483  1.00  0.00     0.039 A 
ATOM     37  C   UNL A   1      42.412  21.907  25.597  1.00  0.00     0.014 A 
ATOM     38  C   UNL A   1      42.057  21.122  27.863  1.00  0.00     0.014 A 
ATOM     39  C   UNL A   1      42.713  23.178  26.091  1.00  0.00     0.010 A 
ATOM     40  C   UNL A   1      42.279  22.408  28.346  1.00  0.00     0.010 A 
ATOM     41  C   UNL A   1      42.617  23.447  27.466  1.00  0.00    -0.014 A 
BRANCH  41  42
ATOM     42  C   UNL A   1      42.868  24.810  28.000  1.00  0.00     0.031 A 
ATOM     43  C   UNL A   1      44.255  25.213  28.423  1.00  0.00     0.074 A 
ATOM     44  C   UNL A   1      41.841  25.668  28.152  1.00  0.00     0.049 A 
ATOM     45  N   UNL A   1      44.661  26.340  28.953  1.00  0.00    -0.248 NA
ATOM     46  C   UNL A   1      45.322  24.214  28.247  1.00  0.00     0.031 C 
ATOM     47  C   UNL A   1      40.443  25.388  27.813  1.00  0.00     0.029 A 
ATOM     48  N   UNL A   1      41.812  26.952  28.635  1.00  0.00    -0.354 N 
ATOM     49  C   UNL A   1      46.022  26.179  29.183  1.00  0.00     0.074 A 
ATOM     50  C   UNL A   1      46.363  24.830  28.788  1.00  0.00     0.031 C 
ATOM     51  C   UNL A   1      39.701  26.476  28.071  1.00  0.00     0.029 A 
ATOM     52  C   UNL A   1      40.558  27.514  28.635  1.00  0.00     0.049 A 
ATOM     53  H   UNL A   1      42.615  27.427  28.951  1.00  0.00     0.167 HD
ATOM     54  C   UNL A   1      46.913  27.080  29.661  1.00  0.00     0.031 A 
ATOM     55  C   UNL A   1      40.142  28.725  29.051  1.00  0.00     0.031 A 
ATOM     56  C   UNL A   1      46.576  28.423  30.050  1.00  0.00     0.049 A 
ATOM     57  C   UNL A   1      41.148  29.694  29.608  1.00  0.00     0.074 A 
ATOM     58  C   UNL A   1      47.417  29.425  30.502  1.00  0.00     0.029 A 
ATOM     59  N   UNL A   1      45.295  28.950  30.038  1.00  0.00    -0.354 N 
ATOM     60  N   UNL A   1      42.443  29.549  29.755  1.00  0.00    -0.248 NA
ATOM     61  C   UNL A   1      40.635  31.000  30.046  1.00  0.00     0.031 C 
ATOM     62  C   UNL A   1      46.635  30.540  30.820  1.00  0.00     0.029 A 
ATOM     63  C   UNL A   1      45.318  30.255  30.500  1.00  0.00     0.049 A 
ATOM     64  H   UNL A   1      44.487  28.469  29.743  1.00  0.00     0.167 HD
ATOM     65  C   UNL A   1      42.902  30.754  30.271  1.00  0.00     0.074 A 
ATOM     66  C   UNL A   1      41.752  31.625  30.393  1.00  0.00     0.031 C 
ATOM     67  C   UNL A   1      44.164  31.110  30.612  1.00  0.00     0.031 A 
BRANCH  54  68
ATOM     68  C   UNL A   1      48.346  26.638  29.794  1.00  0.00    -0.014 A 
ATOM     69  C   UNL A   1      48.790  25.937  30.926  1.00  0.00     0.009 A 
ATOM     70  C   UNL A   1      49.252  26.882  28.749  1.00  0.00     0.009 A 
ATOM     71  C   UNL A   1      50.118  25.520  31.025  1.00  0.00     0.001 A 
ATOM     72  C   UNL A   1      50.572  26.435  28.836  1.00  0.00     0.001 A 
ATOM     73  C   UNL A   1      51.006  25.763  29.977  1.00  0.00     0.000 A 
ENDBRANCH  54  68
BRANCH  55  74
ATOM     74  C   UNL A   1      38.705  29.097  28.959  1.00  0.00    -0.014 A 
ATOM     75  C   UNL A   1      38.173  29.612  27.766  1.00  0.00     0.009 A 
ATOM     76  C   UNL A   1      37.861  28.966  30.073  1.00  0.00     0.009 A 
ATOM     77  C   UNL A   1      36.840  30.022  27.702  1.00  0.00     0.001 A 
ATOM     78  C   UNL A   1      36.519  29.344  29.997  1.00  0.00     0.001 A 
ATOM     79  C   UNL A   1      36.012  29.884  28.816  1.00  0.00     0.000 A 
ENDBRANCH  55  74
BRANCH  67  80
ATOM     80  C   UNL A   1      44.376  32.513  31.109  1.00  0.00    -0.014 A 
ATOM     81  C   UNL A   1      44.265  32.833  32.472  1.00  0.00     0.009 A 
ATOM     82  C   UNL A   1      44.728  33.524  30.200  1.00  0.00     0.009 A 
ATOM     83  C   UNL A   1      44.470  34.145  32.907  1.00  0.00     0.001 A 
ATOM     84  C   UNL A   1      44.965  34.826  30.643  1.00  0.00     0.001 A 
ATOM     85  C   UNL A   1      44.824  35.138  31.994  1.00  0.00     0.000 A 
ENDBRANCH  67  80
ENDBRANCH  41  42
ENDBRANCH  33  36
ENDBRANCH  31  32
ENDBRANCH  30  31
ENDBRANCH  29  30
ENDBRANCH   1  29
TORSDOF 17
ENDMDL
MODEL 3
REMARK VINA RESULT:     -10.6      3.766      8.942
REMARK SMILES COc1cc(NC(=O)[C@@H]2CC=CC[C@H]2C(=O)NCCCCCCNC(=O)c2ccc(-c3c4nc(c(-c5ccccc5)c5ccc([nH]5)c(-c5ccccc5)c5nc(c(-c6ccccc6)c6ccc3[nH]6)C=C5)C=C4)cc2)c(OC)cc1Cl
REMARK SMILES IDX 20 1 19 2 18 3 17 4 15 5 16 6 14 8 9 9 10 10 11 11 13 12
REMARK SMILES IDX 12 13 7 14 6 15 8 17 5 18 3 19 4 20 79 21 78 22 80 23 75 24
REMARK SMILES IDX 2 25 1 26 76 27 77 28 21 29 22 30 23 31 24 32 25 33 26 35
REMARK SMILES IDX 27 36 28 37 74 38 29 39 73 40 30 41 31 42 32 43 67 44 33 45
REMARK SMILES IDX 72 46 66 47 68 48 34 49 71 50 65 51 64 52 35 54 57 55 42 56
REMARK SMILES IDX 56 57 43 58 46 59 55 60 69 61 44 62 45 63 54 65 70 66 47 67
REMARK SMILES IDX 36 68 37 69 41 70 38 71 40 72 39 73 58 74 59 75 63 76 60 77
REMARK SMILES IDX 62 78 61 79 48 80 49 81 53 82 50 83 52 84 51 85
REMARK H PARENT 17 7 6 16 24 34 68 53 46 64
REMARK Flexibility Score: inf
ROOT
ATOM      1  C   UNL A   1      35.096  30.246  28.369  1.00  0.00     0.002 C 
ENDROOT
BRANCH   1   2
ATOM      2  C   UNL A   1      35.383  29.131  27.356  1.00  0.00     0.021 C 
BRANCH   2   3
ATOM      3  C   UNL A   1      34.199  28.757  26.472  1.00  0.00     0.116 C 
BRANCH   3   4
ATOM      4  N   UNL A   1      32.947  28.823  27.189  1.00  0.00    -0.356 N 
ATOM      5  C   UNL A   1      31.845  28.056  27.034  1.00  0.00     0.224 C 
ATOM      6  O   UNL A   1      31.215  27.781  28.061  1.00  0.00    -0.275 OA
ATOM      7  H   UNL A   1      32.888  29.520  27.882  1.00  0.00     0.163 HD
BRANCH   5   8
ATOM      8  C   UNL A   1      31.416  27.435  25.705  1.00  0.00     0.095 C 
ATOM      9  C   UNL A   1      30.268  26.401  25.717  1.00  0.00     0.095 C 
ATOM     10  C   UNL A   1      29.598  26.322  24.294  1.00  0.00     0.041 C 
ATOM     11  C   UNL A   1      29.589  27.533  23.425  1.00  0.00    -0.030 C 
ATOM     12  C   UNL A   1      31.219  28.715  24.846  1.00  0.00     0.041 C 
ATOM     13  C   UNL A   1      30.326  28.613  23.668  1.00  0.00    -0.030 C 
BRANCH   9  14
ATOM     14  C   UNL A   1      30.399  24.892  26.112  1.00  0.00     0.228 C 
ATOM     15  N   UNL A   1      31.282  23.917  25.838  1.00  0.00    -0.323 N 
ATOM     16  H   UNL A   1      31.057  23.133  26.389  1.00  0.00     0.170 HD
ATOM     17  O   UNL A   1      29.599  24.489  26.989  1.00  0.00    -0.274 OA
BRANCH  15  18
ATOM     18  C   UNL A   1      32.404  23.596  25.062  1.00  0.00     0.087 A 
ATOM     19  C   UNL A   1      33.692  23.567  23.011  1.00  0.00     0.139 A 
ATOM     20  C   UNL A   1      32.487  23.754  23.697  1.00  0.00     0.078 A 
ATOM     21  C   UNL A   1      34.814  23.107  23.690  1.00  0.00     0.086 A 
ATOM     22  C   UNL A   1      34.721  22.804  25.044  1.00  0.00     0.073 A 
ATOM     23  Cl  UNL A   1      36.317  22.861  22.881  1.00  0.00    -0.080 Cl
ATOM     24  C   UNL A   1      33.526  23.049  25.736  1.00  0.00     0.144 A 
BRANCH  19  25
ATOM     25  O   UNL A   1      33.809  23.980  21.712  1.00  0.00    -0.495 OA
ATOM     26  C   UNL A   1      33.035  25.139  21.419  1.00  0.00     0.278 C 
ENDBRANCH  19  25
BRANCH  24  27
ATOM     27  O   UNL A   1      33.360  22.802  27.082  1.00  0.00    -0.495 OA
ATOM     28  C   UNL A   1      33.930  21.593  27.581  1.00  0.00     0.278 C 
ENDBRANCH  24  27
ENDBRANCH  15  18
ENDBRANCH   9  14
ENDBRANCH   5   8
ENDBRANCH   3   4
ENDBRANCH   2   3
ENDBRANCH   1   2
BRANCH   1  29
ATOM     29  C   UNL A   1      35.277  31.676  27.850  1.00  0.00     0.002 C 
BRANCH  29  30
ATOM     30  C   UNL A   1      34.007  32.530  27.823  1.00  0.00     0.021 C 
BRANCH  30  31
ATOM     31  C   UNL A   1      34.250  34.029  27.897  1.00  0.00     0.116 C 
BRANCH  31  32
ATOM     32  N   UNL A   1      33.571  34.638  29.027  1.00  0.00    -0.352 N 
ATOM     33  C   UNL A   1      33.852  34.522  30.364  1.00  0.00     0.251 C 
ATOM     34  H   UNL A   1      32.804  35.213  28.803  1.00  0.00     0.163 HD
ATOM     35  O   UNL A   1      33.058  34.943  31.204  1.00  0.00    -0.269 OA
BRANCH  33  36
ATOM     36  C   UNL A   1      35.103  33.866  30.796  1.00  0.00     0.039 A 
ATOM     37  C   UNL A   1      35.026  32.725  31.598  1.00  0.00     0.014 A 
ATOM     38  C   UNL A   1      36.349  34.372  30.410  1.00  0.00     0.014 A 
ATOM     39  C   UNL A   1      36.196  32.058  31.965  1.00  0.00     0.010 A 
ATOM     40  C   UNL A   1      37.507  33.662  30.709  1.00  0.00     0.010 A 
ATOM     41  C   UNL A   1      37.444  32.502  31.497  1.00  0.00    -0.014 A 
BRANCH  41  42
ATOM     42  C   UNL A   1      38.692  31.766  31.823  1.00  0.00     0.031 A 
ATOM     43  C   UNL A   1      39.142  30.620  30.958  1.00  0.00     0.074 A 
ATOM     44  C   UNL A   1      39.393  32.095  32.925  1.00  0.00     0.049 A 
ATOM     45  N   UNL A   1      40.176  29.830  31.107  1.00  0.00    -0.248 NA
ATOM     46  C   UNL A   1      38.311  30.305  29.784  1.00  0.00     0.031 C 
ATOM     47  C   UNL A   1      39.045  33.164  33.865  1.00  0.00     0.029 A 
ATOM     48  N   UNL A   1      40.546  31.561  33.444  1.00  0.00    -0.354 N 
ATOM     49  C   UNL A   1      40.112  28.923  30.057  1.00  0.00     0.074 A 
ATOM     50  C   UNL A   1      38.911  29.222  29.310  1.00  0.00     0.031 C 
ATOM     51  C   UNL A   1      39.979  33.224  34.828  1.00  0.00     0.029 A 
ATOM     52  C   UNL A   1      40.966  32.174  34.601  1.00  0.00     0.049 A 
ATOM     53  H   UNL A   1      41.028  30.810  33.027  1.00  0.00     0.167 HD
ATOM     54  C   UNL A   1      40.986  27.941  29.731  1.00  0.00     0.031 A 
ATOM     55  C   UNL A   1      42.020  31.912  35.395  1.00  0.00     0.031 A 
ATOM     56  C   UNL A   1      42.183  27.644  30.471  1.00  0.00     0.049 A 
ATOM     57  C   UNL A   1      42.957  30.795  35.027  1.00  0.00     0.074 A 
ATOM     58  C   UNL A   1      43.155  26.699  30.193  1.00  0.00     0.029 A 
ATOM     59  N   UNL A   1      42.568  28.285  31.637  1.00  0.00    -0.354 N 
ATOM     60  N   UNL A   1      42.918  29.991  33.992  1.00  0.00    -0.248 NA
ATOM     61  C   UNL A   1      44.091  30.557  35.931  1.00  0.00     0.031 C 
ATOM     62  C   UNL A   1      44.099  26.729  31.224  1.00  0.00     0.029 A 
ATOM     63  C   UNL A   1      43.751  27.739  32.106  1.00  0.00     0.049 A 
ATOM     64  H   UNL A   1      42.076  29.021  32.069  1.00  0.00     0.167 HD
ATOM     65  C   UNL A   1      44.037  29.174  34.104  1.00  0.00     0.074 A 
ATOM     66  C   UNL A   1      44.744  29.594  35.296  1.00  0.00     0.031 C 
ATOM     67  C   UNL A   1      44.444  28.169  33.293  1.00  0.00     0.031 A 
BRANCH  54  68
ATOM     68  C   UNL A   1      40.674  27.108  28.516  1.00  0.00    -0.014 A 
ATOM     69  C   UNL A   1      41.228  27.413  27.263  1.00  0.00     0.009 A 
ATOM     70  C   UNL A   1      39.856  25.973  28.639  1.00  0.00     0.009 A 
ATOM     71  C   UNL A   1      40.942  26.619  26.150  1.00  0.00     0.001 A 
ATOM     72  C   UNL A   1      39.597  25.163  27.531  1.00  0.00     0.001 A 
ATOM     73  C   UNL A   1      40.133  25.491  26.287  1.00  0.00     0.000 A 
ENDBRANCH  54  68
BRANCH  55  74
ATOM     74  C   UNL A   1      42.256  32.721  36.621  1.00  0.00    -0.014 A 
ATOM     75  C   UNL A   1      43.057  33.873  36.576  1.00  0.00     0.009 A 
ATOM     76  C   UNL A   1      41.701  32.331  37.851  1.00  0.00     0.009 A 
ATOM     77  C   UNL A   1      43.330  34.593  37.741  1.00  0.00     0.001 A 
ATOM     78  C   UNL A   1      41.947  33.073  39.008  1.00  0.00     0.001 A 
ATOM     79  C   UNL A   1      42.771  34.196  38.955  1.00  0.00     0.000 A 
ENDBRANCH  55  74
BRANCH  67  80
ATOM     80  C   UNL A   1      45.735  27.480  33.641  1.00  0.00    -0.014 A 
ATOM     81  C   UNL A   1      45.760  26.342  34.463  1.00  0.00     0.009 A 
ATOM     82  C   UNL A   1      46.941  27.959  33.105  1.00  0.00     0.009 A 
ATOM     83  C   UNL A   1      46.973  25.720  34.768  1.00  0.00     0.001 A 
ATOM     84  C   UNL A   1      48.147  27.314  33.386  1.00  0.00     0.001 A 
ATOM     85  C   UNL A   1      48.163  26.203  34.226  1.00  0.00     0.000 A 
ENDBRANCH  67  80
ENDBRANCH  41  42
ENDBRANCH  33  36
ENDBRANCH  31  32
ENDBRANCH  30  31
ENDBRANCH  29  30
ENDBRANCH   1  29
TORSDOF 17
ENDMDL
