MODEL 1
REMARK VINA RESULT:     -12.1      0.000      0.000
REMARK SMILES Cc1cc(C(=O)NCCCCCCNC(=O)c2ccc(-c3c4nc(c(-c5ccccc5)c5ccc([nH]5)c(-c5ccccc5)c5nc(c(-c6ccccc6)c6ccc3[nH]6)C=C5)C=C4)cc2)ccc1NS(=O)(=O)c1ccc(C#N)cc1C
REMARK SMILES IDX 9 1 8 2 7 3 5 4 6 5 4 7 1 8 2 9 3 10 67 11 66 12 65 13 68 14
REMARK SMILES IDX 69 16 70 17 71 18 72 19 73 20 79 21 74 22 78 23 80 24 75 25
REMARK SMILES IDX 76 26 77 27 10 28 11 29 12 30 13 31 14 32 15 33 16 35 17 36
REMARK SMILES IDX 18 37 64 38 19 39 63 40 20 41 21 42 22 43 57 44 23 45 62 46
REMARK SMILES IDX 56 47 58 48 24 49 61 50 55 51 54 52 25 54 47 55 32 56 46 57
REMARK SMILES IDX 33 58 36 59 45 60 59 61 34 62 35 63 44 65 60 66 37 67 26 68
REMARK SMILES IDX 27 69 31 70 28 71 30 72 29 73 48 74 49 75 53 76 50 77 52 78
REMARK SMILES IDX 51 79 38 80 39 81 43 82 40 83 42 84 41 85
REMARK H PARENT 7 6 68 15 14 34 58 53 36 64
REMARK Flexibility Score: inf
ROOT
ATOM      1  C   UNL A   1      34.301  32.152  28.486  1.00  0.00     0.021 C 
ENDROOT
BRANCH   1   2
ATOM      2  C   UNL A   1      33.876  31.252  27.323  1.00  0.00     0.116 C 
BRANCH   2   3
ATOM      3  N   UNL A   1      32.986  30.199  27.771  1.00  0.00    -0.352 N 
ATOM      4  C   UNL A   1      32.276  29.253  27.074  1.00  0.00     0.251 C 
ATOM      5  O   UNL A   1      31.704  28.367  27.706  1.00  0.00    -0.269 OA
ATOM      6  H   UNL A   1      32.872  30.154  28.748  1.00  0.00     0.163 HD
BRANCH   4   7
ATOM      7  C   UNL A   1      32.254  29.218  25.586  1.00  0.00     0.040 A 
ATOM      8  C   UNL A   1      29.601  29.485  22.901  1.00  0.00     0.046 C 
ATOM      9  C   UNL A   1      30.897  29.107  23.566  1.00  0.00    -0.026 A 
ATOM     10  C   UNL A   1      31.017  29.341  24.947  1.00  0.00     0.019 A 
ATOM     11  C   UNL A   1      32.016  28.640  22.857  1.00  0.00     0.052 A 
ATOM     12  C   UNL A   1      33.275  28.812  23.428  1.00  0.00     0.028 A 
ATOM     13  C   UNL A   1      33.393  29.097  24.793  1.00  0.00     0.016 A 
BRANCH  11  14
ATOM     14  N   UNL A   1      31.787  27.653  21.846  1.00  0.00    -0.279 N 
ATOM     15  H   UNL A   1      31.139  27.901  21.148  1.00  0.00     0.180 HD
BRANCH  14  16
ATOM     16  S   UNL A   1      32.473  26.136  21.691  1.00  0.00     0.262 S 
ATOM     17  O   UNL A   1      31.818  25.556  20.537  1.00  0.00    -0.201 OA
ATOM     18  O   UNL A   1      33.910  26.301  21.740  1.00  0.00    -0.201 OA
BRANCH  16  19
ATOM     19  C   UNL A   1      32.024  25.089  23.087  1.00  0.00     0.090 A 
ATOM     20  C   UNL A   1      31.216  25.573  24.122  1.00  0.00     0.024 A 
ATOM     21  C   UNL A   1      32.655  23.832  23.234  1.00  0.00    -0.029 A 
ATOM     22  C   UNL A   1      31.200  24.927  25.365  1.00  0.00     0.021 A 
ATOM     23  C   UNL A   1      32.614  23.186  24.488  1.00  0.00     0.024 A 
ATOM     24  C   UNL A   1      33.307  23.081  22.102  1.00  0.00     0.046 C 
ATOM     25  C   UNL A   1      31.937  23.760  25.566  1.00  0.00     0.052 A 
BRANCH  25  26
ATOM     26  C   UNL A   1      32.010  23.171  26.879  1.00  0.00     0.099 C 
ATOM     27  N   UNL A   1      32.117  22.727  27.938  1.00  0.00    -0.192 NA
ENDBRANCH  25  26
ENDBRANCH  16  19
ENDBRANCH  14  16
ENDBRANCH  11  14
ENDBRANCH   4   7
ENDBRANCH   2   3
ENDBRANCH   1   2
BRANCH   1  28
ATOM     28  C   UNL A   1      34.335  33.647  28.139  1.00  0.00     0.002 C 
BRANCH  28  29
ATOM     29  C   UNL A   1      33.082  34.449  28.519  1.00  0.00     0.002 C 
BRANCH  29  30
ATOM     30  C   UNL A   1      33.338  35.719  29.327  1.00  0.00     0.021 C 
BRANCH  30  31
ATOM     31  C   UNL A   1      32.886  35.620  30.770  1.00  0.00     0.116 C 
BRANCH  31  32
ATOM     32  N   UNL A   1      33.916  36.015  31.719  1.00  0.00    -0.352 N 
ATOM     33  C   UNL A   1      34.884  35.260  32.355  1.00  0.00     0.251 C 
ATOM     34  H   UNL A   1      33.926  36.973  31.943  1.00  0.00     0.163 HD
ATOM     35  O   UNL A   1      35.529  35.769  33.270  1.00  0.00    -0.269 OA
BRANCH  33  36
ATOM     36  C   UNL A   1      35.312  33.948  31.797  1.00  0.00     0.039 A 
ATOM     37  C   UNL A   1      35.347  32.896  32.726  1.00  0.00     0.014 A 
ATOM     38  C   UNL A   1      36.113  33.898  30.669  1.00  0.00     0.014 A 
ATOM     39  C   UNL A   1      36.436  32.042  32.726  1.00  0.00     0.010 A 
ATOM     40  C   UNL A   1      37.283  33.204  30.768  1.00  0.00     0.010 A 
ATOM     41  C   UNL A   1      37.462  32.331  31.839  1.00  0.00    -0.014 A 
BRANCH  41  42
ATOM     42  C   UNL A   1      38.717  31.631  31.776  1.00  0.00     0.031 A 
ATOM     43  C   UNL A   1      38.637  30.313  31.139  1.00  0.00     0.074 A 
ATOM     44  C   UNL A   1      39.834  32.330  32.076  1.00  0.00     0.049 A 
ATOM     45  N   UNL A   1      39.535  29.413  31.243  1.00  0.00    -0.248 NA
ATOM     46  C   UNL A   1      37.475  29.870  30.358  1.00  0.00     0.031 C 
ATOM     47  C   UNL A   1      41.234  32.047  31.792  1.00  0.00     0.029 A 
ATOM     48  N   UNL A   1      39.893  33.421  32.945  1.00  0.00    -0.354 N 
ATOM     49  C   UNL A   1      39.261  28.466  30.282  1.00  0.00     0.074 A 
ATOM     50  C   UNL A   1      37.907  28.708  29.861  1.00  0.00     0.031 C 
ATOM     51  C   UNL A   1      41.999  32.697  32.693  1.00  0.00     0.029 A 
ATOM     52  C   UNL A   1      41.098  33.297  33.667  1.00  0.00     0.049 A 
ATOM     53  H   UNL A   1      39.223  34.137  33.038  1.00  0.00     0.167 HD
ATOM     54  C   UNL A   1      40.296  27.705  29.846  1.00  0.00     0.031 A 
ATOM     55  C   UNL A   1      41.028  32.961  34.995  1.00  0.00     0.031 A 
ATOM     56  C   UNL A   1      41.498  28.029  30.615  1.00  0.00     0.049 A 
ATOM     57  C   UNL A   1      41.507  31.539  35.248  1.00  0.00     0.074 A 
ATOM     58  C   UNL A   1      42.561  28.888  30.395  1.00  0.00     0.029 A 
ATOM     59  N   UNL A   1      41.459  27.800  31.977  1.00  0.00    -0.354 N 
ATOM     60  N   UNL A   1      41.688  30.649  34.309  1.00  0.00    -0.248 NA
ATOM     61  C   UNL A   1      41.779  30.998  36.577  1.00  0.00     0.031 C 
ATOM     62  C   UNL A   1      43.132  29.202  31.669  1.00  0.00     0.029 A 
ATOM     63  C   UNL A   1      42.433  28.512  32.644  1.00  0.00     0.049 A 
ATOM     64  H   UNL A   1      40.814  27.201  32.418  1.00  0.00     0.167 HD
ATOM     65  C   UNL A   1      42.132  29.477  34.851  1.00  0.00     0.074 A 
ATOM     66  C   UNL A   1      42.107  29.726  36.285  1.00  0.00     0.031 C 
ATOM     67  C   UNL A   1      42.491  28.395  34.093  1.00  0.00     0.031 A 
BRANCH  54  68
ATOM     68  C   UNL A   1      40.312  26.847  28.615  1.00  0.00    -0.014 A 
ATOM     69  C   UNL A   1      40.879  27.388  27.446  1.00  0.00     0.009 A 
ATOM     70  C   UNL A   1      39.790  25.547  28.508  1.00  0.00     0.009 A 
ATOM     71  C   UNL A   1      40.902  26.692  26.235  1.00  0.00     0.001 A 
ATOM     72  C   UNL A   1      39.800  24.845  27.293  1.00  0.00     0.001 A 
ATOM     73  C   UNL A   1      40.357  25.418  26.156  1.00  0.00     0.000 A 
ENDBRANCH  54  68
BRANCH  55  74
ATOM     74  C   UNL A   1      39.843  33.618  35.652  1.00  0.00    -0.014 A 
ATOM     75  C   UNL A   1      38.674  32.827  35.789  1.00  0.00     0.009 A 
ATOM     76  C   UNL A   1      40.030  34.682  36.545  1.00  0.00     0.009 A 
ATOM     77  C   UNL A   1      37.888  32.916  36.942  1.00  0.00     0.001 A 
ATOM     78  C   UNL A   1      39.192  34.807  37.661  1.00  0.00     0.001 A 
ATOM     79  C   UNL A   1      38.179  33.878  37.902  1.00  0.00     0.000 A 
ENDBRANCH  55  74
BRANCH  67  80
ATOM     80  C   UNL A   1      42.904  27.073  34.682  1.00  0.00    -0.014 A 
ATOM     81  C   UNL A   1      44.230  26.637  34.701  1.00  0.00     0.009 A 
ATOM     82  C   UNL A   1      41.935  26.177  35.186  1.00  0.00     0.009 A 
ATOM     83  C   UNL A   1      44.584  25.436  35.325  1.00  0.00     0.001 A 
ATOM     84  C   UNL A   1      42.275  24.964  35.776  1.00  0.00     0.001 A 
ATOM     85  C   UNL A   1      43.609  24.609  35.877  1.00  0.00     0.000 A 
ENDBRANCH  67  80
ENDBRANCH  41  42
ENDBRANCH  33  36
ENDBRANCH  31  32
ENDBRANCH  30  31
ENDBRANCH  29  30
ENDBRANCH  28  29
ENDBRANCH   1  28
TORSDOF 17
ENDMDL
MODEL 2
REMARK VINA RESULT:     -11.8      1.322      2.450
REMARK SMILES Cc1cc(C(=O)NCCCCCCNC(=O)c2ccc(-c3c4nc(c(-c5ccccc5)c5ccc([nH]5)c(-c5ccccc5)c5nc(c(-c6ccccc6)c6ccc3[nH]6)C=C5)C=C4)cc2)ccc1NS(=O)(=O)c1ccc(C#N)cc1C
REMARK SMILES IDX 9 1 8 2 7 3 5 4 6 5 4 7 1 8 2 9 3 10 67 11 66 12 65 13 68 14
REMARK SMILES IDX 69 16 70 17 71 18 72 19 73 20 79 21 74 22 78 23 80 24 75 25
REMARK SMILES IDX 76 26 77 27 10 28 11 29 12 30 13 31 14 32 15 33 16 35 17 36
REMARK SMILES IDX 18 37 64 38 19 39 63 40 20 41 21 42 22 43 57 44 23 45 62 46
REMARK SMILES IDX 56 47 58 48 24 49 61 50 55 51 54 52 25 54 47 55 32 56 46 57
REMARK SMILES IDX 33 58 36 59 45 60 59 61 34 62 35 63 44 65 60 66 37 67 26 68
REMARK SMILES IDX 27 69 31 70 28 71 30 72 29 73 48 74 49 75 53 76 50 77 52 78
REMARK SMILES IDX 51 79 38 80 39 81 43 82 40 83 42 84 41 85
REMARK H PARENT 7 6 68 15 14 34 58 53 36 64
REMARK Flexibility Score: inf
ROOT
ATOM      1  C   UNL A   1      34.407  32.399  28.563  1.00  0.00     0.021 C 
ENDROOT
BRANCH   1   2
ATOM      2  C   UNL A   1      34.262  31.310  27.498  1.00  0.00     0.116 C 
BRANCH   2   3
ATOM      3  N   UNL A   1      32.885  31.182  27.062  1.00  0.00    -0.352 N 
ATOM      4  C   UNL A   1      32.253  30.208  26.328  1.00  0.00     0.251 C 
ATOM      5  O   UNL A   1      31.030  30.260  26.218  1.00  0.00    -0.269 OA
ATOM      6  H   UNL A   1      32.301  31.923  27.342  1.00  0.00     0.163 HD
BRANCH   4   7
ATOM      7  C   UNL A   1      32.989  29.055  25.743  1.00  0.00     0.040 A 
ATOM      8  C   UNL A   1      34.402  28.174  22.345  1.00  0.00     0.046 C 
ATOM      9  C   UNL A   1      33.834  27.983  23.725  1.00  0.00    -0.026 A 
ATOM     10  C   UNL A   1      33.330  29.115  24.389  1.00  0.00     0.019 A 
ATOM     11  C   UNL A   1      33.887  26.760  24.415  1.00  0.00     0.052 A 
ATOM     12  C   UNL A   1      33.834  26.786  25.806  1.00  0.00     0.028 A 
ATOM     13  C   UNL A   1      33.381  27.932  26.469  1.00  0.00     0.016 A 
BRANCH  11  14
ATOM     14  N   UNL A   1      33.550  25.578  23.680  1.00  0.00    -0.279 N 
ATOM     15  H   UNL A   1      34.165  24.818  23.791  1.00  0.00     0.180 HD
BRANCH  14  16
ATOM     16  S   UNL A   1      32.251  25.317  22.659  1.00  0.00     0.262 S 
ATOM     17  O   UNL A   1      32.812  25.409  21.326  1.00  0.00    -0.201 OA
ATOM     18  O   UNL A   1      31.575  24.121  23.113  1.00  0.00    -0.201 OA
BRANCH  16  19
ATOM     19  C   UNL A   1      31.062  26.664  22.784  1.00  0.00     0.090 A 
ATOM     20  C   UNL A   1      30.914  27.594  21.748  1.00  0.00     0.024 A 
ATOM     21  C   UNL A   1      30.415  26.899  24.020  1.00  0.00    -0.029 A 
ATOM     22  C   UNL A   1      30.312  28.835  21.995  1.00  0.00     0.021 A 
ATOM     23  C   UNL A   1      29.799  28.148  24.245  1.00  0.00     0.024 A 
ATOM     24  C   UNL A   1      30.263  25.859  25.099  1.00  0.00     0.046 C 
ATOM     25  C   UNL A   1      29.797  29.134  23.257  1.00  0.00     0.052 A 
BRANCH  25  26
ATOM     26  C   UNL A   1      29.290  30.454  23.534  1.00  0.00     0.099 C 
ATOM     27  N   UNL A   1      28.842  31.487  23.784  1.00  0.00    -0.192 NA
ENDBRANCH  25  26
ENDBRANCH  16  19
ENDBRANCH  14  16
ENDBRANCH  11  14
ENDBRANCH   4   7
ENDBRANCH   2   3
ENDBRANCH   1   2
BRANCH   1  28
ATOM     28  C   UNL A   1      34.180  33.823  28.038  1.00  0.00     0.002 C 
BRANCH  28  29
ATOM     29  C   UNL A   1      32.988  34.577  28.648  1.00  0.00     0.002 C 
BRANCH  29  30
ATOM     30  C   UNL A   1      33.348  35.814  29.467  1.00  0.00     0.021 C 
BRANCH  30  31
ATOM     31  C   UNL A   1      32.864  35.752  30.902  1.00  0.00     0.116 C 
BRANCH  31  32
ATOM     32  N   UNL A   1      33.903  36.074  31.868  1.00  0.00    -0.352 N 
ATOM     33  C   UNL A   1      34.876  35.273  32.436  1.00  0.00     0.251 C 
ATOM     34  H   UNL A   1      33.915  37.013  32.165  1.00  0.00     0.163 HD
ATOM     35  O   UNL A   1      35.529  35.710  33.382  1.00  0.00    -0.269 OA
BRANCH  33  36
ATOM     36  C   UNL A   1      35.298  34.007  31.776  1.00  0.00     0.039 A 
ATOM     37  C   UNL A   1      35.238  32.867  32.594  1.00  0.00     0.014 A 
ATOM     38  C   UNL A   1      36.170  34.039  30.701  1.00  0.00     0.014 A 
ATOM     39  C   UNL A   1      36.297  31.977  32.574  1.00  0.00     0.010 A 
ATOM     40  C   UNL A   1      37.308  33.294  30.801  1.00  0.00     0.010 A 
ATOM     41  C   UNL A   1      37.388  32.313  31.788  1.00  0.00    -0.014 A 
BRANCH  41  42
ATOM     42  C   UNL A   1      38.622  31.576  31.732  1.00  0.00     0.031 A 
ATOM     43  C   UNL A   1      38.519  30.286  31.042  1.00  0.00     0.074 A 
ATOM     44  C   UNL A   1      39.751  32.226  32.090  1.00  0.00     0.049 A 
ATOM     45  N   UNL A   1      39.385  29.354  31.136  1.00  0.00    -0.248 NA
ATOM     46  C   UNL A   1      37.366  29.911  30.213  1.00  0.00     0.031 C 
ATOM     47  C   UNL A   1      41.149  31.909  31.834  1.00  0.00     0.029 A 
ATOM     48  N   UNL A   1      39.819  33.281  33.003  1.00  0.00    -0.354 N 
ATOM     49  C   UNL A   1      39.109  28.454  30.131  1.00  0.00     0.074 A 
ATOM     50  C   UNL A   1      37.777  28.756  29.683  1.00  0.00     0.031 C 
ATOM     51  C   UNL A   1      41.908  32.499  32.781  1.00  0.00     0.029 A 
ATOM     52  C   UNL A   1      40.998  33.090  33.752  1.00  0.00     0.049 A 
ATOM     53  H   UNL A   1      39.170  34.014  33.104  1.00  0.00     0.167 HD
ATOM     54  C   UNL A   1      40.132  27.677  29.695  1.00  0.00     0.031 A 
ATOM     55  C   UNL A   1      40.879  32.706  35.063  1.00  0.00     0.031 A 
ATOM     56  C   UNL A   1      41.321  27.932  30.509  1.00  0.00     0.049 A 
ATOM     57  C   UNL A   1      41.306  31.261  35.274  1.00  0.00     0.074 A 
ATOM     58  C   UNL A   1      42.416  28.764  30.353  1.00  0.00     0.029 A 
ATOM     59  N   UNL A   1      41.235  27.653  31.860  1.00  0.00    -0.354 N 
ATOM     60  N   UNL A   1      41.486  30.402  34.306  1.00  0.00    -0.248 NA
ATOM     61  C   UNL A   1      41.522  30.661  36.588  1.00  0.00     0.031 C 
ATOM     62  C   UNL A   1      42.960  29.010  31.653  1.00  0.00     0.029 A 
ATOM     63  C   UNL A   1      42.211  28.307  32.581  1.00  0.00     0.049 A 
ATOM     64  H   UNL A   1      40.559  27.059  32.259  1.00  0.00     0.167 HD
ATOM     65  C   UNL A   1      41.877  29.197  34.814  1.00  0.00     0.074 A 
ATOM     66  C   UNL A   1      41.818  29.392  36.256  1.00  0.00     0.031 C 
ATOM     67  C   UNL A   1      42.223  28.133  34.025  1.00  0.00     0.031 A 
BRANCH  54  68
ATOM     68  C   UNL A   1      40.156  26.867  28.433  1.00  0.00    -0.014 A 
ATOM     69  C   UNL A   1      39.487  25.628  28.434  1.00  0.00     0.009 A 
ATOM     70  C   UNL A   1      40.807  27.218  27.238  1.00  0.00     0.009 A 
ATOM     71  C   UNL A   1      39.489  24.776  27.327  1.00  0.00     0.001 A 
ATOM     72  C   UNL A   1      40.821  26.364  26.125  1.00  0.00     0.001 A 
ATOM     73  C   UNL A   1      40.161  25.142  26.170  1.00  0.00     0.000 A 
ENDBRANCH  54  68
BRANCH  55  74
ATOM     74  C   UNL A   1      39.696  33.376  35.713  1.00  0.00    -0.014 A 
ATOM     75  C   UNL A   1      38.486  32.639  35.740  1.00  0.00     0.009 A 
ATOM     76  C   UNL A   1      39.892  34.364  36.686  1.00  0.00     0.009 A 
ATOM     77  C   UNL A   1      37.650  32.688  36.859  1.00  0.00     0.001 A 
ATOM     78  C   UNL A   1      39.007  34.455  37.771  1.00  0.00     0.001 A 
ATOM     79  C   UNL A   1      37.941  33.564  37.899  1.00  0.00     0.000 A 
ENDBRANCH  55  74
BRANCH  67  80
ATOM     80  C   UNL A   1      42.578  26.777  34.573  1.00  0.00    -0.014 A 
ATOM     81  C   UNL A   1      41.675  25.997  35.299  1.00  0.00     0.009 A 
ATOM     82  C   UNL A   1      43.886  26.263  34.428  1.00  0.00     0.009 A 
ATOM     83  C   UNL A   1      42.017  24.710  35.726  1.00  0.00     0.001 A 
ATOM     84  C   UNL A   1      44.244  24.997  34.882  1.00  0.00     0.001 A 
ATOM     85  C   UNL A   1      43.295  24.204  35.503  1.00  0.00     0.000 A 
ENDBRANCH  67  80
ENDBRANCH  41  42
ENDBRANCH  33  36
ENDBRANCH  31  32
ENDBRANCH  30  31
ENDBRANCH  29  30
ENDBRANCH  28  29
ENDBRANCH   1  28
TORSDOF 17
ENDMDL
MODEL 3
REMARK VINA RESULT:     -11.5      3.411      9.044
REMARK SMILES Cc1cc(C(=O)NCCCCCCNC(=O)c2ccc(-c3c4nc(c(-c5ccccc5)c5ccc([nH]5)c(-c5ccccc5)c5nc(c(-c6ccccc6)c6ccc3[nH]6)C=C5)C=C4)cc2)ccc1NS(=O)(=O)c1ccc(C#N)cc1C
REMARK SMILES IDX 9 1 8 2 7 3 5 4 6 5 4 7 1 8 2 9 3 10 67 11 66 12 65 13 68 14
REMARK SMILES IDX 69 16 70 17 71 18 72 19 73 20 79 21 74 22 78 23 80 24 75 25
REMARK SMILES IDX 76 26 77 27 10 28 11 29 12 30 13 31 14 32 15 33 16 35 17 36
REMARK SMILES IDX 18 37 64 38 19 39 63 40 20 41 21 42 22 43 57 44 23 45 62 46
REMARK SMILES IDX 56 47 58 48 24 49 61 50 55 51 54 52 25 54 47 55 32 56 46 57
REMARK SMILES IDX 33 58 36 59 45 60 59 61 34 62 35 63 44 65 60 66 37 67 26 68
REMARK SMILES IDX 27 69 31 70 28 71 30 72 29 73 48 74 49 75 53 76 50 77 52 78
REMARK SMILES IDX 51 79 38 80 39 81 43 82 40 83 42 84 41 85
REMARK H PARENT 7 6 68 15 14 34 58 53 36 64
REMARK Flexibility Score: inf
ROOT
ATOM      1  C   UNL A   1      35.273  22.058  26.129  1.00  0.00     0.021 C 
ENDROOT
BRANCH   1   2
ATOM      2  C   UNL A   1      34.207  21.561  27.109  1.00  0.00     0.116 C 
BRANCH   2   3
ATOM      3  N   UNL A   1      33.434  20.475  26.538  1.00  0.00    -0.352 N 
ATOM      4  C   UNL A   1      32.568  20.439  25.473  1.00  0.00     0.251 C 
ATOM      5  O   UNL A   1      32.148  19.347  25.096  1.00  0.00    -0.269 OA
ATOM      6  H   UNL A   1      33.552  19.611  26.995  1.00  0.00     0.163 HD
BRANCH   4   7
ATOM      7  C   UNL A   1      32.196  21.665  24.715  1.00  0.00     0.040 A 
ATOM      8  C   UNL A   1      33.131  23.181  21.376  1.00  0.00     0.046 C 
ATOM      9  C   UNL A   1      32.661  23.102  22.803  1.00  0.00    -0.026 A 
ATOM     10  C   UNL A   1      32.802  21.873  23.473  1.00  0.00     0.019 A 
ATOM     11  C   UNL A   1      31.993  24.155  23.451  1.00  0.00     0.052 A 
ATOM     12  C   UNL A   1      31.159  23.845  24.523  1.00  0.00     0.028 A 
ATOM     13  C   UNL A   1      31.264  22.601  25.156  1.00  0.00     0.016 A 
BRANCH  11  14
ATOM     14  N   UNL A   1      32.528  25.472  23.283  1.00  0.00    -0.279 N 
ATOM     15  H   UNL A   1      32.903  25.669  22.395  1.00  0.00     0.180 HD
BRANCH  14  16
ATOM     16  S   UNL A   1      32.600  26.721  24.393  1.00  0.00     0.262 S 
ATOM     17  O   UNL A   1      32.393  26.080  25.676  1.00  0.00    -0.201 OA
ATOM     18  O   UNL A   1      33.797  27.483  24.114  1.00  0.00    -0.201 OA
BRANCH  16  19
ATOM     19  C   UNL A   1      31.208  27.846  24.178  1.00  0.00     0.090 A 
ATOM     20  C   UNL A   1      30.160  27.537  23.304  1.00  0.00     0.024 A 
ATOM     21  C   UNL A   1      31.276  29.139  24.747  1.00  0.00    -0.029 A 
ATOM     22  C   UNL A   1      29.311  28.549  22.836  1.00  0.00     0.021 A 
ATOM     23  C   UNL A   1      30.401  30.141  24.276  1.00  0.00     0.024 A 
ATOM     24  C   UNL A   1      32.173  29.504  25.901  1.00  0.00     0.046 C 
ATOM     25  C   UNL A   1      29.461  29.862  23.283  1.00  0.00     0.052 A 
BRANCH  25  26
ATOM     26  C   UNL A   1      28.664  30.915  22.705  1.00  0.00     0.099 C 
ATOM     27  N   UNL A   1      27.996  31.759  22.291  1.00  0.00    -0.192 NA
ENDBRANCH  25  26
ENDBRANCH  16  19
ENDBRANCH  14  16
ENDBRANCH  11  14
ENDBRANCH   4   7
ENDBRANCH   2   3
ENDBRANCH   1   2
BRANCH   1  28
ATOM     28  C   UNL A   1      36.068  20.936  25.447  1.00  0.00     0.002 C 
BRANCH  28  29
ATOM     29  C   UNL A   1      37.400  21.355  24.809  1.00  0.00     0.002 C 
BRANCH  29  30
ATOM     30  C   UNL A   1      38.567  21.519  25.779  1.00  0.00     0.021 C 
BRANCH  30  31
ATOM     31  C   UNL A   1      38.730  22.934  26.297  1.00  0.00     0.116 C 
BRANCH  31  32
ATOM     32  N   UNL A   1      39.804  23.065  27.269  1.00  0.00    -0.352 N 
ATOM     33  C   UNL A   1      40.380  24.194  27.821  1.00  0.00     0.251 C 
ATOM     34  H   UNL A   1      40.182  22.213  27.586  1.00  0.00     0.163 HD
ATOM     35  O   UNL A   1      41.411  24.075  28.479  1.00  0.00    -0.269 OA
BRANCH  33  36
ATOM     36  C   UNL A   1      39.649  25.492  27.829  1.00  0.00     0.039 A 
ATOM     37  C   UNL A   1      40.143  26.453  26.934  1.00  0.00     0.014 A 
ATOM     38  C   UNL A   1      38.956  25.894  28.959  1.00  0.00     0.014 A 
ATOM     39  C   UNL A   1      40.293  27.757  27.371  1.00  0.00     0.010 A 
ATOM     40  C   UNL A   1      39.272  27.114  29.480  1.00  0.00     0.010 A 
ATOM     41  C   UNL A   1      40.002  28.012  28.702  1.00  0.00    -0.014 A 
BRANCH  41  42
ATOM     42  C   UNL A   1      40.208  29.273  29.364  1.00  0.00     0.031 A 
ATOM     43  C   UNL A   1      39.129  30.243  29.153  1.00  0.00     0.074 A 
ATOM     44  C   UNL A   1      41.208  29.344  30.268  1.00  0.00     0.049 A 
ATOM     45  N   UNL A   1      39.237  31.493  29.383  1.00  0.00    -0.248 NA
ATOM     46  C   UNL A   1      37.821  29.878  28.593  1.00  0.00     0.031 C 
ATOM     47  C   UNL A   1      41.464  30.313  31.325  1.00  0.00     0.029 A 
ATOM     48  N   UNL A   1      42.376  28.577  30.241  1.00  0.00    -0.354 N 
ATOM     49  C   UNL A   1      37.961  32.011  29.365  1.00  0.00     0.074 A 
ATOM     50  C   UNL A   1      37.138  31.017  28.731  1.00  0.00     0.031 C 
ATOM     51  C   UNL A   1      42.783  30.303  31.612  1.00  0.00     0.029 A 
ATOM     52  C   UNL A   1      43.427  29.428  30.642  1.00  0.00     0.049 A 
ATOM     53  H   UNL A   1      42.451  27.628  29.990  1.00  0.00     0.167 HD
ATOM     54  C   UNL A   1      37.746  33.158  30.059  1.00  0.00     0.031 A 
ATOM     55  C   UNL A   1      44.336  29.825  29.697  1.00  0.00     0.031 A 
ATOM     56  C   UNL A   1      39.013  33.641  30.607  1.00  0.00     0.049 A 
ATOM     57  C   UNL A   1      44.177  31.295  29.335  1.00  0.00     0.074 A 
ATOM     58  C   UNL A   1      39.635  33.488  31.835  1.00  0.00     0.029 A 
ATOM     59  N   UNL A   1      40.009  33.971  29.707  1.00  0.00    -0.354 N 
ATOM     60  N   UNL A   1      43.137  32.019  29.654  1.00  0.00    -0.248 NA
ATOM     61  C   UNL A   1      45.153  32.050  28.554  1.00  0.00     0.031 C 
ATOM     62  C   UNL A   1      41.037  33.694  31.637  1.00  0.00     0.029 A 
ATOM     63  C   UNL A   1      41.251  33.997  30.303  1.00  0.00     0.049 A 
ATOM     64  H   UNL A   1      39.849  34.165  28.755  1.00  0.00     0.167 HD
ATOM     65  C   UNL A   1      43.297  33.296  29.200  1.00  0.00     0.074 A 
ATOM     66  C   UNL A   1      44.547  33.247  28.456  1.00  0.00     0.031 C 
ATOM     67  C   UNL A   1      42.403  34.298  29.466  1.00  0.00     0.031 A 
BRANCH  54  68
ATOM     68  C   UNL A   1      36.412  33.729  30.439  1.00  0.00    -0.014 A 
ATOM     69  C   UNL A   1      35.495  34.000  29.406  1.00  0.00     0.009 A 
ATOM     70  C   UNL A   1      35.990  34.043  31.741  1.00  0.00     0.009 A 
ATOM     71  C   UNL A   1      34.245  34.576  29.647  1.00  0.00     0.001 A 
ATOM     72  C   UNL A   1      34.739  34.630  31.991  1.00  0.00     0.001 A 
ATOM     73  C   UNL A   1      33.868  34.896  30.942  1.00  0.00     0.000 A 
ENDBRANCH  54  68
BRANCH  55  74
ATOM     74  C   UNL A   1      44.625  28.709  28.728  1.00  0.00    -0.014 A 
ATOM     75  C   UNL A   1      44.034  28.815  27.443  1.00  0.00     0.009 A 
ATOM     76  C   UNL A   1      45.793  27.945  28.858  1.00  0.00     0.009 A 
ATOM     77  C   UNL A   1      44.740  28.423  26.303  1.00  0.00     0.001 A 
ATOM     78  C   UNL A   1      46.457  27.492  27.710  1.00  0.00     0.001 A 
ATOM     79  C   UNL A   1      45.977  27.803  26.436  1.00  0.00     0.000 A 
ENDBRANCH  55  74
BRANCH  67  80
ATOM     80  C   UNL A   1      42.527  35.688  28.904  1.00  0.00    -0.014 A 
ATOM     81  C   UNL A   1      41.989  36.053  27.668  1.00  0.00     0.009 A 
ATOM     82  C   UNL A   1      43.265  36.678  29.591  1.00  0.00     0.009 A 
ATOM     83  C   UNL A   1      42.059  37.374  27.214  1.00  0.00     0.001 A 
ATOM     84  C   UNL A   1      43.370  37.986  29.128  1.00  0.00     0.001 A 
ATOM     85  C   UNL A   1      42.734  38.343  27.952  1.00  0.00     0.000 A 
ENDBRANCH  67  80
ENDBRANCH  41  42
ENDBRANCH  33  36
ENDBRANCH  31  32
ENDBRANCH  30  31
ENDBRANCH  29  30
ENDBRANCH  28  29
ENDBRANCH   1  28
TORSDOF 17
ENDMDL
