MODEL 1
REMARK VINA RESULT:     -11.2      0.000      0.000
REMARK SMILES O=C(NCCCCCCNC(=O)c1cn(C[C@@H]2CCS(=O)(=O)C2)c(=O)[nH]c1=O)c1ccc(-c2c3nc(c(-c4ccccc4)c4ccc([nH]4)c(-c4ccccc4)c4nc(c(-c5ccccc5)c5ccc2[nH]5)C=C4)C=C3)cc1
REMARK SMILES IDX 6 1 5 2 4 3 3 4 1 5 2 6 29 8 30 9 76 10 31 11 75 12 32 13
REMARK SMILES IDX 33 14 34 15 69 16 35 17 74 18 68 19 70 20 36 21 73 22 67 23
REMARK SMILES IDX 66 24 37 26 59 27 44 28 58 29 45 30 48 31 57 32 71 33 46 34
REMARK SMILES IDX 47 35 56 37 72 38 49 39 38 40 39 41 43 42 40 43 42 44 41 45
REMARK SMILES IDX 60 46 61 47 65 48 62 49 64 50 63 51 50 52 51 53 55 54 52 55
REMARK SMILES IDX 54 56 53 57 7 58 8 59 9 60 10 61 11 62 12 64 13 65 14 66
REMARK SMILES IDX 27 67 15 68 26 69 28 70 24 71 25 73 16 74 17 75 18 76 23 77
REMARK SMILES IDX 19 78 20 79 21 80 22 81
REMARK H PARENT 3 7 70 25 48 36 10 63 26 72
REMARK Flexibility Score: inf
ROOT
ATOM      1  C   UNL A   1      37.248  21.039  24.603  1.00  0.00     0.002 C 
ENDROOT
BRANCH   1   2
ATOM      2  C   UNL A   1      38.123  19.850  25.010  1.00  0.00     0.021 C 
BRANCH   2   3
ATOM      3  C   UNL A   1      39.183  20.170  26.058  1.00  0.00     0.116 C 
BRANCH   3   4
ATOM      4  N   UNL A   1      40.250  19.188  26.056  1.00  0.00    -0.352 N 
ATOM      5  O   UNL A   1      42.351  18.429  25.801  1.00  0.00    -0.269 OA
ATOM      6  C   UNL A   1      41.607  19.372  26.057  1.00  0.00     0.251 C 
ATOM      7  H   UNL A   1      39.955  18.248  26.051  1.00  0.00     0.163 HD
BRANCH   6   8
ATOM      8  C   UNL A   1      42.187  20.693  26.383  1.00  0.00     0.039 A 
ATOM      9  C   UNL A   1      42.290  21.069  27.727  1.00  0.00     0.014 A 
ATOM     10  C   UNL A   1      42.531  21.598  25.375  1.00  0.00     0.014 A 
ATOM     11  C   UNL A   1      42.723  22.354  28.059  1.00  0.00     0.010 A 
ATOM     12  C   UNL A   1      43.031  22.853  25.708  1.00  0.00     0.010 A 
ATOM     13  C   UNL A   1      43.086  23.258  27.051  1.00  0.00    -0.014 A 
BRANCH  13  14
ATOM     14  C   UNL A   1      43.398  24.677  27.354  1.00  0.00     0.031 A 
ATOM     15  C   UNL A   1      44.832  25.132  27.292  1.00  0.00     0.074 A 
ATOM     16  C   UNL A   1      42.426  25.536  27.716  1.00  0.00     0.049 A 
ATOM     17  N   UNL A   1      45.351  26.274  27.662  1.00  0.00    -0.248 NA
ATOM     18  C   UNL A   1      45.817  24.171  26.764  1.00  0.00     0.031 C 
ATOM     19  C   UNL A   1      41.000  25.219  27.788  1.00  0.00     0.029 A 
ATOM     20  N   UNL A   1      42.497  26.852  28.105  1.00  0.00    -0.354 N 
ATOM     21  C   UNL A   1      46.717  26.156  27.434  1.00  0.00     0.074 A 
ATOM     22  C   UNL A   1      46.958  24.822  26.936  1.00  0.00     0.031 C 
ATOM     23  C   UNL A   1      40.331  26.312  28.191  1.00  0.00     0.029 A 
ATOM     24  C   UNL A   1      41.283  27.387  28.462  1.00  0.00     0.049 A 
ATOM     25  H   UNL A   1      43.339  27.363  28.126  1.00  0.00     0.167 HD
ATOM     26  C   UNL A   1      47.679  27.089  27.604  1.00  0.00     0.031 A 
ATOM     27  C   UNL A   1      40.973  28.596  28.976  1.00  0.00     0.031 A 
ATOM     28  C   UNL A   1      47.426  28.429  28.055  1.00  0.00     0.049 A 
ATOM     29  C   UNL A   1      42.072  29.604  29.198  1.00  0.00     0.074 A 
ATOM     30  C   UNL A   1      48.335  29.459  28.214  1.00  0.00     0.029 A 
ATOM     31  N   UNL A   1      46.181  28.926  28.403  1.00  0.00    -0.354 N 
ATOM     32  N   UNL A   1      43.355  29.488  28.950  1.00  0.00    -0.248 NA
ATOM     33  C   UNL A   1      41.689  30.908  29.761  1.00  0.00     0.031 C 
ATOM     34  C   UNL A   1      47.653  30.558  28.729  1.00  0.00     0.029 A 
ATOM     35  C   UNL A   1      46.306  30.241  28.806  1.00  0.00     0.049 A 
ATOM     36  H   UNL A   1      45.337  28.420  28.368  1.00  0.00     0.167 HD
ATOM     37  C   UNL A   1      43.923  30.709  29.296  1.00  0.00     0.074 A 
ATOM     38  C   UNL A   1      42.847  31.557  29.761  1.00  0.00     0.031 C 
ATOM     39  C   UNL A   1      45.221  31.087  29.235  1.00  0.00     0.031 A 
BRANCH  26  40
ATOM     40  C   UNL A   1      49.104  26.729  27.290  1.00  0.00    -0.014 A 
ATOM     41  C   UNL A   1      49.603  26.943  25.995  1.00  0.00     0.009 A 
ATOM     42  C   UNL A   1      49.893  26.029  28.216  1.00  0.00     0.009 A 
ATOM     43  C   UNL A   1      50.845  26.430  25.620  1.00  0.00     0.001 A 
ATOM     44  C   UNL A   1      51.148  25.544  27.847  1.00  0.00     0.001 A 
ATOM     45  C   UNL A   1      51.615  25.728  26.546  1.00  0.00     0.000 A 
ENDBRANCH  26  40
BRANCH  27  46
ATOM     46  C   UNL A   1      39.558  28.908  29.323  1.00  0.00    -0.014 A 
ATOM     47  C   UNL A   1      39.052  28.601  30.599  1.00  0.00     0.009 A 
ATOM     48  C   UNL A   1      38.694  29.486  28.381  1.00  0.00     0.009 A 
ATOM     49  C   UNL A   1      37.713  28.840  30.914  1.00  0.00     0.001 A 
ATOM     50  C   UNL A   1      37.364  29.761  28.712  1.00  0.00     0.001 A 
ATOM     51  C   UNL A   1      36.872  29.427  29.972  1.00  0.00     0.000 A 
ENDBRANCH  27  46
BRANCH  39  52
ATOM     52  C   UNL A   1      45.593  32.486  29.641  1.00  0.00    -0.014 A 
ATOM     53  C   UNL A   1      45.830  32.769  30.997  1.00  0.00     0.009 A 
ATOM     54  C   UNL A   1      45.506  33.547  28.729  1.00  0.00     0.009 A 
ATOM     55  C   UNL A   1      45.924  34.089  31.440  1.00  0.00     0.001 A 
ATOM     56  C   UNL A   1      45.634  34.866  29.170  1.00  0.00     0.001 A 
ATOM     57  C   UNL A   1      45.822  35.136  30.526  1.00  0.00     0.000 A 
ENDBRANCH  39  52
ENDBRANCH  13  14
ENDBRANCH   6   8
ENDBRANCH   3   4
ENDBRANCH   2   3
ENDBRANCH   1   2
BRANCH   1  58
ATOM     58  C   UNL A   1      35.806  21.003  25.121  1.00  0.00     0.002 C 
BRANCH  58  59
ATOM     59  C   UNL A   1      35.526  21.894  26.331  1.00  0.00     0.021 C 
BRANCH  59  60
ATOM     60  C   UNL A   1      34.253  21.552  27.093  1.00  0.00     0.116 C 
BRANCH  60  61
ATOM     61  N   UNL A   1      33.229  20.947  26.254  1.00  0.00    -0.352 N 
ATOM     62  C   UNL A   1      32.193  21.544  25.577  1.00  0.00     0.258 C 
ATOM     63  H   UNL A   1      33.287  19.969  26.157  1.00  0.00     0.163 HD
ATOM     64  O   UNL A   1      31.423  20.865  24.908  1.00  0.00    -0.269 OA
BRANCH  62  65
ATOM     65  C   UNL A   1      32.063  23.007  25.696  1.00  0.00     0.121 A 
ATOM     66  C   UNL A   1      32.717  23.790  24.826  1.00  0.00     0.110 A 
ATOM     67  C   UNL A   1      31.341  23.641  26.812  1.00  0.00     0.266 A 
ATOM     68  N   UNL A   1      32.883  25.148  25.036  1.00  0.00    -0.299 N 
ATOM     69  N   UNL A   1      31.541  24.989  26.944  1.00  0.00    -0.273 N 
ATOM     70  O   UNL A   1      30.670  23.018  27.626  1.00  0.00    -0.268 OA
ATOM     71  C   UNL A   1      32.361  25.765  26.172  1.00  0.00     0.328 A 
ATOM     72  H   UNL A   1      31.047  25.444  27.664  1.00  0.00     0.175 HD
ATOM     73  O   UNL A   1      32.597  26.928  26.486  1.00  0.00    -0.248 OA
BRANCH  68  74
ATOM     74  C   UNL A   1      33.770  25.905  24.157  1.00  0.00     0.131 C 
BRANCH  74  75
ATOM     75  C   UNL A   1      33.213  26.313  22.780  1.00  0.00     0.025 C 
ATOM     76  C   UNL A   1      33.648  27.692  22.259  1.00  0.00     0.022 C 
ATOM     77  C   UNL A   1      31.687  26.274  22.672  1.00  0.00     0.142 C 
ATOM     78  C   UNL A   1      32.677  28.754  22.763  1.00  0.00     0.137 C 
ATOM     79  S   UNL A   1      31.106  27.937  22.949  1.00  0.00     0.150 S 
ATOM     80  O   UNL A   1      30.679  28.055  24.329  1.00  0.00    -0.229 OA
ATOM     81  O   UNL A   1      30.251  28.311  21.846  1.00  0.00    -0.229 OA
ENDBRANCH  74  75
ENDBRANCH  68  74
ENDBRANCH  62  65
ENDBRANCH  60  61
ENDBRANCH  59  60
ENDBRANCH  58  59
ENDBRANCH   1  58
TORSDOF 15
ENDMDL
MODEL 2
REMARK VINA RESULT:     -11.2      4.896     10.131
REMARK SMILES O=C(NCCCCCCNC(=O)c1cn(C[C@@H]2CCS(=O)(=O)C2)c(=O)[nH]c1=O)c1ccc(-c2c3nc(c(-c4ccccc4)c4ccc([nH]4)c(-c4ccccc4)c4nc(c(-c5ccccc5)c5ccc2[nH]5)C=C4)C=C3)cc1
REMARK SMILES IDX 6 1 5 2 4 3 3 4 1 5 2 6 29 8 30 9 76 10 31 11 75 12 32 13
REMARK SMILES IDX 33 14 34 15 69 16 35 17 74 18 68 19 70 20 36 21 73 22 67 23
REMARK SMILES IDX 66 24 37 26 59 27 44 28 58 29 45 30 48 31 57 32 71 33 46 34
REMARK SMILES IDX 47 35 56 37 72 38 49 39 38 40 39 41 43 42 40 43 42 44 41 45
REMARK SMILES IDX 60 46 61 47 65 48 62 49 64 50 63 51 50 52 51 53 55 54 52 55
REMARK SMILES IDX 54 56 53 57 7 58 8 59 9 60 10 61 11 62 12 64 13 65 14 66
REMARK SMILES IDX 27 67 15 68 26 69 28 70 24 71 25 73 16 74 17 75 18 76 23 77
REMARK SMILES IDX 19 78 20 79 21 80 22 81
REMARK H PARENT 3 7 70 25 48 36 10 63 26 72
REMARK Flexibility Score: inf
ROOT
ATOM      1  C   UNL A   1      31.503  30.900  26.170  1.00  0.00     0.002 C 
ENDROOT
BRANCH   1   2
ATOM      2  C   UNL A   1      31.404  32.370  26.589  1.00  0.00     0.021 C 
BRANCH   2   3
ATOM      3  C   UNL A   1      32.624  32.904  27.331  1.00  0.00     0.116 C 
BRANCH   3   4
ATOM      4  N   UNL A   1      32.467  34.303  27.679  1.00  0.00    -0.352 N 
ATOM      5  O   UNL A   1      32.616  36.132  28.979  1.00  0.00    -0.269 OA
ATOM      6  C   UNL A   1      33.059  35.026  28.681  1.00  0.00     0.251 C 
ATOM      7  H   UNL A   1      31.841  34.809  27.112  1.00  0.00     0.163 HD
BRANCH   6   8
ATOM      8  C   UNL A   1      34.240  34.494  29.395  1.00  0.00     0.039 A 
ATOM      9  C   UNL A   1      35.490  34.563  28.772  1.00  0.00     0.014 A 
ATOM     10  C   UNL A   1      34.105  33.838  30.622  1.00  0.00     0.014 A 
ATOM     11  C   UNL A   1      36.601  33.965  29.371  1.00  0.00     0.010 A 
ATOM     12  C   UNL A   1      35.225  33.306  31.253  1.00  0.00     0.010 A 
ATOM     13  C   UNL A   1      36.473  33.323  30.611  1.00  0.00    -0.014 A 
BRANCH  13  14
ATOM     14  C   UNL A   1      37.589  32.541  31.201  1.00  0.00     0.031 A 
ATOM     15  C   UNL A   1      38.197  33.013  32.495  1.00  0.00     0.074 A 
ATOM     16  C   UNL A   1      38.077  31.453  30.576  1.00  0.00     0.049 A 
ATOM     17  N   UNL A   1      39.269  32.581  33.107  1.00  0.00    -0.248 NA
ATOM     18  C   UNL A   1      37.527  34.132  33.181  1.00  0.00     0.031 C 
ATOM     19  C   UNL A   1      37.554  30.885  29.334  1.00  0.00     0.029 A 
ATOM     20  N   UNL A   1      39.133  30.637  30.899  1.00  0.00    -0.354 N 
ATOM     21  C   UNL A   1      39.410  33.388  34.230  1.00  0.00     0.074 A 
ATOM     22  C   UNL A   1      38.345  34.364  34.197  1.00  0.00     0.031 C 
ATOM     23  C   UNL A   1      38.289  29.811  29.002  1.00  0.00     0.029 A 
ATOM     24  C   UNL A   1      39.369  29.648  29.974  1.00  0.00     0.049 A 
ATOM     25  H   UNL A   1      39.672  30.750  31.716  1.00  0.00     0.167 HD
ATOM     26  C   UNL A   1      40.333  33.305  35.212  1.00  0.00     0.031 A 
ATOM     27  C   UNL A   1      40.356  28.731  29.901  1.00  0.00     0.031 A 
ATOM     28  C   UNL A   1      41.361  32.303  35.263  1.00  0.00     0.049 A 
ATOM     29  C   UNL A   1      41.401  28.688  30.987  1.00  0.00     0.074 A 
ATOM     30  C   UNL A   1      42.315  32.112  36.246  1.00  0.00     0.029 A 
ATOM     31  N   UNL A   1      41.559  31.321  34.307  1.00  0.00    -0.354 N 
ATOM     32  N   UNL A   1      41.504  29.439  32.058  1.00  0.00    -0.248 NA
ATOM     33  C   UNL A   1      42.460  27.674  30.866  1.00  0.00     0.031 C 
ATOM     34  C   UNL A   1      43.138  31.062  35.848  1.00  0.00     0.029 A 
ATOM     35  C   UNL A   1      42.642  30.542  34.662  1.00  0.00     0.049 A 
ATOM     36  H   UNL A   1      41.012  31.198  33.497  1.00  0.00     0.167 HD
ATOM     37  C   UNL A   1      42.615  28.968  32.749  1.00  0.00     0.074 A 
ATOM     38  C   UNL A   1      43.147  27.861  31.986  1.00  0.00     0.031 C 
ATOM     39  C   UNL A   1      43.143  29.420  33.911  1.00  0.00     0.031 A 
BRANCH  26  40
ATOM     40  C   UNL A   1      40.289  34.299  36.338  1.00  0.00    -0.014 A 
ATOM     41  C   UNL A   1      39.424  34.078  37.424  1.00  0.00     0.009 A 
ATOM     42  C   UNL A   1      40.966  35.524  36.247  1.00  0.00     0.009 A 
ATOM     43  C   UNL A   1      39.209  35.078  38.373  1.00  0.00     0.001 A 
ATOM     44  C   UNL A   1      40.771  36.510  37.215  1.00  0.00     0.001 A 
ATOM     45  C   UNL A   1      39.880  36.294  38.265  1.00  0.00     0.000 A 
ENDBRANCH  26  40
BRANCH  27  46
ATOM     46  C   UNL A   1      40.403  27.790  28.748  1.00  0.00    -0.014 A 
ATOM     47  C   UNL A   1      41.068  28.147  27.561  1.00  0.00     0.009 A 
ATOM     48  C   UNL A   1      39.764  26.542  28.808  1.00  0.00     0.009 A 
ATOM     49  C   UNL A   1      41.070  27.293  26.457  1.00  0.00     0.001 A 
ATOM     50  C   UNL A   1      39.800  25.672  27.714  1.00  0.00     0.001 A 
ATOM     51  C   UNL A   1      40.442  26.052  26.537  1.00  0.00     0.000 A 
ENDBRANCH  27  46
BRANCH  39  52
ATOM     52  C   UNL A   1      44.344  28.721  34.485  1.00  0.00    -0.014 A 
ATOM     53  C   UNL A   1      44.168  27.782  35.515  1.00  0.00     0.009 A 
ATOM     54  C   UNL A   1      45.643  29.138  34.159  1.00  0.00     0.009 A 
ATOM     55  C   UNL A   1      45.262  27.309  36.240  1.00  0.00     0.001 A 
ATOM     56  C   UNL A   1      46.739  28.638  34.865  1.00  0.00     0.001 A 
ATOM     57  C   UNL A   1      46.547  27.741  35.916  1.00  0.00     0.000 A 
ENDBRANCH  39  52
ENDBRANCH  13  14
ENDBRANCH   6   8
ENDBRANCH   3   4
ENDBRANCH   2   3
ENDBRANCH   1   2
BRANCH   1  58
ATOM     58  C   UNL A   1      32.567  30.076  26.903  1.00  0.00     0.002 C 
BRANCH  58  59
ATOM     59  C   UNL A   1      32.224  28.600  27.101  1.00  0.00     0.021 C 
BRANCH  59  60
ATOM     60  C   UNL A   1      33.336  27.632  26.718  1.00  0.00     0.116 C 
BRANCH  60  61
ATOM     61  N   UNL A   1      33.465  27.447  25.280  1.00  0.00    -0.352 N 
ATOM     62  C   UNL A   1      32.987  26.433  24.486  1.00  0.00     0.258 C 
ATOM     63  H   UNL A   1      33.966  28.151  24.809  1.00  0.00     0.163 HD
ATOM     64  O   UNL A   1      33.191  26.449  23.278  1.00  0.00    -0.269 OA
BRANCH  62  65
ATOM     65  C   UNL A   1      32.234  25.355  25.150  1.00  0.00     0.121 A 
ATOM     66  C   UNL A   1      32.887  24.250  25.539  1.00  0.00     0.110 A 
ATOM     67  C   UNL A   1      30.768  25.396  25.292  1.00  0.00     0.266 A 
ATOM     68  N   UNL A   1      32.224  23.090  25.902  1.00  0.00    -0.299 N 
ATOM     69  N   UNL A   1      30.187  24.215  25.670  1.00  0.00    -0.273 N 
ATOM     70  O   UNL A   1      30.088  26.376  25.017  1.00  0.00    -0.268 OA
ATOM     71  C   UNL A   1      30.831  23.028  25.884  1.00  0.00     0.328 A 
ATOM     72  H   UNL A   1      29.212  24.221  25.801  1.00  0.00     0.175 HD
ATOM     73  O   UNL A   1      30.193  21.993  26.053  1.00  0.00    -0.248 OA
BRANCH  68  74
ATOM     74  C   UNL A   1      32.991  21.867  26.122  1.00  0.00     0.131 C 
BRANCH  74  75
ATOM     75  C   UNL A   1      33.748  21.287  24.912  1.00  0.00     0.025 C 
ATOM     76  C   UNL A   1      32.973  21.255  23.585  1.00  0.00     0.022 C 
ATOM     77  C   UNL A   1      34.301  19.877  25.122  1.00  0.00     0.142 C 
ATOM     78  C   UNL A   1      32.188  19.952  23.487  1.00  0.00     0.137 C 
ATOM     79  S   UNL A   1      33.119  18.746  24.410  1.00  0.00     0.150 S 
ATOM     80  O   UNL A   1      32.282  18.222  25.471  1.00  0.00    -0.229 OA
ATOM     81  O   UNL A   1      33.815  17.882  23.483  1.00  0.00    -0.229 OA
ENDBRANCH  74  75
ENDBRANCH  68  74
ENDBRANCH  62  65
ENDBRANCH  60  61
ENDBRANCH  59  60
ENDBRANCH  58  59
ENDBRANCH   1  58
TORSDOF 15
ENDMDL
MODEL 3
REMARK VINA RESULT:     -11.2      4.886      9.989
REMARK SMILES O=C(NCCCCCCNC(=O)c1cn(C[C@@H]2CCS(=O)(=O)C2)c(=O)[nH]c1=O)c1ccc(-c2c3nc(c(-c4ccccc4)c4ccc([nH]4)c(-c4ccccc4)c4nc(c(-c5ccccc5)c5ccc2[nH]5)C=C4)C=C3)cc1
REMARK SMILES IDX 6 1 5 2 4 3 3 4 1 5 2 6 29 8 30 9 76 10 31 11 75 12 32 13
REMARK SMILES IDX 33 14 34 15 69 16 35 17 74 18 68 19 70 20 36 21 73 22 67 23
REMARK SMILES IDX 66 24 37 26 59 27 44 28 58 29 45 30 48 31 57 32 71 33 46 34
REMARK SMILES IDX 47 35 56 37 72 38 49 39 38 40 39 41 43 42 40 43 42 44 41 45
REMARK SMILES IDX 60 46 61 47 65 48 62 49 64 50 63 51 50 52 51 53 55 54 52 55
REMARK SMILES IDX 54 56 53 57 7 58 8 59 9 60 10 61 11 62 12 64 13 65 14 66
REMARK SMILES IDX 27 67 15 68 26 69 28 70 24 71 25 73 16 74 17 75 18 76 23 77
REMARK SMILES IDX 19 78 20 79 21 80 22 81
REMARK H PARENT 3 7 70 25 48 36 10 63 26 72
REMARK Flexibility Score: inf
ROOT
ATOM      1  C   UNL A   1      31.487  30.721  26.328  1.00  0.00     0.002 C 
ENDROOT
BRANCH   1   2
ATOM      2  C   UNL A   1      31.406  32.223  26.615  1.00  0.00     0.021 C 
BRANCH   2   3
ATOM      3  C   UNL A   1      32.673  32.826  27.210  1.00  0.00     0.116 C 
BRANCH   3   4
ATOM      4  N   UNL A   1      32.468  34.200  27.625  1.00  0.00    -0.352 N 
ATOM      5  O   UNL A   1      32.528  35.962  29.020  1.00  0.00    -0.269 OA
ATOM      6  C   UNL A   1      33.011  34.886  28.679  1.00  0.00     0.251 C 
ATOM      7  H   UNL A   1      31.843  34.718  27.066  1.00  0.00     0.163 HD
BRANCH   6   8
ATOM      8  C   UNL A   1      34.186  34.350  29.399  1.00  0.00     0.039 A 
ATOM      9  C   UNL A   1      35.457  34.537  28.846  1.00  0.00     0.014 A 
ATOM     10  C   UNL A   1      34.032  33.579  30.556  1.00  0.00     0.014 A 
ATOM     11  C   UNL A   1      36.570  33.941  29.442  1.00  0.00     0.010 A 
ATOM     12  C   UNL A   1      35.151  33.047  31.190  1.00  0.00     0.010 A 
ATOM     13  C   UNL A   1      36.422  33.184  30.612  1.00  0.00    -0.014 A 
BRANCH  13  14
ATOM     14  C   UNL A   1      37.551  32.407  31.184  1.00  0.00     0.031 A 
ATOM     15  C   UNL A   1      38.190  32.891  32.459  1.00  0.00     0.074 A 
ATOM     16  C   UNL A   1      38.024  31.313  30.558  1.00  0.00     0.049 A 
ATOM     17  N   UNL A   1      39.276  32.464  33.050  1.00  0.00    -0.248 NA
ATOM     18  C   UNL A   1      37.536  34.017  33.150  1.00  0.00     0.031 C 
ATOM     19  C   UNL A   1      37.473  30.734  29.334  1.00  0.00     0.029 A 
ATOM     20  N   UNL A   1      39.088  30.499  30.865  1.00  0.00    -0.354 N 
ATOM     21  C   UNL A   1      39.442  33.282  34.162  1.00  0.00     0.074 A 
ATOM     22  C   UNL A   1      38.378  34.258  34.144  1.00  0.00     0.031 C 
ATOM     23  C   UNL A   1      38.201  29.656  28.995  1.00  0.00     0.029 A 
ATOM     24  C   UNL A   1      39.302  29.501  29.944  1.00  0.00     0.049 A 
ATOM     25  H   UNL A   1      39.646  30.620  31.668  1.00  0.00     0.167 HD
ATOM     26  C   UNL A   1      40.388  33.208  35.123  1.00  0.00     0.031 A 
ATOM     27  C   UNL A   1      40.288  28.584  29.857  1.00  0.00     0.031 A 
ATOM     28  C   UNL A   1      41.416  32.206  35.160  1.00  0.00     0.049 A 
ATOM     29  C   UNL A   1      41.357  28.550  30.919  1.00  0.00     0.074 A 
ATOM     30  C   UNL A   1      42.393  32.024  36.122  1.00  0.00     0.029 A 
ATOM     31  N   UNL A   1      41.592  31.215  34.208  1.00  0.00    -0.354 N 
ATOM     32  N   UNL A   1      41.485  29.311  31.979  1.00  0.00    -0.248 NA
ATOM     33  C   UNL A   1      42.412  27.534  30.783  1.00  0.00     0.031 C 
ATOM     34  C   UNL A   1      43.207  30.970  35.715  1.00  0.00     0.029 A 
ATOM     35  C   UNL A   1      42.683  30.438  34.546  1.00  0.00     0.049 A 
ATOM     36  H   UNL A   1      41.027  31.084  33.413  1.00  0.00     0.167 HD
ATOM     37  C   UNL A   1      42.611  28.847  32.650  1.00  0.00     0.074 A 
ATOM     38  C   UNL A   1      43.126  27.732  31.885  1.00  0.00     0.031 C 
ATOM     39  C   UNL A   1      43.166  29.309  33.794  1.00  0.00     0.031 A 
BRANCH  26  40
ATOM     40  C   UNL A   1      40.370  34.213  36.240  1.00  0.00    -0.014 A 
ATOM     41  C   UNL A   1      39.582  33.969  37.378  1.00  0.00     0.009 A 
ATOM     42  C   UNL A   1      40.989  35.463  36.097  1.00  0.00     0.009 A 
ATOM     43  C   UNL A   1      39.382  34.970  38.329  1.00  0.00     0.001 A 
ATOM     44  C   UNL A   1      40.812  36.452  37.066  1.00  0.00     0.001 A 
ATOM     45  C   UNL A   1      39.995  36.211  38.170  1.00  0.00     0.000 A 
ENDBRANCH  26  40
BRANCH  27  46
ATOM     46  C   UNL A   1      40.307  27.631  28.712  1.00  0.00    -0.014 A 
ATOM     47  C   UNL A   1      39.671  26.381  28.812  1.00  0.00     0.009 A 
ATOM     48  C   UNL A   1      40.982  27.945  27.522  1.00  0.00     0.009 A 
ATOM     49  C   UNL A   1      39.731  25.461  27.764  1.00  0.00     0.001 A 
ATOM     50  C   UNL A   1      41.008  27.038  26.459  1.00  0.00     0.001 A 
ATOM     51  C   UNL A   1      40.393  25.793  26.585  1.00  0.00     0.000 A 
ENDBRANCH  27  46
BRANCH  39  52
ATOM     52  C   UNL A   1      44.381  28.616  34.347  1.00  0.00    -0.014 A 
ATOM     53  C   UNL A   1      44.218  27.608  35.313  1.00  0.00     0.009 A 
ATOM     54  C   UNL A   1      45.670  29.094  34.073  1.00  0.00     0.009 A 
ATOM     55  C   UNL A   1      45.315  27.127  36.028  1.00  0.00     0.001 A 
ATOM     56  C   UNL A   1      46.770  28.587  34.767  1.00  0.00     0.001 A 
ATOM     57  C   UNL A   1      46.590  27.620  35.757  1.00  0.00     0.000 A 
ENDBRANCH  39  52
ENDBRANCH  13  14
ENDBRANCH   6   8
ENDBRANCH   3   4
ENDBRANCH   2   3
ENDBRANCH   1   2
BRANCH   1  58
ATOM     58  C   UNL A   1      32.790  30.037  26.755  1.00  0.00     0.002 C 
BRANCH  58  59
ATOM     59  C   UNL A   1      32.693  28.528  26.973  1.00  0.00     0.021 C 
BRANCH  59  60
ATOM     60  C   UNL A   1      31.782  27.801  25.992  1.00  0.00     0.116 C 
BRANCH  60  61
ATOM     61  N   UNL A   1      31.013  26.732  26.610  1.00  0.00    -0.352 N 
ATOM     62  C   UNL A   1      30.758  25.463  26.149  1.00  0.00     0.258 C 
ATOM     63  H   UNL A   1      30.618  26.949  27.486  1.00  0.00     0.163 HD
ATOM     64  O   UNL A   1      30.084  24.688  26.818  1.00  0.00    -0.269 OA
BRANCH  62  65
ATOM     65  C   UNL A   1      31.326  25.095  24.840  1.00  0.00     0.121 A 
ATOM     66  C   UNL A   1      32.594  24.663  24.781  1.00  0.00     0.110 A 
ATOM     67  C   UNL A   1      30.590  25.300  23.581  1.00  0.00     0.266 A 
ATOM     68  N   UNL A   1      33.287  24.573  23.586  1.00  0.00    -0.299 N 
ATOM     69  N   UNL A   1      31.340  25.177  22.442  1.00  0.00    -0.273 N 
ATOM     70  O   UNL A   1      29.414  25.638  23.531  1.00  0.00    -0.268 OA
ATOM     71  C   UNL A   1      32.682  24.924  22.380  1.00  0.00     0.328 A 
ATOM     72  H   UNL A   1      30.867  25.280  21.585  1.00  0.00     0.175 HD
ATOM     73  O   UNL A   1      33.284  25.004  21.313  1.00  0.00    -0.248 OA
BRANCH  68  74
ATOM     74  C   UNL A   1      34.720  24.288  23.610  1.00  0.00     0.131 C 
BRANCH  74  75
ATOM     75  C   UNL A   1      35.146  22.819  23.425  1.00  0.00     0.025 C 
ATOM     76  C   UNL A   1      34.528  21.811  24.407  1.00  0.00     0.022 C 
ATOM     77  C   UNL A   1      36.657  22.584  23.460  1.00  0.00     0.142 C 
ATOM     78  C   UNL A   1      35.400  21.716  25.653  1.00  0.00     0.137 C 
ATOM     79  S   UNL A   1      37.062  22.070  25.119  1.00  0.00     0.150 S 
ATOM     80  O   UNL A   1      37.554  23.219  25.853  1.00  0.00    -0.229 OA
ATOM     81  O   UNL A   1      37.803  20.831  25.045  1.00  0.00    -0.229 OA
ENDBRANCH  74  75
ENDBRANCH  68  74
ENDBRANCH  62  65
ENDBRANCH  60  61
ENDBRANCH  59  60
ENDBRANCH  58  59
ENDBRANCH   1  58
TORSDOF 15
ENDMDL
