MODEL 1
REMARK VINA RESULT:     -10.8      0.000      0.000
REMARK SMILES CSc1cccc(N2C[C@@H](C(=O)NCCCCCCNC(=O)c3ccc(-c4c5nc(c(-c6ccccc6)c6ccc([nH]6)c(-c6ccccc6)c6nc(c(-c7ccccc7)c7ccc4[nH]7)C=C6)C=C5)cc3)CC2=O)c1
REMARK SMILES IDX 16 1 15 2 14 3 13 4 11 5 12 6 10 8 8 9 9 10 72 11 71 12
REMARK SMILES IDX 73 13 7 14 3 15 4 16 74 17 5 18 6 19 2 20 1 21 17 22 18 23
REMARK SMILES IDX 19 24 20 25 21 26 22 28 23 29 24 30 70 31 25 32 69 33 26 34
REMARK SMILES IDX 27 35 28 36 63 37 29 38 68 39 62 40 64 41 30 42 67 43 61 44
REMARK SMILES IDX 60 45 31 47 53 48 38 49 52 50 39 51 42 52 51 53 65 54 40 55
REMARK SMILES IDX 41 56 50 58 66 59 43 60 32 61 33 62 37 63 34 64 36 65 35 66
REMARK SMILES IDX 54 67 55 68 59 69 56 70 58 71 57 72 44 73 45 74 49 75 46 76
REMARK SMILES IDX 48 77 47 78
REMARK H PARENT 13 7 20 27 64 46 42 57
REMARK Flexibility Score: inf
ROOT
ATOM      1  C   UNL A   1      35.038  21.456  24.461  1.00  0.00     0.002 C 
ENDROOT
BRANCH   1   2
ATOM      2  C   UNL A   1      34.573  20.061  24.897  1.00  0.00     0.021 C 
BRANCH   2   3
ATOM      3  C   UNL A   1      33.251  20.051  25.667  1.00  0.00     0.116 C 
BRANCH   3   4
ATOM      4  N   UNL A   1      33.336  20.858  26.870  1.00  0.00    -0.356 N 
ATOM      5  C   UNL A   1      32.830  22.078  27.179  1.00  0.00     0.225 C 
ATOM      6  O   UNL A   1      33.088  22.531  28.298  1.00  0.00    -0.275 OA
ATOM      7  H   UNL A   1      33.856  20.443  27.596  1.00  0.00     0.163 HD
BRANCH   5   8
ATOM      8  C   UNL A   1      31.949  22.868  26.235  1.00  0.00     0.107 C 
ATOM      9  N   UNL A   1      31.324  25.143  26.143  1.00  0.00    -0.312 N 
ATOM     10  C   UNL A   1      32.466  24.275  25.994  1.00  0.00     0.139 C 
ATOM     11  C   UNL A   1      30.189  24.466  26.583  1.00  0.00     0.227 C 
ATOM     12  C   UNL A   1      30.498  22.996  26.665  1.00  0.00     0.116 C 
ATOM     13  O   UNL A   1      29.085  24.928  26.843  1.00  0.00    -0.274 OA
BRANCH   9  14
ATOM     14  C   UNL A   1      31.409  26.541  25.938  1.00  0.00     0.045 A 
ATOM     15  C   UNL A   1      31.197  28.492  24.477  1.00  0.00     0.009 A 
ATOM     16  C   UNL A   1      31.622  29.310  25.526  1.00  0.00     0.015 A 
ATOM     17  C   UNL A   1      31.130  27.105  24.685  1.00  0.00     0.041 A 
ATOM     18  C   UNL A   1      31.914  28.762  26.775  1.00  0.00     0.003 A 
ATOM     19  C   UNL A   1      31.780  27.389  26.987  1.00  0.00     0.026 A 
BRANCH  15  20
ATOM     20  S   UNL A   1      30.771  29.117  22.856  1.00  0.00    -0.130 SA
ATOM     21  C   UNL A   1      29.203  29.974  23.173  1.00  0.00     0.091 C 
ENDBRANCH  15  20
ENDBRANCH   9  14
ENDBRANCH   5   8
ENDBRANCH   3   4
ENDBRANCH   2   3
ENDBRANCH   1   2
BRANCH   1  22
ATOM     22  C   UNL A   1      36.556  21.632  24.348  1.00  0.00     0.002 C 
BRANCH  22  23
ATOM     23  C   UNL A   1      37.383  20.430  24.808  1.00  0.00     0.021 C 
BRANCH  23  24
ATOM     24  C   UNL A   1      38.551  20.778  25.724  1.00  0.00     0.116 C 
BRANCH  24  25
ATOM     25  N   UNL A   1      39.580  19.750  25.715  1.00  0.00    -0.352 N 
ATOM     26  C   UNL A   1      40.919  19.857  25.999  1.00  0.00     0.251 C 
ATOM     27  H   UNL A   1      39.273  18.848  25.469  1.00  0.00     0.163 HD
ATOM     28  O   UNL A   1      41.681  18.928  25.751  1.00  0.00    -0.269 OA
BRANCH  26  29
ATOM     29  C   UNL A   1      41.446  21.107  26.585  1.00  0.00     0.039 A 
ATOM     30  C   UNL A   1      41.954  22.091  25.734  1.00  0.00     0.014 A 
ATOM     31  C   UNL A   1      41.440  21.309  27.968  1.00  0.00     0.014 A 
ATOM     32  C   UNL A   1      42.401  23.302  26.267  1.00  0.00     0.010 A 
ATOM     33  C   UNL A   1      41.810  22.545  28.490  1.00  0.00     0.010 A 
ATOM     34  C   UNL A   1      42.299  23.553  27.645  1.00  0.00    -0.014 A 
BRANCH  34  35
ATOM     35  C   UNL A   1      42.696  24.863  28.219  1.00  0.00     0.031 A 
ATOM     36  C   UNL A   1      41.667  25.937  28.444  1.00  0.00     0.074 A 
ATOM     37  C   UNL A   1      43.994  25.107  28.488  1.00  0.00     0.049 A 
ATOM     38  N   UNL A   1      41.830  27.155  28.894  1.00  0.00    -0.248 NA
ATOM     39  C   UNL A   1      40.275  25.606  28.095  1.00  0.00     0.031 C 
ATOM     40  C   UNL A   1      45.094  24.162  28.286  1.00  0.00     0.029 A 
ATOM     41  N   UNL A   1      44.607  26.228  28.989  1.00  0.00    -0.354 N 
ATOM     42  C   UNL A   1      40.569  27.738  28.871  1.00  0.00     0.074 A 
ATOM     43  C   UNL A   1      39.662  26.761  28.310  1.00  0.00     0.031 C 
ATOM     44  C   UNL A   1      46.241  24.730  28.691  1.00  0.00     0.029 A 
ATOM     45  C   UNL A   1      45.966  26.093  29.135  1.00  0.00     0.049 A 
ATOM     46  H   UNL A   1      44.119  27.051  29.222  1.00  0.00     0.167 HD
ATOM     47  C   UNL A   1      40.193  28.968  29.297  1.00  0.00     0.031 A 
ATOM     48  C   UNL A   1      46.891  26.970  29.570  1.00  0.00     0.031 A 
ATOM     49  C   UNL A   1      41.096  29.941  29.851  1.00  0.00     0.049 A 
ATOM     50  C   UNL A   1      46.454  28.343  29.999  1.00  0.00     0.074 A 
ATOM     51  C   UNL A   1      40.805  31.198  30.353  1.00  0.00     0.029 A 
ATOM     52  N   UNL A   1      42.467  29.770  29.969  1.00  0.00    -0.354 N 
ATOM     53  N   UNL A   1      45.247  28.854  30.036  1.00  0.00    -0.248 NA
ATOM     54  C   UNL A   1      47.509  29.258  30.457  1.00  0.00     0.031 C 
ATOM     55  C   UNL A   1      42.008  31.811  30.717  1.00  0.00     0.029 A 
ATOM     56  C   UNL A   1      43.040  30.910  30.508  1.00  0.00     0.049 A 
ATOM     57  H   UNL A   1      42.958  28.958  29.707  1.00  0.00     0.167 HD
ATOM     58  C   UNL A   1      45.394  30.136  30.551  1.00  0.00     0.074 A 
ATOM     59  C   UNL A   1      46.803  30.318  30.826  1.00  0.00     0.031 C 
ATOM     60  C   UNL A   1      44.445  31.077  30.776  1.00  0.00     0.031 A 
BRANCH  47  61
ATOM     61  C   UNL A   1      38.738  29.331  29.166  1.00  0.00    -0.014 A 
ATOM     62  C   UNL A   1      37.856  29.218  30.253  1.00  0.00     0.009 A 
ATOM     63  C   UNL A   1      38.248  29.823  27.946  1.00  0.00     0.009 A 
ATOM     64  C   UNL A   1      36.507  29.549  30.109  1.00  0.00     0.001 A 
ATOM     65  C   UNL A   1      36.906  30.184  27.814  1.00  0.00     0.001 A 
ATOM     66  C   UNL A   1      36.034  30.036  28.891  1.00  0.00     0.000 A 
ENDBRANCH  47  61
BRANCH  48  67
ATOM     67  C   UNL A   1      48.323  26.575  29.637  1.00  0.00    -0.014 A 
ATOM     68  C   UNL A   1      48.839  25.959  30.789  1.00  0.00     0.009 A 
ATOM     69  C   UNL A   1      49.185  26.822  28.558  1.00  0.00     0.009 A 
ATOM     70  C   UNL A   1      50.194  25.630  30.868  1.00  0.00     0.001 A 
ATOM     71  C   UNL A   1      50.532  26.461  28.628  1.00  0.00     0.001 A 
ATOM     72  C   UNL A   1      51.038  25.876  29.788  1.00  0.00     0.000 A 
ENDBRANCH  48  67
BRANCH  60  73
ATOM     73  C   UNL A   1      44.894  32.375  31.390  1.00  0.00    -0.014 A 
ATOM     74  C   UNL A   1      45.271  33.471  30.599  1.00  0.00     0.009 A 
ATOM     75  C   UNL A   1      44.902  32.513  32.787  1.00  0.00     0.009 A 
ATOM     76  C   UNL A   1      45.683  34.664  31.194  1.00  0.00     0.001 A 
ATOM     77  C   UNL A   1      45.280  33.718  33.380  1.00  0.00     0.001 A 
ATOM     78  C   UNL A   1      45.682  34.789  32.584  1.00  0.00     0.000 A 
ENDBRANCH  60  73
ENDBRANCH  34  35
ENDBRANCH  26  29
ENDBRANCH  24  25
ENDBRANCH  23  24
ENDBRANCH  22  23
ENDBRANCH   1  22
TORSDOF 15
ENDMDL
MODEL 2
REMARK VINA RESULT:     -10.7      2.313      4.101
REMARK SMILES CSc1cccc(N2C[C@@H](C(=O)NCCCCCCNC(=O)c3ccc(-c4c5nc(c(-c6ccccc6)c6ccc([nH]6)c(-c6ccccc6)c6nc(c(-c7ccccc7)c7ccc4[nH]7)C=C6)C=C5)cc3)CC2=O)c1
REMARK SMILES IDX 16 1 15 2 14 3 13 4 11 5 12 6 10 8 8 9 9 10 72 11 71 12
REMARK SMILES IDX 73 13 7 14 3 15 4 16 74 17 5 18 6 19 2 20 1 21 17 22 18 23
REMARK SMILES IDX 19 24 20 25 21 26 22 28 23 29 24 30 70 31 25 32 69 33 26 34
REMARK SMILES IDX 27 35 28 36 63 37 29 38 68 39 62 40 64 41 30 42 67 43 61 44
REMARK SMILES IDX 60 45 31 47 53 48 38 49 52 50 39 51 42 52 51 53 65 54 40 55
REMARK SMILES IDX 41 56 50 58 66 59 43 60 32 61 33 62 37 63 34 64 36 65 35 66
REMARK SMILES IDX 54 67 55 68 59 69 56 70 58 71 57 72 44 73 45 74 49 75 46 76
REMARK SMILES IDX 48 77 47 78
REMARK H PARENT 13 7 20 27 64 46 42 57
REMARK Flexibility Score: inf
ROOT
ATOM      1  C   UNL A   1      35.977  22.246  24.548  1.00  0.00     0.002 C 
ENDROOT
BRANCH   1   2
ATOM      2  C   UNL A   1      35.305  23.172  25.570  1.00  0.00     0.021 C 
BRANCH   2   3
ATOM      3  C   UNL A   1      34.464  22.445  26.620  1.00  0.00     0.116 C 
BRANCH   3   4
ATOM      4  N   UNL A   1      33.428  23.309  27.156  1.00  0.00    -0.356 N 
ATOM      5  C   UNL A   1      32.177  23.600  26.719  1.00  0.00     0.225 C 
ATOM      6  O   UNL A   1      31.518  24.402  27.386  1.00  0.00    -0.275 OA
ATOM      7  H   UNL A   1      33.680  23.768  27.989  1.00  0.00     0.163 HD
BRANCH   5   8
ATOM      8  C   UNL A   1      31.562  22.959  25.492  1.00  0.00     0.107 C 
ATOM      9  N   UNL A   1      32.236  21.177  24.100  1.00  0.00    -0.312 N 
ATOM     10  C   UNL A   1      31.789  21.460  25.442  1.00  0.00     0.139 C 
ATOM     11  C   UNL A   1      32.449  22.331  23.350  1.00  0.00     0.227 C 
ATOM     12  C   UNL A   1      32.037  23.526  24.165  1.00  0.00     0.116 C 
ATOM     13  O   UNL A   1      32.866  22.422  22.202  1.00  0.00    -0.274 OA
BRANCH   9  14
ATOM     14  C   UNL A   1      32.501  19.859  23.657  1.00  0.00     0.045 A 
ATOM     15  C   UNL A   1      33.380  17.613  24.070  1.00  0.00     0.009 A 
ATOM     16  C   UNL A   1      33.065  17.259  22.758  1.00  0.00     0.015 A 
ATOM     17  C   UNL A   1      33.127  18.927  24.497  1.00  0.00     0.041 A 
ATOM     18  C   UNL A   1      32.453  18.179  21.906  1.00  0.00     0.003 A 
ATOM     19  C   UNL A   1      32.146  19.461  22.363  1.00  0.00     0.026 A 
BRANCH  15  20
ATOM     20  S   UNL A   1      34.137  16.486  25.236  1.00  0.00    -0.130 SA
ATOM     21  C   UNL A   1      32.800  15.297  25.545  1.00  0.00     0.091 C 
ENDBRANCH  15  20
ENDBRANCH   9  14
ENDBRANCH   5   8
ENDBRANCH   3   4
ENDBRANCH   2   3
ENDBRANCH   1   2
BRANCH   1  22
ATOM     22  C   UNL A   1      36.212  20.808  25.025  1.00  0.00     0.002 C 
BRANCH  22  23
ATOM     23  C   UNL A   1      37.592  20.235  24.698  1.00  0.00     0.021 C 
BRANCH  23  24
ATOM     24  C   UNL A   1      38.676  20.573  25.717  1.00  0.00     0.116 C 
BRANCH  24  25
ATOM     25  N   UNL A   1      39.702  19.545  25.785  1.00  0.00    -0.352 N 
ATOM     26  C   UNL A   1      41.033  19.665  26.100  1.00  0.00     0.251 C 
ATOM     27  H   UNL A   1      39.400  18.632  25.575  1.00  0.00     0.163 HD
ATOM     28  O   UNL A   1      41.799  18.725  25.919  1.00  0.00    -0.269 OA
BRANCH  26  29
ATOM     29  C   UNL A   1      41.547  20.941  26.640  1.00  0.00     0.039 A 
ATOM     30  C   UNL A   1      42.085  21.880  25.757  1.00  0.00     0.014 A 
ATOM     31  C   UNL A   1      41.497  21.212  28.010  1.00  0.00     0.014 A 
ATOM     32  C   UNL A   1      42.520  23.115  26.242  1.00  0.00     0.010 A 
ATOM     33  C   UNL A   1      41.856  22.472  28.480  1.00  0.00     0.010 A 
ATOM     34  C   UNL A   1      42.375  23.435  27.602  1.00  0.00    -0.014 A 
BRANCH  34  35
ATOM     35  C   UNL A   1      42.759  24.771  28.122  1.00  0.00     0.031 A 
ATOM     36  C   UNL A   1      41.716  25.836  28.324  1.00  0.00     0.074 A 
ATOM     37  C   UNL A   1      44.057  25.046  28.361  1.00  0.00     0.049 A 
ATOM     38  N   UNL A   1      41.866  27.073  28.727  1.00  0.00    -0.248 NA
ATOM     39  C   UNL A   1      40.325  25.471  28.010  1.00  0.00     0.031 C 
ATOM     40  C   UNL A   1      45.169  24.112  28.176  1.00  0.00     0.029 A 
ATOM     41  N   UNL A   1      44.659  26.194  28.812  1.00  0.00    -0.354 N 
ATOM     42  C   UNL A   1      40.595  27.634  28.703  1.00  0.00     0.074 A 
ATOM     43  C   UNL A   1      39.696  26.622  28.192  1.00  0.00     0.031 C 
ATOM     44  C   UNL A   1      46.313  24.712  28.542  1.00  0.00     0.029 A 
ATOM     45  C   UNL A   1      46.022  26.085  28.941  1.00  0.00     0.049 A 
ATOM     46  H   UNL A   1      44.161  27.016  29.023  1.00  0.00     0.167 HD
ATOM     47  C   UNL A   1      40.206  28.872  29.091  1.00  0.00     0.031 A 
ATOM     48  C   UNL A   1      46.939  26.993  29.330  1.00  0.00     0.031 A 
ATOM     49  C   UNL A   1      41.100  29.879  29.595  1.00  0.00     0.049 A 
ATOM     50  C   UNL A   1      46.486  28.373  29.716  1.00  0.00     0.074 A 
ATOM     51  C   UNL A   1      40.796  31.148  30.056  1.00  0.00     0.029 A 
ATOM     52  N   UNL A   1      42.476  29.734  29.697  1.00  0.00    -0.354 N 
ATOM     53  N   UNL A   1      45.272  28.866  29.753  1.00  0.00    -0.248 NA
ATOM     54  C   UNL A   1      47.533  29.321  30.123  1.00  0.00     0.031 C 
ATOM     55  C   UNL A   1      41.995  31.794  30.378  1.00  0.00     0.029 A 
ATOM     56  C   UNL A   1      43.038  30.902  30.185  1.00  0.00     0.049 A 
ATOM     57  H   UNL A   1      42.977  28.922  29.457  1.00  0.00     0.167 HD
ATOM     58  C   UNL A   1      45.405  30.168  30.219  1.00  0.00     0.074 A 
ATOM     59  C   UNL A   1      46.815  30.382  30.465  1.00  0.00     0.031 C 
ATOM     60  C   UNL A   1      44.444  31.102  30.425  1.00  0.00     0.031 A 
BRANCH  47  61
ATOM     61  C   UNL A   1      38.743  29.207  28.969  1.00  0.00    -0.014 A 
ATOM     62  C   UNL A   1      38.194  29.648  27.755  1.00  0.00     0.009 A 
ATOM     63  C   UNL A   1      37.896  29.051  30.078  1.00  0.00     0.009 A 
ATOM     64  C   UNL A   1      36.837  29.966  27.664  1.00  0.00     0.001 A 
ATOM     65  C   UNL A   1      36.533  29.338  29.976  1.00  0.00     0.001 A 
ATOM     66  C   UNL A   1      36.007  29.806  28.773  1.00  0.00     0.000 A 
ENDBRANCH  47  61
BRANCH  48  67
ATOM     67  C   UNL A   1      48.378  26.624  29.388  1.00  0.00    -0.014 A 
ATOM     68  C   UNL A   1      49.213  26.833  28.279  1.00  0.00     0.009 A 
ATOM     69  C   UNL A   1      48.924  26.049  30.547  1.00  0.00     0.009 A 
ATOM     70  C   UNL A   1      50.554  26.444  28.319  1.00  0.00     0.001 A 
ATOM     71  C   UNL A   1      50.273  25.692  30.595  1.00  0.00     0.001 A 
ATOM     72  C   UNL A   1      51.084  25.880  29.477  1.00  0.00     0.000 A 
ENDBRANCH  48  67
BRANCH  60  73
ATOM     73  C   UNL A   1      44.881  32.428  30.985  1.00  0.00    -0.014 A 
ATOM     74  C   UNL A   1      44.991  32.642  32.368  1.00  0.00     0.009 A 
ATOM     75  C   UNL A   1      45.224  33.470  30.109  1.00  0.00     0.009 A 
ATOM     76  C   UNL A   1      45.399  33.882  32.861  1.00  0.00     0.001 A 
ATOM     77  C   UNL A   1      45.666  34.697  30.603  1.00  0.00     0.001 A 
ATOM     78  C   UNL A   1      45.741  34.907  31.979  1.00  0.00     0.000 A 
ENDBRANCH  60  73
ENDBRANCH  34  35
ENDBRANCH  26  29
ENDBRANCH  24  25
ENDBRANCH  23  24
ENDBRANCH  22  23
ENDBRANCH   1  22
TORSDOF 15
ENDMDL
MODEL 3
REMARK VINA RESULT:     -10.7      2.784      7.043
REMARK SMILES CSc1cccc(N2C[C@@H](C(=O)NCCCCCCNC(=O)c3ccc(-c4c5nc(c(-c6ccccc6)c6ccc([nH]6)c(-c6ccccc6)c6nc(c(-c7ccccc7)c7ccc4[nH]7)C=C6)C=C5)cc3)CC2=O)c1
REMARK SMILES IDX 16 1 15 2 14 3 13 4 11 5 12 6 10 8 8 9 9 10 72 11 71 12
REMARK SMILES IDX 73 13 7 14 3 15 4 16 74 17 5 18 6 19 2 20 1 21 17 22 18 23
REMARK SMILES IDX 19 24 20 25 21 26 22 28 23 29 24 30 70 31 25 32 69 33 26 34
REMARK SMILES IDX 27 35 28 36 63 37 29 38 68 39 62 40 64 41 30 42 67 43 61 44
REMARK SMILES IDX 60 45 31 47 53 48 38 49 52 50 39 51 42 52 51 53 65 54 40 55
REMARK SMILES IDX 41 56 50 58 66 59 43 60 32 61 33 62 37 63 34 64 36 65 35 66
REMARK SMILES IDX 54 67 55 68 59 69 56 70 58 71 57 72 44 73 45 74 49 75 46 76
REMARK SMILES IDX 48 77 47 78
REMARK H PARENT 13 7 20 27 64 46 42 57
REMARK Flexibility Score: inf
ROOT
ATOM      1  C   UNL A   1      41.438  21.632  26.426  1.00  0.00     0.002 C 
ENDROOT
BRANCH   1   2
ATOM      2  C   UNL A   1      40.514  22.469  27.319  1.00  0.00     0.021 C 
BRANCH   2   3
ATOM      3  C   UNL A   1      39.280  23.023  26.605  1.00  0.00     0.116 C 
BRANCH   3   4
ATOM      4  N   UNL A   1      38.422  21.953  26.130  1.00  0.00    -0.356 N 
ATOM      5  C   UNL A   1      37.358  21.953  25.289  1.00  0.00     0.225 C 
ATOM      6  O   UNL A   1      36.802  20.871  25.080  1.00  0.00    -0.275 OA
ATOM      7  H   UNL A   1      38.656  21.064  26.482  1.00  0.00     0.163 HD
BRANCH   5   8
ATOM      8  C   UNL A   1      36.863  23.199  24.584  1.00  0.00     0.107 C 
ATOM      9  N   UNL A   1      34.798  24.341  24.596  1.00  0.00    -0.312 N 
ATOM     10  C   UNL A   1      35.920  24.020  25.443  1.00  0.00     0.139 C 
ATOM     11  C   UNL A   1      34.860  23.705  23.358  1.00  0.00     0.227 C 
ATOM     12  C   UNL A   1      36.158  22.952  23.261  1.00  0.00     0.116 C 
ATOM     13  O   UNL A   1      34.044  23.743  22.446  1.00  0.00    -0.274 OA
BRANCH   9  14
ATOM     14  C   UNL A   1      33.725  25.150  25.041  1.00  0.00     0.045 A 
ATOM     15  C   UNL A   1      32.480  27.256  24.976  1.00  0.00     0.009 A 
ATOM     16  C   UNL A   1      31.621  26.766  25.962  1.00  0.00     0.015 A 
ATOM     17  C   UNL A   1      33.550  26.452  24.551  1.00  0.00     0.041 A 
ATOM     18  C   UNL A   1      31.789  25.477  26.468  1.00  0.00     0.003 A 
ATOM     19  C   UNL A   1      32.817  24.664  25.989  1.00  0.00     0.026 A 
BRANCH  15  20
ATOM     20  S   UNL A   1      32.316  28.883  24.251  1.00  0.00    -0.130 SA
ATOM     21  C   UNL A   1      33.737  28.948  23.124  1.00  0.00     0.091 C 
ENDBRANCH  15  20
ENDBRANCH   9  14
ENDBRANCH   5   8
ENDBRANCH   3   4
ENDBRANCH   2   3
ENDBRANCH   1   2
BRANCH   1  22
ATOM     22  C   UNL A   1      41.787  20.242  26.968  1.00  0.00     0.002 C 
BRANCH  22  23
ATOM     23  C   UNL A   1      42.149  19.204  25.903  1.00  0.00     0.021 C 
BRANCH  23  24
ATOM     24  C   UNL A   1      43.548  18.615  26.043  1.00  0.00     0.116 C 
BRANCH  24  25
ATOM     25  N   UNL A   1      44.247  18.554  24.769  1.00  0.00    -0.352 N 
ATOM     26  C   UNL A   1      44.738  19.578  23.997  1.00  0.00     0.251 C 
ATOM     27  H   UNL A   1      44.389  17.649  24.409  1.00  0.00     0.163 HD
ATOM     28  O   UNL A   1      45.127  19.359  22.855  1.00  0.00    -0.269 OA
BRANCH  26  29
ATOM     29  C   UNL A   1      44.775  20.952  24.538  1.00  0.00     0.039 A 
ATOM     30  C   UNL A   1      45.428  21.184  25.751  1.00  0.00     0.014 A 
ATOM     31  C   UNL A   1      44.168  22.009  23.854  1.00  0.00     0.014 A 
ATOM     32  C   UNL A   1      45.523  22.485  26.247  1.00  0.00     0.010 A 
ATOM     33  C   UNL A   1      44.333  23.314  24.309  1.00  0.00     0.010 A 
ATOM     34  C   UNL A   1      45.008  23.566  25.512  1.00  0.00    -0.014 A 
BRANCH  34  35
ATOM     35  C   UNL A   1      45.169  24.963  25.985  1.00  0.00     0.031 A 
ATOM     36  C   UNL A   1      46.513  25.636  25.922  1.00  0.00     0.074 A 
ATOM     37  C   UNL A   1      44.117  25.610  26.524  1.00  0.00     0.049 A 
ATOM     38  N   UNL A   1      46.857  26.833  26.327  1.00  0.00    -0.248 NA
ATOM     39  C   UNL A   1      47.621  24.854  25.351  1.00  0.00     0.031 C 
ATOM     40  C   UNL A   1      42.768  25.059  26.672  1.00  0.00     0.029 A 
ATOM     41  N   UNL A   1      44.018  26.875  27.048  1.00  0.00    -0.354 N 
ATOM     42  C   UNL A   1      48.218  26.941  26.071  1.00  0.00     0.074 A 
ATOM     43  C   UNL A   1      48.649  25.671  25.530  1.00  0.00     0.031 C 
ATOM     44  C   UNL A   1      41.970  25.991  27.217  1.00  0.00     0.029 A 
ATOM     45  C   UNL A   1      42.758  27.185  27.500  1.00  0.00     0.049 A 
ATOM     46  H   UNL A   1      44.777  27.499  27.095  1.00  0.00     0.167 HD
ATOM     47  C   UNL A   1      49.034  28.008  26.249  1.00  0.00     0.031 A 
ATOM     48  C   UNL A   1      42.291  28.305  28.085  1.00  0.00     0.031 A 
ATOM     49  C   UNL A   1      48.606  29.270  26.791  1.00  0.00     0.049 A 
ATOM     50  C   UNL A   1      43.226  29.461  28.310  1.00  0.00     0.074 A 
ATOM     51  C   UNL A   1      49.347  30.426  26.969  1.00  0.00     0.029 A 
ATOM     52  N   UNL A   1      47.326  29.540  27.250  1.00  0.00    -0.354 N 
ATOM     53  N   UNL A   1      44.495  29.571  27.998  1.00  0.00    -0.248 NA
ATOM     54  C   UNL A   1      42.660  30.651  28.960  1.00  0.00     0.031 C 
ATOM     55  C   UNL A   1      48.530  31.375  27.593  1.00  0.00     0.029 A 
ATOM     56  C   UNL A   1      47.263  30.834  27.739  1.00  0.00     0.049 A 
ATOM     57  H   UNL A   1      46.574  28.904  27.230  1.00  0.00     0.167 HD
ATOM     58  C   UNL A   1      44.870  30.852  28.383  1.00  0.00     0.074 A 
ATOM     59  C   UNL A   1      43.690  31.485  28.936  1.00  0.00     0.031 C 
ATOM     60  C   UNL A   1      46.082  31.451  28.286  1.00  0.00     0.031 A 
BRANCH  47  61
ATOM     61  C   UNL A   1      50.480  27.845  25.864  1.00  0.00    -0.014 A 
ATOM     62  C   UNL A   1      50.926  28.136  24.565  1.00  0.00     0.009 A 
ATOM     63  C   UNL A   1      51.415  27.424  26.822  1.00  0.00     0.009 A 
ATOM     64  C   UNL A   1      52.270  27.968  24.222  1.00  0.00     0.001 A 
ATOM     65  C   UNL A   1      52.763  27.288  26.486  1.00  0.00     0.001 A 
ATOM     66  C   UNL A   1      53.188  27.549  25.184  1.00  0.00     0.000 A 
ENDBRANCH  47  61
BRANCH  48  67
ATOM     67  C   UNL A   1      40.863  28.397  28.489  1.00  0.00    -0.014 A 
ATOM     68  C   UNL A   1      40.447  27.935  29.748  1.00  0.00     0.009 A 
ATOM     69  C   UNL A   1      39.905  28.936  27.615  1.00  0.00     0.009 A 
ATOM     70  C   UNL A   1      39.098  27.980  30.109  1.00  0.00     0.001 A 
ATOM     71  C   UNL A   1      38.562  29.010  27.993  1.00  0.00     0.001 A 
ATOM     72  C   UNL A   1      38.159  28.522  29.234  1.00  0.00     0.000 A 
ENDBRANCH  48  67
BRANCH  60  73
ATOM     73  C   UNL A   1      46.184  32.879  28.748  1.00  0.00    -0.014 A 
ATOM     74  C   UNL A   1      46.535  33.200  30.069  1.00  0.00     0.009 A 
ATOM     75  C   UNL A   1      45.962  33.920  27.833  1.00  0.00     0.009 A 
ATOM     76  C   UNL A   1      46.623  34.534  30.472  1.00  0.00     0.001 A 
ATOM     77  C   UNL A   1      46.087  35.252  28.229  1.00  0.00     0.001 A 
ATOM     78  C   UNL A   1      46.405  35.558  29.550  1.00  0.00     0.000 A 
ENDBRANCH  60  73
ENDBRANCH  34  35
ENDBRANCH  26  29
ENDBRANCH  24  25
ENDBRANCH  23  24
ENDBRANCH  22  23
ENDBRANCH   1  22
TORSDOF 15
ENDMDL
