MODEL 1
REMARK VINA RESULT:     -11.6      0.000      0.000
REMARK SMILES O=C(NCCCCCCNC(=O)[C@H]1C[NH2+]CCN1c1ncc(C(F)(F)F)cc1Cl)c1ccc(-c2c3nc(c(-c4ccccc4)c4ccc([nH]4)c(-c4ccccc4)c4nc(c(-c5ccccc5)c5ccc2[nH]5)C=C4)C=C3)cc1
REMARK SMILES IDX 6 1 5 2 4 3 3 4 1 5 2 6 30 8 31 9 77 10 32 11 76 12 33 13
REMARK SMILES IDX 34 14 35 15 70 16 36 17 75 18 69 19 71 20 37 21 74 22 68 23
REMARK SMILES IDX 67 24 38 26 60 27 45 28 59 29 46 30 49 31 58 32 72 33 47 34
REMARK SMILES IDX 48 35 57 37 73 38 50 39 39 40 40 41 44 42 41 43 43 44 42 45
REMARK SMILES IDX 61 46 62 47 66 48 63 49 65 50 64 51 51 52 52 53 56 54 53 55
REMARK SMILES IDX 55 56 54 57 7 58 8 59 9 60 10 61 11 62 12 64 13 65 14 66
REMARK SMILES IDX 18 67 15 68 17 69 16 70 19 73 20 74 28 75 21 76 27 77 29 78
REMARK SMILES IDX 22 79 23 80 24 81 25 82 26 83
REMARK H PARENT 3 7 71 25 49 36 10 63 15 71 15 72
REMARK Flexibility Score: inf
ROOT
ATOM      1  C   UNL A   1      36.494  20.570  24.948  1.00  0.00     0.002 C 
ENDROOT
BRANCH   1   2
ATOM      2  C   UNL A   1      37.694  19.619  24.999  1.00  0.00     0.021 C 
BRANCH   2   3
ATOM      3  C   UNL A   1      38.898  20.161  25.759  1.00  0.00     0.116 C 
BRANCH   3   4
ATOM      4  N   UNL A   1      39.969  19.182  25.852  1.00  0.00    -0.352 N 
ATOM      5  O   UNL A   1      42.101  18.450  25.845  1.00  0.00    -0.269 OA
ATOM      6  C   UNL A   1      41.318  19.376  26.007  1.00  0.00     0.251 C 
ATOM      7  H   UNL A   1      39.685  18.242  25.793  1.00  0.00     0.163 HD
BRANCH   6   8
ATOM      8  C   UNL A   1      41.820  20.716  26.370  1.00  0.00     0.039 A 
ATOM      9  C   UNL A   1      42.091  21.659  25.376  1.00  0.00     0.014 A 
ATOM     10  C   UNL A   1      41.997  21.039  27.717  1.00  0.00     0.014 A 
ATOM     11  C   UNL A   1      42.659  22.878  25.719  1.00  0.00     0.010 A 
ATOM     12  C   UNL A   1      42.480  22.302  28.067  1.00  0.00     0.010 A 
ATOM     13  C   UNL A   1      42.831  23.223  27.068  1.00  0.00    -0.014 A 
BRANCH  13  14
ATOM     14  C   UNL A   1      43.291  24.590  27.409  1.00  0.00     0.031 A 
ATOM     15  C   UNL A   1      42.328  25.651  27.855  1.00  0.00     0.074 A 
ATOM     16  C   UNL A   1      44.608  24.860  27.316  1.00  0.00     0.049 A 
ATOM     17  N   UNL A   1      42.574  26.891  28.194  1.00  0.00    -0.248 NA
ATOM     18  C   UNL A   1      40.907  25.278  27.924  1.00  0.00     0.031 C 
ATOM     19  C   UNL A   1      45.635  23.908  26.883  1.00  0.00     0.029 A 
ATOM     20  N   UNL A   1      45.310  26.005  27.589  1.00  0.00    -0.354 N 
ATOM     21  C   UNL A   1      41.339  27.454  28.496  1.00  0.00     0.074 A 
ATOM     22  C   UNL A   1      40.344  26.426  28.275  1.00  0.00     0.031 C 
ATOM     23  C   UNL A   1      46.838  24.494  26.960  1.00  0.00     0.029 A 
ATOM     24  C   UNL A   1      46.661  25.879  27.374  1.00  0.00     0.049 A 
ATOM     25  H   UNL A   1      44.889  26.835  27.909  1.00  0.00     0.167 HD
ATOM     26  C   UNL A   1      41.067  28.712  28.918  1.00  0.00     0.031 A 
ATOM     27  C   UNL A   1      47.649  26.786  27.469  1.00  0.00     0.031 A 
ATOM     28  C   UNL A   1      42.066  29.731  29.120  1.00  0.00     0.049 A 
ATOM     29  C   UNL A   1      47.312  28.183  27.894  1.00  0.00     0.074 A 
ATOM     30  C   UNL A   1      41.895  31.026  29.580  1.00  0.00     0.029 A 
ATOM     31  N   UNL A   1      43.419  29.576  28.858  1.00  0.00    -0.354 N 
ATOM     32  N   UNL A   1      46.147  28.684  28.226  1.00  0.00    -0.248 NA
ATOM     33  C   UNL A   1      48.425  29.138  27.963  1.00  0.00     0.031 C 
ATOM     34  C   UNL A   1      43.134  31.673  29.531  1.00  0.00     0.029 A 
ATOM     35  C   UNL A   1      44.090  30.762  29.113  1.00  0.00     0.049 A 
ATOM     36  H   UNL A   1      43.840  28.746  28.539  1.00  0.00     0.167 HD
ATOM     37  C   UNL A   1      46.388  30.009  28.560  1.00  0.00     0.074 A 
ATOM     38  C   UNL A   1      47.814  30.223  28.415  1.00  0.00     0.031 C 
ATOM     39  C   UNL A   1      45.508  30.962  28.953  1.00  0.00     0.031 A 
BRANCH  26  40
ATOM     40  C   UNL A   1      39.623  29.070  29.151  1.00  0.00    -0.014 A 
ATOM     41  C   UNL A   1      38.826  29.614  28.131  1.00  0.00     0.009 A 
ATOM     42  C   UNL A   1      39.041  28.826  30.405  1.00  0.00     0.009 A 
ATOM     43  C   UNL A   1      37.489  29.941  28.374  1.00  0.00     0.001 A 
ATOM     44  C   UNL A   1      37.696  29.124  30.637  1.00  0.00     0.001 A 
ATOM     45  C   UNL A   1      36.925  29.692  29.625  1.00  0.00     0.000 A 
ENDBRANCH  26  40
BRANCH  27  46
ATOM     46  C   UNL A   1      49.041  26.395  27.124  1.00  0.00    -0.014 A 
ATOM     47  C   UNL A   1      49.927  25.940  28.112  1.00  0.00     0.009 A 
ATOM     48  C   UNL A   1      49.484  26.458  25.792  1.00  0.00     0.009 A 
ATOM     49  C   UNL A   1      51.233  25.578  27.776  1.00  0.00     0.001 A 
ATOM     50  C   UNL A   1      50.779  26.063  25.454  1.00  0.00     0.001 A 
ATOM     51  C   UNL A   1      51.656  25.633  26.447  1.00  0.00     0.000 A 
ENDBRANCH  27  46
BRANCH  39  52
ATOM     52  C   UNL A   1      46.072  32.316  29.283  1.00  0.00    -0.014 A 
ATOM     53  C   UNL A   1      46.538  32.621  30.571  1.00  0.00     0.009 A 
ATOM     54  C   UNL A   1      46.164  33.292  28.277  1.00  0.00     0.009 A 
ATOM     55  C   UNL A   1      47.051  33.889  30.853  1.00  0.00     0.001 A 
ATOM     56  C   UNL A   1      46.708  34.546  28.554  1.00  0.00     0.001 A 
ATOM     57  C   UNL A   1      47.141  34.847  29.843  1.00  0.00     0.000 A 
ENDBRANCH  39  52
ENDBRANCH  13  14
ENDBRANCH   6   8
ENDBRANCH   3   4
ENDBRANCH   2   3
ENDBRANCH   1   2
BRANCH   1  58
ATOM     58  C   UNL A   1      36.754  21.990  25.467  1.00  0.00     0.002 C 
BRANCH  58  59
ATOM     59  C   UNL A   1      36.670  23.094  24.414  1.00  0.00     0.021 C 
BRANCH  59  60
ATOM     60  C   UNL A   1      35.644  22.837  23.316  1.00  0.00     0.116 C 
BRANCH  60  61
ATOM     61  N   UNL A   1      34.565  23.786  23.293  1.00  0.00    -0.354 N 
ATOM     62  C   UNL A   1      33.556  23.984  24.192  1.00  0.00     0.248 C 
ATOM     63  H   UNL A   1      34.551  24.385  22.512  1.00  0.00     0.163 HD
ATOM     64  O   UNL A   1      32.875  25.004  24.015  1.00  0.00    -0.272 OA
BRANCH  62  65
ATOM     65  C   UNL A   1      33.168  22.980  25.315  1.00  0.00     0.228 C 
ATOM     66  C   UNL A   1      33.001  23.674  26.691  1.00  0.00     0.296 C 
ATOM     67  N   UNL A   1      32.061  22.059  24.978  1.00  0.00    -0.333 N 
ATOM     68  N   UNL A   1      31.645  24.031  27.145  1.00  0.00    -0.343 N 
ATOM     69  C   UNL A   1      30.708  22.279  25.482  1.00  0.00     0.180 C 
ATOM     70  C   UNL A   1      30.681  22.953  26.874  1.00  0.00     0.282 C 
ATOM     71  H   UNL A   1      31.344  24.875  26.658  1.00  0.00     0.346 HD
ATOM     72  H   UNL A   1      31.677  24.184  28.153  1.00  0.00     0.346 HD
BRANCH  67  73
ATOM     73  C   UNL A   1      32.329  20.729  24.685  1.00  0.00     0.148 A 
ATOM     74  N   UNL A   1      32.821  19.994  25.711  1.00  0.00    -0.237 NA
ATOM     75  C   UNL A   1      32.280  20.190  23.385  1.00  0.00     0.084 A 
ATOM     76  C   UNL A   1      33.252  18.731  25.466  1.00  0.00     0.126 A 
ATOM     77  C   UNL A   1      32.741  18.892  23.157  1.00  0.00     0.039 A 
ATOM     78  Cl  UNL A   1      31.778  21.083  21.995  1.00  0.00    -0.080 Cl
ATOM     79  C   UNL A   1      33.251  18.140  24.213  1.00  0.00     0.075 A 
BRANCH  79  80
ATOM     80  C   UNL A   1      33.811  16.766  24.023  1.00  0.00     0.417 C 
ATOM     81  F   UNL A   1      34.870  16.521  24.844  1.00  0.00    -0.166 F 
ATOM     82  F   UNL A   1      32.903  15.787  24.277  1.00  0.00    -0.166 F 
ATOM     83  F   UNL A   1      34.264  16.539  22.758  1.00  0.00    -0.166 F 
ENDBRANCH  79  80
ENDBRANCH  67  73
ENDBRANCH  62  65
ENDBRANCH  60  61
ENDBRANCH  59  60
ENDBRANCH  58  59
ENDBRANCH   1  58
TORSDOF 15
ENDMDL
MODEL 2
REMARK VINA RESULT:     -11.5      6.070     10.400
REMARK SMILES O=C(NCCCCCCNC(=O)[C@H]1C[NH2+]CCN1c1ncc(C(F)(F)F)cc1Cl)c1ccc(-c2c3nc(c(-c4ccccc4)c4ccc([nH]4)c(-c4ccccc4)c4nc(c(-c5ccccc5)c5ccc2[nH]5)C=C4)C=C3)cc1
REMARK SMILES IDX 6 1 5 2 4 3 3 4 1 5 2 6 30 8 31 9 77 10 32 11 76 12 33 13
REMARK SMILES IDX 34 14 35 15 70 16 36 17 75 18 69 19 71 20 37 21 74 22 68 23
REMARK SMILES IDX 67 24 38 26 60 27 45 28 59 29 46 30 49 31 58 32 72 33 47 34
REMARK SMILES IDX 48 35 57 37 73 38 50 39 39 40 40 41 44 42 41 43 43 44 42 45
REMARK SMILES IDX 61 46 62 47 66 48 63 49 65 50 64 51 51 52 52 53 56 54 53 55
REMARK SMILES IDX 55 56 54 57 7 58 8 59 9 60 10 61 11 62 12 64 13 65 14 66
REMARK SMILES IDX 18 67 15 68 17 69 16 70 19 73 20 74 28 75 21 76 27 77 29 78
REMARK SMILES IDX 22 79 23 80 24 81 25 82 26 83
REMARK H PARENT 3 7 71 25 49 36 10 63 15 71 15 72
REMARK Flexibility Score: inf
ROOT
ATOM      1  C   UNL A   1      31.427  30.534  25.672  1.00  0.00     0.002 C 
ENDROOT
BRANCH   1   2
ATOM      2  C   UNL A   1      31.260  31.812  26.498  1.00  0.00     0.021 C 
BRANCH   2   3
ATOM      3  C   UNL A   1      32.563  32.397  27.028  1.00  0.00     0.116 C 
BRANCH   3   4
ATOM      4  N   UNL A   1      32.398  33.766  27.488  1.00  0.00    -0.352 N 
ATOM      5  O   UNL A   1      32.672  35.526  28.871  1.00  0.00    -0.269 OA
ATOM      6  C   UNL A   1      33.086  34.450  28.458  1.00  0.00     0.251 C 
ATOM      7  H   UNL A   1      31.689  34.278  27.038  1.00  0.00     0.163 HD
BRANCH   6   8
ATOM      8  C   UNL A   1      34.331  33.876  29.005  1.00  0.00     0.039 A 
ATOM      9  C   UNL A   1      34.281  32.967  30.064  1.00  0.00     0.014 A 
ATOM     10  C   UNL A   1      35.556  34.232  28.437  1.00  0.00     0.014 A 
ATOM     11  C   UNL A   1      35.459  32.512  30.639  1.00  0.00     0.010 A 
ATOM     12  C   UNL A   1      36.738  33.698  28.955  1.00  0.00     0.010 A 
ATOM     13  C   UNL A   1      36.697  32.849  30.072  1.00  0.00    -0.014 A 
BRANCH  13  14
ATOM     14  C   UNL A   1      37.930  32.222  30.608  1.00  0.00     0.031 A 
ATOM     15  C   UNL A   1      38.502  30.977  29.998  1.00  0.00     0.074 A 
ATOM     16  C   UNL A   1      38.534  32.807  31.660  1.00  0.00     0.049 A 
ATOM     17  N   UNL A   1      39.575  30.312  30.347  1.00  0.00    -0.248 NA
ATOM     18  C   UNL A   1      37.779  30.397  28.856  1.00  0.00     0.031 C 
ATOM     19  C   UNL A   1      38.060  34.016  32.340  1.00  0.00     0.029 A 
ATOM     20  N   UNL A   1      39.680  32.474  32.335  1.00  0.00    -0.354 N 
ATOM     21  C   UNL A   1      39.644  29.225  29.484  1.00  0.00     0.074 A 
ATOM     22  C   UNL A   1      38.491  29.306  28.611  1.00  0.00     0.031 C 
ATOM     23  C   UNL A   1      38.928  34.346  33.306  1.00  0.00     0.029 A 
ATOM     24  C   UNL A   1      39.976  33.336  33.363  1.00  0.00     0.049 A 
ATOM     25  H   UNL A   1      40.236  31.695  32.105  1.00  0.00     0.167 HD
ATOM     26  C   UNL A   1      40.585  28.251  29.428  1.00  0.00     0.031 A 
ATOM     27  C   UNL A   1      40.965  33.303  34.273  1.00  0.00     0.031 A 
ATOM     28  C   UNL A   1      41.720  28.173  30.313  1.00  0.00     0.049 A 
ATOM     29  C   UNL A   1      41.966  32.188  34.215  1.00  0.00     0.074 A 
ATOM     30  C   UNL A   1      42.749  27.246  30.314  1.00  0.00     0.029 A 
ATOM     31  N   UNL A   1      41.967  29.045  31.363  1.00  0.00    -0.354 N 
ATOM     32  N   UNL A   1      42.047  31.197  33.361  1.00  0.00    -0.248 NA
ATOM     33  C   UNL A   1      43.013  32.190  35.244  1.00  0.00     0.031 C 
ATOM     34  C   UNL A   1      43.579  27.517  31.406  1.00  0.00     0.029 A 
ATOM     35  C   UNL A   1      43.112  28.657  32.041  1.00  0.00     0.049 A 
ATOM     36  H   UNL A   1      41.411  29.824  31.592  1.00  0.00     0.167 HD
ATOM     37  C   UNL A   1      43.164  30.466  33.737  1.00  0.00     0.074 A 
ATOM     38  C   UNL A   1      43.741  31.144  34.881  1.00  0.00     0.031 C 
ATOM     39  C   UNL A   1      43.667  29.335  33.184  1.00  0.00     0.031 A 
BRANCH  26  40
ATOM     40  C   UNL A   1      40.404  27.167  28.400  1.00  0.00    -0.014 A 
ATOM     41  C   UNL A   1      39.665  26.005  28.678  1.00  0.00     0.009 A 
ATOM     42  C   UNL A   1      40.953  27.326  27.117  1.00  0.00     0.009 A 
ATOM     43  C   UNL A   1      39.514  25.011  27.707  1.00  0.00     0.001 A 
ATOM     44  C   UNL A   1      40.774  26.346  26.139  1.00  0.00     0.001 A 
ATOM     45  C   UNL A   1      40.065  25.185  26.438  1.00  0.00     0.000 A 
ENDBRANCH  26  40
BRANCH  27  46
ATOM     46  C   UNL A   1      41.029  34.348  35.328  1.00  0.00    -0.014 A 
ATOM     47  C   UNL A   1      41.749  35.533  35.124  1.00  0.00     0.009 A 
ATOM     48  C   UNL A   1      40.345  34.169  36.542  1.00  0.00     0.009 A 
ATOM     49  C   UNL A   1      41.803  36.507  36.124  1.00  0.00     0.001 A 
ATOM     50  C   UNL A   1      40.372  35.159  37.526  1.00  0.00     0.001 A 
ATOM     51  C   UNL A   1      41.110  36.323  37.320  1.00  0.00     0.000 A 
ENDBRANCH  27  46
BRANCH  39  52
ATOM     52  C   UNL A   1      44.924  28.780  33.795  1.00  0.00    -0.014 A 
ATOM     53  C   UNL A   1      46.193  29.202  33.370  1.00  0.00     0.009 A 
ATOM     54  C   UNL A   1      44.832  27.839  34.833  1.00  0.00     0.009 A 
ATOM     55  C   UNL A   1      47.346  28.664  33.948  1.00  0.00     0.001 A 
ATOM     56  C   UNL A   1      45.984  27.329  35.432  1.00  0.00     0.001 A 
ATOM     57  C   UNL A   1      47.239  27.734  34.982  1.00  0.00     0.000 A 
ENDBRANCH  39  52
ENDBRANCH  13  14
ENDBRANCH   6   8
ENDBRANCH   3   4
ENDBRANCH   2   3
ENDBRANCH   1   2
BRANCH   1  58
ATOM     58  C   UNL A   1      32.753  29.787  25.871  1.00  0.00     0.002 C 
BRANCH  58  59
ATOM     59  C   UNL A   1      32.738  28.711  26.956  1.00  0.00     0.021 C 
BRANCH  59  60
ATOM     60  C   UNL A   1      31.378  28.057  27.173  1.00  0.00     0.116 C 
BRANCH  60  61
ATOM     61  N   UNL A   1      31.358  26.648  26.890  1.00  0.00    -0.354 N 
ATOM     62  C   UNL A   1      31.830  25.968  25.803  1.00  0.00     0.248 C 
ATOM     63  H   UNL A   1      30.943  26.087  27.584  1.00  0.00     0.163 HD
ATOM     64  O   UNL A   1      31.853  24.734  25.913  1.00  0.00    -0.272 OA
BRANCH  62  65
ATOM     65  C   UNL A   1      32.221  26.631  24.451  1.00  0.00     0.228 C 
ATOM     66  C   UNL A   1      33.677  26.301  24.035  1.00  0.00     0.296 C 
ATOM     67  N   UNL A   1      31.239  26.457  23.360  1.00  0.00    -0.333 N 
ATOM     68  N   UNL A   1      33.908  25.214  23.067  1.00  0.00    -0.343 N 
ATOM     69  C   UNL A   1      31.449  25.479  22.296  1.00  0.00     0.180 C 
ATOM     70  C   UNL A   1      32.943  25.261  21.958  1.00  0.00     0.282 C 
ATOM     71  H   UNL A   1      33.818  24.319  23.546  1.00  0.00     0.346 HD
ATOM     72  H   UNL A   1      34.845  25.326  22.679  1.00  0.00     0.346 HD
BRANCH  67  73
ATOM     73  C   UNL A   1      30.429  27.518  22.978  1.00  0.00     0.148 A 
ATOM     74  N   UNL A   1      31.071  28.568  22.413  1.00  0.00    -0.237 NA
ATOM     75  C   UNL A   1      29.062  27.613  23.303  1.00  0.00     0.084 A 
ATOM     76  C   UNL A   1      30.374  29.702  22.155  1.00  0.00     0.126 A 
ATOM     77  C   UNL A   1      28.369  28.797  23.038  1.00  0.00     0.039 A 
ATOM     78  Cl  UNL A   1      28.182  26.376  24.126  1.00  0.00    -0.080 Cl
ATOM     79  C   UNL A   1      29.034  29.877  22.460  1.00  0.00     0.075 A 
BRANCH  79  80
ATOM     80  C   UNL A   1      28.362  31.189  22.204  1.00  0.00     0.417 C 
ATOM     81  F   UNL A   1      27.362  31.440  23.093  1.00  0.00    -0.166 F 
ATOM     82  F   UNL A   1      29.216  32.243  22.289  1.00  0.00    -0.166 F 
ATOM     83  F   UNL A   1      27.789  31.269  20.971  1.00  0.00    -0.166 F 
ENDBRANCH  79  80
ENDBRANCH  67  73
ENDBRANCH  62  65
ENDBRANCH  60  61
ENDBRANCH  59  60
ENDBRANCH  58  59
ENDBRANCH   1  58
TORSDOF 15
ENDMDL
MODEL 3
REMARK VINA RESULT:     -11.5      0.292      5.854
REMARK SMILES O=C(NCCCCCCNC(=O)[C@H]1C[NH2+]CCN1c1ncc(C(F)(F)F)cc1Cl)c1ccc(-c2c3nc(c(-c4ccccc4)c4ccc([nH]4)c(-c4ccccc4)c4nc(c(-c5ccccc5)c5ccc2[nH]5)C=C4)C=C3)cc1
REMARK SMILES IDX 6 1 5 2 4 3 3 4 1 5 2 6 30 8 31 9 77 10 32 11 76 12 33 13
REMARK SMILES IDX 34 14 35 15 70 16 36 17 75 18 69 19 71 20 37 21 74 22 68 23
REMARK SMILES IDX 67 24 38 26 60 27 45 28 59 29 46 30 49 31 58 32 72 33 47 34
REMARK SMILES IDX 48 35 57 37 73 38 50 39 39 40 40 41 44 42 41 43 43 44 42 45
REMARK SMILES IDX 61 46 62 47 66 48 63 49 65 50 64 51 51 52 52 53 56 54 53 55
REMARK SMILES IDX 55 56 54 57 7 58 8 59 9 60 10 61 11 62 12 64 13 65 14 66
REMARK SMILES IDX 18 67 15 68 17 69 16 70 19 73 20 74 28 75 21 76 27 77 29 78
REMARK SMILES IDX 22 79 23 80 24 81 25 82 26 83
REMARK H PARENT 3 7 71 25 49 36 10 63 15 71 15 72
REMARK Flexibility Score: inf
ROOT
ATOM      1  C   UNL A   1      36.467  20.481  24.934  1.00  0.00     0.002 C 
ENDROOT
BRANCH   1   2
ATOM      2  C   UNL A   1      37.688  19.557  24.973  1.00  0.00     0.021 C 
BRANCH   2   3
ATOM      3  C   UNL A   1      38.878  20.114  25.743  1.00  0.00     0.116 C 
BRANCH   3   4
ATOM      4  N   UNL A   1      39.964  19.152  25.840  1.00  0.00    -0.352 N 
ATOM      5  O   UNL A   1      42.107  18.452  25.845  1.00  0.00    -0.269 OA
ATOM      6  C   UNL A   1      41.308  19.366  26.005  1.00  0.00     0.251 C 
ATOM      7  H   UNL A   1      39.694  18.208  25.776  1.00  0.00     0.163 HD
BRANCH   6   8
ATOM      8  C   UNL A   1      41.788  20.712  26.376  1.00  0.00     0.039 A 
ATOM      9  C   UNL A   1      42.073  21.655  25.386  1.00  0.00     0.014 A 
ATOM     10  C   UNL A   1      41.928  21.040  27.726  1.00  0.00     0.014 A 
ATOM     11  C   UNL A   1      42.620  22.880  25.739  1.00  0.00     0.010 A 
ATOM     12  C   UNL A   1      42.389  22.309  28.084  1.00  0.00     0.010 A 
ATOM     13  C   UNL A   1      42.755  23.231  27.091  1.00  0.00    -0.014 A 
BRANCH  13  14
ATOM     14  C   UNL A   1      43.192  24.604  27.439  1.00  0.00     0.031 A 
ATOM     15  C   UNL A   1      44.635  25.008  27.365  1.00  0.00     0.074 A 
ATOM     16  C   UNL A   1      42.254  25.493  27.819  1.00  0.00     0.049 A 
ATOM     17  N   UNL A   1      45.177  26.170  27.631  1.00  0.00    -0.248 NA
ATOM     18  C   UNL A   1      45.598  23.977  26.949  1.00  0.00     0.031 C 
ATOM     19  C   UNL A   1      40.821  25.208  27.935  1.00  0.00     0.029 A 
ATOM     20  N   UNL A   1      42.359  26.816  28.164  1.00  0.00    -0.354 N 
ATOM     21  C   UNL A   1      46.543  26.006  27.435  1.00  0.00     0.074 A 
ATOM     22  C   UNL A   1      46.750  24.625  27.053  1.00  0.00     0.031 C 
ATOM     23  C   UNL A   1      40.176  26.331  28.284  1.00  0.00     0.029 A 
ATOM     24  C   UNL A   1      41.155  27.391  28.487  1.00  0.00     0.049 A 
ATOM     25  H   UNL A   1      43.213  27.305  28.179  1.00  0.00     0.167 HD
ATOM     26  C   UNL A   1      47.529  26.926  27.563  1.00  0.00     0.031 A 
ATOM     27  C   UNL A   1      40.867  28.628  28.928  1.00  0.00     0.031 A 
ATOM     28  C   UNL A   1      47.311  28.295  27.960  1.00  0.00     0.049 A 
ATOM     29  C   UNL A   1      41.985  29.611  29.105  1.00  0.00     0.074 A 
ATOM     30  C   UNL A   1      48.240  29.314  28.083  1.00  0.00     0.029 A 
ATOM     31  N   UNL A   1      46.081  28.831  28.312  1.00  0.00    -0.354 N 
ATOM     32  N   UNL A   1      43.264  29.456  28.866  1.00  0.00    -0.248 NA
ATOM     33  C   UNL A   1      41.618  30.941  29.608  1.00  0.00     0.031 C 
ATOM     34  C   UNL A   1      47.583  30.446  28.576  1.00  0.00     0.029 A 
ATOM     35  C   UNL A   1      46.233  30.156  28.687  1.00  0.00     0.049 A 
ATOM     36  H   UNL A   1      45.228  28.341  28.297  1.00  0.00     0.167 HD
ATOM     37  C   UNL A   1      43.855  30.674  29.171  1.00  0.00     0.074 A 
ATOM     38  C   UNL A   1      42.789  31.562  29.588  1.00  0.00     0.031 C 
ATOM     39  C   UNL A   1      45.163  31.024  29.111  1.00  0.00     0.031 A 
BRANCH  26  40
ATOM     40  C   UNL A   1      48.942  26.471  27.312  1.00  0.00    -0.014 A 
ATOM     41  C   UNL A   1      49.758  25.996  28.351  1.00  0.00     0.009 A 
ATOM     42  C   UNL A   1      49.454  26.485  26.004  1.00  0.00     0.009 A 
ATOM     43  C   UNL A   1      51.068  25.582  28.092  1.00  0.00     0.001 A 
ATOM     44  C   UNL A   1      50.752  26.042  25.742  1.00  0.00     0.001 A 
ATOM     45  C   UNL A   1      51.561  25.602  26.788  1.00  0.00     0.000 A 
ENDBRANCH  26  40
BRANCH  27  46
ATOM     46  C   UNL A   1      39.462  28.984  29.259  1.00  0.00    -0.014 A 
ATOM     47  C   UNL A   1      38.947  28.761  30.544  1.00  0.00     0.009 A 
ATOM     48  C   UNL A   1      38.634  29.571  28.288  1.00  0.00     0.009 A 
ATOM     49  C   UNL A   1      37.625  29.097  30.842  1.00  0.00     0.001 A 
ATOM     50  C   UNL A   1      37.324  29.938  28.599  1.00  0.00     0.001 A 
ATOM     51  C   UNL A   1      36.817  29.691  29.872  1.00  0.00     0.000 A 
ENDBRANCH  27  46
BRANCH  39  52
ATOM     52  C   UNL A   1      45.506  32.442  29.477  1.00  0.00    -0.014 A 
ATOM     53  C   UNL A   1      45.862  32.794  30.788  1.00  0.00     0.009 A 
ATOM     54  C   UNL A   1      45.500  33.434  28.484  1.00  0.00     0.009 A 
ATOM     55  C   UNL A   1      46.169  34.119  31.104  1.00  0.00     0.001 A 
ATOM     56  C   UNL A   1      45.839  34.751  28.795  1.00  0.00     0.001 A 
ATOM     57  C   UNL A   1      46.163  35.094  30.106  1.00  0.00     0.000 A 
ENDBRANCH  39  52
ENDBRANCH  13  14
ENDBRANCH   6   8
ENDBRANCH   3   4
ENDBRANCH   2   3
ENDBRANCH   1   2
BRANCH   1  58
ATOM     58  C   UNL A   1      36.725  21.935  25.353  1.00  0.00     0.002 C 
BRANCH  58  59
ATOM     59  C   UNL A   1      36.654  22.960  24.222  1.00  0.00     0.021 C 
BRANCH  59  60
ATOM     60  C   UNL A   1      35.497  22.745  23.251  1.00  0.00     0.116 C 
BRANCH  60  61
ATOM     61  N   UNL A   1      34.491  23.770  23.308  1.00  0.00    -0.354 N 
ATOM     62  C   UNL A   1      33.537  24.007  24.256  1.00  0.00     0.248 C 
ATOM     63  H   UNL A   1      34.490  24.397  22.549  1.00  0.00     0.163 HD
ATOM     64  O   UNL A   1      32.927  25.080  24.144  1.00  0.00    -0.272 OA
BRANCH  62  65
ATOM     65  C   UNL A   1      33.122  22.993  25.360  1.00  0.00     0.228 C 
ATOM     66  C   UNL A   1      32.917  23.675  26.737  1.00  0.00     0.296 C 
ATOM     67  N   UNL A   1      32.026  22.073  24.986  1.00  0.00    -0.333 N 
ATOM     68  N   UNL A   1      31.549  24.026  27.159  1.00  0.00    -0.343 N 
ATOM     69  C   UNL A   1      30.660  22.287  25.457  1.00  0.00     0.180 C 
ATOM     70  C   UNL A   1      30.595  22.949  26.853  1.00  0.00     0.282 C 
ATOM     71  H   UNL A   1      31.260  24.873  26.671  1.00  0.00     0.346 HD
ATOM     72  H   UNL A   1      31.555  24.171  28.168  1.00  0.00     0.346 HD
BRANCH  67  73
ATOM     73  C   UNL A   1      32.303  20.746  24.689  1.00  0.00     0.148 A 
ATOM     74  N   UNL A   1      32.789  20.009  25.716  1.00  0.00    -0.237 NA
ATOM     75  C   UNL A   1      32.270  20.214  23.386  1.00  0.00     0.084 A 
ATOM     76  C   UNL A   1      33.229  18.749  25.468  1.00  0.00     0.126 A 
ATOM     77  C   UNL A   1      32.740  18.919  23.156  1.00  0.00     0.039 A 
ATOM     78  Cl  UNL A   1      31.776  21.111  21.995  1.00  0.00    -0.080 Cl
ATOM     79  C   UNL A   1      33.243  18.164  24.213  1.00  0.00     0.075 A 
BRANCH  79  80
ATOM     80  C   UNL A   1      33.813  16.794  24.021  1.00  0.00     0.417 C 
ATOM     81  F   UNL A   1      32.908  15.815  24.298  1.00  0.00    -0.166 F 
ATOM     82  F   UNL A   1      34.231  16.571  22.747  1.00  0.00    -0.166 F 
ATOM     83  F   UNL A   1      34.887  16.540  24.819  1.00  0.00    -0.166 F 
ENDBRANCH  79  80
ENDBRANCH  67  73
ENDBRANCH  62  65
ENDBRANCH  60  61
ENDBRANCH  59  60
ENDBRANCH  58  59
ENDBRANCH   1  58
TORSDOF 15
ENDMDL
