MODEL 1
REMARK VINA RESULT:     -13.1      0.000      0.000
REMARK SMILES Cc1ccccc1[C@@H]1[NH2+][C@@H](C(=O)NCCCCCCNC(=O)c2ccc(-c3c4nc(c(-c5ccccc5)c5ccc([nH]5)c(-c5ccccc5)c5nc(c(-c6ccccc6)c6ccc3[nH]6)C=C5)C=C4)cc2)CC2=c3ccccc3=N[C@@H]21
REMARK SMILES IDX 17 1 16 2 15 3 14 4 13 5 11 6 12 7 10 9 8 10 9 11 80 12
REMARK SMILES IDX 72 15 79 16 71 17 73 18 78 19 74 20 77 21 75 22 76 23 7 24
REMARK SMILES IDX 1 25 2 26 3 27 4 28 6 29 5 30 18 31 19 32 20 33 21 34 22 36
REMARK SMILES IDX 23 37 24 38 70 39 25 40 69 41 26 42 27 43 28 44 63 45 29 46
REMARK SMILES IDX 68 47 62 48 64 49 30 50 67 51 61 52 60 53 31 55 53 56 38 57
REMARK SMILES IDX 52 58 39 59 42 60 51 61 65 62 40 63 41 64 50 66 66 67 43 68
REMARK SMILES IDX 32 69 33 70 37 71 34 72 36 73 35 74 54 75 55 76 59 77 56 78
REMARK SMILES IDX 58 79 57 80 44 81 45 82 49 83 46 84 48 85 47 86
REMARK H PARENT 13 8 9 13 9 14 20 35 64 54 42 65
REMARK Flexibility Score: inf
ROOT
ATOM      1  C   UNL A   1      32.248  29.805  26.910  1.00  0.00     0.002 C 
ENDROOT
BRANCH   1   2
ATOM      2  C   UNL A   1      32.363  28.307  27.215  1.00  0.00     0.002 C 
BRANCH   2   3
ATOM      3  C   UNL A   1      31.049  27.530  27.385  1.00  0.00     0.021 C 
BRANCH   3   4
ATOM      4  C   UNL A   1      30.644  26.530  26.276  1.00  0.00     0.116 C 
BRANCH   4   5
ATOM      5  N   UNL A   1      30.526  25.084  26.553  1.00  0.00    -0.351 N 
ATOM      6  C   UNL A   1      31.585  24.179  26.821  1.00  0.00     0.278 C 
ATOM      7  O   UNL A   1      31.453  23.248  27.606  1.00  0.00    -0.268 OA
ATOM      8  H   UNL A   1      29.616  24.708  26.553  1.00  0.00     0.163 HD
BRANCH   6   9
ATOM      9  C   UNL A   1      32.742  24.339  25.832  1.00  0.00     0.277 C 
ATOM     10  C   UNL A   1      34.252  22.610  24.755  1.00  0.00     0.243 C 
ATOM     11  N   UNL A   1      33.086  22.946  25.582  1.00  0.00    -0.327 N 
ATOM     12  C   UNL A   1      34.670  23.781  23.762  1.00  0.00     0.196 C 
ATOM     13  H   UNL A   1      33.238  22.512  26.493  1.00  0.00     0.347 HD
ATOM     14  H   UNL A   1      32.301  22.608  25.024  1.00  0.00     0.347 HD
ATOM     15  C   UNL A   1      34.391  25.166  24.406  1.00  0.00    -0.024 C 
ATOM     16  N   UNL A   1      33.873  23.817  22.501  1.00  0.00    -0.270 NA
ATOM     17  C   UNL A   1      34.012  25.181  25.897  1.00  0.00     0.109 C 
ATOM     18  C   UNL A   1      33.748  25.974  23.544  1.00  0.00     0.002 A 
ATOM     19  C   UNL A   1      33.418  25.035  22.446  1.00  0.00     0.066 A 
ATOM     20  C   UNL A   1      32.907  27.121  23.791  1.00  0.00     0.010 A 
ATOM     21  C   UNL A   1      32.424  25.518  21.453  1.00  0.00     0.028 A 
ATOM     22  C   UNL A   1      31.904  27.399  22.942  1.00  0.00     0.001 A 
ATOM     23  C   UNL A   1      31.705  26.620  21.735  1.00  0.00     0.002 A 
BRANCH  10  24
ATOM     24  C   UNL A   1      34.082  21.098  24.394  1.00  0.00     0.015 A 
ATOM     25  C   UNL A   1      36.477  20.471  25.030  1.00  0.00     0.045 C 
ATOM     26  C   UNL A   1      35.061  20.126  24.674  1.00  0.00    -0.042 A 
ATOM     27  C   UNL A   1      34.691  18.759  24.761  1.00  0.00     0.004 A 
ATOM     28  C   UNL A   1      33.377  18.330  24.584  1.00  0.00     0.000 A 
ATOM     29  C   UNL A   1      32.785  20.590  24.100  1.00  0.00     0.010 A 
ATOM     30  C   UNL A   1      32.417  19.253  24.241  1.00  0.00     0.001 A 
ENDBRANCH  10  24
ENDBRANCH   6   9
ENDBRANCH   4   5
ENDBRANCH   3   4
ENDBRANCH   2   3
ENDBRANCH   1   2
BRANCH   1  31
ATOM     31  C   UNL A   1      33.552  30.531  26.575  1.00  0.00     0.021 C 
BRANCH  31  32
ATOM     32  C   UNL A   1      34.268  31.144  27.772  1.00  0.00     0.116 C 
BRANCH  32  33
ATOM     33  N   UNL A   1      33.726  32.440  28.141  1.00  0.00    -0.352 N 
ATOM     34  C   UNL A   1      34.064  33.325  29.148  1.00  0.00     0.251 C 
ATOM     35  H   UNL A   1      32.984  32.744  27.569  1.00  0.00     0.163 HD
ATOM     36  O   UNL A   1      33.314  34.250  29.385  1.00  0.00    -0.269 OA
BRANCH  34  37
ATOM     37  C   UNL A   1      35.401  33.269  29.807  1.00  0.00     0.039 A 
ATOM     38  C   UNL A   1      36.455  33.892  29.118  1.00  0.00     0.014 A 
ATOM     39  C   UNL A   1      35.683  32.452  30.895  1.00  0.00     0.014 A 
ATOM     40  C   UNL A   1      37.766  33.480  29.337  1.00  0.00     0.010 A 
ATOM     41  C   UNL A   1      36.967  31.982  31.065  1.00  0.00     0.010 A 
ATOM     42  C   UNL A   1      37.986  32.440  30.232  1.00  0.00    -0.014 A 
BRANCH  42  43
ATOM     43  C   UNL A   1      39.235  31.711  30.326  1.00  0.00     0.031 A 
ATOM     44  C   UNL A   1      39.380  30.426  29.636  1.00  0.00     0.074 A 
ATOM     45  C   UNL A   1      40.280  32.273  30.968  1.00  0.00     0.049 A 
ATOM     46  N   UNL A   1      40.233  29.523  29.971  1.00  0.00    -0.248 NA
ATOM     47  C   UNL A   1      38.520  30.034  28.526  1.00  0.00     0.031 C 
ATOM     48  C   UNL A   1      41.676  31.854  30.944  1.00  0.00     0.029 A 
ATOM     49  N   UNL A   1      40.224  33.245  31.967  1.00  0.00    -0.354 N 
ATOM     50  C   UNL A   1      40.259  28.596  28.960  1.00  0.00     0.074 A 
ATOM     51  C   UNL A   1      39.104  28.894  28.144  1.00  0.00     0.031 C 
ATOM     52  C   UNL A   1      42.293  32.353  32.028  1.00  0.00     0.029 A 
ATOM     53  C   UNL A   1      41.275  32.970  32.863  1.00  0.00     0.049 A 
ATOM     54  H   UNL A   1      39.575  33.982  32.031  1.00  0.00     0.167 HD
ATOM     55  C   UNL A   1      41.339  27.774  28.847  1.00  0.00     0.031 A 
ATOM     56  C   UNL A   1      40.993  32.607  34.151  1.00  0.00     0.031 A 
ATOM     57  C   UNL A   1      42.290  27.967  29.945  1.00  0.00     0.049 A 
ATOM     58  C   UNL A   1      41.402  31.188  34.504  1.00  0.00     0.074 A 
ATOM     59  C   UNL A   1      43.522  28.590  30.063  1.00  0.00     0.029 A 
ATOM     60  N   UNL A   1      41.855  27.742  31.241  1.00  0.00    -0.354 N 
ATOM     61  N   UNL A   1      41.915  30.336  33.660  1.00  0.00    -0.248 NA
ATOM     62  C   UNL A   1      41.179  30.589  35.821  1.00  0.00     0.031 C 
ATOM     63  C   UNL A   1      43.819  28.731  31.451  1.00  0.00     0.029 A 
ATOM     64  C   UNL A   1      42.778  28.176  32.171  1.00  0.00     0.049 A 
ATOM     65  H   UNL A   1      40.994  27.325  31.471  1.00  0.00     0.167 HD
ATOM     66  C   UNL A   1      42.041  29.111  34.258  1.00  0.00     0.074 A 
ATOM     67  C   UNL A   1      41.573  29.319  35.616  1.00  0.00     0.031 C 
ATOM     68  C   UNL A   1      42.475  28.007  33.583  1.00  0.00     0.031 A 
BRANCH  55  69
ATOM     69  C   UNL A   1      41.648  26.972  27.608  1.00  0.00    -0.014 A 
ATOM     70  C   UNL A   1      41.360  25.595  27.585  1.00  0.00     0.009 A 
ATOM     71  C   UNL A   1      42.258  27.489  26.452  1.00  0.00     0.009 A 
ATOM     72  C   UNL A   1      41.744  24.773  26.517  1.00  0.00     0.001 A 
ATOM     73  C   UNL A   1      42.681  26.669  25.398  1.00  0.00     0.001 A 
ATOM     74  C   UNL A   1      42.433  25.306  25.435  1.00  0.00     0.000 A 
ENDBRANCH  55  69
BRANCH  56  75
ATOM     75  C   UNL A   1      39.798  33.320  34.693  1.00  0.00    -0.014 A 
ATOM     76  C   UNL A   1      38.530  32.743  34.472  1.00  0.00     0.009 A 
ATOM     77  C   UNL A   1      39.933  34.266  35.718  1.00  0.00     0.009 A 
ATOM     78  C   UNL A   1      37.464  33.003  35.339  1.00  0.00     0.001 A 
ATOM     79  C   UNL A   1      38.857  34.533  36.575  1.00  0.00     0.001 A 
ATOM     80  C   UNL A   1      37.639  33.873  36.411  1.00  0.00     0.000 A 
ENDBRANCH  56  75
BRANCH  68  81
ATOM     81  C   UNL A   1      42.622  26.640  34.192  1.00  0.00    -0.014 A 
ATOM     82  C   UNL A   1      43.673  25.771  33.872  1.00  0.00     0.009 A 
ATOM     83  C   UNL A   1      41.605  26.129  35.029  1.00  0.00     0.009 A 
ATOM     84  C   UNL A   1      43.731  24.478  34.410  1.00  0.00     0.001 A 
ATOM     85  C   UNL A   1      41.646  24.834  35.547  1.00  0.00     0.001 A 
ATOM     86  C   UNL A   1      42.719  24.010  35.246  1.00  0.00     0.000 A 
ENDBRANCH  68  81
ENDBRANCH  42  43
ENDBRANCH  34  37
ENDBRANCH  32  33
ENDBRANCH  31  32
ENDBRANCH   1  31
TORSDOF 14
ENDMDL
MODEL 2
REMARK VINA RESULT:     -13.1      3.047      8.258
REMARK SMILES Cc1ccccc1[C@@H]1[NH2+][C@@H](C(=O)NCCCCCCNC(=O)c2ccc(-c3c4nc(c(-c5ccccc5)c5ccc([nH]5)c(-c5ccccc5)c5nc(c(-c6ccccc6)c6ccc3[nH]6)C=C5)C=C4)cc2)CC2=c3ccccc3=N[C@@H]21
REMARK SMILES IDX 17 1 16 2 15 3 14 4 13 5 11 6 12 7 10 9 8 10 9 11 80 12
REMARK SMILES IDX 72 15 79 16 71 17 73 18 78 19 74 20 77 21 75 22 76 23 7 24
REMARK SMILES IDX 1 25 2 26 3 27 4 28 6 29 5 30 18 31 19 32 20 33 21 34 22 36
REMARK SMILES IDX 23 37 24 38 70 39 25 40 69 41 26 42 27 43 28 44 63 45 29 46
REMARK SMILES IDX 68 47 62 48 64 49 30 50 67 51 61 52 60 53 31 55 53 56 38 57
REMARK SMILES IDX 52 58 39 59 42 60 51 61 65 62 40 63 41 64 50 66 66 67 43 68
REMARK SMILES IDX 32 69 33 70 37 71 34 72 36 73 35 74 54 75 55 76 59 77 56 78
REMARK SMILES IDX 58 79 57 80 44 81 45 82 49 83 46 84 48 85 47 86
REMARK H PARENT 13 8 9 13 9 14 20 35 64 54 42 65
REMARK Flexibility Score: inf
ROOT
ATOM      1  C   UNL A   1      37.465  21.250  24.607  1.00  0.00     0.002 C 
ENDROOT
BRANCH   1   2
ATOM      2  C   UNL A   1      36.277  20.361  24.991  1.00  0.00     0.002 C 
BRANCH   2   3
ATOM      3  C   UNL A   1      34.904  21.043  25.091  1.00  0.00     0.021 C 
BRANCH   3   4
ATOM      4  C   UNL A   1      34.843  22.477  25.668  1.00  0.00     0.116 C 
BRANCH   4   5
ATOM      5  N   UNL A   1      34.289  22.740  27.012  1.00  0.00    -0.351 N 
ATOM      6  C   UNL A   1      32.920  22.742  27.383  1.00  0.00     0.278 C 
ATOM      7  O   UNL A   1      32.550  22.349  28.483  1.00  0.00    -0.268 OA
ATOM      8  H   UNL A   1      34.938  22.933  27.726  1.00  0.00     0.163 HD
BRANCH   6   9
ATOM      9  C   UNL A   1      32.057  23.532  26.394  1.00  0.00     0.277 C 
ATOM     10  C   UNL A   1      31.545  26.011  26.256  1.00  0.00     0.243 C 
ATOM     11  N   UNL A   1      32.285  24.894  26.857  1.00  0.00    -0.327 N 
ATOM     12  C   UNL A   1      31.007  25.687  24.794  1.00  0.00     0.196 C 
ATOM     13  H   UNL A   1      32.073  24.905  27.855  1.00  0.00     0.347 HD
ATOM     14  H   UNL A   1      33.249  25.077  26.578  1.00  0.00     0.347 HD
ATOM     15  C   UNL A   1      30.627  24.187  24.673  1.00  0.00    -0.024 C 
ATOM     16  N   UNL A   1      32.026  25.875  23.720  1.00  0.00    -0.270 NA
ATOM     17  C   UNL A   1      30.601  23.365  25.974  1.00  0.00     0.109 C 
ATOM     18  C   UNL A   1      31.143  23.651  23.554  1.00  0.00     0.002 A 
ATOM     19  C   UNL A   1      32.034  24.739  23.086  1.00  0.00     0.066 A 
ATOM     20  C   UNL A   1      31.452  22.277  23.234  1.00  0.00     0.010 A 
ATOM     21  C   UNL A   1      33.012  24.371  22.030  1.00  0.00     0.028 A 
ATOM     22  C   UNL A   1      32.474  22.006  22.406  1.00  0.00     0.001 A 
ATOM     23  C   UNL A   1      33.218  23.070  21.758  1.00  0.00     0.002 A 
BRANCH  10  24
ATOM     24  C   UNL A   1      32.306  27.301  26.705  1.00  0.00     0.015 A 
ATOM     25  C   UNL A   1      34.535  26.585  25.678  1.00  0.00     0.045 C 
ATOM     26  C   UNL A   1      33.619  27.600  26.296  1.00  0.00    -0.042 A 
ATOM     27  C   UNL A   1      34.080  28.943  26.333  1.00  0.00     0.004 A 
ATOM     28  C   UNL A   1      33.273  29.996  26.760  1.00  0.00     0.000 A 
ATOM     29  C   UNL A   1      31.573  28.395  27.247  1.00  0.00     0.010 A 
ATOM     30  C   UNL A   1      32.011  29.717  27.230  1.00  0.00     0.001 A 
ENDBRANCH  10  24
ENDBRANCH   6   9
ENDBRANCH   4   5
ENDBRANCH   3   4
ENDBRANCH   2   3
ENDBRANCH   1   2
BRANCH   1  31
ATOM     31  C   UNL A   1      38.587  21.365  25.640  1.00  0.00     0.021 C 
BRANCH  31  32
ATOM     32  C   UNL A   1      38.786  22.763  26.214  1.00  0.00     0.116 C 
BRANCH  32  33
ATOM     33  N   UNL A   1      40.012  22.881  26.982  1.00  0.00    -0.352 N 
ATOM     34  C   UNL A   1      40.679  23.982  27.488  1.00  0.00     0.251 C 
ATOM     35  H   UNL A   1      40.448  22.021  27.180  1.00  0.00     0.163 HD
ATOM     36  O   UNL A   1      41.807  23.835  27.912  1.00  0.00    -0.269 OA
BRANCH  34  37
ATOM     37  C   UNL A   1      39.977  25.282  27.688  1.00  0.00     0.039 A 
ATOM     38  C   UNL A   1      40.404  26.346  26.876  1.00  0.00     0.014 A 
ATOM     39  C   UNL A   1      39.133  25.538  28.763  1.00  0.00     0.014 A 
ATOM     40  C   UNL A   1      40.220  27.659  27.300  1.00  0.00     0.010 A 
ATOM     41  C   UNL A   1      39.015  26.828  29.230  1.00  0.00     0.010 A 
ATOM     42  C   UNL A   1      39.628  27.872  28.538  1.00  0.00    -0.014 A 
BRANCH  42  43
ATOM     43  C   UNL A   1      39.654  29.143  29.235  1.00  0.00     0.031 A 
ATOM     44  C   UNL A   1      38.640  30.158  28.933  1.00  0.00     0.074 A 
ATOM     45  C   UNL A   1      40.553  29.335  30.222  1.00  0.00     0.049 A 
ATOM     46  N   UNL A   1      38.797  31.416  29.153  1.00  0.00    -0.248 NA
ATOM     47  C   UNL A   1      37.369  29.829  28.300  1.00  0.00     0.031 C 
ATOM     48  C   UNL A   1      40.575  30.399  31.218  1.00  0.00     0.029 A 
ATOM     49  N   UNL A   1      41.778  28.686  30.377  1.00  0.00    -0.354 N 
ATOM     50  C   UNL A   1      37.569  32.009  28.997  1.00  0.00     0.074 A 
ATOM     51  C   UNL A   1      36.744  31.008  28.361  1.00  0.00     0.031 C 
ATOM     52  C   UNL A   1      41.824  30.509  31.702  1.00  0.00     0.029 A 
ATOM     53  C   UNL A   1      42.674  29.630  30.915  1.00  0.00     0.049 A 
ATOM     54  H   UNL A   1      41.977  27.749  30.153  1.00  0.00     0.167 HD
ATOM     55  C   UNL A   1      37.352  33.230  29.559  1.00  0.00     0.031 A 
ATOM     56  C   UNL A   1      43.756  30.036  30.184  1.00  0.00     0.031 A 
ATOM     57  C   UNL A   1      38.564  33.770  30.180  1.00  0.00     0.049 A 
ATOM     58  C   UNL A   1      43.725  31.499  29.782  1.00  0.00     0.074 A 
ATOM     59  C   UNL A   1      39.006  33.907  31.486  1.00  0.00     0.029 A 
ATOM     60  N   UNL A   1      39.675  33.983  29.381  1.00  0.00    -0.354 N 
ATOM     61  N   UNL A   1      42.736  32.313  30.032  1.00  0.00    -0.248 NA
ATOM     62  C   UNL A   1      44.771  32.138  28.982  1.00  0.00     0.031 C 
ATOM     63  C   UNL A   1      40.399  34.209  31.456  1.00  0.00     0.029 A 
ATOM     64  C   UNL A   1      40.795  34.275  30.133  1.00  0.00     0.049 A 
ATOM     65  H   UNL A   1      39.668  33.932  28.398  1.00  0.00     0.167 HD
ATOM     66  C   UNL A   1      42.960  33.516  29.418  1.00  0.00     0.074 A 
ATOM     67  C   UNL A   1      44.253  33.362  28.777  1.00  0.00     0.031 C 
ATOM     68  C   UNL A   1      42.049  34.532  29.442  1.00  0.00     0.031 A 
BRANCH  55  69
ATOM     69  C   UNL A   1      35.978  33.821  29.759  1.00  0.00    -0.014 A 
ATOM     70  C   UNL A   1      35.289  34.358  28.657  1.00  0.00     0.009 A 
ATOM     71  C   UNL A   1      35.324  33.922  30.999  1.00  0.00     0.009 A 
ATOM     72  C   UNL A   1      34.072  35.037  28.800  1.00  0.00     0.001 A 
ATOM     73  C   UNL A   1      34.128  34.633  31.158  1.00  0.00     0.001 A 
ATOM     74  C   UNL A   1      33.505  35.202  30.058  1.00  0.00     0.000 A 
ENDBRANCH  55  69
BRANCH  56  75
ATOM     75  C   UNL A   1      44.335  28.929  29.366  1.00  0.00    -0.014 A 
ATOM     76  C   UNL A   1      44.864  27.813  30.048  1.00  0.00     0.009 A 
ATOM     77  C   UNL A   1      44.001  28.789  28.012  1.00  0.00     0.009 A 
ATOM     78  C   UNL A   1      44.928  26.560  29.429  1.00  0.00     0.001 A 
ATOM     79  C   UNL A   1      44.079  27.534  27.394  1.00  0.00     0.001 A 
ATOM     80  C   UNL A   1      44.502  26.415  28.112  1.00  0.00     0.000 A 
ENDBRANCH  56  75
BRANCH  68  81
ATOM     81  C   UNL A   1      42.244  35.867  28.777  1.00  0.00    -0.014 A 
ATOM     82  C   UNL A   1      41.827  36.134  27.467  1.00  0.00     0.009 A 
ATOM     83  C   UNL A   1      42.990  36.875  29.427  1.00  0.00     0.009 A 
ATOM     84  C   UNL A   1      42.094  37.369  26.861  1.00  0.00     0.001 A 
ATOM     85  C   UNL A   1      43.279  38.097  28.819  1.00  0.00     0.001 A 
ATOM     86  C   UNL A   1      42.819  38.349  27.536  1.00  0.00     0.000 A 
ENDBRANCH  68  81
ENDBRANCH  42  43
ENDBRANCH  34  37
ENDBRANCH  32  33
ENDBRANCH  31  32
ENDBRANCH   1  31
TORSDOF 14
ENDMDL
MODEL 3
REMARK VINA RESULT:     -13.1      3.260      8.657
REMARK SMILES Cc1ccccc1[C@@H]1[NH2+][C@@H](C(=O)NCCCCCCNC(=O)c2ccc(-c3c4nc(c(-c5ccccc5)c5ccc([nH]5)c(-c5ccccc5)c5nc(c(-c6ccccc6)c6ccc3[nH]6)C=C5)C=C4)cc2)CC2=c3ccccc3=N[C@@H]21
REMARK SMILES IDX 17 1 16 2 15 3 14 4 13 5 11 6 12 7 10 9 8 10 9 11 80 12
REMARK SMILES IDX 72 15 79 16 71 17 73 18 78 19 74 20 77 21 75 22 76 23 7 24
REMARK SMILES IDX 1 25 2 26 3 27 4 28 6 29 5 30 18 31 19 32 20 33 21 34 22 36
REMARK SMILES IDX 23 37 24 38 70 39 25 40 69 41 26 42 27 43 28 44 63 45 29 46
REMARK SMILES IDX 68 47 62 48 64 49 30 50 67 51 61 52 60 53 31 55 53 56 38 57
REMARK SMILES IDX 52 58 39 59 42 60 51 61 65 62 40 63 41 64 50 66 66 67 43 68
REMARK SMILES IDX 32 69 33 70 37 71 34 72 36 73 35 74 54 75 55 76 59 77 56 78
REMARK SMILES IDX 58 79 57 80 44 81 45 82 49 83 46 84 48 85 47 86
REMARK H PARENT 13 8 9 13 9 14 20 35 64 54 42 65
REMARK Flexibility Score: inf
ROOT
ATOM      1  C   UNL A   1      36.581  22.364  23.928  1.00  0.00     0.002 C 
ENDROOT
BRANCH   1   2
ATOM      2  C   UNL A   1      35.518  23.319  23.373  1.00  0.00     0.002 C 
BRANCH   2   3
ATOM      3  C   UNL A   1      34.258  22.679  22.770  1.00  0.00     0.021 C 
BRANCH   3   4
ATOM      4  C   UNL A   1      32.938  23.485  22.816  1.00  0.00     0.116 C 
BRANCH   4   5
ATOM      5  N   UNL A   1      32.450  24.227  21.635  1.00  0.00    -0.351 N 
ATOM      6  C   UNL A   1      32.855  25.520  21.216  1.00  0.00     0.278 C 
ATOM      7  O   UNL A   1      32.937  25.816  20.029  1.00  0.00    -0.268 OA
ATOM      8  H   UNL A   1      31.774  23.776  21.080  1.00  0.00     0.163 HD
BRANCH   6   9
ATOM      9  C   UNL A   1      32.883  26.519  22.376  1.00  0.00     0.277 C 
ATOM     10  C   UNL A   1      31.451  28.560  22.839  1.00  0.00     0.243 C 
ATOM     11  N   UNL A   1      31.744  27.363  22.040  1.00  0.00    -0.327 N 
ATOM     12  C   UNL A   1      32.056  28.490  24.309  1.00  0.00     0.196 C 
ATOM     13  H   UNL A   1      31.884  27.679  21.080  1.00  0.00     0.347 HD
ATOM     14  H   UNL A   1      30.943  26.759  22.225  1.00  0.00     0.347 HD
ATOM     15  C   UNL A   1      33.400  27.713  24.310  1.00  0.00    -0.024 C 
ATOM     16  N   UNL A   1      31.212  27.725  25.274  1.00  0.00    -0.270 NA
ATOM     17  C   UNL A   1      34.012  27.374  22.939  1.00  0.00     0.109 C 
ATOM     18  C   UNL A   1      33.427  26.802  25.298  1.00  0.00     0.002 A 
ATOM     19  C   UNL A   1      32.024  26.841  25.776  1.00  0.00     0.066 A 
ATOM     20  C   UNL A   1      34.201  25.591  25.430  1.00  0.00     0.010 A 
ATOM     21  C   UNL A   1      31.610  25.727  26.667  1.00  0.00     0.028 A 
ATOM     22  C   UNL A   1      33.687  24.548  26.102  1.00  0.00     0.001 A 
ATOM     23  C   UNL A   1      32.404  24.646  26.772  1.00  0.00     0.002 A 
BRANCH  10  24
ATOM     24  C   UNL A   1      29.995  28.973  22.449  1.00  0.00     0.015 A 
ATOM     25  C   UNL A   1      28.905  26.962  23.590  1.00  0.00     0.045 C 
ATOM     26  C   UNL A   1      28.852  28.310  22.934  1.00  0.00    -0.042 A 
ATOM     27  C   UNL A   1      27.599  28.978  22.938  1.00  0.00     0.004 A 
ATOM     28  C   UNL A   1      27.451  30.286  22.479  1.00  0.00     0.000 A 
ATOM     29  C   UNL A   1      29.760  30.257  21.880  1.00  0.00     0.010 A 
ATOM     30  C   UNL A   1      28.540  30.928  21.936  1.00  0.00     0.001 A 
ENDBRANCH  10  24
ENDBRANCH   6   9
ENDBRANCH   4   5
ENDBRANCH   3   4
ENDBRANCH   2   3
ENDBRANCH   1   2
BRANCH   1  31
ATOM     31  C   UNL A   1      37.731  23.007  24.705  1.00  0.00     0.021 C 
BRANCH  31  32
ATOM     32  C   UNL A   1      38.175  22.236  25.943  1.00  0.00     0.116 C 
BRANCH  32  33
ATOM     33  N   UNL A   1      39.609  22.303  26.155  1.00  0.00    -0.352 N 
ATOM     34  C   UNL A   1      40.459  23.373  26.370  1.00  0.00     0.251 C 
ATOM     35  H   UNL A   1      40.060  21.427  26.145  1.00  0.00     0.163 HD
ATOM     36  O   UNL A   1      41.657  23.187  26.302  1.00  0.00    -0.269 OA
BRANCH  34  37
ATOM     37  C   UNL A   1      39.940  24.682  26.861  1.00  0.00     0.039 A 
ATOM     38  C   UNL A   1      40.403  25.823  26.184  1.00  0.00     0.014 A 
ATOM     39  C   UNL A   1      39.248  24.830  28.057  1.00  0.00     0.014 A 
ATOM     40  C   UNL A   1      40.420  27.054  26.832  1.00  0.00     0.010 A 
ATOM     41  C   UNL A   1      39.331  26.025  28.736  1.00  0.00     0.010 A 
ATOM     42  C   UNL A   1      39.988  27.107  28.151  1.00  0.00    -0.014 A 
BRANCH  42  43
ATOM     43  C   UNL A   1      40.236  28.230  29.035  1.00  0.00     0.031 A 
ATOM     44  C   UNL A   1      39.184  29.227  29.254  1.00  0.00     0.074 A 
ATOM     45  C   UNL A   1      41.397  28.287  29.718  1.00  0.00     0.049 A 
ATOM     46  N   UNL A   1      39.408  30.431  29.650  1.00  0.00    -0.248 NA
ATOM     47  C   UNL A   1      37.777  28.951  28.989  1.00  0.00     0.031 C 
ATOM     48  C   UNL A   1      41.732  29.152  30.843  1.00  0.00     0.029 A 
ATOM     49  N   UNL A   1      42.606  27.688  29.366  1.00  0.00    -0.354 N 
ATOM     50  C   UNL A   1      38.195  30.976  29.991  1.00  0.00     0.074 A 
ATOM     51  C   UNL A   1      37.209  30.064  29.460  1.00  0.00     0.031 C 
ATOM     52  C   UNL A   1      43.070  29.239  30.934  1.00  0.00     0.029 A 
ATOM     53  C   UNL A   1      43.630  28.564  29.774  1.00  0.00     0.049 A 
ATOM     54  H   UNL A   1      42.721  26.818  28.918  1.00  0.00     0.167 HD
ATOM     55  C   UNL A   1      38.169  32.061  30.814  1.00  0.00     0.031 A 
ATOM     56  C   UNL A   1      44.435  29.154  28.839  1.00  0.00     0.031 A 
ATOM     57  C   UNL A   1      39.517  32.542  31.127  1.00  0.00     0.049 A 
ATOM     58  C   UNL A   1      44.288  30.662  28.750  1.00  0.00     0.074 A 
ATOM     59  C   UNL A   1      40.343  32.463  32.237  1.00  0.00     0.029 A 
ATOM     60  N   UNL A   1      40.328  32.957  30.082  1.00  0.00    -0.354 N 
ATOM     61  N   UNL A   1      43.431  31.363  29.440  1.00  0.00    -0.248 NA
ATOM     62  C   UNL A   1      45.040  31.490  27.806  1.00  0.00     0.031 C 
ATOM     63  C   UNL A   1      41.660  32.840  31.840  1.00  0.00     0.029 A 
ATOM     64  C   UNL A   1      41.627  33.166  30.498  1.00  0.00     0.049 A 
ATOM     65  H   UNL A   1      40.016  33.085  29.157  1.00  0.00     0.167 HD
ATOM     66  C   UNL A   1      43.460  32.667  29.027  1.00  0.00     0.074 A 
ATOM     67  C   UNL A   1      44.490  32.702  28.005  1.00  0.00     0.031 C 
ATOM     68  C   UNL A   1      42.607  33.612  29.519  1.00  0.00     0.031 A 
BRANCH  55  69
ATOM     69  C   UNL A   1      36.929  32.530  31.532  1.00  0.00    -0.014 A 
ATOM     70  C   UNL A   1      35.994  33.329  30.848  1.00  0.00     0.009 A 
ATOM     71  C   UNL A   1      36.637  32.266  32.881  1.00  0.00     0.009 A 
ATOM     72  C   UNL A   1      34.893  33.905  31.495  1.00  0.00     0.001 A 
ATOM     73  C   UNL A   1      35.561  32.868  33.546  1.00  0.00     0.001 A 
ATOM     74  C   UNL A   1      34.693  33.699  32.854  1.00  0.00     0.000 A 
ENDBRANCH  55  69
BRANCH  56  75
ATOM     75  C   UNL A   1      44.726  28.246  27.688  1.00  0.00    -0.014 A 
ATOM     76  C   UNL A   1      45.434  27.055  27.952  1.00  0.00     0.009 A 
ATOM     77  C   UNL A   1      43.988  28.337  26.501  1.00  0.00     0.009 A 
ATOM     78  C   UNL A   1      45.296  25.941  27.118  1.00  0.00     0.001 A 
ATOM     79  C   UNL A   1      43.864  27.221  25.662  1.00  0.00     0.001 A 
ATOM     80  C   UNL A   1      44.483  26.015  25.991  1.00  0.00     0.000 A 
ENDBRANCH  56  75
BRANCH  68  81
ATOM     81  C   UNL A   1      42.594  35.054  29.092  1.00  0.00    -0.014 A 
ATOM     82  C   UNL A   1      42.033  35.485  27.883  1.00  0.00     0.009 A 
ATOM     83  C   UNL A   1      43.281  36.021  29.858  1.00  0.00     0.009 A 
ATOM     84  C   UNL A   1      42.107  36.829  27.491  1.00  0.00     0.001 A 
ATOM     85  C   UNL A   1      43.379  37.355  29.460  1.00  0.00     0.001 A 
ATOM     86  C   UNL A   1      42.779  37.762  28.279  1.00  0.00     0.000 A 
ENDBRANCH  68  81
ENDBRANCH  42  43
ENDBRANCH  34  37
ENDBRANCH  32  33
ENDBRANCH  31  32
ENDBRANCH   1  31
TORSDOF 14
ENDMDL
