MODEL 1
REMARK VINA RESULT:     -12.3      0.000      0.000
REMARK SMILES Cc1noc(C)c1CCC(=O)N1CCC2(CC1)NC(=O)C[C@@H]2C(=O)NCCCCCCNC(=O)c1ccc(-c2c3nc(c(-c4ccccc4)c4ccc([nH]4)c(-c4ccccc4)c4nc(c(-c5ccccc5)c5ccc2[nH]5)C=C4)C=C3)cc1
REMARK SMILES IDX 28 1 27 2 26 3 25 4 23 5 24 6 22 8 10 9 11 10 12 11 13 12
REMARK SMILES IDX 17 13 14 14 16 15 15 16 18 17 19 18 21 20 20 21 9 22 8 23
REMARK SMILES IDX 7 24 1 25 2 26 3 27 4 28 5 29 6 30 29 31 30 32 31 33 32 34
REMARK SMILES IDX 33 35 34 37 35 38 36 39 82 40 37 41 81 42 38 43 39 44 40 45
REMARK SMILES IDX 75 46 41 47 80 48 74 49 76 50 42 51 79 52 73 53 72 54 43 56
REMARK SMILES IDX 65 57 50 58 64 59 51 60 54 61 63 62 77 63 52 64 53 65 62 67
REMARK SMILES IDX 78 68 55 69 44 70 45 71 49 72 46 73 48 74 47 75 66 76 67 77
REMARK SMILES IDX 71 78 68 79 70 80 69 81 56 82 57 83 61 84 58 85 60 86 59 87
REMARK H PARENT 25 7 18 19 32 36 76 55 54 66
REMARK Flexibility Score: inf
ROOT
ATOM      1  C   UNL A   1      32.503  29.691  25.681  1.00  0.00     0.002 C 
ENDROOT
BRANCH   1   2
ATOM      2  C   UNL A   1      33.000  28.334  26.188  1.00  0.00     0.021 C 
BRANCH   2   3
ATOM      3  C   UNL A   1      32.074  27.721  27.216  1.00  0.00     0.116 C 
BRANCH   3   4
ATOM      4  N   UNL A   1      30.963  26.944  26.718  1.00  0.00    -0.356 N 
ATOM      5  C   UNL A   1      31.222  25.697  26.214  1.00  0.00     0.226 C 
ATOM      6  O   UNL A   1      31.128  24.745  26.996  1.00  0.00    -0.275 OA
ATOM      7  H   UNL A   1      30.045  27.300  26.741  1.00  0.00     0.163 HD
BRANCH   5   8
ATOM      8  C   UNL A   1      31.338  25.424  24.709  1.00  0.00     0.113 C 
ATOM      9  C   UNL A   1      34.858  21.959  25.291  1.00  0.00     0.222 C 
ATOM     10  O   UNL A   1      35.309  22.109  26.430  1.00  0.00    -0.275 OA
ATOM     11  N   UNL A   1      34.311  23.029  24.563  1.00  0.00    -0.343 N 
ATOM     12  C   UNL A   1      34.443  24.304  25.211  1.00  0.00     0.122 C 
ATOM     13  C   UNL A   1      33.120  22.854  23.750  1.00  0.00     0.122 C 
ATOM     14  C   UNL A   1      34.013  25.512  24.384  1.00  0.00     0.051 C 
ATOM     15  C   UNL A   1      32.654  24.069  22.963  1.00  0.00     0.051 C 
ATOM     16  C   UNL A   1      32.609  25.374  23.799  1.00  0.00     0.055 C 
ATOM     17  N   UNL A   1      32.385  26.448  22.848  1.00  0.00    -0.350 N 
ATOM     18  C   UNL A   1      31.117  26.961  22.847  1.00  0.00     0.221 C 
ATOM     19  H   UNL A   1      33.092  26.782  22.248  1.00  0.00     0.164 HD
ATOM     20  C   UNL A   1      30.386  26.445  24.042  1.00  0.00     0.116 C 
ATOM     21  O   UNL A   1      30.677  27.716  22.002  1.00  0.00    -0.275 OA
BRANCH   9  22
ATOM     22  C   UNL A   1      34.953  20.604  24.628  1.00  0.00     0.105 C 
BRANCH  22  23
ATOM     23  C   UNL A   1      33.955  19.571  25.143  1.00  0.00     0.051 C 
BRANCH  23  24
ATOM     24  C   UNL A   1      33.652  18.462  24.192  1.00  0.00     0.018 A 
ATOM     25  C   UNL A   1      32.153  19.662  22.394  1.00  0.00     0.071 C 
ATOM     26  C   UNL A   1      32.848  18.506  23.013  1.00  0.00     0.084 A 
ATOM     27  N   UNL A   1      32.856  17.329  22.377  1.00  0.00    -0.085 NA
ATOM     28  O   UNL A   1      33.668  16.499  23.118  1.00  0.00    -0.361 OA
ATOM     29  C   UNL A   1      34.154  17.173  24.190  1.00  0.00     0.137 A 
ATOM     30  C   UNL A   1      35.148  16.441  25.004  1.00  0.00     0.091 C 
ENDBRANCH  23  24
ENDBRANCH  22  23
ENDBRANCH   9  22
ENDBRANCH   5   8
ENDBRANCH   3   4
ENDBRANCH   2   3
ENDBRANCH   1   2
BRANCH   1  31
ATOM     31  C   UNL A   1      31.459  30.444  26.524  1.00  0.00     0.002 C 
BRANCH  31  32
ATOM     32  C   UNL A   1      31.497  31.973  26.513  1.00  0.00     0.021 C 
BRANCH  32  33
ATOM     33  C   UNL A   1      32.650  32.627  27.266  1.00  0.00     0.116 C 
BRANCH  33  34
ATOM     34  N   UNL A   1      32.387  34.013  27.620  1.00  0.00    -0.352 N 
ATOM     35  C   UNL A   1      32.998  34.840  28.526  1.00  0.00     0.251 C 
ATOM     36  H   UNL A   1      31.645  34.427  27.124  1.00  0.00     0.163 HD
ATOM     37  O   UNL A   1      32.528  35.952  28.749  1.00  0.00    -0.269 OA
BRANCH  35  38
ATOM     38  C   UNL A   1      34.199  34.397  29.261  1.00  0.00     0.039 A 
ATOM     39  C   UNL A   1      34.032  33.795  30.512  1.00  0.00     0.014 A 
ATOM     40  C   UNL A   1      35.481  34.588  28.740  1.00  0.00     0.014 A 
ATOM     41  C   UNL A   1      35.143  33.312  31.205  1.00  0.00     0.010 A 
ATOM     42  C   UNL A   1      36.583  34.053  29.402  1.00  0.00     0.010 A 
ATOM     43  C   UNL A   1      36.422  33.399  30.634  1.00  0.00    -0.014 A 
BRANCH  43  44
ATOM     44  C   UNL A   1      37.601  32.776  31.285  1.00  0.00     0.031 A 
ATOM     45  C   UNL A   1      38.261  31.574  30.673  1.00  0.00     0.074 A 
ATOM     46  C   UNL A   1      38.020  33.245  32.477  1.00  0.00     0.049 A 
ATOM     47  N   UNL A   1      39.225  30.829  31.152  1.00  0.00    -0.248 NA
ATOM     48  C   UNL A   1      37.758  31.138  29.361  1.00  0.00     0.031 C 
ATOM     49  C   UNL A   1      37.444  34.390  33.188  1.00  0.00     0.029 A 
ATOM     50  N   UNL A   1      39.017  32.804  33.312  1.00  0.00    -0.354 N 
ATOM     51  C   UNL A   1      39.430  29.829  30.211  1.00  0.00     0.074 A 
ATOM     52  C   UNL A   1      38.467  30.038  29.153  1.00  0.00     0.031 C 
ATOM     53  C   UNL A   1      38.105  34.568  34.342  1.00  0.00     0.029 A 
ATOM     54  C   UNL A   1      39.115  33.524  34.478  1.00  0.00     0.049 A 
ATOM     55  H   UNL A   1      39.604  32.045  33.095  1.00  0.00     0.167 HD
ATOM     56  C   UNL A   1      40.347  28.831  30.225  1.00  0.00     0.031 A 
ATOM     57  C   UNL A   1      39.912  33.349  35.549  1.00  0.00     0.031 A 
ATOM     58  C   UNL A   1      41.307  28.628  31.277  1.00  0.00     0.049 A 
ATOM     59  C   UNL A   1      40.891  32.209  35.557  1.00  0.00     0.074 A 
ATOM     60  C   UNL A   1      42.315  27.683  31.353  1.00  0.00     0.029 A 
ATOM     61  N   UNL A   1      41.371  29.376  32.443  1.00  0.00    -0.354 N 
ATOM     62  N   UNL A   1      41.118  31.310  34.630  1.00  0.00    -0.248 NA
ATOM     63  C   UNL A   1      41.725  32.061  36.758  1.00  0.00     0.031 C 
ATOM     64  C   UNL A   1      42.951  27.821  32.591  1.00  0.00     0.029 A 
ATOM     65  C   UNL A   1      42.376  28.890  33.260  1.00  0.00     0.049 A 
ATOM     66  H   UNL A   1      40.787  30.140  32.657  1.00  0.00     0.167 HD
ATOM     67  C   UNL A   1      42.132  30.503  35.127  1.00  0.00     0.074 A 
ATOM     68  C   UNL A   1      42.490  31.030  36.427  1.00  0.00     0.031 C 
ATOM     69  C   UNL A   1      42.715  29.421  34.555  1.00  0.00     0.031 A 
BRANCH  56  70
ATOM     70  C   UNL A   1      40.345  27.870  29.069  1.00  0.00    -0.014 A 
ATOM     71  C   UNL A   1      41.164  28.076  27.947  1.00  0.00     0.009 A 
ATOM     72  C   UNL A   1      39.545  26.717  29.122  1.00  0.00     0.009 A 
ATOM     73  C   UNL A   1      41.153  27.166  26.886  1.00  0.00     0.001 A 
ATOM     74  C   UNL A   1      39.558  25.796  28.074  1.00  0.00     0.001 A 
ATOM     75  C   UNL A   1      40.354  26.026  26.953  1.00  0.00     0.000 A 
ENDBRANCH  56  70
BRANCH  57  76
ATOM     76  C   UNL A   1      39.807  34.269  36.713  1.00  0.00    -0.014 A 
ATOM     77  C   UNL A   1      40.505  35.486  36.723  1.00  0.00     0.009 A 
ATOM     78  C   UNL A   1      39.011  33.933  37.820  1.00  0.00     0.009 A 
ATOM     79  C   UNL A   1      40.428  36.336  37.829  1.00  0.00     0.001 A 
ATOM     80  C   UNL A   1      38.913  34.799  38.911  1.00  0.00     0.001 A 
ATOM     81  C   UNL A   1      39.628  35.995  38.919  1.00  0.00     0.000 A 
ENDBRANCH  57  76
BRANCH  69  82
ATOM     82  C   UNL A   1      43.813  28.744  35.325  1.00  0.00    -0.014 A 
ATOM     83  C   UNL A   1      43.543  27.664  36.179  1.00  0.00     0.009 A 
ATOM     84  C   UNL A   1      45.143  29.160  35.152  1.00  0.00     0.009 A 
ATOM     85  C   UNL A   1      44.581  27.028  36.861  1.00  0.00     0.001 A 
ATOM     86  C   UNL A   1      46.182  28.505  35.815  1.00  0.00     0.001 A 
ATOM     87  C   UNL A   1      45.899  27.443  36.674  1.00  0.00     0.000 A 
ENDBRANCH  69  82
ENDBRANCH  43  44
ENDBRANCH  35  38
ENDBRANCH  33  34
ENDBRANCH  32  33
ENDBRANCH  31  32
ENDBRANCH   1  31
TORSDOF 16
ENDMDL
MODEL 2
REMARK VINA RESULT:     -11.9      4.032      8.553
REMARK SMILES Cc1noc(C)c1CCC(=O)N1CCC2(CC1)NC(=O)C[C@@H]2C(=O)NCCCCCCNC(=O)c1ccc(-c2c3nc(c(-c4ccccc4)c4ccc([nH]4)c(-c4ccccc4)c4nc(c(-c5ccccc5)c5ccc2[nH]5)C=C4)C=C3)cc1
REMARK SMILES IDX 28 1 27 2 26 3 25 4 23 5 24 6 22 8 10 9 11 10 12 11 13 12
REMARK SMILES IDX 17 13 14 14 16 15 15 16 18 17 19 18 21 20 20 21 9 22 8 23
REMARK SMILES IDX 7 24 1 25 2 26 3 27 4 28 5 29 6 30 29 31 30 32 31 33 32 34
REMARK SMILES IDX 33 35 34 37 35 38 36 39 82 40 37 41 81 42 38 43 39 44 40 45
REMARK SMILES IDX 75 46 41 47 80 48 74 49 76 50 42 51 79 52 73 53 72 54 43 56
REMARK SMILES IDX 65 57 50 58 64 59 51 60 54 61 63 62 77 63 52 64 53 65 62 67
REMARK SMILES IDX 78 68 55 69 44 70 45 71 49 72 46 73 48 74 47 75 66 76 67 77
REMARK SMILES IDX 71 78 68 79 70 80 69 81 56 82 57 83 61 84 58 85 60 86 59 87
REMARK H PARENT 25 7 18 19 32 36 76 55 54 66
REMARK Flexibility Score: inf
ROOT
ATOM      1  C   UNL A   1      37.503  23.836  25.566  1.00  0.00     0.002 C 
ENDROOT
BRANCH   1   2
ATOM      2  C   UNL A   1      36.186  23.319  24.981  1.00  0.00     0.021 C 
BRANCH   2   3
ATOM      3  C   UNL A   1      35.800  24.024  23.698  1.00  0.00     0.116 C 
BRANCH   3   4
ATOM      4  N   UNL A   1      34.420  24.427  23.560  1.00  0.00    -0.356 N 
ATOM      5  C   UNL A   1      33.967  25.456  24.343  1.00  0.00     0.226 C 
ATOM      6  O   UNL A   1      34.017  26.592  23.860  1.00  0.00    -0.275 OA
ATOM      7  H   UNL A   1      33.822  23.975  22.921  1.00  0.00     0.163 HD
BRANCH   5   8
ATOM      8  C   UNL A   1      33.167  25.222  25.630  1.00  0.00     0.113 C 
ATOM      9  C   UNL A   1      32.369  20.415  24.633  1.00  0.00     0.222 C 
ATOM     10  O   UNL A   1      32.607  20.265  23.431  1.00  0.00    -0.275 OA
ATOM     11  N   UNL A   1      31.922  21.641  25.152  1.00  0.00    -0.343 N 
ATOM     12  C   UNL A   1      31.656  22.638  24.152  1.00  0.00     0.122 C 
ATOM     13  C   UNL A   1      32.410  22.140  26.427  1.00  0.00     0.122 C 
ATOM     14  C   UNL A   1      31.013  23.925  24.659  1.00  0.00     0.051 C 
ATOM     15  C   UNL A   1      31.812  23.451  26.914  1.00  0.00     0.051 C 
ATOM     16  C   UNL A   1      31.765  24.556  25.828  1.00  0.00     0.055 C 
ATOM     17  N   UNL A   1      30.959  25.628  26.386  1.00  0.00    -0.350 N 
ATOM     18  C   UNL A   1      31.666  26.722  26.802  1.00  0.00     0.221 C 
ATOM     19  H   UNL A   1      29.979  25.571  26.460  1.00  0.00     0.164 HD
ATOM     20  C   UNL A   1      33.068  26.613  26.299  1.00  0.00     0.116 C 
ATOM     21  O   UNL A   1      31.207  27.629  27.470  1.00  0.00    -0.275 OA
BRANCH   9  22
ATOM     22  C   UNL A   1      32.495  19.233  25.567  1.00  0.00     0.105 C 
BRANCH  22  23
ATOM     23  C   UNL A   1      32.342  17.871  24.895  1.00  0.00     0.051 C 
BRANCH  23  24
ATOM     24  C   UNL A   1      33.509  16.957  25.058  1.00  0.00     0.018 A 
ATOM     25  C   UNL A   1      32.347  14.635  25.478  1.00  0.00     0.071 C 
ATOM     26  C   UNL A   1      33.502  15.556  25.334  1.00  0.00     0.084 A 
ATOM     27  N   UNL A   1      34.743  15.058  25.349  1.00  0.00    -0.085 NA
ATOM     28  O   UNL A   1      35.583  16.115  25.074  1.00  0.00    -0.361 OA
ATOM     29  C   UNL A   1      34.852  17.242  24.887  1.00  0.00     0.137 A 
ATOM     30  C   UNL A   1      35.617  18.431  24.453  1.00  0.00     0.091 C 
ENDBRANCH  23  24
ENDBRANCH  22  23
ENDBRANCH   9  22
ENDBRANCH   5   8
ENDBRANCH   3   4
ENDBRANCH   2   3
ENDBRANCH   1   2
BRANCH   1  31
ATOM     31  C   UNL A   1      38.504  22.810  26.123  1.00  0.00     0.002 C 
BRANCH  31  32
ATOM     32  C   UNL A   1      38.726  21.520  25.330  1.00  0.00     0.021 C 
BRANCH  32  33
ATOM     33  C   UNL A   1      38.688  20.221  26.127  1.00  0.00     0.116 C 
BRANCH  33  34
ATOM     34  N   UNL A   1      39.849  19.377  25.896  1.00  0.00    -0.352 N 
ATOM     35  C   UNL A   1      41.189  19.637  26.022  1.00  0.00     0.251 C 
ATOM     36  H   UNL A   1      39.637  18.463  25.599  1.00  0.00     0.163 HD
ATOM     37  O   UNL A   1      42.009  18.801  25.654  1.00  0.00    -0.269 OA
BRANCH  35  38
ATOM     38  C   UNL A   1      41.658  20.926  26.569  1.00  0.00     0.039 A 
ATOM     39  C   UNL A   1      42.263  21.839  25.699  1.00  0.00     0.014 A 
ATOM     40  C   UNL A   1      41.526  21.230  27.926  1.00  0.00     0.014 A 
ATOM     41  C   UNL A   1      42.664  23.088  26.173  1.00  0.00     0.010 A 
ATOM     42  C   UNL A   1      41.870  22.499  28.385  1.00  0.00     0.010 A 
ATOM     43  C   UNL A   1      42.430  23.444  27.510  1.00  0.00    -0.014 A 
BRANCH  43  44
ATOM     44  C   UNL A   1      42.722  24.811  28.008  1.00  0.00     0.031 A 
ATOM     45  C   UNL A   1      44.101  25.169  28.481  1.00  0.00     0.074 A 
ATOM     46  C   UNL A   1      41.717  25.703  28.112  1.00  0.00     0.049 A 
ATOM     47  N   UNL A   1      44.517  26.271  29.052  1.00  0.00    -0.248 NA
ATOM     48  C   UNL A   1      45.146  24.146  28.312  1.00  0.00     0.031 C 
ATOM     49  C   UNL A   1      40.328  25.467  27.711  1.00  0.00     0.029 A 
ATOM     50  N   UNL A   1      41.706  26.983  28.608  1.00  0.00    -0.354 N 
ATOM     51  C   UNL A   1      45.863  26.068  29.326  1.00  0.00     0.074 A 
ATOM     52  C   UNL A   1      46.185  24.726  28.895  1.00  0.00     0.031 C 
ATOM     53  C   UNL A   1      39.604  26.568  27.963  1.00  0.00     0.029 A 
ATOM     54  C   UNL A   1      40.463  27.568  28.589  1.00  0.00     0.049 A 
ATOM     55  H   UNL A   1      42.511  27.438  28.945  1.00  0.00     0.167 HD
ATOM     56  C   UNL A   1      46.752  26.928  29.878  1.00  0.00     0.031 A 
ATOM     57  C   UNL A   1      40.053  28.766  29.047  1.00  0.00     0.031 A 
ATOM     58  C   UNL A   1      46.429  28.265  30.303  1.00  0.00     0.049 A 
ATOM     59  C   UNL A   1      41.050  29.684  29.694  1.00  0.00     0.074 A 
ATOM     60  C   UNL A   1      47.273  29.233  30.818  1.00  0.00     0.029 A 
ATOM     61  N   UNL A   1      45.158  28.818  30.270  1.00  0.00    -0.354 N 
ATOM     62  N   UNL A   1      42.335  29.504  29.887  1.00  0.00    -0.248 NA
ATOM     63  C   UNL A   1      40.542  30.973  30.185  1.00  0.00     0.031 C 
ATOM     64  C   UNL A   1      46.503  30.351  31.153  1.00  0.00     0.029 A 
ATOM     65  C   UNL A   1      45.188  30.100  30.791  1.00  0.00     0.049 A 
ATOM     66  H   UNL A   1      44.353  28.366  29.927  1.00  0.00     0.167 HD
ATOM     67  C   UNL A   1      42.791  30.661  30.502  1.00  0.00     0.074 A 
ATOM     68  C   UNL A   1      41.652  31.545  30.633  1.00  0.00     0.031 C 
ATOM     69  C   UNL A   1      44.044  30.964  30.922  1.00  0.00     0.031 A 
BRANCH  56  70
ATOM     70  C   UNL A   1      48.162  26.443  30.071  1.00  0.00    -0.014 A 
ATOM     71  C   UNL A   1      48.571  25.847  31.275  1.00  0.00     0.009 A 
ATOM     72  C   UNL A   1      49.084  26.542  29.017  1.00  0.00     0.009 A 
ATOM     73  C   UNL A   1      49.883  25.395  31.431  1.00  0.00     0.001 A 
ATOM     74  C   UNL A   1      50.387  26.064  29.166  1.00  0.00     0.001 A 
ATOM     75  C   UNL A   1      50.788  25.500  30.375  1.00  0.00     0.000 A 
ENDBRANCH  56  70
BRANCH  57  76
ATOM     76  C   UNL A   1      38.625  29.162  28.922  1.00  0.00    -0.014 A 
ATOM     77  C   UNL A   1      38.138  29.704  27.723  1.00  0.00     0.009 A 
ATOM     78  C   UNL A   1      37.742  29.002  30.002  1.00  0.00     0.009 A 
ATOM     79  C   UNL A   1      36.804  30.101  27.617  1.00  0.00     0.001 A 
ATOM     80  C   UNL A   1      36.401  29.372  29.883  1.00  0.00     0.001 A 
ATOM     81  C   UNL A   1      35.935  29.930  28.694  1.00  0.00     0.000 A 
ENDBRANCH  57  76
BRANCH  69  82
ATOM     82  C   UNL A   1      44.252  32.314  31.546  1.00  0.00    -0.014 A 
ATOM     83  C   UNL A   1      44.167  32.493  32.936  1.00  0.00     0.009 A 
ATOM     84  C   UNL A   1      44.593  33.411  30.737  1.00  0.00     0.009 A 
ATOM     85  C   UNL A   1      44.394  33.749  33.500  1.00  0.00     0.001 A 
ATOM     86  C   UNL A   1      44.847  34.659  31.308  1.00  0.00     0.001 A 
ATOM     87  C   UNL A   1      44.741  34.828  32.688  1.00  0.00     0.000 A 
ENDBRANCH  69  82
ENDBRANCH  43  44
ENDBRANCH  35  38
ENDBRANCH  33  34
ENDBRANCH  32  33
ENDBRANCH  31  32
ENDBRANCH   1  31
TORSDOF 16
ENDMDL
MODEL 3
REMARK VINA RESULT:     -11.8      3.640      7.382
REMARK SMILES Cc1noc(C)c1CCC(=O)N1CCC2(CC1)NC(=O)C[C@@H]2C(=O)NCCCCCCNC(=O)c1ccc(-c2c3nc(c(-c4ccccc4)c4ccc([nH]4)c(-c4ccccc4)c4nc(c(-c5ccccc5)c5ccc2[nH]5)C=C4)C=C3)cc1
REMARK SMILES IDX 28 1 27 2 26 3 25 4 23 5 24 6 22 8 10 9 11 10 12 11 13 12
REMARK SMILES IDX 17 13 14 14 16 15 15 16 18 17 19 18 21 20 20 21 9 22 8 23
REMARK SMILES IDX 7 24 1 25 2 26 3 27 4 28 5 29 6 30 29 31 30 32 31 33 32 34
REMARK SMILES IDX 33 35 34 37 35 38 36 39 82 40 37 41 81 42 38 43 39 44 40 45
REMARK SMILES IDX 75 46 41 47 80 48 74 49 76 50 42 51 79 52 73 53 72 54 43 56
REMARK SMILES IDX 65 57 50 58 64 59 51 60 54 61 63 62 77 63 52 64 53 65 62 67
REMARK SMILES IDX 78 68 55 69 44 70 45 71 49 72 46 73 48 74 47 75 66 76 67 77
REMARK SMILES IDX 71 78 68 79 70 80 69 81 56 82 57 83 61 84 58 85 60 86 59 87
REMARK H PARENT 25 7 18 19 32 36 76 55 54 66
REMARK Flexibility Score: inf
ROOT
ATOM      1  C   UNL A   1      31.386  29.155  25.183  1.00  0.00     0.002 C 
ENDROOT
BRANCH   1   2
ATOM      2  C   UNL A   1      30.585  28.992  23.888  1.00  0.00     0.021 C 
BRANCH   2   3
ATOM      3  C   UNL A   1      29.690  27.772  23.905  1.00  0.00     0.116 C 
BRANCH   3   4
ATOM      4  N   UNL A   1      29.905  26.785  22.874  1.00  0.00    -0.356 N 
ATOM      5  C   UNL A   1      30.673  25.692  23.177  1.00  0.00     0.226 C 
ATOM      6  O   UNL A   1      30.081  24.683  23.577  1.00  0.00    -0.275 OA
ATOM      7  H   UNL A   1      29.511  26.894  21.978  1.00  0.00     0.163 HD
BRANCH   5   8
ATOM      8  C   UNL A   1      32.151  25.587  22.780  1.00  0.00     0.113 C 
ATOM      9  C   UNL A   1      33.036  21.793  25.872  1.00  0.00     0.222 C 
ATOM     10  O   UNL A   1      32.097  21.771  26.673  1.00  0.00    -0.275 OA
ATOM     11  N   UNL A   1      33.454  22.983  25.253  1.00  0.00    -0.343 N 
ATOM     12  C   UNL A   1      32.782  24.158  25.731  1.00  0.00     0.122 C 
ATOM     13  C   UNL A   1      33.847  23.004  23.854  1.00  0.00     0.122 C 
ATOM     14  C   UNL A   1      33.321  25.486  25.206  1.00  0.00     0.051 C 
ATOM     15  C   UNL A   1      34.336  24.337  23.309  1.00  0.00     0.051 C 
ATOM     16  C   UNL A   1      33.426  25.535  23.684  1.00  0.00     0.055 C 
ATOM     17  N   UNL A   1      34.161  26.727  23.299  1.00  0.00    -0.350 N 
ATOM     18  C   UNL A   1      33.706  27.342  22.165  1.00  0.00     0.221 C 
ATOM     19  H   UNL A   1      34.927  27.068  23.814  1.00  0.00     0.164 HD
ATOM     20  C   UNL A   1      32.385  26.755  21.792  1.00  0.00     0.116 C 
ATOM     21  O   UNL A   1      34.296  28.224  21.572  1.00  0.00    -0.275 OA
BRANCH   9  22
ATOM     22  C   UNL A   1      33.803  20.521  25.594  1.00  0.00     0.105 C 
BRANCH  22  23
ATOM     23  C   UNL A   1      32.958  19.250  25.611  1.00  0.00     0.051 C 
BRANCH  23  24
ATOM     24  C   UNL A   1      33.066  18.408  24.384  1.00  0.00     0.018 A 
ATOM     25  C   UNL A   1      33.877  16.104  25.359  1.00  0.00     0.071 C 
ATOM     26  C   UNL A   1      33.489  17.048  24.282  1.00  0.00     0.084 A 
ATOM     27  N   UNL A   1      33.398  16.605  23.023  1.00  0.00    -0.085 NA
ATOM     28  O   UNL A   1      32.907  17.658  22.282  1.00  0.00    -0.361 OA
ATOM     29  C   UNL A   1      32.695  18.726  23.091  1.00  0.00     0.137 A 
ATOM     30  C   UNL A   1      32.042  19.888  22.450  1.00  0.00     0.091 C 
ENDBRANCH  23  24
ENDBRANCH  22  23
ENDBRANCH   9  22
ENDBRANCH   5   8
ENDBRANCH   3   4
ENDBRANCH   2   3
ENDBRANCH   1   2
BRANCH   1  31
ATOM     31  C   UNL A   1      32.831  29.672  25.085  1.00  0.00     0.002 C 
BRANCH  31  32
ATOM     32  C   UNL A   1      33.908  28.950  25.897  1.00  0.00     0.021 C 
BRANCH  32  33
ATOM     33  C   UNL A   1      33.734  28.961  27.411  1.00  0.00     0.116 C 
BRANCH  33  34
ATOM     34  N   UNL A   1      33.808  30.295  27.984  1.00  0.00    -0.352 N 
ATOM     35  C   UNL A   1      34.817  30.926  28.665  1.00  0.00     0.251 C 
ATOM     36  H   UNL A   1      32.996  30.838  27.861  1.00  0.00     0.163 HD
ATOM     37  O   UNL A   1      34.615  32.027  29.169  1.00  0.00    -0.269 OA
BRANCH  35  38
ATOM     38  C   UNL A   1      36.136  30.282  28.825  1.00  0.00     0.039 A 
ATOM     39  C   UNL A   1      37.028  30.313  27.749  1.00  0.00     0.014 A 
ATOM     40  C   UNL A   1      36.490  29.636  30.012  1.00  0.00     0.014 A 
ATOM     41  C   UNL A   1      38.304  29.766  27.888  1.00  0.00     0.010 A 
ATOM     42  C   UNL A   1      37.782  29.144  30.171  1.00  0.00     0.010 A 
ATOM     43  C   UNL A   1      38.706  29.217  29.116  1.00  0.00    -0.014 A 
BRANCH  43  44
ATOM     44  C   UNL A   1      40.097  28.750  29.334  1.00  0.00     0.031 A 
ATOM     45  C   UNL A   1      41.130  29.680  29.902  1.00  0.00     0.074 A 
ATOM     46  C   UNL A   1      40.447  27.511  28.936  1.00  0.00     0.049 A 
ATOM     47  N   UNL A   1      42.416  29.488  30.057  1.00  0.00    -0.248 NA
ATOM     48  C   UNL A   1      40.662  31.008  30.332  1.00  0.00     0.031 C 
ATOM     49  C   UNL A   1      39.541  26.523  28.345  1.00  0.00     0.029 A 
ATOM     50  N   UNL A   1      41.665  26.878  28.950  1.00  0.00    -0.354 N 
ATOM     51  C   UNL A   1      42.912  30.674  30.584  1.00  0.00     0.074 A 
ATOM     52  C   UNL A   1      41.798  31.591  30.686  1.00  0.00     0.031 C 
ATOM     53  C   UNL A   1      40.230  25.406  28.066  1.00  0.00     0.029 A 
ATOM     54  C   UNL A   1      41.632  25.615  28.410  1.00  0.00     0.049 A 
ATOM     55  H   UNL A   1      42.482  27.289  29.312  1.00  0.00     0.167 HD
ATOM     56  C   UNL A   1      44.181  30.966  30.958  1.00  0.00     0.031 A 
ATOM     57  C   UNL A   1      42.625  24.731  28.192  1.00  0.00     0.031 A 
ATOM     58  C   UNL A   1      45.286  30.050  30.859  1.00  0.00     0.049 A 
ATOM     59  C   UNL A   1      44.030  25.097  28.577  1.00  0.00     0.074 A 
ATOM     60  C   UNL A   1      46.596  30.233  31.266  1.00  0.00     0.029 A 
ATOM     61  N   UNL A   1      45.213  28.782  30.303  1.00  0.00    -0.354 N 
ATOM     62  N   UNL A   1      44.473  26.198  29.135  1.00  0.00    -0.248 NA
ATOM     63  C   UNL A   1      45.073  24.098  28.304  1.00  0.00     0.031 C 
ATOM     64  C   UNL A   1      47.329  29.098  30.904  1.00  0.00     0.029 A 
ATOM     65  C   UNL A   1      46.462  28.186  30.323  1.00  0.00     0.049 A 
ATOM     66  H   UNL A   1      44.394  28.368  29.947  1.00  0.00     0.167 HD
ATOM     67  C   UNL A   1      45.839  26.016  29.298  1.00  0.00     0.074 A 
ATOM     68  C   UNL A   1      46.150  24.693  28.798  1.00  0.00     0.031 C 
ATOM     69  C   UNL A   1      46.756  26.871  29.815  1.00  0.00     0.031 A 
BRANCH  56  70
ATOM     70  C   UNL A   1      44.446  32.345  31.496  1.00  0.00    -0.014 A 
ATOM     71  C   UNL A   1      44.370  32.619  32.872  1.00  0.00     0.009 A 
ATOM     72  C   UNL A   1      44.822  33.376  30.620  1.00  0.00     0.009 A 
ATOM     73  C   UNL A   1      44.627  33.905  33.352  1.00  0.00     0.001 A 
ATOM     74  C   UNL A   1      45.108  34.652  31.107  1.00  0.00     0.001 A 
ATOM     75  C   UNL A   1      45.001  34.918  32.471  1.00  0.00     0.000 A 
ENDBRANCH  56  70
BRANCH  57  76
ATOM     76  C   UNL A   1      42.326  23.416  27.565  1.00  0.00    -0.014 A 
ATOM     77  C   UNL A   1      42.653  23.178  26.222  1.00  0.00     0.009 A 
ATOM     78  C   UNL A   1      41.709  22.395  28.305  1.00  0.00     0.009 A 
ATOM     79  C   UNL A   1      42.346  21.953  25.626  1.00  0.00     0.001 A 
ATOM     80  C   UNL A   1      41.431  21.161  27.714  1.00  0.00     0.001 A 
ATOM     81  C   UNL A   1      41.741  20.943  26.373  1.00  0.00     0.000 A 
ENDBRANCH  57  76
BRANCH  69  82
ATOM     82  C   UNL A   1      48.179  26.395  29.883  1.00  0.00    -0.014 A 
ATOM     83  C   UNL A   1      48.663  25.712  31.010  1.00  0.00     0.009 A 
ATOM     84  C   UNL A   1      49.030  26.584  28.782  1.00  0.00     0.009 A 
ATOM     85  C   UNL A   1      49.980  25.250  31.042  1.00  0.00     0.001 A 
ATOM     86  C   UNL A   1      50.337  26.096  28.807  1.00  0.00     0.001 A 
ATOM     87  C   UNL A   1      50.813  25.435  29.939  1.00  0.00     0.000 A 
ENDBRANCH  69  82
ENDBRANCH  43  44
ENDBRANCH  35  38
ENDBRANCH  33  34
ENDBRANCH  32  33
ENDBRANCH  31  32
ENDBRANCH   1  31
TORSDOF 16
ENDMDL
