MODEL 1
REMARK VINA RESULT:     -11.8      0.000      0.000
REMARK SMILES COc1ccccc1C(=O)N1[C@@H](C(=O)NCCCCCCNC(=O)c2ccc(-c3c4nc(c(-c5ccccc5)c5ccc([nH]5)c(-c5ccccc5)c5nc(c(-c6ccccc6)c6ccc3[nH]6)C=C5)C=C4)cc2)COC12CC[NH+](Cc1ccccc1)CC2
REMARK SMILES IDX 18 1 17 2 16 3 15 4 13 5 14 6 12 8 11 9 75 10 73 11 74 12
REMARK SMILES IDX 76 13 87 14 77 15 86 16 78 17 9 19 10 20 8 21 3 22 4 23 5 24
REMARK SMILES IDX 7 25 6 26 2 27 1 28 79 29 80 30 81 31 85 32 82 33 84 34
REMARK SMILES IDX 83 35 19 36 20 37 21 38 22 39 23 40 24 42 25 43 26 44 72 45
REMARK SMILES IDX 27 46 71 47 28 48 29 49 30 50 65 51 31 52 70 53 64 54 66 55
REMARK SMILES IDX 32 56 69 57 63 58 62 59 33 61 55 62 40 63 54 64 41 65 44 66
REMARK SMILES IDX 53 67 67 68 42 69 43 70 52 72 68 73 45 74 34 75 35 76 39 77
REMARK SMILES IDX 36 78 38 79 37 80 56 81 57 82 61 83 58 84 60 85 59 86 46 87
REMARK SMILES IDX 47 88 51 89 48 90 50 91 49 92
REMARK H PARENT 15 7 78 18 22 41 66 60 44 71
REMARK Flexibility Score: inf
ROOT
ATOM      1  C   UNL A   1      34.338  31.327  28.168  1.00  0.00     0.002 C 
ENDROOT
BRANCH   1   2
ATOM      2  C   UNL A   1      34.363  30.158  27.190  1.00  0.00     0.021 C 
BRANCH   2   3
ATOM      3  C   UNL A   1      33.209  30.098  26.202  1.00  0.00     0.116 C 
BRANCH   3   4
ATOM      4  N   UNL A   1      32.050  29.353  26.638  1.00  0.00    -0.354 N 
ATOM      5  C   UNL A   1      31.748  28.033  26.411  1.00  0.00     0.245 C 
ATOM      6  O   UNL A   1      30.833  27.560  27.095  1.00  0.00    -0.273 OA
ATOM      7  H   UNL A   1      31.392  29.857  27.167  1.00  0.00     0.163 HD
BRANCH   5   8
ATOM      8  C   UNL A   1      32.515  27.137  25.402  1.00  0.00     0.203 C 
ATOM      9  N   UNL A   1      31.758  26.022  24.829  1.00  0.00    -0.295 N 
ATOM     10  C   UNL A   1      32.417  24.754  25.201  1.00  0.00     0.155 C 
ATOM     11  C   UNL A   1      33.738  26.493  25.999  1.00  0.00     0.198 C 
ATOM     12  O   UNL A   1      33.320  25.137  26.274  1.00  0.00    -0.352 OA
ATOM     13  C   UNL A   1      31.434  23.693  25.698  1.00  0.00     0.120 C 
ATOM     14  C   UNL A   1      33.367  24.153  24.153  1.00  0.00     0.120 C 
ATOM     15  C   UNL A   1      32.090  22.392  26.121  1.00  0.00     0.267 C 
ATOM     16  C   UNL A   1      33.944  22.802  24.640  1.00  0.00     0.267 C 
ATOM     17  N   UNL A   1      32.955  21.830  25.095  1.00  0.00    -0.331 N 
ATOM     18  H   UNL A   1      33.505  21.099  25.547  1.00  0.00     0.348 HD
BRANCH   9  19
ATOM     19  C   UNL A   1      31.051  26.265  23.647  1.00  0.00     0.260 C 
ATOM     20  O   UNL A   1      31.555  25.945  22.565  1.00  0.00    -0.269 OA
BRANCH  19  21
ATOM     21  C   UNL A   1      29.728  26.987  23.584  1.00  0.00     0.082 A 
ATOM     22  C   UNL A   1      29.461  28.202  22.943  1.00  0.00     0.131 A 
ATOM     23  C   UNL A   1      28.182  28.792  22.970  1.00  0.00     0.047 A 
ATOM     24  C   UNL A   1      27.100  28.096  23.495  1.00  0.00     0.004 A 
ATOM     25  C   UNL A   1      28.603  26.288  24.073  1.00  0.00     0.018 A 
ATOM     26  C   UNL A   1      27.305  26.822  24.010  1.00  0.00     0.001 A 
BRANCH  22  27
ATOM     27  O   UNL A   1      30.364  28.838  22.135  1.00  0.00    -0.496 OA
ATOM     28  C   UNL A   1      29.805  30.091  21.733  1.00  0.00     0.278 C 
ENDBRANCH  22  27
ENDBRANCH  19  21
ENDBRANCH   9  19
BRANCH  17  29
ATOM     29  C   UNL A   1      32.308  20.978  24.085  1.00  0.00     0.299 C 
BRANCH  29  30
ATOM     30  C   UNL A   1      32.901  19.614  23.807  1.00  0.00     0.006 A 
ATOM     31  C   UNL A   1      33.983  19.128  24.549  1.00  0.00     0.009 A 
ATOM     32  C   UNL A   1      32.370  18.797  22.794  1.00  0.00     0.009 A 
ATOM     33  C   UNL A   1      34.465  17.837  24.326  1.00  0.00     0.001 A 
ATOM     34  C   UNL A   1      32.790  17.477  22.638  1.00  0.00     0.001 A 
ATOM     35  C   UNL A   1      33.837  16.994  23.410  1.00  0.00     0.000 A 
ENDBRANCH  29  30
ENDBRANCH  17  29
ENDBRANCH   5   8
ENDBRANCH   3   4
ENDBRANCH   2   3
ENDBRANCH   1   2
BRANCH   1  36
ATOM     36  C   UNL A   1      35.187  32.548  27.797  1.00  0.00     0.002 C 
BRANCH  36  37
ATOM     37  C   UNL A   1      34.585  33.928  28.077  1.00  0.00     0.021 C 
BRANCH  37  38
ATOM     38  C   UNL A   1      33.201  33.936  28.715  1.00  0.00     0.116 C 
BRANCH  38  39
ATOM     39  N   UNL A   1      33.101  34.837  29.849  1.00  0.00    -0.352 N 
ATOM     40  C   UNL A   1      33.844  34.878  31.005  1.00  0.00     0.251 C 
ATOM     41  H   UNL A   1      32.397  35.522  29.780  1.00  0.00     0.163 HD
ATOM     42  O   UNL A   1      33.538  35.644  31.907  1.00  0.00    -0.269 OA
BRANCH  40  43
ATOM     43  C   UNL A   1      34.999  33.968  31.169  1.00  0.00     0.039 A 
ATOM     44  C   UNL A   1      36.258  34.400  30.741  1.00  0.00     0.014 A 
ATOM     45  C   UNL A   1      34.846  32.702  31.737  1.00  0.00     0.014 A 
ATOM     46  C   UNL A   1      37.375  33.587  30.942  1.00  0.00     0.010 A 
ATOM     47  C   UNL A   1      35.970  31.923  32.002  1.00  0.00     0.010 A 
ATOM     48  C   UNL A   1      37.245  32.357  31.606  1.00  0.00    -0.014 A 
BRANCH  48  49
ATOM     49  C   UNL A   1      38.424  31.504  31.901  1.00  0.00     0.031 A 
ATOM     50  C   UNL A   1      39.287  31.806  33.096  1.00  0.00     0.074 A 
ATOM     51  C   UNL A   1      38.765  30.515  31.050  1.00  0.00     0.049 A 
ATOM     52  N   UNL A   1      40.418  31.256  33.456  1.00  0.00    -0.248 NA
ATOM     53  C   UNL A   1      38.832  32.884  33.990  1.00  0.00     0.031 C 
ATOM     54  C   UNL A   1      38.024  30.139  29.843  1.00  0.00     0.029 A 
ATOM     55  N   UNL A   1      39.836  29.655  31.061  1.00  0.00    -0.354 N 
ATOM     56  C   UNL A   1      40.823  31.940  34.596  1.00  0.00     0.074 A 
ATOM     57  C   UNL A   1      39.837  32.965  34.851  1.00  0.00     0.031 C 
ATOM     58  C   UNL A   1      38.653  29.116  29.241  1.00  0.00     0.029 A 
ATOM     59  C   UNL A   1      39.868  28.799  29.985  1.00  0.00     0.049 A 
ATOM     60  H   UNL A   1      40.517  29.652  31.772  1.00  0.00     0.167 HD
ATOM     61  C   UNL A   1      41.916  31.725  35.365  1.00  0.00     0.031 A 
ATOM     62  C   UNL A   1      40.784  27.879  29.626  1.00  0.00     0.031 A 
ATOM     63  C   UNL A   1      42.881  30.686  35.122  1.00  0.00     0.049 A 
ATOM     64  C   UNL A   1      42.002  27.682  30.491  1.00  0.00     0.074 A 
ATOM     65  C   UNL A   1      43.981  30.343  35.889  1.00  0.00     0.029 A 
ATOM     66  N   UNL A   1      42.866  29.832  34.034  1.00  0.00    -0.354 N 
ATOM     67  N   UNL A   1      42.327  28.283  31.610  1.00  0.00    -0.248 NA
ATOM     68  C   UNL A   1      42.975  26.673  30.046  1.00  0.00     0.031 C 
ATOM     69  C   UNL A   1      44.669  29.323  35.230  1.00  0.00     0.029 A 
ATOM     70  C   UNL A   1      43.957  28.983  34.090  1.00  0.00     0.049 A 
ATOM     71  H   UNL A   1      42.182  29.829  33.325  1.00  0.00     0.167 HD
ATOM     72  C   UNL A   1      43.514  27.694  32.024  1.00  0.00     0.074 A 
ATOM     73  C   UNL A   1      43.850  26.685  31.043  1.00  0.00     0.031 C 
ATOM     74  C   UNL A   1      44.260  27.963  33.123  1.00  0.00     0.031 A 
BRANCH  61  75
ATOM     75  C   UNL A   1      42.147  32.633  36.541  1.00  0.00    -0.014 A 
ATOM     76  C   UNL A   1      42.919  33.799  36.424  1.00  0.00     0.009 A 
ATOM     77  C   UNL A   1      41.505  32.361  37.759  1.00  0.00     0.009 A 
ATOM     78  C   UNL A   1      43.057  34.665  37.511  1.00  0.00     0.001 A 
ATOM     79  C   UNL A   1      41.621  33.244  38.834  1.00  0.00     0.001 A 
ATOM     80  C   UNL A   1      42.401  34.392  38.710  1.00  0.00     0.000 A 
ENDBRANCH  61  75
BRANCH  62  81
ATOM     81  C   UNL A   1      40.608  27.075  28.386  1.00  0.00    -0.014 A 
ATOM     82  C   UNL A   1      39.899  25.862  28.415  1.00  0.00     0.009 A 
ATOM     83  C   UNL A   1      41.192  27.487  27.178  1.00  0.00     0.009 A 
ATOM     84  C   UNL A   1      39.822  25.059  27.274  1.00  0.00     0.001 A 
ATOM     85  C   UNL A   1      41.082  26.698  26.029  1.00  0.00     0.001 A 
ATOM     86  C   UNL A   1      40.412  25.478  26.083  1.00  0.00     0.000 A 
ENDBRANCH  62  81
BRANCH  74  87
ATOM     87  C   UNL A   1      45.472  27.111  33.372  1.00  0.00    -0.014 A 
ATOM     88  C   UNL A   1      46.734  27.460  32.869  1.00  0.00     0.009 A 
ATOM     89  C   UNL A   1      45.356  25.978  34.195  1.00  0.00     0.009 A 
ATOM     90  C   UNL A   1      47.852  26.679  33.169  1.00  0.00     0.001 A 
ATOM     91  C   UNL A   1      46.479  25.219  34.518  1.00  0.00     0.001 A 
ATOM     92  C   UNL A   1      47.725  25.566  34.000  1.00  0.00     0.000 A 
ENDBRANCH  74  87
ENDBRANCH  48  49
ENDBRANCH  40  43
ENDBRANCH  38  39
ENDBRANCH  37  38
ENDBRANCH  36  37
ENDBRANCH   1  36
TORSDOF 18
ENDMDL
MODEL 2
REMARK VINA RESULT:     -11.2      1.962      4.091
REMARK SMILES COc1ccccc1C(=O)N1[C@@H](C(=O)NCCCCCCNC(=O)c2ccc(-c3c4nc(c(-c5ccccc5)c5ccc([nH]5)c(-c5ccccc5)c5nc(c(-c6ccccc6)c6ccc3[nH]6)C=C5)C=C4)cc2)COC12CC[NH+](Cc1ccccc1)CC2
REMARK SMILES IDX 18 1 17 2 16 3 15 4 13 5 14 6 12 8 11 9 75 10 73 11 74 12
REMARK SMILES IDX 76 13 87 14 77 15 86 16 78 17 9 19 10 20 8 21 3 22 4 23 5 24
REMARK SMILES IDX 7 25 6 26 2 27 1 28 79 29 80 30 81 31 85 32 82 33 84 34
REMARK SMILES IDX 83 35 19 36 20 37 21 38 22 39 23 40 24 42 25 43 26 44 72 45
REMARK SMILES IDX 27 46 71 47 28 48 29 49 30 50 65 51 31 52 70 53 64 54 66 55
REMARK SMILES IDX 32 56 69 57 63 58 62 59 33 61 55 62 40 63 54 64 41 65 44 66
REMARK SMILES IDX 53 67 67 68 42 69 43 70 52 72 68 73 45 74 34 75 35 76 39 77
REMARK SMILES IDX 36 78 38 79 37 80 56 81 57 82 61 83 58 84 60 85 59 86 46 87
REMARK SMILES IDX 47 88 51 89 48 90 50 91 49 92
REMARK H PARENT 15 7 78 18 22 41 66 60 44 71
REMARK Flexibility Score: inf
ROOT
ATOM      1  C   UNL A   1      31.132  30.398  25.027  1.00  0.00     0.002 C 
ENDROOT
BRANCH   1   2
ATOM      2  C   UNL A   1      30.292  29.853  23.878  1.00  0.00     0.021 C 
BRANCH   2   3
ATOM      3  C   UNL A   1      30.171  28.340  23.807  1.00  0.00     0.116 C 
BRANCH   3   4
ATOM      4  N   UNL A   1      30.805  27.714  22.669  1.00  0.00    -0.354 N 
ATOM      5  C   UNL A   1      31.332  26.450  22.573  1.00  0.00     0.245 C 
ATOM      6  O   UNL A   1      31.589  26.054  21.429  1.00  0.00    -0.273 OA
ATOM      7  H   UNL A   1      30.867  28.265  21.857  1.00  0.00     0.163 HD
BRANCH   5   8
ATOM      8  C   UNL A   1      31.562  25.520  23.793  1.00  0.00     0.203 C 
ATOM      9  N   UNL A   1      32.683  24.583  23.684  1.00  0.00    -0.295 N 
ATOM     10  C   UNL A   1      32.164  23.202  23.768  1.00  0.00     0.155 C 
ATOM     11  C   UNL A   1      30.373  24.648  24.101  1.00  0.00     0.198 C 
ATOM     12  O   UNL A   1      30.734  23.359  23.555  1.00  0.00    -0.352 OA
ATOM     13  C   UNL A   1      32.753  22.278  22.701  1.00  0.00     0.120 C 
ATOM     14  C   UNL A   1      32.234  22.536  25.151  1.00  0.00     0.120 C 
ATOM     15  C   UNL A   1      32.209  20.862  22.742  1.00  0.00     0.267 C 
ATOM     16  C   UNL A   1      31.715  21.079  25.089  1.00  0.00     0.267 C 
ATOM     17  N   UNL A   1      32.321  20.246  24.056  1.00  0.00    -0.331 N 
ATOM     18  H   UNL A   1      31.742  19.406  24.033  1.00  0.00     0.348 HD
BRANCH   9  19
ATOM     19  C   UNL A   1      33.932  25.020  24.136  1.00  0.00     0.260 C 
ATOM     20  O   UNL A   1      34.137  26.231  24.266  1.00  0.00    -0.269 OA
BRANCH  19  21
ATOM     21  C   UNL A   1      35.105  24.108  24.397  1.00  0.00     0.082 A 
ATOM     22  C   UNL A   1      35.525  23.607  25.635  1.00  0.00     0.131 A 
ATOM     23  C   UNL A   1      36.655  22.775  25.756  1.00  0.00     0.047 A 
ATOM     24  C   UNL A   1      37.290  22.287  24.621  1.00  0.00     0.004 A 
ATOM     25  C   UNL A   1      35.746  23.563  23.262  1.00  0.00     0.018 A 
ATOM     26  C   UNL A   1      36.807  22.649  23.369  1.00  0.00     0.001 A 
BRANCH  22  27
ATOM     27  O   UNL A   1      34.809  23.766  26.789  1.00  0.00    -0.496 OA
ATOM     28  C   UNL A   1      34.749  22.504  27.459  1.00  0.00     0.278 C 
ENDBRANCH  22  27
ENDBRANCH  19  21
ENDBRANCH   9  19
BRANCH  17  29
ATOM     29  C   UNL A   1      33.598  19.583  24.363  1.00  0.00     0.299 C 
BRANCH  29  30
ATOM     30  C   UNL A   1      33.585  18.100  24.663  1.00  0.00     0.006 A 
ATOM     31  C   UNL A   1      34.704  17.299  24.414  1.00  0.00     0.009 A 
ATOM     32  C   UNL A   1      32.440  17.491  25.206  1.00  0.00     0.009 A 
ATOM     33  C   UNL A   1      34.696  15.948  24.767  1.00  0.00     0.001 A 
ATOM     34  C   UNL A   1      32.467  16.168  25.645  1.00  0.00     0.001 A 
ATOM     35  C   UNL A   1      33.601  15.396  25.430  1.00  0.00     0.000 A 
ENDBRANCH  29  30
ENDBRANCH  17  29
ENDBRANCH   5   8
ENDBRANCH   3   4
ENDBRANCH   2   3
ENDBRANCH   1   2
BRANCH   1  36
ATOM     36  C   UNL A   1      32.488  29.725  25.263  1.00  0.00     0.002 C 
BRANCH  36  37
ATOM     37  C   UNL A   1      32.815  29.295  26.696  1.00  0.00     0.021 C 
BRANCH  37  38
ATOM     38  C   UNL A   1      34.077  29.896  27.303  1.00  0.00     0.116 C 
BRANCH  38  39
ATOM     39  N   UNL A   1      33.877  31.237  27.822  1.00  0.00    -0.352 N 
ATOM     40  C   UNL A   1      34.613  31.938  28.748  1.00  0.00     0.251 C 
ATOM     41  H   UNL A   1      33.098  31.717  27.457  1.00  0.00     0.163 HD
ATOM     42  O   UNL A   1      34.224  33.025  29.150  1.00  0.00    -0.269 OA
BRANCH  40  43
ATOM     43  C   UNL A   1      35.866  31.359  29.281  1.00  0.00     0.039 A 
ATOM     44  C   UNL A   1      35.782  30.390  30.285  1.00  0.00     0.014 A 
ATOM     45  C   UNL A   1      37.112  31.766  28.800  1.00  0.00     0.014 A 
ATOM     46  C   UNL A   1      36.946  29.781  30.761  1.00  0.00     0.010 A 
ATOM     47  C   UNL A   1      38.264  31.109  29.223  1.00  0.00     0.010 A 
ATOM     48  C   UNL A   1      38.193  30.112  30.208  1.00  0.00    -0.014 A 
BRANCH  48  49
ATOM     49  C   UNL A   1      39.439  29.430  30.639  1.00  0.00     0.031 A 
ATOM     50  C   UNL A   1      40.182  29.923  31.852  1.00  0.00     0.074 A 
ATOM     51  C   UNL A   1      39.945  28.425  29.895  1.00  0.00     0.049 A 
ATOM     52  N   UNL A   1      41.342  29.540  32.320  1.00  0.00    -0.248 NA
ATOM     53  C   UNL A   1      39.551  31.005  32.625  1.00  0.00     0.031 C 
ATOM     54  C   UNL A   1      39.333  27.872  28.684  1.00  0.00     0.029 A 
ATOM     55  N   UNL A   1      41.105  27.702  30.038  1.00  0.00    -0.354 N 
ATOM     56  C   UNL A   1      41.592  30.353  33.419  1.00  0.00     0.074 A 
ATOM     57  C   UNL A   1      40.481  31.270  33.531  1.00  0.00     0.031 C 
ATOM     58  C   UNL A   1      40.113  26.889  28.207  1.00  0.00     0.029 A 
ATOM     59  C   UNL A   1      41.304  26.776  29.041  1.00  0.00     0.049 A 
ATOM     60  H   UNL A   1      41.733  27.834  30.784  1.00  0.00     0.167 HD
ATOM     61  C   UNL A   1      42.649  30.328  34.263  1.00  0.00     0.031 A 
ATOM     62  C   UNL A   1      42.340  25.945  28.813  1.00  0.00     0.031 A 
ATOM     63  C   UNL A   1      43.740  29.396  34.164  1.00  0.00     0.049 A 
ATOM     64  C   UNL A   1      43.513  25.962  29.758  1.00  0.00     0.074 A 
ATOM     65  C   UNL A   1      44.819  29.245  35.017  1.00  0.00     0.029 A 
ATOM     66  N   UNL A   1      43.893  28.464  33.151  1.00  0.00    -0.354 N 
ATOM     67  N   UNL A   1      43.694  26.681  30.839  1.00  0.00    -0.248 NA
ATOM     68  C   UNL A   1      44.622  25.044  29.456  1.00  0.00     0.031 C 
ATOM     69  C   UNL A   1      45.660  28.266  34.485  1.00  0.00     0.029 A 
ATOM     70  C   UNL A   1      45.068  27.757  33.340  1.00  0.00     0.049 A 
ATOM     71  H   UNL A   1      43.262  28.326  32.408  1.00  0.00     0.167 HD
ATOM     72  C   UNL A   1      44.910  26.270  31.368  1.00  0.00     0.074 A 
ATOM     73  C   UNL A   1      45.422  25.236  30.496  1.00  0.00     0.031 C 
ATOM     74  C   UNL A   1      45.547  26.709  32.480  1.00  0.00     0.031 A 
BRANCH  61  75
ATOM     75  C   UNL A   1      42.698  31.345  35.370  1.00  0.00    -0.014 A 
ATOM     76  C   UNL A   1      42.143  31.080  36.632  1.00  0.00     0.009 A 
ATOM     77  C   UNL A   1      43.391  32.549  35.171  1.00  0.00     0.009 A 
ATOM     78  C   UNL A   1      42.267  32.011  37.665  1.00  0.00     0.001 A 
ATOM     79  C   UNL A   1      43.538  33.464  36.215  1.00  0.00     0.001 A 
ATOM     80  C   UNL A   1      42.971  33.196  37.459  1.00  0.00     0.000 A 
ENDBRANCH  61  75
BRANCH  62  81
ATOM     81  C   UNL A   1      42.338  25.034  27.638  1.00  0.00    -0.014 A 
ATOM     82  C   UNL A   1      41.758  23.757  27.724  1.00  0.00     0.009 A 
ATOM     83  C   UNL A   1      42.963  25.412  26.438  1.00  0.00     0.009 A 
ATOM     84  C   UNL A   1      41.847  22.863  26.653  1.00  0.00     0.001 A 
ATOM     85  C   UNL A   1      43.018  24.529  25.356  1.00  0.00     0.001 A 
ATOM     86  C   UNL A   1      42.475  23.251  25.471  1.00  0.00     0.000 A 
ENDBRANCH  62  81
BRANCH  74  87
ATOM     87  C   UNL A   1      46.829  26.029  32.868  1.00  0.00    -0.014 A 
ATOM     88  C   UNL A   1      46.847  24.943  33.756  1.00  0.00     0.009 A 
ATOM     89  C   UNL A   1      48.031  26.437  32.266  1.00  0.00     0.009 A 
ATOM     90  C   UNL A   1      48.048  24.294  34.050  1.00  0.00     0.001 A 
ATOM     91  C   UNL A   1      49.223  25.767  32.536  1.00  0.00     0.001 A 
ATOM     92  C   UNL A   1      49.232  24.700  33.433  1.00  0.00     0.000 A 
ENDBRANCH  74  87
ENDBRANCH  48  49
ENDBRANCH  40  43
ENDBRANCH  38  39
ENDBRANCH  37  38
ENDBRANCH  36  37
ENDBRANCH   1  36
TORSDOF 18
ENDMDL
MODEL 3
REMARK VINA RESULT:     -11.0      7.176     11.289
REMARK SMILES COc1ccccc1C(=O)N1[C@@H](C(=O)NCCCCCCNC(=O)c2ccc(-c3c4nc(c(-c5ccccc5)c5ccc([nH]5)c(-c5ccccc5)c5nc(c(-c6ccccc6)c6ccc3[nH]6)C=C5)C=C4)cc2)COC12CC[NH+](Cc1ccccc1)CC2
REMARK SMILES IDX 18 1 17 2 16 3 15 4 13 5 14 6 12 8 11 9 75 10 73 11 74 12
REMARK SMILES IDX 76 13 87 14 77 15 86 16 78 17 9 19 10 20 8 21 3 22 4 23 5 24
REMARK SMILES IDX 7 25 6 26 2 27 1 28 79 29 80 30 81 31 85 32 82 33 84 34
REMARK SMILES IDX 83 35 19 36 20 37 21 38 22 39 23 40 24 42 25 43 26 44 72 45
REMARK SMILES IDX 27 46 71 47 28 48 29 49 30 50 65 51 31 52 70 53 64 54 66 55
REMARK SMILES IDX 32 56 69 57 63 58 62 59 33 61 55 62 40 63 54 64 41 65 44 66
REMARK SMILES IDX 53 67 67 68 42 69 43 70 52 72 68 73 45 74 34 75 35 76 39 77
REMARK SMILES IDX 36 78 38 79 37 80 56 81 57 82 61 83 58 84 60 85 59 86 46 87
REMARK SMILES IDX 47 88 51 89 48 90 50 91 49 92
REMARK H PARENT 15 7 78 18 22 41 66 60 44 71
REMARK Flexibility Score: inf
ROOT
ATOM      1  C   UNL A   1      39.857  22.334  26.507  1.00  0.00     0.002 C 
ENDROOT
BRANCH   1   2
ATOM      2  C   UNL A   1      38.431  22.815  26.263  1.00  0.00     0.021 C 
BRANCH   2   3
ATOM      3  C   UNL A   1      37.495  21.809  25.615  1.00  0.00     0.116 C 
BRANCH   3   4
ATOM      4  N   UNL A   1      37.233  22.014  24.209  1.00  0.00    -0.354 N 
ATOM      5  C   UNL A   1      36.196  22.696  23.623  1.00  0.00     0.245 C 
ATOM      6  O   UNL A   1      36.323  22.950  22.419  1.00  0.00    -0.273 OA
ATOM      7  H   UNL A   1      37.884  21.612  23.589  1.00  0.00     0.163 HD
BRANCH   5   8
ATOM      8  C   UNL A   1      34.942  23.183  24.397  1.00  0.00     0.203 C 
ATOM      9  N   UNL A   1      33.762  23.485  23.584  1.00  0.00    -0.295 N 
ATOM     10  C   UNL A   1      33.412  24.909  23.757  1.00  0.00     0.155 C 
ATOM     11  C   UNL A   1      35.188  24.443  25.183  1.00  0.00     0.198 C 
ATOM     12  O   UNL A   1      34.599  25.483  24.371  1.00  0.00    -0.352 OA
ATOM     13  C   UNL A   1      33.113  25.616  22.434  1.00  0.00     0.120 C 
ATOM     14  C   UNL A   1      32.313  25.215  24.786  1.00  0.00     0.120 C 
ATOM     15  C   UNL A   1      32.786  27.090  22.581  1.00  0.00     0.267 C 
ATOM     16  C   UNL A   1      32.001  26.730  24.829  1.00  0.00     0.267 C 
ATOM     17  N   UNL A   1      31.717  27.344  23.536  1.00  0.00    -0.331 N 
ATOM     18  H   UNL A   1      31.727  28.348  23.722  1.00  0.00     0.348 HD
BRANCH   9  19
ATOM     19  C   UNL A   1      32.863  22.441  23.342  1.00  0.00     0.260 C 
ATOM     20  O   UNL A   1      31.941  22.612  22.538  1.00  0.00    -0.269 OA
BRANCH  19  21
ATOM     21  C   UNL A   1      32.880  21.123  24.074  1.00  0.00     0.082 A 
ATOM     22  C   UNL A   1      32.841  20.927  25.460  1.00  0.00     0.131 A 
ATOM     23  C   UNL A   1      32.883  19.641  26.031  1.00  0.00     0.047 A 
ATOM     24  C   UNL A   1      32.791  18.513  25.225  1.00  0.00     0.004 A 
ATOM     25  C   UNL A   1      32.748  19.959  23.284  1.00  0.00     0.018 A 
ATOM     26  C   UNL A   1      32.681  18.675  23.849  1.00  0.00     0.001 A 
BRANCH  22  27
ATOM     27  O   UNL A   1      32.624  21.940  26.354  1.00  0.00    -0.496 OA
ATOM     28  C   UNL A   1      33.540  21.785  27.441  1.00  0.00     0.278 C 
ENDBRANCH  22  27
ENDBRANCH  19  21
ENDBRANCH   9  19
BRANCH  17  29
ATOM     29  C   UNL A   1      30.342  27.264  23.020  1.00  0.00     0.299 C 
BRANCH  29  30
ATOM     30  C   UNL A   1      29.437  28.465  23.193  1.00  0.00     0.006 A 
ATOM     31  C   UNL A   1      29.960  29.735  23.459  1.00  0.00     0.009 A 
ATOM     32  C   UNL A   1      28.042  28.330  23.084  1.00  0.00     0.009 A 
ATOM     33  C   UNL A   1      29.112  30.841  23.540  1.00  0.00     0.001 A 
ATOM     34  C   UNL A   1      27.209  29.448  23.070  1.00  0.00     0.001 A 
ATOM     35  C   UNL A   1      27.747  30.708  23.294  1.00  0.00     0.000 A 
ENDBRANCH  29  30
ENDBRANCH  17  29
ENDBRANCH   5   8
ENDBRANCH   3   4
ENDBRANCH   2   3
ENDBRANCH   1   2
BRANCH   1  36
ATOM     36  C   UNL A   1      40.956  23.402  26.465  1.00  0.00     0.002 C 
BRANCH  36  37
ATOM     37  C   UNL A   1      41.146  24.257  27.721  1.00  0.00     0.021 C 
BRANCH  37  38
ATOM     38  C   UNL A   1      42.564  24.318  28.278  1.00  0.00     0.116 C 
BRANCH  38  39
ATOM     39  N   UNL A   1      43.425  23.270  27.762  1.00  0.00    -0.352 N 
ATOM     40  C   UNL A   1      44.652  23.364  27.149  1.00  0.00     0.251 C 
ATOM     41  H   UNL A   1      43.080  22.353  27.867  1.00  0.00     0.163 HD
ATOM     42  O   UNL A   1      45.183  22.371  26.675  1.00  0.00    -0.269 OA
BRANCH  40  43
ATOM     43  C   UNL A   1      45.317  24.681  27.038  1.00  0.00     0.039 A 
ATOM     44  C   UNL A   1      45.958  25.206  28.164  1.00  0.00     0.014 A 
ATOM     45  C   UNL A   1      45.310  25.394  25.837  1.00  0.00     0.014 A 
ATOM     46  C   UNL A   1      46.648  26.416  28.068  1.00  0.00     0.010 A 
ATOM     47  C   UNL A   1      46.057  26.564  25.724  1.00  0.00     0.010 A 
ATOM     48  C   UNL A   1      46.732  27.087  26.838  1.00  0.00    -0.014 A 
BRANCH  48  49
ATOM     49  C   UNL A   1      47.520  28.337  26.687  1.00  0.00     0.031 A 
ATOM     50  C   UNL A   1      46.821  29.670  26.704  1.00  0.00     0.074 A 
ATOM     51  C   UNL A   1      48.846  28.268  26.450  1.00  0.00     0.049 A 
ATOM     52  N   UNL A   1      47.311  30.860  26.473  1.00  0.00    -0.248 NA
ATOM     53  C   UNL A   1      45.377  29.661  26.995  1.00  0.00     0.031 C 
ATOM     54  C   UNL A   1      49.635  27.036  26.385  1.00  0.00     0.029 A 
ATOM     55  N   UNL A   1      49.762  29.261  26.200  1.00  0.00    -0.354 N 
ATOM     56  C   UNL A   1      46.234  31.734  26.559  1.00  0.00     0.074 A 
ATOM     57  C   UNL A   1      45.060  30.938  26.831  1.00  0.00     0.031 C 
ATOM     58  C   UNL A   1      50.916  27.347  26.130  1.00  0.00     0.029 A 
ATOM     59  C   UNL A   1      51.032  28.792  25.960  1.00  0.00     0.049 A 
ATOM     60  H   UNL A   1      49.531  30.218  26.195  1.00  0.00     0.167 HD
ATOM     61  C   UNL A   1      46.229  33.082  26.430  1.00  0.00     0.031 A 
ATOM     62  C   UNL A   1      52.157  29.449  25.619  1.00  0.00     0.031 A 
ATOM     63  C   UNL A   1      47.404  33.873  26.185  1.00  0.00     0.049 A 
ATOM     64  C   UNL A   1      52.111  30.946  25.459  1.00  0.00     0.074 A 
ATOM     65  C   UNL A   1      47.509  35.251  26.115  1.00  0.00     0.029 A 
ATOM     66  N   UNL A   1      48.671  33.360  25.966  1.00  0.00    -0.354 N 
ATOM     67  N   UNL A   1      51.100  31.764  25.625  1.00  0.00    -0.248 NA
ATOM     68  C   UNL A   1      53.365  31.611  25.074  1.00  0.00     0.031 C 
ATOM     69  C   UNL A   1      48.829  35.570  25.787  1.00  0.00     0.029 A 
ATOM     70  C   UNL A   1      49.559  34.394  25.727  1.00  0.00     0.049 A 
ATOM     71  H   UNL A   1      48.905  32.404  25.978  1.00  0.00     0.167 HD
ATOM     72  C   UNL A   1      51.606  33.039  25.410  1.00  0.00     0.074 A 
ATOM     73  C   UNL A   1      53.013  32.890  25.109  1.00  0.00     0.031 C 
ATOM     74  C   UNL A   1      50.963  34.230  25.460  1.00  0.00     0.031 A 
BRANCH  61  75
ATOM     75  C   UNL A   1      44.912  33.800  26.538  1.00  0.00    -0.014 A 
ATOM     76  C   UNL A   1      44.453  34.306  27.765  1.00  0.00     0.009 A 
ATOM     77  C   UNL A   1      44.167  34.053  25.377  1.00  0.00     0.009 A 
ATOM     78  C   UNL A   1      43.263  35.034  27.826  1.00  0.00     0.001 A 
ATOM     79  C   UNL A   1      42.993  34.806  25.436  1.00  0.00     0.001 A 
ATOM     80  C   UNL A   1      42.540  35.291  26.661  1.00  0.00     0.000 A 
ENDBRANCH  61  75
BRANCH  62  81
ATOM     81  C   UNL A   1      53.428  28.710  25.386  1.00  0.00    -0.014 A 
ATOM     82  C   UNL A   1      54.363  28.553  26.423  1.00  0.00     0.009 A 
ATOM     83  C   UNL A   1      53.739  28.204  24.114  1.00  0.00     0.009 A 
ATOM     84  C   UNL A   1      55.599  27.949  26.178  1.00  0.00     0.001 A 
ATOM     85  C   UNL A   1      54.961  27.568  23.881  1.00  0.00     0.001 A 
ATOM     86  C   UNL A   1      55.896  27.456  24.908  1.00  0.00     0.000 A 
ENDBRANCH  62  81
BRANCH  74  87
ATOM     87  C   UNL A   1      51.778  35.476  25.260  1.00  0.00    -0.014 A 
ATOM     88  C   UNL A   1      52.057  35.976  23.979  1.00  0.00     0.009 A 
ATOM     89  C   UNL A   1      52.206  36.203  26.383  1.00  0.00     0.009 A 
ATOM     90  C   UNL A   1      52.767  37.168  23.829  1.00  0.00     0.001 A 
ATOM     91  C   UNL A   1      52.886  37.410  26.230  1.00  0.00     0.001 A 
ATOM     92  C   UNL A   1      53.173  37.889  24.953  1.00  0.00     0.000 A 
ENDBRANCH  74  87
ENDBRANCH  48  49
ENDBRANCH  40  43
ENDBRANCH  38  39
ENDBRANCH  37  38
ENDBRANCH  36  37
ENDBRANCH   1  36
TORSDOF 18
ENDMDL
