MODEL 1
REMARK VINA RESULT:     -10.6      0.000      0.000
REMARK SMILES CCCc1cc(OCC(=O)NCCCCCCNC(=O)c2ccc(-c3c4nc(c(-c5ccccc5)c5ccc([nH]5)c(-c5ccccc5)c5nc(c(-c6ccccc6)c6ccc3[nH]6)C=C5)C=C4)cc2)nc(Nc2ccc(C#N)cc2)n1
REMARK SMILES IDX 13 1 12 2 11 3 9 4 10 5 8 7 7 8 6 9 4 10 5 11 80 12 70 13
REMARK SMILES IDX 69 14 3 15 2 16 1 17 71 18 72 20 73 21 79 22 74 23 78 24
REMARK SMILES IDX 75 25 76 26 77 27 14 28 15 29 16 30 17 31 18 32 19 33 20 35
REMARK SMILES IDX 21 36 22 37 68 38 23 39 67 40 24 41 25 42 26 43 61 44 27 45
REMARK SMILES IDX 66 46 60 47 62 48 28 49 65 50 59 51 58 52 29 54 51 55 36 56
REMARK SMILES IDX 50 57 37 58 40 59 49 60 63 61 38 62 39 63 48 65 64 66 41 67
REMARK SMILES IDX 30 68 31 69 35 70 32 71 34 72 33 73 52 74 53 75 57 76 54 77
REMARK SMILES IDX 56 78 55 79 42 80 43 81 47 82 44 83 46 84 45 85
REMARK H PARENT 11 6 71 19 18 34 62 53 40 64
REMARK Flexibility Score: inf
ROOT
ATOM      1  C   UNL A   1      34.628  23.866  23.404  1.00  0.00     0.021 C 
ENDROOT
BRANCH   1   2
ATOM      2  C   UNL A   1      33.259  23.513  22.826  1.00  0.00     0.116 C 
BRANCH   2   3
ATOM      3  N   UNL A   1      33.071  24.065  21.501  1.00  0.00    -0.353 N 
ATOM      4  C   UNL A   1      32.878  25.367  21.151  1.00  0.00     0.258 C 
ATOM      5  O   UNL A   1      32.804  25.656  19.955  1.00  0.00    -0.271 OA
ATOM      6  H   UNL A   1      33.084  23.418  20.760  1.00  0.00     0.163 HD
BRANCH   4   7
ATOM      7  C   UNL A   1      32.781  26.452  22.237  1.00  0.00     0.331 C 
BRANCH   7   8
ATOM      8  O   UNL A   1      31.553  26.624  22.926  1.00  0.00    -0.467 OA
BRANCH   8   9
ATOM      9  C   UNL A   1      31.576  26.645  24.293  1.00  0.00     0.218 A 
ATOM     10  C   UNL A   1      31.592  27.648  26.408  1.00  0.00     0.050 A 
ATOM     11  C   UNL A   1      31.791  27.770  25.053  1.00  0.00     0.092 A 
ATOM     12  N   UNL A   1      31.327  26.455  26.965  1.00  0.00    -0.218 NA
ATOM     13  C   UNL A   1      31.256  25.375  26.171  1.00  0.00     0.230 A 
ATOM     14  N   UNL A   1      31.344  25.437  24.837  1.00  0.00    -0.177 NA
BRANCH  10  15
ATOM     15  C   UNL A   1      31.668  28.809  27.369  1.00  0.00     0.056 C 
BRANCH  15  16
ATOM     16  C   UNL A   1      31.947  30.198  26.781  1.00  0.00     0.003 C 
ATOM     17  C   UNL A   1      33.331  30.735  27.125  1.00  0.00     0.004 C 
ENDBRANCH  15  16
ENDBRANCH  10  15
BRANCH  13  18
ATOM     18  N   UNL A   1      31.183  24.107  26.747  1.00  0.00    -0.324 N 
ATOM     19  H   UNL A   1      30.549  24.011  27.494  1.00  0.00     0.170 HD
BRANCH  18  20
ATOM     20  C   UNL A   1      31.897  22.956  26.400  1.00  0.00     0.041 A 
ATOM     21  C   UNL A   1      31.313  21.995  25.566  1.00  0.00     0.027 A 
ATOM     22  C   UNL A   1      33.243  22.794  26.758  1.00  0.00     0.027 A 
ATOM     23  C   UNL A   1      32.058  20.904  25.097  1.00  0.00     0.021 A 
ATOM     24  C   UNL A   1      33.986  21.697  26.313  1.00  0.00     0.021 A 
ATOM     25  C   UNL A   1      33.395  20.753  25.471  1.00  0.00     0.052 A 
BRANCH  25  26
ATOM     26  C   UNL A   1      34.168  19.651  24.979  1.00  0.00     0.099 C 
ATOM     27  N   UNL A   1      34.793  18.755  24.582  1.00  0.00    -0.192 NA
ENDBRANCH  25  26
ENDBRANCH  18  20
ENDBRANCH  13  18
ENDBRANCH   8   9
ENDBRANCH   7   8
ENDBRANCH   4   7
ENDBRANCH   2   3
ENDBRANCH   1   2
BRANCH   1  28
ATOM     28  C   UNL A   1      35.718  22.812  23.161  1.00  0.00     0.002 C 
BRANCH  28  29
ATOM     29  C   UNL A   1      36.819  22.746  24.226  1.00  0.00     0.002 C 
BRANCH  29  30
ATOM     30  C   UNL A   1      37.423  21.359  24.455  1.00  0.00     0.021 C 
BRANCH  30  31
ATOM     31  C   UNL A   1      38.243  21.225  25.735  1.00  0.00     0.116 C 
BRANCH  31  32
ATOM     32  N   UNL A   1      39.124  20.068  25.706  1.00  0.00    -0.352 N 
ATOM     33  C   UNL A   1      40.467  19.981  25.981  1.00  0.00     0.251 C 
ATOM     34  H   UNL A   1      38.695  19.221  25.449  1.00  0.00     0.163 HD
ATOM     35  O   UNL A   1      41.089  18.959  25.712  1.00  0.00    -0.269 OA
BRANCH  33  36
ATOM     36  C   UNL A   1      41.174  21.137  26.573  1.00  0.00     0.039 A 
ATOM     37  C   UNL A   1      41.806  22.048  25.723  1.00  0.00     0.014 A 
ATOM     38  C   UNL A   1      41.196  21.333  27.957  1.00  0.00     0.014 A 
ATOM     39  C   UNL A   1      42.379  23.205  26.255  1.00  0.00     0.010 A 
ATOM     40  C   UNL A   1      41.703  22.521  28.478  1.00  0.00     0.010 A 
ATOM     41  C   UNL A   1      42.279  23.478  27.629  1.00  0.00    -0.014 A 
BRANCH  41  42
ATOM     42  C   UNL A   1      42.698  24.791  28.183  1.00  0.00     0.031 A 
ATOM     43  C   UNL A   1      41.690  25.867  28.461  1.00  0.00     0.074 A 
ATOM     44  C   UNL A   1      44.013  25.039  28.353  1.00  0.00     0.049 A 
ATOM     45  N   UNL A   1      41.889  27.097  28.864  1.00  0.00    -0.248 NA
ATOM     46  C   UNL A   1      40.277  25.526  28.238  1.00  0.00     0.031 C 
ATOM     47  C   UNL A   1      45.094  24.087  28.089  1.00  0.00     0.029 A 
ATOM     48  N   UNL A   1      44.664  26.171  28.774  1.00  0.00    -0.354 N 
ATOM     49  C   UNL A   1      40.630  27.680  28.931  1.00  0.00     0.074 A 
ATOM     50  C   UNL A   1      39.680  26.682  28.487  1.00  0.00     0.031 C 
ATOM     51  C   UNL A   1      46.270  24.667  28.372  1.00  0.00     0.029 A 
ATOM     52  C   UNL A   1      46.032  26.048  28.779  1.00  0.00     0.049 A 
ATOM     53  H   UNL A   1      44.196  26.993  29.048  1.00  0.00     0.167 HD
ATOM     54  C   UNL A   1      40.297  28.931  29.334  1.00  0.00     0.031 A 
ATOM     55  C   UNL A   1      46.996  26.949  29.050  1.00  0.00     0.031 A 
ATOM     56  C   UNL A   1      41.249  29.925  29.759  1.00  0.00     0.049 A 
ATOM     57  C   UNL A   1      46.603  28.347  29.439  1.00  0.00     0.074 A 
ATOM     58  C   UNL A   1      41.005  31.199  30.241  1.00  0.00     0.029 A 
ATOM     59  N   UNL A   1      42.627  29.765  29.734  1.00  0.00    -0.354 N 
ATOM     60  N   UNL A   1      45.403  28.857  29.583  1.00  0.00    -0.248 NA
ATOM     61  C   UNL A   1      47.695  29.293  29.705  1.00  0.00     0.031 C 
ATOM     62  C   UNL A   1      42.233  31.840  30.425  1.00  0.00     0.029 A 
ATOM     63  C   UNL A   1      43.245  30.938  30.138  1.00  0.00     0.049 A 
ATOM     64  H   UNL A   1      43.095  28.940  29.470  1.00  0.00     0.167 HD
ATOM     65  C   UNL A   1      45.597  30.177  29.968  1.00  0.00     0.074 A 
ATOM     66  C   UNL A   1      47.028  30.380  30.065  1.00  0.00     0.031 C 
ATOM     67  C   UNL A   1      44.671  31.135  30.213  1.00  0.00     0.031 A 
BRANCH  54  68
ATOM     68  C   UNL A   1      38.841  29.311  29.296  1.00  0.00    -0.014 A 
ATOM     69  C   UNL A   1      37.996  29.099  30.397  1.00  0.00     0.009 A 
ATOM     70  C   UNL A   1      38.316  29.931  28.151  1.00  0.00     0.009 A 
ATOM     71  C   UNL A   1      36.648  29.461  30.335  1.00  0.00     0.001 A 
ATOM     72  C   UNL A   1      36.977  30.326  28.105  1.00  0.00     0.001 A 
ATOM     73  C   UNL A   1      36.141  30.079  29.193  1.00  0.00     0.000 A 
ENDBRANCH  54  68
BRANCH  55  74
ATOM     74  C   UNL A   1      48.427  26.563  28.933  1.00  0.00    -0.014 A 
ATOM     75  C   UNL A   1      49.086  25.917  29.990  1.00  0.00     0.009 A 
ATOM     76  C   UNL A   1      49.143  26.836  27.756  1.00  0.00     0.009 A 
ATOM     77  C   UNL A   1      50.436  25.574  29.877  1.00  0.00     0.001 A 
ATOM     78  C   UNL A   1      50.482  26.459  27.633  1.00  0.00     0.001 A 
ATOM     79  C   UNL A   1      51.130  25.838  28.697  1.00  0.00     0.000 A 
ENDBRANCH  55  74
BRANCH  67  80
ATOM     80  C   UNL A   1      45.174  32.495  30.617  1.00  0.00    -0.014 A 
ATOM     81  C   UNL A   1      45.427  32.807  31.964  1.00  0.00     0.009 A 
ATOM     82  C   UNL A   1      45.451  33.459  29.636  1.00  0.00     0.009 A 
ATOM     83  C   UNL A   1      45.916  34.065  32.318  1.00  0.00     0.001 A 
ATOM     84  C   UNL A   1      45.973  34.704  29.990  1.00  0.00     0.001 A 
ATOM     85  C   UNL A   1      46.197  35.009  31.330  1.00  0.00     0.000 A 
ENDBRANCH  67  80
ENDBRANCH  41  42
ENDBRANCH  33  36
ENDBRANCH  31  32
ENDBRANCH  30  31
ENDBRANCH  29  30
ENDBRANCH  28  29
ENDBRANCH   1  28
TORSDOF 20
ENDMDL
MODEL 2
REMARK VINA RESULT:     -10.2      2.579      6.917
REMARK SMILES CCCc1cc(OCC(=O)NCCCCCCNC(=O)c2ccc(-c3c4nc(c(-c5ccccc5)c5ccc([nH]5)c(-c5ccccc5)c5nc(c(-c6ccccc6)c6ccc3[nH]6)C=C5)C=C4)cc2)nc(Nc2ccc(C#N)cc2)n1
REMARK SMILES IDX 13 1 12 2 11 3 9 4 10 5 8 7 7 8 6 9 4 10 5 11 80 12 70 13
REMARK SMILES IDX 69 14 3 15 2 16 1 17 71 18 72 20 73 21 79 22 74 23 78 24
REMARK SMILES IDX 75 25 76 26 77 27 14 28 15 29 16 30 17 31 18 32 19 33 20 35
REMARK SMILES IDX 21 36 22 37 68 38 23 39 67 40 24 41 25 42 26 43 61 44 27 45
REMARK SMILES IDX 66 46 60 47 62 48 28 49 65 50 59 51 58 52 29 54 51 55 36 56
REMARK SMILES IDX 50 57 37 58 40 59 49 60 63 61 38 62 39 63 48 65 64 66 41 67
REMARK SMILES IDX 30 68 31 69 35 70 32 71 34 72 33 73 52 74 53 75 57 76 54 77
REMARK SMILES IDX 56 78 55 79 42 80 43 81 47 82 44 83 46 84 45 85
REMARK H PARENT 11 6 71 19 18 34 62 53 40 64
REMARK Flexibility Score: inf
ROOT
ATOM      1  C   UNL A   1      39.711  23.506  26.947  1.00  0.00     0.021 C 
ENDROOT
BRANCH   1   2
ATOM      2  C   UNL A   1      38.360  23.455  26.236  1.00  0.00     0.116 C 
BRANCH   2   3
ATOM      3  N   UNL A   1      37.891  22.097  26.058  1.00  0.00    -0.353 N 
ATOM      4  C   UNL A   1      37.174  21.583  25.019  1.00  0.00     0.258 C 
ATOM      5  O   UNL A   1      36.923  20.376  25.011  1.00  0.00    -0.271 OA
ATOM      6  H   UNL A   1      38.118  21.466  26.778  1.00  0.00     0.163 HD
BRANCH   4   7
ATOM      7  C   UNL A   1      36.716  22.497  23.871  1.00  0.00     0.331 C 
BRANCH   7   8
ATOM      8  O   UNL A   1      35.847  23.580  24.162  1.00  0.00    -0.467 OA
BRANCH   8   9
ATOM      9  C   UNL A   1      34.568  23.297  24.552  1.00  0.00     0.218 A 
ATOM     10  C   UNL A   1      32.525  23.710  25.618  1.00  0.00     0.050 A 
ATOM     11  C   UNL A   1      33.860  24.015  25.485  1.00  0.00     0.092 A 
ATOM     12  N   UNL A   1      31.983  22.674  24.957  1.00  0.00    -0.218 NA
ATOM     13  C   UNL A   1      32.769  21.938  24.156  1.00  0.00     0.230 A 
ATOM     14  N   UNL A   1      34.050  22.237  23.907  1.00  0.00    -0.177 NA
BRANCH  10  15
ATOM     15  C   UNL A   1      31.580  24.478  26.507  1.00  0.00     0.056 C 
BRANCH  15  16
ATOM     16  C   UNL A   1      31.184  25.893  26.067  1.00  0.00     0.003 C 
ATOM     17  C   UNL A   1      29.890  25.939  25.264  1.00  0.00     0.004 C 
ENDBRANCH  15  16
ENDBRANCH  10  15
BRANCH  13  18
ATOM     18  N   UNL A   1      32.277  20.747  23.622  1.00  0.00    -0.324 N 
ATOM     19  H   UNL A   1      31.628  20.842  22.888  1.00  0.00     0.170 HD
BRANCH  18  20
ATOM     20  C   UNL A   1      32.586  19.436  23.999  1.00  0.00     0.041 A 
ATOM     21  C   UNL A   1      32.607  19.082  25.353  1.00  0.00     0.027 A 
ATOM     22  C   UNL A   1      32.752  18.422  23.046  1.00  0.00     0.027 A 
ATOM     23  C   UNL A   1      32.780  17.748  25.743  1.00  0.00     0.021 A 
ATOM     24  C   UNL A   1      32.949  17.092  23.427  1.00  0.00     0.021 A 
ATOM     25  C   UNL A   1      32.952  16.750  24.781  1.00  0.00     0.052 A 
BRANCH  25  26
ATOM     26  C   UNL A   1      33.110  15.381  25.172  1.00  0.00     0.099 C 
ATOM     27  N   UNL A   1      33.237  14.269  25.486  1.00  0.00    -0.192 NA
ENDBRANCH  25  26
ENDBRANCH  18  20
ENDBRANCH  13  18
ENDBRANCH   8   9
ENDBRANCH   7   8
ENDBRANCH   4   7
ENDBRANCH   2   3
ENDBRANCH   1   2
BRANCH   1  28
ATOM     28  C   UNL A   1      40.345  22.133  27.215  1.00  0.00     0.002 C 
BRANCH  28  29
ATOM     29  C   UNL A   1      41.442  21.712  26.231  1.00  0.00     0.002 C 
BRANCH  29  30
ATOM     30  C   UNL A   1      41.500  20.214  25.921  1.00  0.00     0.021 C 
BRANCH  30  31
ATOM     31  C   UNL A   1      42.774  19.517  26.388  1.00  0.00     0.116 C 
BRANCH  31  32
ATOM     32  N   UNL A   1      43.559  19.000  25.277  1.00  0.00    -0.352 N 
ATOM     33  C   UNL A   1      44.437  19.651  24.445  1.00  0.00     0.251 C 
ATOM     34  H   UNL A   1      43.441  18.040  25.092  1.00  0.00     0.163 HD
ATOM     35  O   UNL A   1      44.858  19.098  23.435  1.00  0.00    -0.269 OA
BRANCH  33  36
ATOM     36  C   UNL A   1      44.851  21.037  24.752  1.00  0.00     0.039 A 
ATOM     37  C   UNL A   1      44.535  22.050  23.844  1.00  0.00     0.014 A 
ATOM     38  C   UNL A   1      45.530  21.338  25.935  1.00  0.00     0.014 A 
ATOM     39  C   UNL A   1      44.815  23.379  24.168  1.00  0.00     0.010 A 
ATOM     40  C   UNL A   1      45.742  22.668  26.290  1.00  0.00     0.010 A 
ATOM     41  C   UNL A   1      45.366  23.703  25.419  1.00  0.00    -0.014 A 
BRANCH  41  42
ATOM     42  C   UNL A   1      45.483  25.114  25.864  1.00  0.00     0.031 A 
ATOM     43  C   UNL A   1      46.810  25.816  25.860  1.00  0.00     0.074 A 
ATOM     44  C   UNL A   1      44.394  25.737  26.358  1.00  0.00     0.049 A 
ATOM     45  N   UNL A   1      47.108  27.015  26.293  1.00  0.00    -0.248 NA
ATOM     46  C   UNL A   1      47.954  25.068  25.319  1.00  0.00     0.031 C 
ATOM     47  C   UNL A   1      43.053  25.152  26.446  1.00  0.00     0.029 A 
ATOM     48  N   UNL A   1      44.243  26.991  26.893  1.00  0.00    -0.354 N 
ATOM     49  C   UNL A   1      48.474  27.161  26.089  1.00  0.00     0.074 A 
ATOM     50  C   UNL A   1      48.952  25.913  25.532  1.00  0.00     0.031 C 
ATOM     51  C   UNL A   1      42.215  26.052  26.982  1.00  0.00     0.029 A 
ATOM     52  C   UNL A   1      42.967  27.252  27.332  1.00  0.00     0.049 A 
ATOM     53  H   UNL A   1      44.979  27.643  26.955  1.00  0.00     0.167 HD
ATOM     54  C   UNL A   1      49.256  28.241  26.336  1.00  0.00     0.031 A 
ATOM     55  C   UNL A   1      42.459  28.323  27.971  1.00  0.00     0.031 A 
ATOM     56  C   UNL A   1      48.777  29.474  26.905  1.00  0.00     0.049 A 
ATOM     57  C   UNL A   1      43.360  29.485  28.286  1.00  0.00     0.074 A 
ATOM     58  C   UNL A   1      49.480  30.644  27.137  1.00  0.00     0.029 A 
ATOM     59  N   UNL A   1      47.481  29.692  27.349  1.00  0.00    -0.354 N 
ATOM     60  N   UNL A   1      44.631  29.642  28.006  1.00  0.00    -0.248 NA
ATOM     61  C   UNL A   1      42.756  30.617  29.002  1.00  0.00     0.031 C 
ATOM     62  C   UNL A   1      48.634  31.538  27.801  1.00  0.00     0.029 A 
ATOM     63  C   UNL A   1      47.380  30.957  27.907  1.00  0.00     0.049 A 
ATOM     64  H   UNL A   1      46.743  29.044  27.278  1.00  0.00     0.167 HD
ATOM     65  C   UNL A   1      44.975  30.894  28.499  1.00  0.00     0.074 A 
ATOM     66  C   UNL A   1      43.771  31.465  29.067  1.00  0.00     0.031 C 
ATOM     67  C   UNL A   1      46.182  31.510  28.487  1.00  0.00     0.031 A 
BRANCH  54  68
ATOM     68  C   UNL A   1      50.724  28.122  26.028  1.00  0.00    -0.014 A 
ATOM     69  C   UNL A   1      51.243  28.465  24.768  1.00  0.00     0.009 A 
ATOM     70  C   UNL A   1      51.611  27.699  27.030  1.00  0.00     0.009 A 
ATOM     71  C   UNL A   1      52.611  28.346  24.510  1.00  0.00     0.001 A 
ATOM     72  C   UNL A   1      52.983  27.616  26.780  1.00  0.00     0.001 A 
ATOM     73  C   UNL A   1      53.479  27.927  25.516  1.00  0.00     0.000 A 
ENDBRANCH  54  68
BRANCH  55  74
ATOM     74  C   UNL A   1      41.030  28.331  28.384  1.00  0.00    -0.014 A 
ATOM     75  C   UNL A   1      40.623  27.720  29.579  1.00  0.00     0.009 A 
ATOM     76  C   UNL A   1      40.062  28.958  27.581  1.00  0.00     0.009 A 
ATOM     77  C   UNL A   1      39.276  27.717  29.949  1.00  0.00     0.001 A 
ATOM     78  C   UNL A   1      38.722  28.985  27.971  1.00  0.00     0.001 A 
ATOM     79  C   UNL A   1      38.329  28.356  29.150  1.00  0.00     0.000 A 
ENDBRANCH  55  74
BRANCH  67  80
ATOM     80  C   UNL A   1      46.264  32.881  29.102  1.00  0.00    -0.014 A 
ATOM     81  C   UNL A   1      46.569  33.051  30.462  1.00  0.00     0.009 A 
ATOM     82  C   UNL A   1      46.087  34.019  28.300  1.00  0.00     0.009 A 
ATOM     83  C   UNL A   1      46.665  34.330  31.011  1.00  0.00     0.001 A 
ATOM     84  C   UNL A   1      46.218  35.298  28.844  1.00  0.00     0.001 A 
ATOM     85  C   UNL A   1      46.498  35.452  30.200  1.00  0.00     0.000 A 
ENDBRANCH  67  80
ENDBRANCH  41  42
ENDBRANCH  33  36
ENDBRANCH  31  32
ENDBRANCH  30  31
ENDBRANCH  29  30
ENDBRANCH  28  29
ENDBRANCH   1  28
TORSDOF 20
ENDMDL
MODEL 3
REMARK VINA RESULT:     -10.1      2.625      7.591
REMARK SMILES CCCc1cc(OCC(=O)NCCCCCCNC(=O)c2ccc(-c3c4nc(c(-c5ccccc5)c5ccc([nH]5)c(-c5ccccc5)c5nc(c(-c6ccccc6)c6ccc3[nH]6)C=C5)C=C4)cc2)nc(Nc2ccc(C#N)cc2)n1
REMARK SMILES IDX 13 1 12 2 11 3 9 4 10 5 8 7 7 8 6 9 4 10 5 11 80 12 70 13
REMARK SMILES IDX 69 14 3 15 2 16 1 17 71 18 72 20 73 21 79 22 74 23 78 24
REMARK SMILES IDX 75 25 76 26 77 27 14 28 15 29 16 30 17 31 18 32 19 33 20 35
REMARK SMILES IDX 21 36 22 37 68 38 23 39 67 40 24 41 25 42 26 43 61 44 27 45
REMARK SMILES IDX 66 46 60 47 62 48 28 49 65 50 59 51 58 52 29 54 51 55 36 56
REMARK SMILES IDX 50 57 37 58 40 59 49 60 63 61 38 62 39 63 48 65 64 66 41 67
REMARK SMILES IDX 30 68 31 69 35 70 32 71 34 72 33 73 52 74 53 75 57 76 54 77
REMARK SMILES IDX 56 78 55 79 42 80 43 81 47 82 44 83 46 84 45 85
REMARK H PARENT 11 6 71 19 18 34 62 53 40 64
REMARK Flexibility Score: inf
ROOT
ATOM      1  C   UNL A   1      40.074  23.313  27.448  1.00  0.00     0.021 C 
ENDROOT
BRANCH   1   2
ATOM      2  C   UNL A   1      38.867  23.784  26.640  1.00  0.00     0.116 C 
BRANCH   2   3
ATOM      3  N   UNL A   1      38.610  22.929  25.500  1.00  0.00    -0.353 N 
ATOM      4  C   UNL A   1      37.420  22.410  25.087  1.00  0.00     0.258 C 
ATOM      5  O   UNL A   1      37.388  21.754  24.044  1.00  0.00    -0.271 OA
ATOM      6  H   UNL A   1      39.394  22.692  24.954  1.00  0.00     0.163 HD
BRANCH   4   7
ATOM      7  C   UNL A   1      36.141  22.669  25.902  1.00  0.00     0.331 C 
BRANCH   7   8
ATOM      8  O   UNL A   1      35.411  21.561  26.402  1.00  0.00    -0.467 OA
BRANCH   8   9
ATOM      9  C   UNL A   1      34.245  21.219  25.777  1.00  0.00     0.218 A 
ATOM     10  C   UNL A   1      32.793  19.812  24.597  1.00  0.00     0.050 A 
ATOM     11  C   UNL A   1      34.078  20.106  24.990  1.00  0.00     0.092 A 
ATOM     12  N   UNL A   1      31.779  20.650  24.867  1.00  0.00    -0.218 NA
ATOM     13  C   UNL A   1      32.039  21.784  25.534  1.00  0.00     0.230 A 
ATOM     14  N   UNL A   1      33.246  22.085  26.029  1.00  0.00    -0.177 NA
BRANCH  10  15
ATOM     15  C   UNL A   1      32.420  18.567  23.831  1.00  0.00     0.056 C 
BRANCH  15  16
ATOM     16  C   UNL A   1      33.039  17.242  24.289  1.00  0.00     0.003 C 
ATOM     17  C   UNL A   1      34.150  16.742  23.373  1.00  0.00     0.004 C 
ENDBRANCH  15  16
ENDBRANCH  10  15
BRANCH  13  18
ATOM     18  N   UNL A   1      31.044  22.755  25.648  1.00  0.00    -0.324 N 
ATOM     19  H   UNL A   1      30.323  22.557  26.289  1.00  0.00     0.170 HD
BRANCH  18  20
ATOM     20  C   UNL A   1      30.939  23.971  24.967  1.00  0.00     0.041 A 
ATOM     21  C   UNL A   1      31.201  24.030  23.593  1.00  0.00     0.027 A 
ATOM     22  C   UNL A   1      30.449  25.123  25.598  1.00  0.00     0.027 A 
ATOM     23  C   UNL A   1      30.971  25.207  22.868  1.00  0.00     0.021 A 
ATOM     24  C   UNL A   1      30.238  26.308  24.887  1.00  0.00     0.021 A 
ATOM     25  C   UNL A   1      30.490  26.348  23.515  1.00  0.00     0.052 A 
BRANCH  25  26
ATOM     26  C   UNL A   1      30.233  27.549  22.776  1.00  0.00     0.099 C 
ATOM     27  N   UNL A   1      30.029  28.524  22.176  1.00  0.00    -0.192 NA
ENDBRANCH  25  26
ENDBRANCH  18  20
ENDBRANCH  13  18
ENDBRANCH   8   9
ENDBRANCH   7   8
ENDBRANCH   4   7
ENDBRANCH   2   3
ENDBRANCH   1   2
BRANCH   1  28
ATOM     28  C   UNL A   1      40.454  21.841  27.234  1.00  0.00     0.002 C 
BRANCH  28  29
ATOM     29  C   UNL A   1      41.852  21.445  27.722  1.00  0.00     0.002 C 
BRANCH  29  30
ATOM     30  C   UNL A   1      42.406  20.147  27.131  1.00  0.00     0.021 C 
BRANCH  30  31
ATOM     31  C   UNL A   1      42.202  19.994  25.626  1.00  0.00     0.116 C 
BRANCH  31  32
ATOM     32  N   UNL A   1      43.301  19.283  24.991  1.00  0.00    -0.352 N 
ATOM     33  C   UNL A   1      44.503  19.759  24.528  1.00  0.00     0.251 C 
ATOM     34  H   UNL A   1      43.161  18.316  24.873  1.00  0.00     0.163 HD
ATOM     35  O   UNL A   1      45.227  19.047  23.840  1.00  0.00    -0.269 OA
BRANCH  33  36
ATOM     36  C   UNL A   1      44.912  21.147  24.833  1.00  0.00     0.039 A 
ATOM     37  C   UNL A   1      44.640  22.149  23.899  1.00  0.00     0.014 A 
ATOM     38  C   UNL A   1      45.541  21.462  26.041  1.00  0.00     0.014 A 
ATOM     39  C   UNL A   1      44.914  23.481  24.217  1.00  0.00     0.010 A 
ATOM     40  C   UNL A   1      45.746  22.795  26.386  1.00  0.00     0.010 A 
ATOM     41  C   UNL A   1      45.413  23.819  25.485  1.00  0.00    -0.014 A 
BRANCH  41  42
ATOM     42  C   UNL A   1      45.519  25.236  25.916  1.00  0.00     0.031 A 
ATOM     43  C   UNL A   1      46.843  25.943  25.922  1.00  0.00     0.074 A 
ATOM     44  C   UNL A   1      44.420  25.860  26.388  1.00  0.00     0.049 A 
ATOM     45  N   UNL A   1      47.131  27.148  26.345  1.00  0.00    -0.248 NA
ATOM     46  C   UNL A   1      47.998  25.193  25.405  1.00  0.00     0.031 C 
ATOM     47  C   UNL A   1      43.081  25.272  26.464  1.00  0.00     0.029 A 
ATOM     48  N   UNL A   1      44.258  27.120  26.906  1.00  0.00    -0.354 N 
ATOM     49  C   UNL A   1      48.499  27.297  26.158  1.00  0.00     0.074 A 
ATOM     50  C   UNL A   1      48.989  26.044  25.623  1.00  0.00     0.031 C 
ATOM     51  C   UNL A   1      42.232  26.174  26.978  1.00  0.00     0.029 A 
ATOM     52  C   UNL A   1      42.976  27.381  27.324  1.00  0.00     0.049 A 
ATOM     53  H   UNL A   1      44.990  27.775  26.971  1.00  0.00     0.167 HD
ATOM     54  C   UNL A   1      49.274  28.382  26.404  1.00  0.00     0.031 A 
ATOM     55  C   UNL A   1      42.454  28.458  27.944  1.00  0.00     0.031 A 
ATOM     56  C   UNL A   1      48.783  29.620  26.952  1.00  0.00     0.049 A 
ATOM     57  C   UNL A   1      43.347  29.626  28.257  1.00  0.00     0.074 A 
ATOM     58  C   UNL A   1      49.478  30.794  27.180  1.00  0.00     0.029 A 
ATOM     59  N   UNL A   1      47.480  29.838  27.375  1.00  0.00    -0.354 N 
ATOM     60  N   UNL A   1      44.621  29.785  27.994  1.00  0.00    -0.248 NA
ATOM     61  C   UNL A   1      42.729  30.764  28.952  1.00  0.00     0.031 C 
ATOM     62  C   UNL A   1      48.620  31.693  27.822  1.00  0.00     0.029 A 
ATOM     63  C   UNL A   1      47.367  31.109  27.917  1.00  0.00     0.049 A 
ATOM     64  H   UNL A   1      46.745  29.187  27.301  1.00  0.00     0.167 HD
ATOM     65  C   UNL A   1      44.954  31.043  28.477  1.00  0.00     0.074 A 
ATOM     66  C   UNL A   1      43.741  31.617  29.022  1.00  0.00     0.031 C 
ATOM     67  C   UNL A   1      46.159  31.664  28.474  1.00  0.00     0.031 A 
BRANCH  54  68
ATOM     68  C   UNL A   1      50.746  28.265  26.117  1.00  0.00    -0.014 A 
ATOM     69  C   UNL A   1      51.655  27.822  27.093  1.00  0.00     0.009 A 
ATOM     70  C   UNL A   1      51.229  28.564  24.833  1.00  0.00     0.009 A 
ATOM     71  C   UNL A   1      53.017  27.723  26.800  1.00  0.00     0.001 A 
ATOM     72  C   UNL A   1      52.586  28.429  24.532  1.00  0.00     0.001 A 
ATOM     73  C   UNL A   1      53.480  28.021  25.520  1.00  0.00     0.000 A 
ENDBRANCH  54  68
BRANCH  55  74
ATOM     74  C   UNL A   1      41.020  28.465  28.336  1.00  0.00    -0.014 A 
ATOM     75  C   UNL A   1      40.048  29.031  27.498  1.00  0.00     0.009 A 
ATOM     76  C   UNL A   1      40.614  27.899  29.556  1.00  0.00     0.009 A 
ATOM     77  C   UNL A   1      38.705  29.050  27.883  1.00  0.00     0.001 A 
ATOM     78  C   UNL A   1      39.267  27.887  29.922  1.00  0.00     0.001 A 
ATOM     79  C   UNL A   1      38.315  28.471  29.090  1.00  0.00     0.000 A 
ENDBRANCH  55  74
BRANCH  67  80
ATOM     80  C   UNL A   1      46.227  33.042  29.074  1.00  0.00    -0.014 A 
ATOM     81  C   UNL A   1      45.965  34.186  28.303  1.00  0.00     0.009 A 
ATOM     82  C   UNL A   1      46.505  33.196  30.441  1.00  0.00     0.009 A 
ATOM     83  C   UNL A   1      46.009  35.455  28.882  1.00  0.00     0.001 A 
ATOM     84  C   UNL A   1      46.514  34.464  31.026  1.00  0.00     0.001 A 
ATOM     85  C   UNL A   1      46.275  35.592  30.244  1.00  0.00     0.000 A 
ENDBRANCH  67  80
ENDBRANCH  41  42
ENDBRANCH  33  36
ENDBRANCH  31  32
ENDBRANCH  30  31
ENDBRANCH  29  30
ENDBRANCH  28  29
ENDBRANCH   1  28
TORSDOF 20
ENDMDL
