MODEL 1
REMARK VINA RESULT:     -11.8      0.000      0.000
REMARK SMILES Cc1ccc(C[C@@H](Cc2cc(F)cc(Br)c2)C(=O)NCCCCCCNC(=O)c2ccc(-c3c4nc(c(-c5ccccc5)c5ccc([nH]5)c(-c5ccccc5)c5nc(c(-c6ccccc6)c6ccc3[nH]6)C=C5)C=C4)cc2)cc1
REMARK SMILES IDX 22 1 21 2 20 3 19 4 17 5 18 6 7 8 6 9 5 10 1 11 2 12 3 13
REMARK SMILES IDX 78 14 4 15 77 16 8 17 9 18 10 19 16 20 11 21 14 22 12 23
REMARK SMILES IDX 13 24 15 25 23 26 24 27 25 28 26 29 27 30 28 32 29 33 30 34
REMARK SMILES IDX 76 35 31 36 75 37 32 38 33 39 34 40 69 41 35 42 74 43 68 44
REMARK SMILES IDX 70 45 36 46 73 47 67 48 66 49 37 51 59 52 44 53 58 54 45 55
REMARK SMILES IDX 48 56 57 57 71 58 46 59 47 60 56 62 72 63 49 64 38 65 39 66
REMARK SMILES IDX 43 67 40 68 42 69 41 70 60 71 61 72 65 73 62 74 64 75 63 76
REMARK SMILES IDX 50 77 51 78 55 79 52 80 54 81 53 82
REMARK H PARENT 19 7 26 31 70 50 48 61
REMARK Flexibility Score: inf
ROOT
ATOM      1  C   UNL A   1      31.893  28.209  27.632  1.00  0.00     0.002 C 
ENDROOT
BRANCH   1   2
ATOM      2  C   UNL A   1      31.393  27.163  26.629  1.00  0.00     0.021 C 
BRANCH   2   3
ATOM      3  C   UNL A   1      32.228  25.889  26.593  1.00  0.00     0.116 C 
BRANCH   3   4
ATOM      4  N   UNL A   1      31.398  24.704  26.501  1.00  0.00    -0.356 N 
ATOM      5  C   UNL A   1      31.228  23.833  25.470  1.00  0.00     0.223 C 
ATOM      6  O   UNL A   1      30.558  22.819  25.684  1.00  0.00    -0.275 OA
ATOM      7  H   UNL A   1      30.878  24.498  27.310  1.00  0.00     0.163 HD
BRANCH   5   8
ATOM      8  C   UNL A   1      31.808  24.093  24.086  1.00  0.00     0.087 C 
BRANCH   8   9
ATOM      9  C   UNL A   1      32.329  22.724  23.567  1.00  0.00     0.049 C 
BRANCH   9  10
ATOM     10  C   UNL A   1      33.752  22.296  23.851  1.00  0.00    -0.047 A 
ATOM     11  C   UNL A   1      37.840  21.432  24.978  1.00  0.00     0.044 C 
ATOM     12  C   UNL A   1      36.428  21.739  24.580  1.00  0.00    -0.051 A 
ATOM     13  C   UNL A   1      35.375  21.004  25.127  1.00  0.00     0.004 A 
ATOM     14  C   UNL A   1      36.138  22.748  23.657  1.00  0.00     0.004 A 
ATOM     15  C   UNL A   1      34.052  21.293  24.781  1.00  0.00     0.004 A 
ATOM     16  C   UNL A   1      34.815  23.021  23.295  1.00  0.00     0.004 A 
ENDBRANCH   9  10
ENDBRANCH   8   9
BRANCH   8  17
ATOM     17  C   UNL A   1      30.914  24.891  23.105  1.00  0.00     0.049 C 
BRANCH  17  18
ATOM     18  C   UNL A   1      30.737  26.400  23.142  1.00  0.00    -0.043 A 
ATOM     19  C   UNL A   1      31.902  27.183  23.026  1.00  0.00     0.043 A 
ATOM     20  C   UNL A   1      29.512  27.069  23.241  1.00  0.00     0.019 A 
ATOM     21  C   UNL A   1      31.824  28.567  22.898  1.00  0.00     0.124 A 
ATOM     22  C   UNL A   1      29.448  28.459  23.064  1.00  0.00     0.021 A 
ATOM     23  F   UNL A   1      32.951  29.276  22.745  1.00  0.00    -0.207 F 
ATOM     24  C   UNL A   1      30.601  29.214  22.883  1.00  0.00     0.055 A 
ATOM     25  Br  UNL A   1      27.762  29.317  23.000  1.00  0.00    -0.051 Br
ENDBRANCH  17  18
ENDBRANCH   8  17
ENDBRANCH   5   8
ENDBRANCH   3   4
ENDBRANCH   2   3
ENDBRANCH   1   2
BRANCH   1  26
ATOM     26  C   UNL A   1      33.056  29.103  27.161  1.00  0.00     0.002 C 
BRANCH  26  27
ATOM     27  C   UNL A   1      32.854  30.614  27.310  1.00  0.00     0.021 C 
BRANCH  27  28
ATOM     28  C   UNL A   1      34.146  31.416  27.276  1.00  0.00     0.116 C 
BRANCH  28  29
ATOM     29  N   UNL A   1      34.539  31.974  28.557  1.00  0.00    -0.352 N 
ATOM     30  C   UNL A   1      35.432  31.501  29.507  1.00  0.00     0.251 C 
ATOM     31  H   UNL A   1      34.101  32.825  28.790  1.00  0.00     0.163 HD
ATOM     32  O   UNL A   1      35.526  32.072  30.573  1.00  0.00    -0.269 OA
BRANCH  30  33
ATOM     33  C   UNL A   1      36.376  30.397  29.168  1.00  0.00     0.039 A 
ATOM     34  C   UNL A   1      36.575  29.406  30.141  1.00  0.00     0.014 A 
ATOM     35  C   UNL A   1      37.190  30.423  28.040  1.00  0.00     0.014 A 
ATOM     36  C   UNL A   1      37.735  28.635  30.113  1.00  0.00     0.010 A 
ATOM     37  C   UNL A   1      38.387  29.739  28.060  1.00  0.00     0.010 A 
ATOM     38  C   UNL A   1      38.688  28.902  29.135  1.00  0.00    -0.014 A 
BRANCH  38  39
ATOM     39  C   UNL A   1      40.068  28.448  29.210  1.00  0.00     0.031 A 
ATOM     40  C   UNL A   1      40.461  27.151  28.629  1.00  0.00     0.074 A 
ATOM     41  C   UNL A   1      41.003  29.248  29.767  1.00  0.00     0.049 A 
ATOM     42  N   UNL A   1      41.491  26.473  29.008  1.00  0.00    -0.248 NA
ATOM     43  C   UNL A   1      39.682  26.485  27.592  1.00  0.00     0.031 C 
ATOM     44  C   UNL A   1      42.456  29.108  29.696  1.00  0.00     0.029 A 
ATOM     45  N   UNL A   1      40.837  30.287  30.661  1.00  0.00    -0.354 N 
ATOM     46  C   UNL A   1      41.682  25.469  28.090  1.00  0.00     0.074 A 
ATOM     47  C   UNL A   1      40.485  25.462  27.282  1.00  0.00     0.031 C 
ATOM     48  C   UNL A   1      43.010  29.826  30.689  1.00  0.00     0.029 A 
ATOM     49  C   UNL A   1      41.929  30.322  31.524  1.00  0.00     0.049 A 
ATOM     50  H   UNL A   1      40.070  30.902  30.685  1.00  0.00     0.167 HD
ATOM     51  C   UNL A   1      42.893  24.851  28.014  1.00  0.00     0.031 A 
ATOM     52  C   UNL A   1      41.810  30.066  32.862  1.00  0.00     0.031 A 
ATOM     53  C   UNL A   1      43.819  25.339  29.032  1.00  0.00     0.049 A 
ATOM     54  C   UNL A   1      42.588  28.844  33.318  1.00  0.00     0.074 A 
ATOM     55  C   UNL A   1      44.855  26.260  29.000  1.00  0.00     0.029 A 
ATOM     56  N   UNL A   1      43.540  25.108  30.374  1.00  0.00    -0.354 N 
ATOM     57  N   UNL A   1      43.027  27.916  32.512  1.00  0.00    -0.248 NA
ATOM     58  C   UNL A   1      42.901  28.554  34.715  1.00  0.00     0.031 C 
ATOM     59  C   UNL A   1      45.155  26.631  30.337  1.00  0.00     0.029 A 
ATOM     60  C   UNL A   1      44.323  25.912  31.178  1.00  0.00     0.049 A 
ATOM     61  H   UNL A   1      42.877  24.460  30.704  1.00  0.00     0.167 HD
ATOM     62  C   UNL A   1      43.663  26.938  33.232  1.00  0.00     0.074 A 
ATOM     63  C   UNL A   1      43.567  27.389  34.608  1.00  0.00     0.031 C 
ATOM     64  C   UNL A   1      44.203  25.838  32.628  1.00  0.00     0.031 A 
BRANCH  51  65
ATOM     65  C   UNL A   1      43.321  24.025  26.825  1.00  0.00    -0.014 A 
ATOM     66  C   UNL A   1      43.422  22.627  26.950  1.00  0.00     0.009 A 
ATOM     67  C   UNL A   1      43.685  24.562  25.580  1.00  0.00     0.009 A 
ATOM     68  C   UNL A   1      43.953  21.827  25.930  1.00  0.00     0.001 A 
ATOM     69  C   UNL A   1      44.256  23.775  24.571  1.00  0.00     0.001 A 
ATOM     70  C   UNL A   1      44.400  22.406  24.751  1.00  0.00     0.000 A 
ENDBRANCH  51  65
BRANCH  52  71
ATOM     71  C   UNL A   1      40.511  30.503  33.444  1.00  0.00    -0.014 A 
ATOM     72  C   UNL A   1      40.276  31.886  33.578  1.00  0.00     0.009 A 
ATOM     73  C   UNL A   1      39.415  29.629  33.491  1.00  0.00     0.009 A 
ATOM     74  C   UNL A   1      38.973  32.389  33.630  1.00  0.00     0.001 A 
ATOM     75  C   UNL A   1      38.110  30.139  33.555  1.00  0.00     0.001 A 
ATOM     76  C   UNL A   1      37.889  31.516  33.585  1.00  0.00     0.000 A 
ENDBRANCH  52  71
BRANCH  64  77
ATOM     77  C   UNL A   1      44.733  24.599  33.314  1.00  0.00    -0.014 A 
ATOM     78  C   UNL A   1      46.080  24.371  33.618  1.00  0.00     0.009 A 
ATOM     79  C   UNL A   1      43.807  23.650  33.812  1.00  0.00     0.009 A 
ATOM     80  C   UNL A   1      46.484  23.240  34.345  1.00  0.00     0.001 A 
ATOM     81  C   UNL A   1      44.199  22.549  34.577  1.00  0.00     0.001 A 
ATOM     82  C   UNL A   1      45.544  22.338  34.834  1.00  0.00     0.000 A 
ENDBRANCH  64  77
ENDBRANCH  38  39
ENDBRANCH  30  33
ENDBRANCH  28  29
ENDBRANCH  27  28
ENDBRANCH  26  27
ENDBRANCH   1  26
TORSDOF 17
ENDMDL
MODEL 2
REMARK VINA RESULT:     -11.7      3.030      8.150
REMARK SMILES Cc1ccc(C[C@@H](Cc2cc(F)cc(Br)c2)C(=O)NCCCCCCNC(=O)c2ccc(-c3c4nc(c(-c5ccccc5)c5ccc([nH]5)c(-c5ccccc5)c5nc(c(-c6ccccc6)c6ccc3[nH]6)C=C5)C=C4)cc2)cc1
REMARK SMILES IDX 22 1 21 2 20 3 19 4 17 5 18 6 7 8 6 9 5 10 1 11 2 12 3 13
REMARK SMILES IDX 78 14 4 15 77 16 8 17 9 18 10 19 16 20 11 21 14 22 12 23
REMARK SMILES IDX 13 24 15 25 23 26 24 27 25 28 26 29 27 30 28 32 29 33 30 34
REMARK SMILES IDX 76 35 31 36 75 37 32 38 33 39 34 40 69 41 35 42 74 43 68 44
REMARK SMILES IDX 70 45 36 46 73 47 67 48 66 49 37 51 59 52 44 53 58 54 45 55
REMARK SMILES IDX 48 56 57 57 71 58 46 59 47 60 56 62 72 63 49 64 38 65 39 66
REMARK SMILES IDX 43 67 40 68 42 69 41 70 60 71 61 72 65 73 62 74 64 75 63 76
REMARK SMILES IDX 50 77 51 78 55 79 52 80 54 81 53 82
REMARK H PARENT 19 7 26 31 70 50 48 61
REMARK Flexibility Score: inf
ROOT
ATOM      1  C   UNL A   1      36.276  22.227  24.727  1.00  0.00     0.002 C 
ENDROOT
BRANCH   1   2
ATOM      2  C   UNL A   1      36.063  23.055  23.455  1.00  0.00     0.021 C 
BRANCH   2   3
ATOM      3  C   UNL A   1      34.600  23.339  23.138  1.00  0.00     0.116 C 
BRANCH   3   4
ATOM      4  N   UNL A   1      33.708  22.520  23.932  1.00  0.00    -0.356 N 
ATOM      5  C   UNL A   1      32.573  22.856  24.602  1.00  0.00     0.223 C 
ATOM      6  O   UNL A   1      31.913  21.943  25.104  1.00  0.00    -0.275 OA
ATOM      7  H   UNL A   1      33.962  21.571  23.997  1.00  0.00     0.163 HD
BRANCH   5   8
ATOM      8  C   UNL A   1      32.128  24.305  24.764  1.00  0.00     0.087 C 
BRANCH   8   9
ATOM      9  C   UNL A   1      33.124  24.959  25.760  1.00  0.00     0.049 C 
BRANCH   9  10
ATOM     10  C   UNL A   1      32.952  26.405  26.166  1.00  0.00    -0.047 A 
ATOM     11  C   UNL A   1      32.298  30.623  26.884  1.00  0.00     0.044 C 
ATOM     12  C   UNL A   1      32.535  29.164  26.631  1.00  0.00    -0.051 A 
ATOM     13  C   UNL A   1      31.601  28.221  27.065  1.00  0.00     0.004 A 
ATOM     14  C   UNL A   1      33.685  28.721  25.972  1.00  0.00     0.004 A 
ATOM     15  C   UNL A   1      31.800  26.861  26.817  1.00  0.00     0.004 A 
ATOM     16  C   UNL A   1      33.892  27.357  25.745  1.00  0.00     0.004 A 
ENDBRANCH   9  10
ENDBRANCH   8   9
BRANCH   8  17
ATOM     17  C   UNL A   1      31.865  25.093  23.456  1.00  0.00     0.049 C 
BRANCH  17  18
ATOM     18  C   UNL A   1      30.736  26.093  23.272  1.00  0.00    -0.043 A 
ATOM     19  C   UNL A   1      29.498  25.775  23.863  1.00  0.00     0.043 A 
ATOM     20  C   UNL A   1      30.839  27.316  22.599  1.00  0.00     0.019 A 
ATOM     21  C   UNL A   1      28.454  26.696  23.877  1.00  0.00     0.124 A 
ATOM     22  C   UNL A   1      29.794  28.249  22.661  1.00  0.00     0.021 A 
ATOM     23  F   UNL A   1      27.305  26.376  24.488  1.00  0.00    -0.207 F 
ATOM     24  C   UNL A   1      28.600  27.949  23.307  1.00  0.00     0.055 A 
ATOM     25  Br  UNL A   1      30.034  29.972  21.917  1.00  0.00    -0.051 Br
ENDBRANCH  17  18
ENDBRANCH   8  17
ENDBRANCH   5   8
ENDBRANCH   3   4
ENDBRANCH   2   3
ENDBRANCH   1   2
BRANCH   1  26
ATOM     26  C   UNL A   1      37.644  22.381  25.420  1.00  0.00     0.002 C 
BRANCH  26  27
ATOM     27  C   UNL A   1      38.546  21.143  25.424  1.00  0.00     0.021 C 
BRANCH  27  28
ATOM     28  C   UNL A   1      39.836  21.321  26.210  1.00  0.00     0.116 C 
BRANCH  28  29
ATOM     29  N   UNL A   1      40.902  20.413  25.826  1.00  0.00    -0.352 N 
ATOM     30  C   UNL A   1      42.279  20.557  25.912  1.00  0.00     0.251 C 
ATOM     31  H   UNL A   1      40.599  19.559  25.443  1.00  0.00     0.163 HD
ATOM     32  O   UNL A   1      42.998  19.713  25.421  1.00  0.00    -0.269 OA
BRANCH  30  33
ATOM     33  C   UNL A   1      42.871  21.656  26.729  1.00  0.00     0.039 A 
ATOM     34  C   UNL A   1      42.627  21.627  28.111  1.00  0.00     0.014 A 
ATOM     35  C   UNL A   1      43.467  22.777  26.163  1.00  0.00     0.014 A 
ATOM     36  C   UNL A   1      42.725  22.801  28.853  1.00  0.00     0.010 A 
ATOM     37  C   UNL A   1      43.469  23.963  26.865  1.00  0.00     0.010 A 
ATOM     38  C   UNL A   1      43.028  23.986  28.188  1.00  0.00    -0.014 A 
BRANCH  38  39
ATOM     39  C   UNL A   1      42.801  25.307  28.753  1.00  0.00     0.031 A 
ATOM     40  C   UNL A   1      41.626  26.100  28.350  1.00  0.00     0.074 A 
ATOM     41  C   UNL A   1      43.645  25.783  29.693  1.00  0.00     0.049 A 
ATOM     42  N   UNL A   1      41.562  27.386  28.428  1.00  0.00    -0.248 NA
ATOM     43  C   UNL A   1      40.429  25.497  27.773  1.00  0.00     0.031 C 
ATOM     44  C   UNL A   1      43.449  26.937  30.568  1.00  0.00     0.029 A 
ATOM     45  N   UNL A   1      44.950  25.415  29.957  1.00  0.00    -0.354 N 
ATOM     46  C   UNL A   1      40.253  27.746  28.212  1.00  0.00     0.074 A 
ATOM     47  C   UNL A   1      39.607  26.550  27.723  1.00  0.00     0.031 C 
ATOM     48  C   UNL A   1      44.643  27.326  31.049  1.00  0.00     0.029 A 
ATOM     49  C   UNL A   1      45.661  26.536  30.377  1.00  0.00     0.049 A 
ATOM     50  H   UNL A   1      45.317  24.507  29.862  1.00  0.00     0.167 HD
ATOM     51  C   UNL A   1      39.820  28.974  28.612  1.00  0.00     0.031 A 
ATOM     52  C   UNL A   1      46.687  27.065  29.644  1.00  0.00     0.031 A 
ATOM     53  C   UNL A   1      40.904  29.778  29.171  1.00  0.00     0.049 A 
ATOM     54  C   UNL A   1      46.425  28.481  29.166  1.00  0.00     0.074 A 
ATOM     55  C   UNL A   1      41.298  30.053  30.471  1.00  0.00     0.029 A 
ATOM     56  N   UNL A   1      41.952  30.174  28.349  1.00  0.00    -0.354 N 
ATOM     57  N   UNL A   1      45.241  29.029  29.122  1.00  0.00    -0.248 NA
ATOM     58  C   UNL A   1      47.465  29.379  28.670  1.00  0.00     0.031 C 
ATOM     59  C   UNL A   1      42.623  30.561  30.430  1.00  0.00     0.029 A 
ATOM     60  C   UNL A   1      43.019  30.621  29.105  1.00  0.00     0.049 A 
ATOM     61  H   UNL A   1      41.937  30.140  27.366  1.00  0.00     0.167 HD
ATOM     62  C   UNL A   1      45.335  30.301  28.619  1.00  0.00     0.074 A 
ATOM     63  C   UNL A   1      46.752  30.478  28.361  1.00  0.00     0.031 C 
ATOM     64  C   UNL A   1      44.233  31.091  28.453  1.00  0.00     0.031 A 
BRANCH  51  65
ATOM     65  C   UNL A   1      38.359  29.319  28.767  1.00  0.00    -0.014 A 
ATOM     66  C   UNL A   1      37.645  29.830  27.667  1.00  0.00     0.009 A 
ATOM     67  C   UNL A   1      37.646  29.214  29.972  1.00  0.00     0.009 A 
ATOM     68  C   UNL A   1      36.333  30.306  27.790  1.00  0.00     0.001 A 
ATOM     69  C   UNL A   1      36.348  29.726  30.113  1.00  0.00     0.001 A 
ATOM     70  C   UNL A   1      35.695  30.282  29.022  1.00  0.00     0.000 A 
ENDBRANCH  51  65
BRANCH  52  71
ATOM     71  C   UNL A   1      47.468  26.050  28.883  1.00  0.00    -0.014 A 
ATOM     72  C   UNL A   1      47.163  25.865  27.520  1.00  0.00     0.009 A 
ATOM     73  C   UNL A   1      48.699  25.581  29.363  1.00  0.00     0.009 A 
ATOM     74  C   UNL A   1      48.113  25.342  26.638  1.00  0.00     0.001 A 
ATOM     75  C   UNL A   1      49.644  25.048  28.477  1.00  0.00     0.001 A 
ATOM     76  C   UNL A   1      49.366  24.964  27.112  1.00  0.00     0.000 A 
ENDBRANCH  52  71
BRANCH  64  77
ATOM     77  C   UNL A   1      44.170  32.412  27.719  1.00  0.00    -0.014 A 
ATOM     78  C   UNL A   1      44.145  33.667  28.339  1.00  0.00     0.009 A 
ATOM     79  C   UNL A   1      44.278  32.410  26.307  1.00  0.00     0.009 A 
ATOM     80  C   UNL A   1      44.186  34.853  27.589  1.00  0.00     0.001 A 
ATOM     81  C   UNL A   1      44.368  33.587  25.560  1.00  0.00     0.001 A 
ATOM     82  C   UNL A   1      44.311  34.813  26.204  1.00  0.00     0.000 A 
ENDBRANCH  64  77
ENDBRANCH  38  39
ENDBRANCH  30  33
ENDBRANCH  28  29
ENDBRANCH  27  28
ENDBRANCH  26  27
ENDBRANCH   1  26
TORSDOF 17
ENDMDL
MODEL 3
REMARK VINA RESULT:     -11.7      3.301      8.479
REMARK SMILES Cc1ccc(C[C@@H](Cc2cc(F)cc(Br)c2)C(=O)NCCCCCCNC(=O)c2ccc(-c3c4nc(c(-c5ccccc5)c5ccc([nH]5)c(-c5ccccc5)c5nc(c(-c6ccccc6)c6ccc3[nH]6)C=C5)C=C4)cc2)cc1
REMARK SMILES IDX 22 1 21 2 20 3 19 4 17 5 18 6 7 8 6 9 5 10 1 11 2 12 3 13
REMARK SMILES IDX 78 14 4 15 77 16 8 17 9 18 10 19 16 20 11 21 14 22 12 23
REMARK SMILES IDX 13 24 15 25 23 26 24 27 25 28 26 29 27 30 28 32 29 33 30 34
REMARK SMILES IDX 76 35 31 36 75 37 32 38 33 39 34 40 69 41 35 42 74 43 68 44
REMARK SMILES IDX 70 45 36 46 73 47 67 48 66 49 37 51 59 52 44 53 58 54 45 55
REMARK SMILES IDX 48 56 57 57 71 58 46 59 47 60 56 62 72 63 49 64 38 65 39 66
REMARK SMILES IDX 43 67 40 68 42 69 41 70 60 71 61 72 65 73 62 74 64 75 63 76
REMARK SMILES IDX 50 77 51 78 55 79 52 80 54 81 53 82
REMARK H PARENT 19 7 26 31 70 50 48 61
REMARK Flexibility Score: inf
ROOT
ATOM      1  C   UNL A   1      35.705  23.962  25.240  1.00  0.00     0.002 C 
ENDROOT
BRANCH   1   2
ATOM      2  C   UNL A   1      35.033  22.700  24.689  1.00  0.00     0.021 C 
BRANCH   2   3
ATOM      3  C   UNL A   1      33.522  22.817  24.537  1.00  0.00     0.116 C 
BRANCH   3   4
ATOM      4  N   UNL A   1      32.859  22.934  25.820  1.00  0.00    -0.356 N 
ATOM      5  C   UNL A   1      32.105  23.946  26.327  1.00  0.00     0.223 C 
ATOM      6  O   UNL A   1      31.537  23.751  27.405  1.00  0.00    -0.275 OA
ATOM      7  H   UNL A   1      32.972  22.160  26.417  1.00  0.00     0.163 HD
BRANCH   5   8
ATOM      8  C   UNL A   1      31.975  25.291  25.622  1.00  0.00     0.087 C 
BRANCH   8   9
ATOM      9  C   UNL A   1      31.058  25.051  24.390  1.00  0.00     0.049 C 
BRANCH   9  10
ATOM     10  C   UNL A   1      30.375  26.218  23.714  1.00  0.00    -0.047 A 
ATOM     11  C   UNL A   1      28.460  29.790  22.194  1.00  0.00     0.044 C 
ATOM     12  C   UNL A   1      29.113  28.548  22.725  1.00  0.00    -0.051 A 
ATOM     13  C   UNL A   1      30.462  28.303  22.458  1.00  0.00     0.004 A 
ATOM     14  C   UNL A   1      28.394  27.618  23.480  1.00  0.00     0.004 A 
ATOM     15  C   UNL A   1      31.088  27.161  22.964  1.00  0.00     0.004 A 
ATOM     16  C   UNL A   1      29.018  26.465  23.966  1.00  0.00     0.004 A 
ENDBRANCH   9  10
ENDBRANCH   8   9
BRANCH   8  17
ATOM     17  C   UNL A   1      31.604  26.501  26.514  1.00  0.00     0.049 C 
BRANCH  17  18
ATOM     18  C   UNL A   1      32.333  27.834  26.495  1.00  0.00    -0.043 A 
ATOM     19  C   UNL A   1      31.585  28.967  26.119  1.00  0.00     0.043 A 
ATOM     20  C   UNL A   1      33.671  28.031  26.859  1.00  0.00     0.019 A 
ATOM     21  C   UNL A   1      32.125  30.246  26.219  1.00  0.00     0.124 A 
ATOM     22  C   UNL A   1      34.183  29.328  26.997  1.00  0.00     0.021 A 
ATOM     23  F   UNL A   1      31.369  31.304  25.894  1.00  0.00    -0.207 F 
ATOM     24  C   UNL A   1      33.412  30.443  26.686  1.00  0.00     0.055 A 
ATOM     25  Br  UNL A   1      35.930  29.576  27.683  1.00  0.00    -0.051 Br
ENDBRANCH  17  18
ENDBRANCH   8  17
ENDBRANCH   5   8
ENDBRANCH   3   4
ENDBRANCH   2   3
ENDBRANCH   1   2
BRANCH   1  26
ATOM     26  C   UNL A   1      36.968  23.745  26.096  1.00  0.00     0.002 C 
BRANCH  26  27
ATOM     27  C   UNL A   1      37.882  22.590  25.675  1.00  0.00     0.021 C 
BRANCH  27  28
ATOM     28  C   UNL A   1      39.168  22.495  26.482  1.00  0.00     0.116 C 
BRANCH  28  29
ATOM     29  N   UNL A   1      39.997  21.349  26.155  1.00  0.00    -0.352 N 
ATOM     30  C   UNL A   1      41.378  21.220  26.122  1.00  0.00     0.251 C 
ATOM     31  H   UNL A   1      39.501  20.533  25.918  1.00  0.00     0.163 HD
ATOM     32  O   UNL A   1      41.871  20.194  25.704  1.00  0.00    -0.269 OA
BRANCH  30  33
ATOM     33  C   UNL A   1      42.247  22.268  26.733  1.00  0.00     0.039 A 
ATOM     34  C   UNL A   1      42.409  22.230  28.126  1.00  0.00     0.014 A 
ATOM     35  C   UNL A   1      42.722  23.362  26.018  1.00  0.00     0.014 A 
ATOM     36  C   UNL A   1      42.789  23.384  28.808  1.00  0.00     0.010 A 
ATOM     37  C   UNL A   1      42.998  24.534  26.690  1.00  0.00     0.010 A 
ATOM     38  C   UNL A   1      42.959  24.559  28.083  1.00  0.00    -0.014 A 
BRANCH  38  39
ATOM     39  C   UNL A   1      42.985  25.881  28.689  1.00  0.00     0.031 A 
ATOM     40  C   UNL A   1      41.761  26.701  28.749  1.00  0.00     0.074 A 
ATOM     41  C   UNL A   1      44.128  26.335  29.249  1.00  0.00     0.049 A 
ATOM     42  N   UNL A   1      41.758  27.988  28.842  1.00  0.00    -0.248 NA
ATOM     43  C   UNL A   1      40.424  26.126  28.658  1.00  0.00     0.031 C 
ATOM     44  C   UNL A   1      44.294  27.488  30.132  1.00  0.00     0.029 A 
ATOM     45  N   UNL A   1      45.429  25.939  29.011  1.00  0.00    -0.354 N 
ATOM     46  C   UNL A   1      40.470  28.375  29.126  1.00  0.00     0.074 A 
ATOM     47  C   UNL A   1      39.663  27.196  28.913  1.00  0.00     0.031 C 
ATOM     48  C   UNL A   1      45.589  27.849  30.135  1.00  0.00     0.029 A 
ATOM     49  C   UNL A   1      46.269  27.042  29.135  1.00  0.00     0.049 A 
ATOM     50  H   UNL A   1      45.715  25.025  28.789  1.00  0.00     0.167 HD
ATOM     51  C   UNL A   1      40.242  29.609  29.655  1.00  0.00     0.031 A 
ATOM     52  C   UNL A   1      46.961  27.555  28.073  1.00  0.00     0.031 A 
ATOM     53  C   UNL A   1      41.472  30.388  29.771  1.00  0.00     0.049 A 
ATOM     54  C   UNL A   1      46.570  28.979  27.724  1.00  0.00     0.074 A 
ATOM     55  C   UNL A   1      42.326  30.648  30.832  1.00  0.00     0.029 A 
ATOM     56  N   UNL A   1      42.150  30.767  28.619  1.00  0.00    -0.354 N 
ATOM     57  N   UNL A   1      45.466  29.551  28.120  1.00  0.00    -0.248 NA
ATOM     58  C   UNL A   1      47.371  29.858  26.875  1.00  0.00     0.031 C 
ATOM     59  C   UNL A   1      43.552  31.128  30.302  1.00  0.00     0.029 A 
ATOM     60  C   UNL A   1      43.429  31.188  28.924  1.00  0.00     0.049 A 
ATOM     61  H   UNL A   1      41.770  30.740  27.711  1.00  0.00     0.167 HD
ATOM     62  C   UNL A   1      45.394  30.824  27.615  1.00  0.00     0.074 A 
ATOM     63  C   UNL A   1      46.618  30.973  26.850  1.00  0.00     0.031 C 
ATOM     64  C   UNL A   1      44.326  31.637  27.867  1.00  0.00     0.031 A 
BRANCH  51  65
ATOM     65  C   UNL A   1      38.951  29.984  30.340  1.00  0.00    -0.014 A 
ATOM     66  C   UNL A   1      38.161  28.980  30.931  1.00  0.00     0.009 A 
ATOM     67  C   UNL A   1      38.433  31.288  30.393  1.00  0.00     0.009 A 
ATOM     68  C   UNL A   1      36.886  29.246  31.448  1.00  0.00     0.001 A 
ATOM     69  C   UNL A   1      37.143  31.555  30.871  1.00  0.00     0.001 A 
ATOM     70  C   UNL A   1      36.364  30.530  31.390  1.00  0.00     0.000 A 
ENDBRANCH  51  65
BRANCH  52  71
ATOM     71  C   UNL A   1      47.382  26.528  27.079  1.00  0.00    -0.014 A 
ATOM     72  C   UNL A   1      46.427  26.079  26.146  1.00  0.00     0.009 A 
ATOM     73  C   UNL A   1      48.740  26.303  26.810  1.00  0.00     0.009 A 
ATOM     74  C   UNL A   1      46.825  25.534  24.921  1.00  0.00     0.001 A 
ATOM     75  C   UNL A   1      49.133  25.747  25.585  1.00  0.00     0.001 A 
ATOM     76  C   UNL A   1      48.179  25.398  24.628  1.00  0.00     0.000 A 
ENDBRANCH  52  71
BRANCH  64  77
ATOM     77  C   UNL A   1      44.023  32.963  27.206  1.00  0.00    -0.014 A 
ATOM     78  C   UNL A   1      43.959  33.167  25.822  1.00  0.00     0.009 A 
ATOM     79  C   UNL A   1      43.644  34.057  28.020  1.00  0.00     0.009 A 
ATOM     80  C   UNL A   1      43.574  34.405  25.283  1.00  0.00     0.001 A 
ATOM     81  C   UNL A   1      43.214  35.275  27.489  1.00  0.00     0.001 A 
ATOM     82  C   UNL A   1      43.190  35.452  26.115  1.00  0.00     0.000 A 
ENDBRANCH  64  77
ENDBRANCH  38  39
ENDBRANCH  30  33
ENDBRANCH  28  29
ENDBRANCH  27  28
ENDBRANCH  26  27
ENDBRANCH   1  26
TORSDOF 17
ENDMDL
