MODEL 1
REMARK VINA RESULT:     -12.5      0.000      0.000
REMARK SMILES Cc1ccc(-c2nn(-c3ccccc3)cc2[C@@H]2[NH2+][C@H](C(=O)NCCCCCCNC(=O)c3ccc(-c4c5nc(c(-c6ccccc6)c6ccc([nH]6)c(-c6ccccc6)c6nc(c(-c7ccccc7)c7ccc4[nH]7)C=C6)C=C5)cc3)CS2)cc1
REMARK SMILES IDX 25 1 24 2 23 3 22 4 20 5 21 6 19 8 17 9 18 10 81 11 80 14
REMARK SMILES IDX 16 15 6 16 7 17 8 18 15 19 5 20 1 21 2 22 3 23 83 24 4 25
REMARK SMILES IDX 82 26 9 27 10 28 14 29 11 30 13 31 12 32 26 33 27 34 28 35
REMARK SMILES IDX 29 36 30 37 31 39 32 40 33 41 79 42 34 43 78 44 35 45 36 46
REMARK SMILES IDX 37 47 72 48 38 49 77 50 71 51 73 52 39 53 76 54 70 55 69 56
REMARK SMILES IDX 40 58 62 59 47 60 61 61 48 62 51 63 60 64 74 65 49 66 50 67
REMARK SMILES IDX 59 69 75 70 52 71 41 72 42 73 46 74 43 75 45 76 44 77 63 78
REMARK SMILES IDX 64 79 68 80 65 81 67 82 66 83 53 84 54 85 58 86 55 87 57 88
REMARK SMILES IDX 56 89
REMARK H PARENT 22 7 18 12 18 13 29 38 73 57 51 68
REMARK Flexibility Score: inf
ROOT
ATOM      1  C   UNL A   1      32.708  27.440  26.860  1.00  0.00     0.002 C 
ENDROOT
BRANCH   1   2
ATOM      2  C   UNL A   1      31.272  27.086  26.375  1.00  0.00     0.021 C 
BRANCH   2   3
ATOM      3  C   UNL A   1      30.802  25.660  26.079  1.00  0.00     0.116 C 
BRANCH   3   4
ATOM      4  N   UNL A   1      31.364  24.597  26.903  1.00  0.00    -0.351 N 
ATOM      5  C   UNL A   1      31.739  23.312  26.625  1.00  0.00     0.279 C 
ATOM      6  O   UNL A   1      32.447  22.776  27.495  1.00  0.00    -0.268 OA
ATOM      7  H   UNL A   1      31.501  24.856  27.844  1.00  0.00     0.163 HD
BRANCH   5   8
ATOM      8  C   UNL A   1      31.350  22.439  25.396  1.00  0.00     0.283 C 
ATOM      9  C   UNL A   1      32.449  22.312  23.240  1.00  0.00     0.278 C 
ATOM     10  N   UNL A   1      31.480  23.054  24.054  1.00  0.00    -0.320 N 
ATOM     11  S   UNL A   1      32.307  20.589  23.746  1.00  0.00    -0.087 SA
ATOM     12  H   UNL A   1      30.572  23.040  23.589  1.00  0.00     0.348 HD
ATOM     13  H   UNL A   1      31.807  24.014  24.162  1.00  0.00     0.348 HD
ATOM     14  C   UNL A   1      31.990  21.046  25.467  1.00  0.00     0.151 C 
BRANCH   9  15
ATOM     15  C   UNL A   1      33.802  22.909  23.456  1.00  0.00     0.067 A 
ATOM     16  C   UNL A   1      34.203  24.293  23.350  1.00  0.00     0.103 A 
ATOM     17  N   UNL A   1      35.525  24.421  23.620  1.00  0.00    -0.167 NA
ATOM     18  N   UNL A   1      35.900  23.204  24.092  1.00  0.00    -0.240 N 
ATOM     19  C   UNL A   1      34.945  22.260  23.874  1.00  0.00     0.126 A 
BRANCH  16  20
ATOM     20  C   UNL A   1      33.351  25.469  23.040  1.00  0.00     0.003 A 
ATOM     21  C   UNL A   1      30.777  28.900  22.304  1.00  0.00     0.044 C 
ATOM     22  C   UNL A   1      31.667  27.712  22.525  1.00  0.00    -0.051 A 
ATOM     23  C   UNL A   1      32.836  27.861  23.264  1.00  0.00     0.004 A 
ATOM     24  C   UNL A   1      31.368  26.448  22.002  1.00  0.00     0.004 A 
ATOM     25  C   UNL A   1      33.656  26.756  23.516  1.00  0.00     0.011 A 
ATOM     26  C   UNL A   1      32.204  25.342  22.250  1.00  0.00     0.011 A 
ENDBRANCH  16  20
BRANCH  18  27
ATOM     27  C   UNL A   1      37.022  23.003  24.931  1.00  0.00     0.065 A 
ATOM     28  C   UNL A   1      37.472  24.063  25.741  1.00  0.00     0.028 A 
ATOM     29  C   UNL A   1      37.668  21.770  24.965  1.00  0.00     0.028 A 
ATOM     30  C   UNL A   1      38.624  23.916  26.512  1.00  0.00     0.002 A 
ATOM     31  C   UNL A   1      38.769  21.605  25.812  1.00  0.00     0.002 A 
ATOM     32  C   UNL A   1      39.265  22.681  26.558  1.00  0.00     0.000 A 
ENDBRANCH  18  27
ENDBRANCH   9  15
ENDBRANCH   5   8
ENDBRANCH   3   4
ENDBRANCH   2   3
ENDBRANCH   1   2
BRANCH   1  33
ATOM     33  C   UNL A   1      33.182  28.851  27.242  1.00  0.00     0.002 C 
BRANCH  33  34
ATOM     34  C   UNL A   1      34.679  29.055  27.490  1.00  0.00     0.021 C 
BRANCH  34  35
ATOM     35  C   UNL A   1      35.187  30.479  27.716  1.00  0.00     0.116 C 
BRANCH  35  36
ATOM     36  N   UNL A   1      34.177  31.545  27.577  1.00  0.00    -0.352 N 
ATOM     37  C   UNL A   1      34.070  32.732  28.303  1.00  0.00     0.251 C 
ATOM     38  H   UNL A   1      33.492  31.401  26.886  1.00  0.00     0.163 HD
ATOM     39  O   UNL A   1      33.203  33.555  28.084  1.00  0.00    -0.269 OA
BRANCH  37  40
ATOM     40  C   UNL A   1      35.143  33.022  29.284  1.00  0.00     0.039 A 
ATOM     41  C   UNL A   1      36.192  33.823  28.825  1.00  0.00     0.014 A 
ATOM     42  C   UNL A   1      35.305  32.150  30.355  1.00  0.00     0.014 A 
ATOM     43  C   UNL A   1      37.485  33.492  29.205  1.00  0.00     0.010 A 
ATOM     44  C   UNL A   1      36.594  31.760  30.659  1.00  0.00     0.010 A 
ATOM     45  C   UNL A   1      37.674  32.359  29.996  1.00  0.00    -0.014 A 
BRANCH  45  46
ATOM     46  C   UNL A   1      38.956  31.675  30.085  1.00  0.00     0.031 A 
ATOM     47  C   UNL A   1      39.083  30.328  29.496  1.00  0.00     0.074 A 
ATOM     48  C   UNL A   1      40.022  32.234  30.709  1.00  0.00     0.049 A 
ATOM     49  N   UNL A   1      39.908  29.429  29.919  1.00  0.00    -0.248 NA
ATOM     50  C   UNL A   1      38.209  29.852  28.429  1.00  0.00     0.031 C 
ATOM     51  C   UNL A   1      41.396  31.727  30.695  1.00  0.00     0.029 A 
ATOM     52  N   UNL A   1      40.069  33.254  31.663  1.00  0.00    -0.354 N 
ATOM     53  C   UNL A   1      39.910  28.415  28.993  1.00  0.00     0.074 A 
ATOM     54  C   UNL A   1      38.740  28.652  28.182  1.00  0.00     0.031 C 
ATOM     55  C   UNL A   1      42.033  32.185  31.783  1.00  0.00     0.029 A 
ATOM     56  C   UNL A   1      41.047  32.872  32.597  1.00  0.00     0.049 A 
ATOM     57  H   UNL A   1      39.525  34.075  31.678  1.00  0.00     0.167 HD
ATOM     58  C   UNL A   1      40.988  27.585  28.919  1.00  0.00     0.031 A 
ATOM     59  C   UNL A   1      40.802  32.621  33.919  1.00  0.00     0.031 A 
ATOM     60  C   UNL A   1      41.941  27.814  30.010  1.00  0.00     0.049 A 
ATOM     61  C   UNL A   1      41.230  31.233  34.382  1.00  0.00     0.074 A 
ATOM     62  C   UNL A   1      43.210  28.366  30.094  1.00  0.00     0.029 A 
ATOM     63  N   UNL A   1      41.502  27.678  31.319  1.00  0.00    -0.354 N 
ATOM     64  N   UNL A   1      41.719  30.316  33.594  1.00  0.00    -0.248 NA
ATOM     65  C   UNL A   1      41.020  30.726  35.743  1.00  0.00     0.031 C 
ATOM     66  C   UNL A   1      43.535  28.532  31.472  1.00  0.00     0.029 A 
ATOM     67  C   UNL A   1      42.469  28.071  32.221  1.00  0.00     0.049 A 
ATOM     68  H   UNL A   1      40.612  27.343  31.572  1.00  0.00     0.167 HD
ATOM     69  C   UNL A   1      41.814  29.127  34.268  1.00  0.00     0.074 A 
ATOM     70  C   UNL A   1      41.379  29.435  35.617  1.00  0.00     0.031 C 
ATOM     71  C   UNL A   1      42.185  27.971  33.645  1.00  0.00     0.031 A 
BRANCH  58  72
ATOM     72  C   UNL A   1      41.307  26.723  27.714  1.00  0.00    -0.014 A 
ATOM     73  C   UNL A   1      41.874  25.448  27.904  1.00  0.00     0.009 A 
ATOM     74  C   UNL A   1      41.149  27.117  26.374  1.00  0.00     0.009 A 
ATOM     75  C   UNL A   1      42.334  24.668  26.834  1.00  0.00     0.001 A 
ATOM     76  C   UNL A   1      41.623  26.354  25.299  1.00  0.00     0.001 A 
ATOM     77  C   UNL A   1      42.230  25.133  25.529  1.00  0.00     0.000 A 
ENDBRANCH  58  72
BRANCH  59  78
ATOM     78  C   UNL A   1      39.636  33.358  34.471  1.00  0.00    -0.014 A 
ATOM     79  C   UNL A   1      38.343  32.894  34.166  1.00  0.00     0.009 A 
ATOM     80  C   UNL A   1      39.799  34.240  35.548  1.00  0.00     0.009 A 
ATOM     81  C   UNL A   1      37.262  33.202  34.997  1.00  0.00     0.001 A 
ATOM     82  C   UNL A   1      38.712  34.555  36.370  1.00  0.00     0.001 A 
ATOM     83  C   UNL A   1      37.455  34.005  36.118  1.00  0.00     0.000 A 
ENDBRANCH  59  78
BRANCH  71  84
ATOM     84  C   UNL A   1      42.272  26.619  34.307  1.00  0.00    -0.014 A 
ATOM     85  C   UNL A   1      41.277  26.108  35.150  1.00  0.00     0.009 A 
ATOM     86  C   UNL A   1      43.456  25.857  34.187  1.00  0.00     0.009 A 
ATOM     87  C   UNL A   1      41.437  24.872  35.795  1.00  0.00     0.001 A 
ATOM     88  C   UNL A   1      43.628  24.637  34.843  1.00  0.00     0.001 A 
ATOM     89  C   UNL A   1      42.611  24.138  35.642  1.00  0.00     0.000 A 
ENDBRANCH  71  84
ENDBRANCH  45  46
ENDBRANCH  37  40
ENDBRANCH  35  36
ENDBRANCH  34  35
ENDBRANCH  33  34
ENDBRANCH   1  33
TORSDOF 16
ENDMDL
MODEL 2
REMARK VINA RESULT:     -12.4      2.954      8.605
REMARK SMILES Cc1ccc(-c2nn(-c3ccccc3)cc2[C@@H]2[NH2+][C@H](C(=O)NCCCCCCNC(=O)c3ccc(-c4c5nc(c(-c6ccccc6)c6ccc([nH]6)c(-c6ccccc6)c6nc(c(-c7ccccc7)c7ccc4[nH]7)C=C6)C=C5)cc3)CS2)cc1
REMARK SMILES IDX 25 1 24 2 23 3 22 4 20 5 21 6 19 8 17 9 18 10 81 11 80 14
REMARK SMILES IDX 16 15 6 16 7 17 8 18 15 19 5 20 1 21 2 22 3 23 83 24 4 25
REMARK SMILES IDX 82 26 9 27 10 28 14 29 11 30 13 31 12 32 26 33 27 34 28 35
REMARK SMILES IDX 29 36 30 37 31 39 32 40 33 41 79 42 34 43 78 44 35 45 36 46
REMARK SMILES IDX 37 47 72 48 38 49 77 50 71 51 73 52 39 53 76 54 70 55 69 56
REMARK SMILES IDX 40 58 62 59 47 60 61 61 48 62 51 63 60 64 74 65 49 66 50 67
REMARK SMILES IDX 59 69 75 70 52 71 41 72 42 73 46 74 43 75 45 76 44 77 63 78
REMARK SMILES IDX 64 79 68 80 65 81 67 82 66 83 53 84 54 85 58 86 55 87 57 88
REMARK SMILES IDX 56 89
REMARK H PARENT 22 7 18 12 18 13 29 38 73 57 51 68
REMARK Flexibility Score: inf
ROOT
ATOM      1  C   UNL A   1      34.577  22.669  26.043  1.00  0.00     0.002 C 
ENDROOT
BRANCH   1   2
ATOM      2  C   UNL A   1      33.021  22.697  26.039  1.00  0.00     0.021 C 
BRANCH   2   3
ATOM      3  C   UNL A   1      32.177  23.204  27.211  1.00  0.00     0.116 C 
BRANCH   3   4
ATOM      4  N   UNL A   1      31.326  24.361  26.958  1.00  0.00    -0.351 N 
ATOM      5  C   UNL A   1      31.576  25.589  26.413  1.00  0.00     0.279 C 
ATOM      6  O   UNL A   1      30.562  26.228  26.083  1.00  0.00    -0.268 OA
ATOM      7  H   UNL A   1      30.389  24.232  27.234  1.00  0.00     0.163 HD
BRANCH   5   8
ATOM      8  C   UNL A   1      32.950  26.291  26.205  1.00  0.00     0.283 C 
ATOM      9  C   UNL A   1      33.782  27.398  24.216  1.00  0.00     0.278 C 
ATOM     10  N   UNL A   1      33.619  26.108  24.896  1.00  0.00    -0.320 N 
ATOM     11  S   UNL A   1      34.039  28.615  25.519  1.00  0.00    -0.087 SA
ATOM     12  H   UNL A   1      34.537  25.689  25.043  1.00  0.00     0.348 HD
ATOM     13  H   UNL A   1      33.043  25.500  24.314  1.00  0.00     0.348 HD
ATOM     14  C   UNL A   1      32.904  27.763  26.640  1.00  0.00     0.151 C 
BRANCH   9  15
ATOM     15  C   UNL A   1      32.574  27.643  23.373  1.00  0.00     0.067 A 
ATOM     16  C   UNL A   1      31.753  26.682  22.674  1.00  0.00     0.103 A 
ATOM     17  N   UNL A   1      30.750  27.311  22.014  1.00  0.00    -0.167 NA
ATOM     18  N   UNL A   1      30.802  28.595  22.452  1.00  0.00    -0.240 N 
ATOM     19  C   UNL A   1      31.947  28.850  23.140  1.00  0.00     0.126 A 
BRANCH  16  20
ATOM     20  C   UNL A   1      31.888  25.203  22.664  1.00  0.00     0.003 A 
ATOM     21  C   UNL A   1      32.338  20.877  22.815  1.00  0.00     0.044 C 
ATOM     22  C   UNL A   1      32.187  22.368  22.730  1.00  0.00    -0.051 A 
ATOM     23  C   UNL A   1      31.040  22.969  23.238  1.00  0.00     0.004 A 
ATOM     24  C   UNL A   1      33.162  23.184  22.143  1.00  0.00     0.004 A 
ATOM     25  C   UNL A   1      30.901  24.361  23.206  1.00  0.00     0.011 A 
ATOM     26  C   UNL A   1      33.011  24.584  22.104  1.00  0.00     0.011 A 
ENDBRANCH  16  20
BRANCH  18  27
ATOM     27  C   UNL A   1      29.695  29.476  22.423  1.00  0.00     0.065 A 
ATOM     28  C   UNL A   1      29.587  30.406  21.371  1.00  0.00     0.028 A 
ATOM     29  C   UNL A   1      28.719  29.421  23.414  1.00  0.00     0.028 A 
ATOM     30  C   UNL A   1      28.552  31.340  21.365  1.00  0.00     0.002 A 
ATOM     31  C   UNL A   1      27.635  30.304  23.348  1.00  0.00     0.002 A 
ATOM     32  C   UNL A   1      27.568  31.280  22.347  1.00  0.00     0.000 A 
ENDBRANCH  18  27
ENDBRANCH   9  15
ENDBRANCH   5   8
ENDBRANCH   3   4
ENDBRANCH   2   3
ENDBRANCH   1   2
BRANCH   1  33
ATOM     33  C   UNL A   1      35.440  21.714  25.203  1.00  0.00     0.002 C 
BRANCH  33  34
ATOM     34  C   UNL A   1      36.838  21.374  25.723  1.00  0.00     0.021 C 
BRANCH  34  35
ATOM     35  C   UNL A   1      37.928  22.441  25.622  1.00  0.00     0.116 C 
BRANCH  35  36
ATOM     36  N   UNL A   1      39.152  22.176  26.401  1.00  0.00    -0.352 N 
ATOM     37  C   UNL A   1      39.910  23.076  27.150  1.00  0.00     0.251 C 
ATOM     38  H   UNL A   1      39.476  21.247  26.390  1.00  0.00     0.163 HD
ATOM     39  O   UNL A   1      40.896  22.737  27.776  1.00  0.00    -0.269 OA
BRANCH  37  40
ATOM     40  C   UNL A   1      39.394  24.461  27.265  1.00  0.00     0.039 A 
ATOM     41  C   UNL A   1      40.058  25.428  26.506  1.00  0.00     0.014 A 
ATOM     42  C   UNL A   1      38.670  24.798  28.404  1.00  0.00     0.014 A 
ATOM     43  C   UNL A   1      40.292  26.668  27.082  1.00  0.00     0.010 A 
ATOM     44  C   UNL A   1      38.981  25.996  29.016  1.00  0.00     0.010 A 
ATOM     45  C   UNL A   1      39.881  26.875  28.399  1.00  0.00    -0.014 A 
BRANCH  45  46
ATOM     46  C   UNL A   1      40.442  27.929  29.234  1.00  0.00     0.031 A 
ATOM     47  C   UNL A   1      39.577  29.060  29.624  1.00  0.00     0.074 A 
ATOM     48  C   UNL A   1      41.734  27.905  29.642  1.00  0.00     0.049 A 
ATOM     49  N   UNL A   1      40.012  30.247  29.881  1.00  0.00    -0.248 NA
ATOM     50  C   UNL A   1      38.122  28.959  29.660  1.00  0.00     0.031 C 
ATOM     51  C   UNL A   1      42.346  28.799  30.628  1.00  0.00     0.029 A 
ATOM     52  N   UNL A   1      42.829  27.218  29.112  1.00  0.00    -0.354 N 
ATOM     53  C   UNL A   1      38.969  30.951  30.430  1.00  0.00     0.074 A 
ATOM     54  C   UNL A   1      37.795  30.166  30.128  1.00  0.00     0.031 C 
ATOM     55  C   UNL A   1      43.668  28.848  30.401  1.00  0.00     0.029 A 
ATOM     56  C   UNL A   1      43.917  28.106  29.178  1.00  0.00     0.049 A 
ATOM     57  H   UNL A   1      42.837  26.298  28.762  1.00  0.00     0.167 HD
ATOM     58  C   UNL A   1      39.235  32.034  31.212  1.00  0.00     0.031 A 
ATOM     59  C   UNL A   1      44.596  28.583  28.091  1.00  0.00     0.031 A 
ATOM     60  C   UNL A   1      40.658  32.391  31.199  1.00  0.00     0.049 A 
ATOM     61  C   UNL A   1      44.632  30.103  27.992  1.00  0.00     0.074 A 
ATOM     62  C   UNL A   1      41.691  32.306  32.119  1.00  0.00     0.029 A 
ATOM     63  N   UNL A   1      41.258  32.699  29.987  1.00  0.00    -0.354 N 
ATOM     64  N   UNL A   1      44.013  30.905  28.814  1.00  0.00    -0.248 NA
ATOM     65  C   UNL A   1      45.259  30.835  26.886  1.00  0.00     0.031 C 
ATOM     66  C   UNL A   1      42.914  32.593  31.445  1.00  0.00     0.029 A 
ATOM     67  C   UNL A   1      42.620  32.864  30.123  1.00  0.00     0.049 A 
ATOM     68  H   UNL A   1      40.771  32.787  29.135  1.00  0.00     0.167 HD
ATOM     69  C   UNL A   1      44.075  32.190  28.344  1.00  0.00     0.074 A 
ATOM     70  C   UNL A   1      44.879  32.101  27.140  1.00  0.00     0.031 C 
ATOM     71  C   UNL A   1      43.407  33.215  28.950  1.00  0.00     0.031 A 
BRANCH  58  72
ATOM     72  C   UNL A   1      38.246  32.630  32.192  1.00  0.00    -0.014 A 
ATOM     73  C   UNL A   1      37.850  33.973  32.049  1.00  0.00     0.009 A 
ATOM     74  C   UNL A   1      37.718  31.964  33.313  1.00  0.00     0.009 A 
ATOM     75  C   UNL A   1      37.061  34.627  33.006  1.00  0.00     0.001 A 
ATOM     76  C   UNL A   1      36.946  32.613  34.286  1.00  0.00     0.001 A 
ATOM     77  C   UNL A   1      36.629  33.952  34.140  1.00  0.00     0.000 A 
ENDBRANCH  58  72
BRANCH  59  78
ATOM     78  C   UNL A   1      44.575  27.674  26.915  1.00  0.00    -0.014 A 
ATOM     79  C   UNL A   1      45.309  26.475  26.981  1.00  0.00     0.009 A 
ATOM     80  C   UNL A   1      43.583  27.804  25.934  1.00  0.00     0.009 A 
ATOM     81  C   UNL A   1      44.968  25.387  26.172  1.00  0.00     0.001 A 
ATOM     82  C   UNL A   1      43.253  26.717  25.119  1.00  0.00     0.001 A 
ATOM     83  C   UNL A   1      43.918  25.499  25.266  1.00  0.00     0.000 A 
ENDBRANCH  59  78
BRANCH  71  84
ATOM     84  C   UNL A   1      43.392  34.644  28.469  1.00  0.00    -0.014 A 
ATOM     85  C   UNL A   1      43.521  35.746  29.323  1.00  0.00     0.009 A 
ATOM     86  C   UNL A   1      43.115  34.922  27.112  1.00  0.00     0.009 A 
ATOM     87  C   UNL A   1      43.434  37.058  28.833  1.00  0.00     0.001 A 
ATOM     88  C   UNL A   1      43.005  36.225  26.623  1.00  0.00     0.001 A 
ATOM     89  C   UNL A   1      43.176  37.297  27.485  1.00  0.00     0.000 A 
ENDBRANCH  71  84
ENDBRANCH  45  46
ENDBRANCH  37  40
ENDBRANCH  35  36
ENDBRANCH  34  35
ENDBRANCH  33  34
ENDBRANCH   1  33
TORSDOF 16
ENDMDL
MODEL 3
REMARK VINA RESULT:     -12.4      2.443      4.212
REMARK SMILES Cc1ccc(-c2nn(-c3ccccc3)cc2[C@@H]2[NH2+][C@H](C(=O)NCCCCCCNC(=O)c3ccc(-c4c5nc(c(-c6ccccc6)c6ccc([nH]6)c(-c6ccccc6)c6nc(c(-c7ccccc7)c7ccc4[nH]7)C=C6)C=C5)cc3)CS2)cc1
REMARK SMILES IDX 25 1 24 2 23 3 22 4 20 5 21 6 19 8 17 9 18 10 81 11 80 14
REMARK SMILES IDX 16 15 6 16 7 17 8 18 15 19 5 20 1 21 2 22 3 23 83 24 4 25
REMARK SMILES IDX 82 26 9 27 10 28 14 29 11 30 13 31 12 32 26 33 27 34 28 35
REMARK SMILES IDX 29 36 30 37 31 39 32 40 33 41 79 42 34 43 78 44 35 45 36 46
REMARK SMILES IDX 37 47 72 48 38 49 77 50 71 51 73 52 39 53 76 54 70 55 69 56
REMARK SMILES IDX 40 58 62 59 47 60 61 61 48 62 51 63 60 64 74 65 49 66 50 67
REMARK SMILES IDX 59 69 75 70 52 71 41 72 42 73 46 74 43 75 45 76 44 77 63 78
REMARK SMILES IDX 64 79 68 80 65 81 67 82 66 83 53 84 54 85 58 86 55 87 57 88
REMARK SMILES IDX 56 89
REMARK H PARENT 22 7 18 12 18 13 29 38 73 57 51 68
REMARK Flexibility Score: inf
ROOT
ATOM      1  C   UNL A   1      32.853  28.449  24.885  1.00  0.00     0.002 C 
ENDROOT
BRANCH   1   2
ATOM      2  C   UNL A   1      32.488  27.552  23.667  1.00  0.00     0.021 C 
BRANCH   2   3
ATOM      3  C   UNL A   1      33.464  27.217  22.536  1.00  0.00     0.116 C 
BRANCH   3   4
ATOM      4  N   UNL A   1      33.747  25.805  22.307  1.00  0.00    -0.351 N 
ATOM      5  C   UNL A   1      34.091  24.784  23.148  1.00  0.00     0.279 C 
ATOM      6  O   UNL A   1      33.976  23.646  22.660  1.00  0.00    -0.268 OA
ATOM      7  H   UNL A   1      33.676  25.535  21.362  1.00  0.00     0.163 HD
BRANCH   5   8
ATOM      8  C   UNL A   1      34.646  24.876  24.599  1.00  0.00     0.283 C 
ATOM      9  C   UNL A   1      33.914  23.661  26.564  1.00  0.00     0.278 C 
ATOM     10  N   UNL A   1      33.667  24.827  25.710  1.00  0.00    -0.320 N 
ATOM     11  S   UNL A   1      35.697  23.401  26.544  1.00  0.00    -0.087 SA
ATOM     12  H   UNL A   1      33.750  25.676  26.269  1.00  0.00     0.348 HD
ATOM     13  H   UNL A   1      32.728  24.754  25.317  1.00  0.00     0.348 HD
ATOM     14  C   UNL A   1      35.825  23.917  24.815  1.00  0.00     0.151 C 
BRANCH   9  15
ATOM     15  C   UNL A   1      33.118  22.512  26.037  1.00  0.00     0.067 A 
ATOM     16  C   UNL A   1      31.839  22.535  25.366  1.00  0.00     0.103 A 
ATOM     17  N   UNL A   1      31.450  21.276  25.050  1.00  0.00    -0.167 NA
ATOM     18  N   UNL A   1      32.536  20.504  25.313  1.00  0.00    -0.240 N 
ATOM     19  C   UNL A   1      33.478  21.180  26.025  1.00  0.00     0.126 A 
BRANCH  16  20
ATOM     20  C   UNL A   1      31.025  23.720  24.996  1.00  0.00     0.003 A 
ATOM     21  C   UNL A   1      28.796  27.284  23.867  1.00  0.00     0.044 C 
ATOM     22  C   UNL A   1      29.538  26.045  24.276  1.00  0.00    -0.051 A 
ATOM     23  C   UNL A   1      29.979  25.158  23.299  1.00  0.00     0.004 A 
ATOM     24  C   UNL A   1      29.800  25.742  25.618  1.00  0.00     0.004 A 
ATOM     25  C   UNL A   1      30.710  24.021  23.659  1.00  0.00     0.011 A 
ATOM     26  C   UNL A   1      30.528  24.589  25.974  1.00  0.00     0.011 A 
ENDBRANCH  16  20
BRANCH  18  27
ATOM     27  C   UNL A   1      32.769  19.248  24.704  1.00  0.00     0.065 A 
ATOM     28  C   UNL A   1      32.573  19.112  23.316  1.00  0.00     0.028 A 
ATOM     29  C   UNL A   1      33.196  18.162  25.462  1.00  0.00     0.028 A 
ATOM     30  C   UNL A   1      32.715  17.866  22.707  1.00  0.00     0.002 A 
ATOM     31  C   UNL A   1      33.423  16.938  24.824  1.00  0.00     0.002 A 
ATOM     32  C   UNL A   1      33.154  16.781  23.460  1.00  0.00     0.000 A 
ENDBRANCH  18  27
ENDBRANCH   9  15
ENDBRANCH   5   8
ENDBRANCH   3   4
ENDBRANCH   2   3
ENDBRANCH   1   2
BRANCH   1  33
ATOM     33  C   UNL A   1      32.116  29.740  25.276  1.00  0.00     0.002 C 
BRANCH  33  34
ATOM     34  C   UNL A   1      32.605  30.491  26.517  1.00  0.00     0.021 C 
BRANCH  34  35
ATOM     35  C   UNL A   1      33.937  30.074  27.138  1.00  0.00     0.116 C 
BRANCH  35  36
ATOM     36  N   UNL A   1      34.721  31.161  27.754  1.00  0.00    -0.352 N 
ATOM     37  C   UNL A   1      36.033  31.118  28.227  1.00  0.00     0.251 C 
ATOM     38  H   UNL A   1      34.260  32.026  27.843  1.00  0.00     0.163 HD
ATOM     39  O   UNL A   1      36.590  32.091  28.696  1.00  0.00    -0.269 OA
BRANCH  37  40
ATOM     40  C   UNL A   1      36.785  29.858  28.017  1.00  0.00     0.039 A 
ATOM     41  C   UNL A   1      36.939  29.042  29.140  1.00  0.00     0.014 A 
ATOM     42  C   UNL A   1      37.663  29.790  26.941  1.00  0.00     0.014 A 
ATOM     43  C   UNL A   1      38.163  28.419  29.337  1.00  0.00     0.010 A 
ATOM     44  C   UNL A   1      38.912  29.251  27.179  1.00  0.00     0.010 A 
ATOM     45  C   UNL A   1      39.187  28.667  28.423  1.00  0.00    -0.014 A 
BRANCH  45  46
ATOM     46  C   UNL A   1      40.590  28.447  28.745  1.00  0.00     0.031 A 
ATOM     47  C   UNL A   1      41.266  27.257  28.191  1.00  0.00     0.074 A 
ATOM     48  C   UNL A   1      41.279  29.290  29.552  1.00  0.00     0.049 A 
ATOM     49  N   UNL A   1      42.261  26.662  28.758  1.00  0.00    -0.248 NA
ATOM     50  C   UNL A   1      40.802  26.582  26.984  1.00  0.00     0.031 C 
ATOM     51  C   UNL A   1      42.724  29.274  29.789  1.00  0.00     0.029 A 
ATOM     52  N   UNL A   1      40.812  30.208  30.497  1.00  0.00    -0.354 N 
ATOM     53  C   UNL A   1      42.767  25.765  27.850  1.00  0.00     0.074 A 
ATOM     54  C   UNL A   1      41.743  25.645  26.840  1.00  0.00     0.031 C 
ATOM     55  C   UNL A   1      42.971  29.851  30.974  1.00  0.00     0.029 A 
ATOM     56  C   UNL A   1      41.686  30.119  31.594  1.00  0.00     0.049 A 
ATOM     57  H   UNL A   1      40.028  30.798  30.411  1.00  0.00     0.167 HD
ATOM     58  C   UNL A   1      44.058  25.348  27.975  1.00  0.00     0.031 A 
ATOM     59  C   UNL A   1      41.317  29.721  32.849  1.00  0.00     0.031 A 
ATOM     60  C   UNL A   1      44.674  25.816  29.221  1.00  0.00     0.049 A 
ATOM     61  C   UNL A   1      42.105  28.531  33.385  1.00  0.00     0.074 A 
ATOM     62  C   UNL A   1      45.645  26.754  29.533  1.00  0.00     0.029 A 
ATOM     63  N   UNL A   1      44.090  25.462  30.428  1.00  0.00    -0.354 N 
ATOM     64  N   UNL A   1      43.004  27.879  32.701  1.00  0.00    -0.248 NA
ATOM     65  C   UNL A   1      41.849  27.902  34.686  1.00  0.00     0.031 C 
ATOM     66  C   UNL A   1      45.653  26.936  30.947  1.00  0.00     0.029 A 
ATOM     67  C   UNL A   1      44.696  26.101  31.491  1.00  0.00     0.049 A 
ATOM     68  H   UNL A   1      43.337  24.835  30.515  1.00  0.00     0.167 HD
ATOM     69  C   UNL A   1      43.380  26.752  33.382  1.00  0.00     0.074 A 
ATOM     70  C   UNL A   1      42.641  26.815  34.629  1.00  0.00     0.031 C 
ATOM     71  C   UNL A   1      44.222  25.826  32.839  1.00  0.00     0.031 A 
BRANCH  58  72
ATOM     72  C   UNL A   1      44.852  24.717  26.850  1.00  0.00    -0.014 A 
ATOM     73  C   UNL A   1      44.933  23.314  26.759  1.00  0.00     0.009 A 
ATOM     74  C   UNL A   1      45.600  25.425  25.892  1.00  0.00     0.009 A 
ATOM     75  C   UNL A   1      45.774  22.671  25.840  1.00  0.00     0.001 A 
ATOM     76  C   UNL A   1      46.459  24.793  24.983  1.00  0.00     0.001 A 
ATOM     77  C   UNL A   1      46.558  23.413  24.965  1.00  0.00     0.000 A 
ENDBRANCH  58  72
BRANCH  59  78
ATOM     78  C   UNL A   1      39.895  29.992  33.179  1.00  0.00    -0.014 A 
ATOM     79  C   UNL A   1      39.503  31.323  33.419  1.00  0.00     0.009 A 
ATOM     80  C   UNL A   1      38.906  29.039  32.898  1.00  0.00     0.009 A 
ATOM     81  C   UNL A   1      38.171  31.714  33.253  1.00  0.00     0.001 A 
ATOM     82  C   UNL A   1      37.573  29.433  32.744  1.00  0.00     0.001 A 
ATOM     83  C   UNL A   1      37.214  30.773  32.882  1.00  0.00     0.000 A 
ENDBRANCH  59  78
BRANCH  71  84
ATOM     84  C   UNL A   1      44.648  24.543  33.508  1.00  0.00    -0.014 A 
ATOM     85  C   UNL A   1      43.772  23.482  33.769  1.00  0.00     0.009 A 
ATOM     86  C   UNL A   1      45.960  24.422  34.016  1.00  0.00     0.009 A 
ATOM     87  C   UNL A   1      44.204  22.336  34.455  1.00  0.00     0.001 A 
ATOM     88  C   UNL A   1      46.389  23.294  34.717  1.00  0.00     0.001 A 
ATOM     89  C   UNL A   1      45.510  22.243  34.928  1.00  0.00     0.000 A 
ENDBRANCH  71  84
ENDBRANCH  45  46
ENDBRANCH  37  40
ENDBRANCH  35  36
ENDBRANCH  34  35
ENDBRANCH  33  34
ENDBRANCH   1  33
TORSDOF 16
ENDMDL
