MODEL 1
REMARK VINA RESULT:     -12.2      0.000      0.000
REMARK SMILES O=C(NCCCCCCNC(=O)c1ccc(-c2c3nc(c(-c4ccccc4)c4ccc([nH]4)c(-c4ccccc4)c4nc(c(-c5ccccc5)c5ccc2[nH]5)C=C4)C=C3)cc1)C1=Cc2cc(S(F)(F)(F)(F)F)cc(Br)c2O[C@H]1C(F)(F)F
REMARK SMILES IDX 7 1 6 2 5 3 4 4 3 5 1 6 2 7 61 9 62 10 77 11 63 12 76 13
REMARK SMILES IDX 64 14 75 15 65 16 73 17 72 18 74 19 78 20 79 21 80 22 81 23
REMARK SMILES IDX 66 24 67 25 68 26 69 27 70 28 71 29 8 30 9 31 10 32 11 33
REMARK SMILES IDX 12 35 13 36 14 37 60 38 15 39 59 40 16 41 17 42 18 43 53 44
REMARK SMILES IDX 19 45 58 46 52 47 54 48 20 49 57 50 51 51 50 52 21 54 43 55
REMARK SMILES IDX 28 56 42 57 29 58 32 59 41 60 55 61 30 62 31 63 40 65 56 66
REMARK SMILES IDX 33 67 22 68 23 69 27 70 24 71 26 72 25 73 44 74 45 75 49 76
REMARK SMILES IDX 46 77 48 78 47 79 34 80 35 81 39 82 36 83 38 84 37 85
REMARK H PARENT 3 8 10 34 54 53 32 64
REMARK Flexibility Score: inf
ROOT
ATOM      1  C   UNL A   1      36.396  20.957  25.051  1.00  0.00     0.002 C 
ENDROOT
BRANCH   1   2
ATOM      2  C   UNL A   1      36.865  22.399  24.933  1.00  0.00     0.002 C 
BRANCH   2   3
ATOM      3  C   UNL A   1      35.904  23.306  25.683  1.00  0.00     0.021 C 
BRANCH   3   4
ATOM      4  C   UNL A   1      35.464  24.441  24.772  1.00  0.00     0.116 C 
BRANCH   4   5
ATOM      5  N   UNL A   1      34.332  25.152  25.385  1.00  0.00    -0.352 N 
ATOM      6  O   UNL A   1      32.227  26.210  25.083  1.00  0.00    -0.270 OA
ATOM      7  C   UNL A   1      33.205  25.595  24.553  1.00  0.00     0.251 C 
ATOM      8  H   UNL A   1      34.329  25.331  26.353  1.00  0.00     0.163 HD
BRANCH   7   9
ATOM      9  C   UNL A   1      33.208  25.319  23.057  1.00  0.00     0.067 C 
ATOM     10  C   UNL A   1      33.005  24.054  22.599  1.00  0.00     0.025 C 
ATOM     11  C   UNL A   1      33.438  26.455  22.075  1.00  0.00     0.314 C 
ATOM     12  C   UNL A   1      32.775  22.918  23.583  1.00  0.00     0.020 A 
ATOM     13  O   UNL A   1      31.489  24.484  24.824  1.00  0.00    -0.474 OA
ATOM     14  C   UNL A   1      33.345  21.668  23.408  1.00  0.00     0.036 A 
ATOM     15  C   UNL A   1      31.929  23.156  24.578  1.00  0.00     0.142 A 
ATOM     16  C   UNL A   1      32.732  20.646  24.172  1.00  0.00     0.109 A 
ATOM     17  C   UNL A   1      31.477  22.131  25.371  1.00  0.00     0.062 A 
ATOM     18  C   UNL A   1      31.952  20.858  25.216  1.00  0.00     0.044 A 
ATOM     19  Br  UNL A   1      30.128  22.495  26.746  1.00  0.00    -0.047 Br
BRANCH  11  20
ATOM     20  C   UNL A   1      33.636  27.755  22.840  1.00  0.00     0.429 C 
ATOM     21  F   UNL A   1      32.461  28.232  23.240  1.00  0.00    -0.167 F 
ATOM     22  F   UNL A   1      34.410  27.538  23.899  1.00  0.00    -0.167 F 
ATOM     23  F   UNL A   1      34.221  28.636  22.034  1.00  0.00    -0.167 F 
ENDBRANCH  11  20
BRANCH  16  24
ATOM     24  S   UNL A   1      33.039  18.931  23.684  1.00  0.00     0.310 S 
ATOM     25  F   UNL A   1      31.946  18.377  24.692  1.00  0.00    -0.094 F 
ATOM     26  F   UNL A   1      34.082  18.815  24.860  1.00  0.00    -0.094 F 
ATOM     27  F   UNL A   1      33.309  17.458  23.265  1.00  0.00    -0.094 F 
ATOM     28  F   UNL A   1      31.892  19.021  22.603  1.00  0.00    -0.094 F 
ATOM     29  F   UNL A   1      32.675  20.390  24.171  1.00  0.00    -0.094 F 
ENDBRANCH  16  24
ENDBRANCH   7   9
ENDBRANCH   4   5
ENDBRANCH   3   4
ENDBRANCH   2   3
ENDBRANCH   1   2
BRANCH   1  30
ATOM     30  C   UNL A   1      37.555  20.022  24.751  1.00  0.00     0.021 C 
BRANCH  30  31
ATOM     31  C   UNL A   1      38.676  20.268  25.748  1.00  0.00     0.116 C 
BRANCH  31  32
ATOM     32  N   UNL A   1      39.688  19.209  25.619  1.00  0.00    -0.352 N 
ATOM     33  C   UNL A   1      41.075  19.464  26.032  1.00  0.00     0.251 C 
ATOM     34  H   UNL A   1      39.435  18.330  25.256  1.00  0.00     0.163 HD
ATOM     35  O   UNL A   1      41.950  18.548  25.922  1.00  0.00    -0.269 OA
BRANCH  33  36
ATOM     36  C   UNL A   1      41.464  20.822  26.593  1.00  0.00     0.039 A 
ATOM     37  C   UNL A   1      41.311  21.068  27.947  1.00  0.00     0.014 A 
ATOM     38  C   UNL A   1      41.946  21.750  25.774  1.00  0.00     0.014 A 
ATOM     39  C   UNL A   1      41.425  22.434  28.298  1.00  0.00     0.010 A 
ATOM     40  C   UNL A   1      42.161  23.033  26.220  1.00  0.00     0.010 A 
ATOM     41  C   UNL A   1      41.972  23.361  27.534  1.00  0.00    -0.014 A 
BRANCH  41  42
ATOM     42  C   UNL A   1      42.374  24.720  28.085  1.00  0.00     0.031 A 
ATOM     43  C   UNL A   1      43.717  24.929  28.401  1.00  0.00     0.074 A 
ATOM     44  C   UNL A   1      41.384  25.674  28.244  1.00  0.00     0.049 A 
ATOM     45  N   UNL A   1      44.281  26.047  28.861  1.00  0.00    -0.248 NA
ATOM     46  C   UNL A   1      44.765  23.905  28.266  1.00  0.00     0.031 C 
ATOM     47  C   UNL A   1      40.028  25.473  27.920  1.00  0.00     0.029 A 
ATOM     48  N   UNL A   1      41.516  26.956  28.729  1.00  0.00    -0.354 N 
ATOM     49  C   UNL A   1      45.593  25.868  29.025  1.00  0.00     0.074 A 
ATOM     50  C   UNL A   1      45.922  24.486  28.651  1.00  0.00     0.031 C 
ATOM     51  C   UNL A   1      39.351  26.614  28.216  1.00  0.00     0.029 A 
ATOM     52  C   UNL A   1      40.272  27.547  28.729  1.00  0.00     0.049 A 
ATOM     53  H   UNL A   1      42.355  27.378  29.024  1.00  0.00     0.167 HD
ATOM     54  C   UNL A   1      46.528  26.804  29.471  1.00  0.00     0.031 A 
ATOM     55  C   UNL A   1      39.939  28.824  29.151  1.00  0.00     0.031 A 
ATOM     56  C   UNL A   1      46.201  28.095  29.852  1.00  0.00     0.049 A 
ATOM     57  C   UNL A   1      40.865  29.741  29.652  1.00  0.00     0.074 A 
ATOM     58  C   UNL A   1      47.132  29.053  30.297  1.00  0.00     0.029 A 
ATOM     59  N   UNL A   1      44.953  28.677  29.876  1.00  0.00    -0.354 N 
ATOM     60  N   UNL A   1      42.182  29.575  29.780  1.00  0.00    -0.248 NA
ATOM     61  C   UNL A   1      40.519  31.085  30.133  1.00  0.00     0.031 C 
ATOM     62  C   UNL A   1      46.454  30.194  30.593  1.00  0.00     0.029 A 
ATOM     63  C   UNL A   1      45.089  29.967  30.340  1.00  0.00     0.049 A 
ATOM     64  H   UNL A   1      44.109  28.246  29.608  1.00  0.00     0.167 HD
ATOM     65  C   UNL A   1      42.739  30.680  30.279  1.00  0.00     0.074 A 
ATOM     66  C   UNL A   1      41.676  31.666  30.519  1.00  0.00     0.031 C 
ATOM     67  C   UNL A   1      44.092  30.909  30.539  1.00  0.00     0.031 A 
BRANCH  54  68
ATOM     68  C   UNL A   1      47.987  26.382  29.542  1.00  0.00    -0.014 A 
ATOM     69  C   UNL A   1      48.848  26.561  28.473  1.00  0.00     0.009 A 
ATOM     70  C   UNL A   1      48.412  25.872  30.692  1.00  0.00     0.009 A 
ATOM     71  C   UNL A   1      50.090  25.898  28.620  1.00  0.00     0.001 A 
ATOM     72  C   UNL A   1      49.684  25.364  30.804  1.00  0.00     0.001 A 
ATOM     73  C   UNL A   1      50.570  25.454  29.766  1.00  0.00     0.000 A 
ENDBRANCH  54  68
BRANCH  55  74
ATOM     74  C   UNL A   1      38.482  29.251  29.064  1.00  0.00    -0.014 A 
ATOM     75  C   UNL A   1      38.055  29.818  27.875  1.00  0.00     0.009 A 
ATOM     76  C   UNL A   1      37.665  29.130  30.103  1.00  0.00     0.009 A 
ATOM     77  C   UNL A   1      36.816  30.495  27.977  1.00  0.00     0.001 A 
ATOM     78  C   UNL A   1      36.416  29.703  30.081  1.00  0.00     0.001 A 
ATOM     79  C   UNL A   1      35.950  30.331  28.959  1.00  0.00     0.000 A 
ENDBRANCH  55  74
BRANCH  67  80
ATOM     80  C   UNL A   1      44.494  32.274  31.074  1.00  0.00    -0.014 A 
ATOM     81  C   UNL A   1      44.529  32.485  32.443  1.00  0.00     0.009 A 
ATOM     82  C   UNL A   1      44.808  33.241  30.220  1.00  0.00     0.009 A 
ATOM     83  C   UNL A   1      44.628  33.848  32.810  1.00  0.00     0.001 A 
ATOM     84  C   UNL A   1      45.026  34.523  30.664  1.00  0.00     0.001 A 
ATOM     85  C   UNL A   1      45.015  34.815  32.000  1.00  0.00     0.000 A 
ENDBRANCH  67  80
ENDBRANCH  41  42
ENDBRANCH  33  36
ENDBRANCH  31  32
ENDBRANCH  30  31
ENDBRANCH   1  30
TORSDOF 15
ENDMDL
MODEL 2
REMARK VINA RESULT:     -12.2      1.880      4.023
REMARK SMILES O=C(NCCCCCCNC(=O)c1ccc(-c2c3nc(c(-c4ccccc4)c4ccc([nH]4)c(-c4ccccc4)c4nc(c(-c5ccccc5)c5ccc2[nH]5)C=C4)C=C3)cc1)C1=Cc2cc(S(F)(F)(F)(F)F)cc(Br)c2O[C@H]1C(F)(F)F
REMARK SMILES IDX 7 1 6 2 5 3 4 4 3 5 1 6 2 7 61 9 62 10 77 11 63 12 76 13
REMARK SMILES IDX 64 14 75 15 65 16 73 17 72 18 74 19 78 20 79 21 80 22 81 23
REMARK SMILES IDX 66 24 67 25 68 26 69 27 70 28 71 29 8 30 9 31 10 32 11 33
REMARK SMILES IDX 12 35 13 36 14 37 60 38 15 39 59 40 16 41 17 42 18 43 53 44
REMARK SMILES IDX 19 45 58 46 52 47 54 48 20 49 57 50 51 51 50 52 21 54 43 55
REMARK SMILES IDX 28 56 42 57 29 58 32 59 41 60 55 61 30 62 31 63 40 65 56 66
REMARK SMILES IDX 33 67 22 68 23 69 27 70 24 71 26 72 25 73 44 74 45 75 49 76
REMARK SMILES IDX 46 77 48 78 47 79 34 80 35 81 39 82 36 83 38 84 37 85
REMARK H PARENT 3 8 10 34 54 53 32 64
REMARK Flexibility Score: inf
ROOT
ATOM      1  C   UNL A   1      36.609  21.219  24.882  1.00  0.00     0.002 C 
ENDROOT
BRANCH   1   2
ATOM      2  C   UNL A   1      37.003  22.559  24.278  1.00  0.00     0.002 C 
BRANCH   2   3
ATOM      3  C   UNL A   1      35.993  22.948  23.210  1.00  0.00     0.021 C 
BRANCH   3   4
ATOM      4  C   UNL A   1      34.958  23.886  23.811  1.00  0.00     0.116 C 
BRANCH   4   5
ATOM      5  N   UNL A   1      33.630  23.562  23.269  1.00  0.00    -0.352 N 
ATOM      6  O   UNL A   1      31.407  22.845  23.702  1.00  0.00    -0.270 OA
ATOM      7  C   UNL A   1      32.554  23.125  24.171  1.00  0.00     0.251 C 
ATOM      8  H   UNL A   1      33.461  23.637  22.302  1.00  0.00     0.163 HD
BRANCH   7   9
ATOM      9  C   UNL A   1      32.814  23.009  25.665  1.00  0.00     0.067 C 
ATOM     10  C   UNL A   1      32.821  24.124  26.443  1.00  0.00     0.025 C 
ATOM     11  C   UNL A   1      33.066  21.646  26.288  1.00  0.00     0.314 C 
ATOM     12  C   UNL A   1      32.569  25.488  25.818  1.00  0.00     0.020 A 
ATOM     13  O   UNL A   1      30.948  24.381  24.479  1.00  0.00    -0.474 OA
ATOM     14  C   UNL A   1      33.291  26.611  26.188  1.00  0.00     0.036 A 
ATOM     15  C   UNL A   1      31.561  25.569  24.957  1.00  0.00     0.142 A 
ATOM     16  C   UNL A   1      32.684  27.832  25.811  1.00  0.00     0.109 A 
ATOM     17  C   UNL A   1      31.107  26.791  24.526  1.00  0.00     0.062 A 
ATOM     18  C   UNL A   1      31.735  27.947  24.899  1.00  0.00     0.044 A 
ATOM     19  Br  UNL A   1      29.535  26.881  23.360  1.00  0.00    -0.047 Br
BRANCH  11  20
ATOM     20  C   UNL A   1      33.004  20.576  25.210  1.00  0.00     0.429 C 
ATOM     21  F   UNL A   1      33.750  20.934  24.169  1.00  0.00    -0.167 F 
ATOM     22  F   UNL A   1      33.450  19.421  25.698  1.00  0.00    -0.167 F 
ATOM     23  F   UNL A   1      31.740  20.436  24.824  1.00  0.00    -0.167 F 
ENDBRANCH  11  20
BRANCH  16  24
ATOM     24  S   UNL A   1      33.244  29.341  26.637  1.00  0.00     0.310 S 
ATOM     25  F   UNL A   1      33.940  28.524  27.806  1.00  0.00    -0.094 F 
ATOM     26  F   UNL A   1      31.927  29.321  27.501  1.00  0.00    -0.094 F 
ATOM     27  F   UNL A   1      33.721  30.641  27.346  1.00  0.00    -0.094 F 
ATOM     28  F   UNL A   1      34.619  29.267  25.865  1.00  0.00    -0.094 F 
ATOM     29  F   UNL A   1      32.824  27.961  25.993  1.00  0.00    -0.094 F 
ENDBRANCH  16  24
ENDBRANCH   7   9
ENDBRANCH   4   5
ENDBRANCH   3   4
ENDBRANCH   2   3
ENDBRANCH   1   2
BRANCH   1  30
ATOM     30  C   UNL A   1      37.727  20.215  24.657  1.00  0.00     0.021 C 
BRANCH  30  31
ATOM     31  C   UNL A   1      38.743  20.327  25.783  1.00  0.00     0.116 C 
BRANCH  31  32
ATOM     32  N   UNL A   1      39.741  19.256  25.650  1.00  0.00    -0.352 N 
ATOM     33  C   UNL A   1      41.134  19.496  26.053  1.00  0.00     0.251 C 
ATOM     34  H   UNL A   1      39.476  18.379  25.292  1.00  0.00     0.163 HD
ATOM     35  O   UNL A   1      41.998  18.570  25.939  1.00  0.00    -0.269 OA
BRANCH  33  36
ATOM     36  C   UNL A   1      41.543  20.852  26.607  1.00  0.00     0.039 A 
ATOM     37  C   UNL A   1      41.502  21.068  27.974  1.00  0.00     0.014 A 
ATOM     38  C   UNL A   1      41.934  21.806  25.770  1.00  0.00     0.014 A 
ATOM     39  C   UNL A   1      41.618  22.429  28.342  1.00  0.00     0.010 A 
ATOM     40  C   UNL A   1      42.161  23.083  26.223  1.00  0.00     0.010 A 
ATOM     41  C   UNL A   1      42.079  23.382  27.555  1.00  0.00    -0.014 A 
BRANCH  41  42
ATOM     42  C   UNL A   1      42.499  24.738  28.098  1.00  0.00     0.031 A 
ATOM     43  C   UNL A   1      43.854  24.951  28.355  1.00  0.00     0.074 A 
ATOM     44  C   UNL A   1      41.513  25.687  28.308  1.00  0.00     0.049 A 
ATOM     45  N   UNL A   1      44.433  26.068  28.798  1.00  0.00    -0.248 NA
ATOM     46  C   UNL A   1      44.899  23.933  28.166  1.00  0.00     0.031 C 
ATOM     47  C   UNL A   1      40.144  25.483  28.044  1.00  0.00     0.029 A 
ATOM     48  N   UNL A   1      41.662  26.966  28.797  1.00  0.00    -0.354 N 
ATOM     49  C   UNL A   1      45.752  25.894  28.902  1.00  0.00     0.074 A 
ATOM     50  C   UNL A   1      46.070  24.516  28.503  1.00  0.00     0.031 C 
ATOM     51  C   UNL A   1      39.477  26.618  28.379  1.00  0.00     0.029 A 
ATOM     52  C   UNL A   1      40.416  27.551  28.858  1.00  0.00     0.049 A 
ATOM     53  H   UNL A   1      42.511  27.389  29.058  1.00  0.00     0.167 HD
ATOM     54  C   UNL A   1      46.702  26.830  29.313  1.00  0.00     0.031 A 
ATOM     55  C   UNL A   1      40.097  28.823  29.305  1.00  0.00     0.031 A 
ATOM     56  C   UNL A   1      46.387  28.117  29.719  1.00  0.00     0.049 A 
ATOM     57  C   UNL A   1      41.041  29.740  29.771  1.00  0.00     0.074 A 
ATOM     58  C   UNL A   1      47.333  29.075  30.130  1.00  0.00     0.029 A 
ATOM     59  N   UNL A   1      45.139  28.693  29.804  1.00  0.00    -0.354 N 
ATOM     60  N   UNL A   1      42.363  29.579  29.838  1.00  0.00    -0.248 NA
ATOM     61  C   UNL A   1      40.710  31.079  30.277  1.00  0.00     0.031 C 
ATOM     62  C   UNL A   1      46.665  30.211  30.464  1.00  0.00     0.029 A 
ATOM     63  C   UNL A   1      45.290  29.980  30.271  1.00  0.00     0.049 A 
ATOM     64  H   UNL A   1      44.286  28.260  29.570  1.00  0.00     0.167 HD
ATOM     65  C   UNL A   1      42.937  30.683  30.320  1.00  0.00     0.074 A 
ATOM     66  C   UNL A   1      41.881  31.662  30.616  1.00  0.00     0.031 C 
ATOM     67  C   UNL A   1      44.299  30.916  30.522  1.00  0.00     0.031 A 
BRANCH  54  68
ATOM     68  C   UNL A   1      48.165  26.415  29.316  1.00  0.00    -0.014 A 
ATOM     69  C   UNL A   1      48.981  26.623  28.218  1.00  0.00     0.009 A 
ATOM     70  C   UNL A   1      48.638  25.880  30.436  1.00  0.00     0.009 A 
ATOM     71  C   UNL A   1      50.231  25.963  28.299  1.00  0.00     0.001 A 
ATOM     72  C   UNL A   1      49.915  25.376  30.484  1.00  0.00     0.001 A 
ATOM     73  C   UNL A   1      50.759  25.495  29.414  1.00  0.00     0.000 A 
ENDBRANCH  54  68
BRANCH  55  74
ATOM     74  C   UNL A   1      38.636  29.244  29.286  1.00  0.00    -0.014 A 
ATOM     75  C   UNL A   1      38.171  29.881  28.148  1.00  0.00     0.009 A 
ATOM     76  C   UNL A   1      37.850  29.052  30.338  1.00  0.00     0.009 A 
ATOM     77  C   UNL A   1      36.932  30.542  28.327  1.00  0.00     0.001 A 
ATOM     78  C   UNL A   1      36.598  29.616  30.388  1.00  0.00     0.001 A 
ATOM     79  C   UNL A   1      36.096  30.310  29.321  1.00  0.00     0.000 A 
ENDBRANCH  55  74
BRANCH  67  80
ATOM     80  C   UNL A   1      44.719  32.278  31.049  1.00  0.00    -0.014 A 
ATOM     81  C   UNL A   1      44.795  32.485  32.417  1.00  0.00     0.009 A 
ATOM     82  C   UNL A   1      45.008  33.248  30.190  1.00  0.00     0.009 A 
ATOM     83  C   UNL A   1      44.908  33.846  32.786  1.00  0.00     0.001 A 
ATOM     84  C   UNL A   1      45.241  34.528  30.632  1.00  0.00     0.001 A 
ATOM     85  C   UNL A   1      45.271  34.816  31.968  1.00  0.00     0.000 A 
ENDBRANCH  67  80
ENDBRANCH  41  42
ENDBRANCH  33  36
ENDBRANCH  31  32
ENDBRANCH  30  31
ENDBRANCH   1  30
TORSDOF 15
ENDMDL
MODEL 3
REMARK VINA RESULT:     -12.2      0.180      5.637
REMARK SMILES O=C(NCCCCCCNC(=O)c1ccc(-c2c3nc(c(-c4ccccc4)c4ccc([nH]4)c(-c4ccccc4)c4nc(c(-c5ccccc5)c5ccc2[nH]5)C=C4)C=C3)cc1)C1=Cc2cc(S(F)(F)(F)(F)F)cc(Br)c2O[C@H]1C(F)(F)F
REMARK SMILES IDX 7 1 6 2 5 3 4 4 3 5 1 6 2 7 61 9 62 10 77 11 63 12 76 13
REMARK SMILES IDX 64 14 75 15 65 16 73 17 72 18 74 19 78 20 79 21 80 22 81 23
REMARK SMILES IDX 66 24 67 25 68 26 69 27 70 28 71 29 8 30 9 31 10 32 11 33
REMARK SMILES IDX 12 35 13 36 14 37 60 38 15 39 59 40 16 41 17 42 18 43 53 44
REMARK SMILES IDX 19 45 58 46 52 47 54 48 20 49 57 50 51 51 50 52 21 54 43 55
REMARK SMILES IDX 28 56 42 57 29 58 32 59 41 60 55 61 30 62 31 63 40 65 56 66
REMARK SMILES IDX 33 67 22 68 23 69 27 70 24 71 26 72 25 73 44 74 45 75 49 76
REMARK SMILES IDX 46 77 48 78 47 79 34 80 35 81 39 82 36 83 38 84 37 85
REMARK H PARENT 3 8 10 34 54 53 32 64
REMARK Flexibility Score: inf
ROOT
ATOM      1  C   UNL A   1      36.416  20.926  25.081  1.00  0.00     0.002 C 
ENDROOT
BRANCH   1   2
ATOM      2  C   UNL A   1      36.806  22.378  24.857  1.00  0.00     0.002 C 
BRANCH   2   3
ATOM      3  C   UNL A   1      35.865  23.281  25.640  1.00  0.00     0.021 C 
BRANCH   3   4
ATOM      4  C   UNL A   1      35.459  24.461  24.773  1.00  0.00     0.116 C 
BRANCH   4   5
ATOM      5  N   UNL A   1      34.320  25.155  25.391  1.00  0.00    -0.352 N 
ATOM      6  O   UNL A   1      32.201  26.189  25.097  1.00  0.00    -0.270 OA
ATOM      7  C   UNL A   1      33.186  25.589  24.563  1.00  0.00     0.251 C 
ATOM      8  H   UNL A   1      34.315  25.328  26.360  1.00  0.00     0.163 HD
BRANCH   7   9
ATOM      9  C   UNL A   1      33.191  25.322  23.066  1.00  0.00     0.067 C 
ATOM     10  C   UNL A   1      32.990  24.060  22.600  1.00  0.00     0.025 C 
ATOM     11  C   UNL A   1      33.421  26.464  22.090  1.00  0.00     0.314 C 
ATOM     12  C   UNL A   1      32.760  22.917  23.576  1.00  0.00     0.020 A 
ATOM     13  O   UNL A   1      31.471  24.474  24.825  1.00  0.00    -0.474 OA
ATOM     14  C   UNL A   1      33.331  21.669  23.395  1.00  0.00     0.036 A 
ATOM     15  C   UNL A   1      31.913  23.149  24.572  1.00  0.00     0.142 A 
ATOM     16  C   UNL A   1      32.719  20.642  24.152  1.00  0.00     0.109 A 
ATOM     17  C   UNL A   1      31.460  22.118  25.359  1.00  0.00     0.062 A 
ATOM     18  C   UNL A   1      31.937  20.847  25.197  1.00  0.00     0.044 A 
ATOM     19  Br  UNL A   1      30.111  22.473  26.734  1.00  0.00    -0.047 Br
BRANCH  11  20
ATOM     20  C   UNL A   1      33.617  27.759  22.863  1.00  0.00     0.429 C 
ATOM     21  F   UNL A   1      34.385  27.544  23.926  1.00  0.00    -0.167 F 
ATOM     22  F   UNL A   1      34.191  28.667  22.078  1.00  0.00    -0.167 F 
ATOM     23  F   UNL A   1      32.427  28.202  23.258  1.00  0.00    -0.167 F 
ENDBRANCH  11  20
BRANCH  16  24
ATOM     24  S   UNL A   1      33.028  18.930  23.654  1.00  0.00     0.310 S 
ATOM     25  F   UNL A   1      31.921  18.371  24.644  1.00  0.00    -0.094 F 
ATOM     26  F   UNL A   1      34.055  18.803  24.843  1.00  0.00    -0.094 F 
ATOM     27  F   UNL A   1      33.300  17.460  23.227  1.00  0.00    -0.094 F 
ATOM     28  F   UNL A   1      31.895  19.031  22.559  1.00  0.00    -0.094 F 
ATOM     29  F   UNL A   1      32.661  20.386  24.149  1.00  0.00    -0.094 F 
ENDBRANCH  16  24
ENDBRANCH   7   9
ENDBRANCH   4   5
ENDBRANCH   3   4
ENDBRANCH   2   3
ENDBRANCH   1   2
BRANCH   1  30
ATOM     30  C   UNL A   1      37.599  20.029  24.759  1.00  0.00     0.021 C 
BRANCH  30  31
ATOM     31  C   UNL A   1      38.740  20.330  25.719  1.00  0.00     0.116 C 
BRANCH  31  32
ATOM     32  N   UNL A   1      39.749  19.264  25.629  1.00  0.00    -0.352 N 
ATOM     33  C   UNL A   1      41.130  19.521  26.061  1.00  0.00     0.251 C 
ATOM     34  H   UNL A   1      39.498  18.378  25.281  1.00  0.00     0.163 HD
ATOM     35  O   UNL A   1      42.002  18.600  25.985  1.00  0.00    -0.269 OA
BRANCH  33  36
ATOM     36  C   UNL A   1      41.516  20.890  26.600  1.00  0.00     0.039 A 
ATOM     37  C   UNL A   1      41.428  21.134  27.960  1.00  0.00     0.014 A 
ATOM     38  C   UNL A   1      41.931  21.828  25.757  1.00  0.00     0.014 A 
ATOM     39  C   UNL A   1      41.527  22.503  28.303  1.00  0.00     0.010 A 
ATOM     40  C   UNL A   1      42.139  23.115  26.190  1.00  0.00     0.010 A 
ATOM     41  C   UNL A   1      42.012  23.441  27.512  1.00  0.00    -0.014 A 
BRANCH  41  42
ATOM     42  C   UNL A   1      42.409  24.811  28.040  1.00  0.00     0.031 A 
ATOM     43  C   UNL A   1      41.404  25.763  28.215  1.00  0.00     0.074 A 
ATOM     44  C   UNL A   1      43.746  25.037  28.318  1.00  0.00     0.049 A 
ATOM     45  N   UNL A   1      41.530  27.002  28.694  1.00  0.00    -0.248 NA
ATOM     46  C   UNL A   1      39.987  25.537  27.888  1.00  0.00     0.031 C 
ATOM     47  C   UNL A   1      44.765  24.078  28.152  1.00  0.00     0.029 A 
ATOM     48  N   UNL A   1      44.327  26.192  28.792  1.00  0.00    -0.354 N 
ATOM     49  C   UNL A   1      40.340  27.606  28.730  1.00  0.00     0.074 A 
ATOM     50  C   UNL A   1      39.332  26.675  28.206  1.00  0.00     0.031 C 
ATOM     51  C   UNL A   1      45.944  24.651  28.510  1.00  0.00     0.029 A 
ATOM     52  C   UNL A   1      45.683  25.976  28.906  1.00  0.00     0.049 A 
ATOM     53  H   UNL A   1      43.855  27.027  29.011  1.00  0.00     0.167 HD
ATOM     54  C   UNL A   1      40.057  28.896  29.181  1.00  0.00     0.031 A 
ATOM     55  C   UNL A   1      46.652  26.873  29.327  1.00  0.00     0.031 A 
ATOM     56  C   UNL A   1      41.021  29.777  29.643  1.00  0.00     0.049 A 
ATOM     57  C   UNL A   1      46.376  28.183  29.723  1.00  0.00     0.074 A 
ATOM     58  C   UNL A   1      40.752  31.079  30.107  1.00  0.00     0.029 A 
ATOM     59  N   UNL A   1      42.380  29.570  29.733  1.00  0.00    -0.354 N 
ATOM     60  N   UNL A   1      45.182  28.774  29.796  1.00  0.00    -0.248 NA
ATOM     61  C   UNL A   1      47.399  29.152  30.139  1.00  0.00     0.031 C 
ATOM     62  C   UNL A   1      41.932  31.652  30.465  1.00  0.00     0.029 A 
ATOM     63  C   UNL A   1      42.959  30.719  30.228  1.00  0.00     0.049 A 
ATOM     64  H   UNL A   1      42.856  28.744  29.486  1.00  0.00     0.167 HD
ATOM     65  C   UNL A   1      45.315  30.026  30.236  1.00  0.00     0.074 A 
ATOM     66  C   UNL A   1      46.744  30.290  30.457  1.00  0.00     0.031 C 
ATOM     67  C   UNL A   1      44.302  30.959  30.466  1.00  0.00     0.031 A 
BRANCH  54  68
ATOM     68  C   UNL A   1      38.610  29.360  29.165  1.00  0.00    -0.014 A 
ATOM     69  C   UNL A   1      37.793  29.233  30.276  1.00  0.00     0.009 A 
ATOM     70  C   UNL A   1      38.172  29.932  28.049  1.00  0.00     0.009 A 
ATOM     71  C   UNL A   1      36.425  29.486  30.014  1.00  0.00     0.001 A 
ATOM     72  C   UNL A   1      36.849  30.277  27.913  1.00  0.00     0.001 A 
ATOM     73  C   UNL A   1      35.972  30.124  28.952  1.00  0.00     0.000 A 
ENDBRANCH  54  68
BRANCH  55  74
ATOM     74  C   UNL A   1      48.097  26.403  29.359  1.00  0.00    -0.014 A 
ATOM     75  C   UNL A   1      48.838  26.540  28.196  1.00  0.00     0.009 A 
ATOM     76  C   UNL A   1      48.615  25.839  30.443  1.00  0.00     0.009 A 
ATOM     77  C   UNL A   1      50.034  25.784  28.186  1.00  0.00     0.001 A 
ATOM     78  C   UNL A   1      49.849  25.237  30.396  1.00  0.00     0.001 A 
ATOM     79  C   UNL A   1      50.612  25.282  29.262  1.00  0.00     0.000 A 
ENDBRANCH  55  74
BRANCH  67  80
ATOM     80  C   UNL A   1      44.698  32.323  31.010  1.00  0.00    -0.014 A 
ATOM     81  C   UNL A   1      44.774  32.512  32.381  1.00  0.00     0.009 A 
ATOM     82  C   UNL A   1      44.966  33.309  30.163  1.00  0.00     0.009 A 
ATOM     83  C   UNL A   1      44.861  33.870  32.767  1.00  0.00     0.001 A 
ATOM     84  C   UNL A   1      45.176  34.587  30.622  1.00  0.00     0.001 A 
ATOM     85  C   UNL A   1      45.204  34.857  31.962  1.00  0.00     0.000 A 
ENDBRANCH  67  80
ENDBRANCH  41  42
ENDBRANCH  33  36
ENDBRANCH  31  32
ENDBRANCH  30  31
ENDBRANCH   1  30
TORSDOF 15
ENDMDL
