MODEL 1
REMARK VINA RESULT:     -10.4      0.000      0.000
REMARK SMILES C[C@]1(c2nnnn2CCC(=O)NCCCCCCNC(=O)c2ccc(-c3c4nc(c(-c5ccccc5)c5ccc([nH]5)c(-c5ccccc5)c5nc(c(-c6ccccc6)c6ccc3[nH]6)C=C5)C=C4)cc2)CCCO1
REMARK SMILES IDX 15 1 14 2 13 3 12 4 10 5 11 6 9 8 8 9 7 10 3 11 4 12 5 13
REMARK SMILES IDX 6 14 2 15 1 16 70 17 73 18 71 19 72 20 16 21 17 22 18 23
REMARK SMILES IDX 19 24 20 25 21 27 22 28 23 29 69 30 24 31 68 32 25 33 26 34
REMARK SMILES IDX 27 35 62 36 28 37 67 38 61 39 63 40 29 41 66 42 60 43 59 44
REMARK SMILES IDX 30 46 52 47 37 48 51 49 38 50 41 51 50 52 64 53 39 54 40 55
REMARK SMILES IDX 49 57 65 58 42 59 31 60 32 61 36 62 33 63 35 64 34 65 53 66
REMARK SMILES IDX 54 67 58 68 55 69 57 70 56 71 43 72 44 73 48 74 45 75 47 76
REMARK SMILES IDX 46 77
REMARK H PARENT 12 7 19 26 63 45 41 56
REMARK Flexibility Score: inf
ROOT
ATOM      1  C   UNL A   1      40.939  20.833  27.435  1.00  0.00     0.002 C 
ENDROOT
BRANCH   1   2
ATOM      2  C   UNL A   1      40.477  21.509  26.147  1.00  0.00     0.021 C 
BRANCH   2   3
ATOM      3  C   UNL A   1      39.072  21.148  25.665  1.00  0.00     0.116 C 
BRANCH   3   4
ATOM      4  N   UNL A   1      38.285  22.343  25.427  1.00  0.00    -0.356 N 
ATOM      5  C   UNL A   1      36.935  22.497  25.352  1.00  0.00     0.221 C 
ATOM      6  O   UNL A   1      36.486  23.581  24.975  1.00  0.00    -0.275 OA
ATOM      7  H   UNL A   1      38.807  23.168  25.300  1.00  0.00     0.163 HD
BRANCH   5   8
ATOM      8  C   UNL A   1      35.997  21.376  25.750  1.00  0.00     0.124 C 
BRANCH   8   9
ATOM      9  C   UNL A   1      34.744  21.892  26.450  1.00  0.00     0.158 C 
BRANCH   9  10
ATOM     10  N   UNL A   1      33.512  21.456  25.832  1.00  0.00    -0.226 N 
ATOM     11  C   UNL A   1      32.345  22.114  25.521  1.00  0.00     0.183 A 
ATOM     12  N   UNL A   1      31.454  21.188  25.201  1.00  0.00    -0.111 NA
ATOM     13  N   UNL A   1      32.134  20.008  25.113  1.00  0.00    -0.024 NA
ATOM     14  N   UNL A   1      33.398  20.169  25.462  1.00  0.00    -0.045 NA
BRANCH  11  15
ATOM     15  C   UNL A   1      32.125  23.578  25.314  1.00  0.00     0.126 C 
ATOM     16  C   UNL A   1      30.879  23.738  24.423  1.00  0.00     0.051 C 
ATOM     17  C   UNL A   1      32.002  24.377  26.608  1.00  0.00     0.046 C 
ATOM     18  O   UNL A   1      33.246  24.161  24.626  1.00  0.00    -0.367 OA
ATOM     19  C   UNL A   1      32.386  25.769  26.156  1.00  0.00     0.032 C 
ATOM     20  C   UNL A   1      33.469  25.487  25.136  1.00  0.00     0.161 C 
ENDBRANCH  11  15
ENDBRANCH   9  10
ENDBRANCH   8   9
ENDBRANCH   5   8
ENDBRANCH   3   4
ENDBRANCH   2   3
ENDBRANCH   1   2
BRANCH   1  21
ATOM     21  C   UNL A   1      42.255  20.052  27.345  1.00  0.00     0.002 C 
BRANCH  21  22
ATOM     22  C   UNL A   1      42.444  19.167  26.105  1.00  0.00     0.021 C 
BRANCH  22  23
ATOM     23  C   UNL A   1      43.820  18.526  26.001  1.00  0.00     0.116 C 
BRANCH  23  24
ATOM     24  N   UNL A   1      44.392  18.629  24.661  1.00  0.00    -0.352 N 
ATOM     25  C   UNL A   1      44.606  19.763  23.908  1.00  0.00     0.251 C 
ATOM     26  H   UNL A   1      44.660  17.780  24.243  1.00  0.00     0.163 HD
ATOM     27  O   UNL A   1      44.790  19.686  22.695  1.00  0.00    -0.269 OA
BRANCH  25  28
ATOM     28  C   UNL A   1      44.604  21.079  24.571  1.00  0.00     0.039 A 
ATOM     29  C   UNL A   1      43.653  22.048  24.244  1.00  0.00     0.014 A 
ATOM     30  C   UNL A   1      45.571  21.334  25.541  1.00  0.00     0.014 A 
ATOM     31  C   UNL A   1      43.639  23.247  24.953  1.00  0.00     0.010 A 
ATOM     32  C   UNL A   1      45.463  22.446  26.338  1.00  0.00     0.010 A 
ATOM     33  C   UNL A   1      44.538  23.433  26.014  1.00  0.00    -0.014 A 
BRANCH  33  34
ATOM     34  C   UNL A   1      44.457  24.618  26.862  1.00  0.00     0.031 A 
ATOM     35  C   UNL A   1      45.545  25.612  26.664  1.00  0.00     0.074 A 
ATOM     36  C   UNL A   1      43.373  24.918  27.610  1.00  0.00     0.049 A 
ATOM     37  N   UNL A   1      46.437  25.980  27.523  1.00  0.00    -0.248 NA
ATOM     38  C   UNL A   1      45.728  26.193  25.325  1.00  0.00     0.031 C 
ATOM     39  C   UNL A   1      42.089  24.210  27.677  1.00  0.00     0.029 A 
ATOM     40  N   UNL A   1      43.146  26.020  28.374  1.00  0.00    -0.354 N 
ATOM     41  C   UNL A   1      47.187  26.974  26.901  1.00  0.00     0.074 A 
ATOM     42  C   UNL A   1      46.811  26.952  25.509  1.00  0.00     0.031 C 
ATOM     43  C   UNL A   1      41.154  25.024  28.214  1.00  0.00     0.029 A 
ATOM     44  C   UNL A   1      41.809  26.229  28.687  1.00  0.00     0.049 A 
ATOM     45  H   UNL A   1      43.866  26.618  28.679  1.00  0.00     0.167 HD
ATOM     46  C   UNL A   1      47.885  27.893  27.624  1.00  0.00     0.031 A 
ATOM     47  C   UNL A   1      41.269  27.331  29.263  1.00  0.00     0.031 A 
ATOM     48  C   UNL A   1      48.027  27.495  29.002  1.00  0.00     0.049 A 
ATOM     49  C   UNL A   1      42.366  28.062  29.935  1.00  0.00     0.074 A 
ATOM     50  C   UNL A   1      48.568  26.400  29.647  1.00  0.00     0.029 A 
ATOM     51  N   UNL A   1      47.203  28.102  29.920  1.00  0.00    -0.354 N 
ATOM     52  N   UNL A   1      42.992  27.607  30.982  1.00  0.00    -0.248 NA
ATOM     53  C   UNL A   1      43.073  29.086  29.183  1.00  0.00     0.031 C 
ATOM     54  C   UNL A   1      47.661  26.125  30.714  1.00  0.00     0.029 A 
ATOM     55  C   UNL A   1      46.672  27.110  30.703  1.00  0.00     0.049 A 
ATOM     56  H   UNL A   1      47.027  29.067  30.001  1.00  0.00     0.167 HD
ATOM     57  C   UNL A   1      44.323  27.927  30.758  1.00  0.00     0.074 A 
ATOM     58  C   UNL A   1      44.297  28.936  29.701  1.00  0.00     0.031 C 
ATOM     59  C   UNL A   1      45.330  27.137  31.241  1.00  0.00     0.031 A 
BRANCH  46  60
ATOM     60  C   UNL A   1      48.074  29.326  27.192  1.00  0.00    -0.014 A 
ATOM     61  C   UNL A   1      49.366  29.882  27.240  1.00  0.00     0.009 A 
ATOM     62  C   UNL A   1      47.005  30.227  27.029  1.00  0.00     0.009 A 
ATOM     63  C   UNL A   1      49.565  31.268  27.210  1.00  0.00     0.001 A 
ATOM     64  C   UNL A   1      47.204  31.608  26.955  1.00  0.00     0.001 A 
ATOM     65  C   UNL A   1      48.483  32.131  27.077  1.00  0.00     0.000 A 
ENDBRANCH  46  60
BRANCH  47  66
ATOM     66  C   UNL A   1      39.923  27.910  29.081  1.00  0.00    -0.014 A 
ATOM     67  C   UNL A   1      39.017  27.974  30.152  1.00  0.00     0.009 A 
ATOM     68  C   UNL A   1      39.618  28.644  27.920  1.00  0.00     0.009 A 
ATOM     69  C   UNL A   1      37.872  28.779  30.078  1.00  0.00     0.001 A 
ATOM     70  C   UNL A   1      38.473  29.443  27.844  1.00  0.00     0.001 A 
ATOM     71  C   UNL A   1      37.608  29.523  28.930  1.00  0.00     0.000 A 
ENDBRANCH  47  66
BRANCH  59  72
ATOM     72  C   UNL A   1      44.967  26.034  32.207  1.00  0.00    -0.014 A 
ATOM     73  C   UNL A   1      44.574  24.747  31.795  1.00  0.00     0.009 A 
ATOM     74  C   UNL A   1      45.172  26.254  33.577  1.00  0.00     0.009 A 
ATOM     75  C   UNL A   1      44.355  23.727  32.727  1.00  0.00     0.001 A 
ATOM     76  C   UNL A   1      44.978  25.229  34.507  1.00  0.00     0.001 A 
ATOM     77  C   UNL A   1      44.562  23.968  34.083  1.00  0.00     0.000 A 
ENDBRANCH  59  72
ENDBRANCH  33  34
ENDBRANCH  25  28
ENDBRANCH  23  24
ENDBRANCH  22  23
ENDBRANCH  21  22
ENDBRANCH   1  21
TORSDOF 16
ENDMDL
MODEL 2
REMARK VINA RESULT:     -10.1      2.973      8.460
REMARK SMILES C[C@]1(c2nnnn2CCC(=O)NCCCCCCNC(=O)c2ccc(-c3c4nc(c(-c5ccccc5)c5ccc([nH]5)c(-c5ccccc5)c5nc(c(-c6ccccc6)c6ccc3[nH]6)C=C5)C=C4)cc2)CCCO1
REMARK SMILES IDX 15 1 14 2 13 3 12 4 10 5 11 6 9 8 8 9 7 10 3 11 4 12 5 13
REMARK SMILES IDX 6 14 2 15 1 16 70 17 73 18 71 19 72 20 16 21 17 22 18 23
REMARK SMILES IDX 19 24 20 25 21 27 22 28 23 29 69 30 24 31 68 32 25 33 26 34
REMARK SMILES IDX 27 35 62 36 28 37 67 38 61 39 63 40 29 41 66 42 60 43 59 44
REMARK SMILES IDX 30 46 52 47 37 48 51 49 38 50 41 51 50 52 64 53 39 54 40 55
REMARK SMILES IDX 49 57 65 58 42 59 31 60 32 61 36 62 33 63 35 64 34 65 53 66
REMARK SMILES IDX 54 67 58 68 55 69 57 70 56 71 43 72 44 73 48 74 45 75 47 76
REMARK SMILES IDX 46 77
REMARK H PARENT 12 7 19 26 63 45 41 56
REMARK Flexibility Score: inf
ROOT
ATOM      1  C   UNL A   1      34.101  28.726  26.662  1.00  0.00     0.002 C 
ENDROOT
BRANCH   1   2
ATOM      2  C   UNL A   1      33.655  27.634  25.694  1.00  0.00     0.021 C 
BRANCH   2   3
ATOM      3  C   UNL A   1      33.061  28.111  24.369  1.00  0.00     0.116 C 
BRANCH   3   4
ATOM      4  N   UNL A   1      33.636  27.385  23.253  1.00  0.00    -0.356 N 
ATOM      5  C   UNL A   1      33.151  26.317  22.564  1.00  0.00     0.221 C 
ATOM      6  O   UNL A   1      33.888  25.755  21.753  1.00  0.00    -0.275 OA
ATOM      7  H   UNL A   1      34.511  27.716  22.947  1.00  0.00     0.163 HD
BRANCH   5   8
ATOM      8  C   UNL A   1      31.726  25.840  22.764  1.00  0.00     0.124 C 
BRANCH   8   9
ATOM      9  C   UNL A   1      31.661  24.510  23.507  1.00  0.00     0.158 C 
BRANCH   9  10
ATOM     10  N   UNL A   1      31.314  24.642  24.904  1.00  0.00    -0.226 N 
ATOM     11  C   UNL A   1      31.730  23.974  26.033  1.00  0.00     0.183 A 
ATOM     12  N   UNL A   1      30.910  24.324  27.012  1.00  0.00    -0.111 NA
ATOM     13  N   UNL A   1      30.148  25.350  26.533  1.00  0.00    -0.024 NA
ATOM     14  N   UNL A   1      30.412  25.575  25.258  1.00  0.00    -0.045 NA
BRANCH  11  15
ATOM     15  C   UNL A   1      32.989  23.198  26.248  1.00  0.00     0.126 C 
ATOM     16  C   UNL A   1      34.170  24.142  25.955  1.00  0.00     0.051 C 
ATOM     17  C   UNL A   1      33.100  22.565  27.631  1.00  0.00     0.046 C 
ATOM     18  O   UNL A   1      33.060  22.093  25.329  1.00  0.00    -0.367 OA
ATOM     19  C   UNL A   1      34.069  21.430  27.380  1.00  0.00     0.032 C 
ATOM     20  C   UNL A   1      33.676  20.975  25.991  1.00  0.00     0.161 C 
ENDBRANCH  11  15
ENDBRANCH   9  10
ENDBRANCH   8   9
ENDBRANCH   5   8
ENDBRANCH   3   4
ENDBRANCH   2   3
ENDBRANCH   1   2
BRANCH   1  21
ATOM     21  C   UNL A   1      32.978  29.545  27.309  1.00  0.00     0.002 C 
BRANCH  21  22
ATOM     22  C   UNL A   1      33.193  31.064  27.384  1.00  0.00     0.021 C 
BRANCH  22  23
ATOM     23  C   UNL A   1      34.577  31.474  27.865  1.00  0.00     0.116 C 
BRANCH  23  24
ATOM     24  N   UNL A   1      34.553  32.117  29.176  1.00  0.00    -0.352 N 
ATOM     25  C   UNL A   1      35.325  31.834  30.281  1.00  0.00     0.251 C 
ATOM     26  H   UNL A   1      33.901  32.847  29.284  1.00  0.00     0.163 HD
ATOM     27  O   UNL A   1      34.989  32.223  31.399  1.00  0.00    -0.269 OA
BRANCH  25  28
ATOM     28  C   UNL A   1      36.561  31.050  30.115  1.00  0.00     0.039 A 
ATOM     29  C   UNL A   1      37.789  31.680  29.894  1.00  0.00     0.014 A 
ATOM     30  C   UNL A   1      36.481  29.662  30.189  1.00  0.00     0.014 A 
ATOM     31  C   UNL A   1      38.943  30.904  29.823  1.00  0.00     0.010 A 
ATOM     32  C   UNL A   1      37.629  28.914  30.271  1.00  0.00     0.010 A 
ATOM     33  C   UNL A   1      38.858  29.518  30.031  1.00  0.00    -0.014 A 
BRANCH  33  34
ATOM     34  C   UNL A   1      40.064  28.699  30.099  1.00  0.00     0.031 A 
ATOM     35  C   UNL A   1      40.638  28.531  31.460  1.00  0.00     0.074 A 
ATOM     36  C   UNL A   1      40.512  27.959  29.062  1.00  0.00     0.049 A 
ATOM     37  N   UNL A   1      41.792  28.932  31.880  1.00  0.00    -0.248 NA
ATOM     38  C   UNL A   1      39.793  27.937  32.508  1.00  0.00     0.031 C 
ATOM     39  C   UNL A   1      39.891  27.763  27.747  1.00  0.00     0.029 A 
ATOM     40  N   UNL A   1      41.569  27.103  29.022  1.00  0.00    -0.354 N 
ATOM     41  C   UNL A   1      41.904  28.484  33.193  1.00  0.00     0.074 A 
ATOM     42  C   UNL A   1      40.593  28.020  33.574  1.00  0.00     0.031 C 
ATOM     43  C   UNL A   1      40.421  26.670  27.156  1.00  0.00     0.029 A 
ATOM     44  C   UNL A   1      41.532  26.203  27.965  1.00  0.00     0.049 A 
ATOM     45  H   UNL A   1      42.296  27.119  29.685  1.00  0.00     0.167 HD
ATOM     46  C   UNL A   1      43.119  28.314  33.783  1.00  0.00     0.031 A 
ATOM     47  C   UNL A   1      42.335  25.127  27.782  1.00  0.00     0.031 A 
ATOM     48  C   UNL A   1      44.171  28.964  33.042  1.00  0.00     0.049 A 
ATOM     49  C   UNL A   1      43.544  25.330  28.611  1.00  0.00     0.074 A 
ATOM     50  C   UNL A   1      44.416  30.262  32.638  1.00  0.00     0.029 A 
ATOM     51  N   UNL A   1      44.972  28.170  32.256  1.00  0.00    -0.354 N 
ATOM     52  N   UNL A   1      44.430  26.252  28.367  1.00  0.00    -0.248 NA
ATOM     53  C   UNL A   1      43.545  24.809  29.968  1.00  0.00     0.031 C 
ATOM     54  C   UNL A   1      44.944  30.136  31.319  1.00  0.00     0.029 A 
ATOM     55  C   UNL A   1      45.064  28.776  31.030  1.00  0.00     0.049 A 
ATOM     56  H   UNL A   1      45.400  27.325  32.523  1.00  0.00     0.167 HD
ATOM     57  C   UNL A   1      44.767  26.751  29.616  1.00  0.00     0.074 A 
ATOM     58  C   UNL A   1      44.284  25.749  30.566  1.00  0.00     0.031 C 
ATOM     59  C   UNL A   1      45.140  28.056  29.778  1.00  0.00     0.031 A 
BRANCH  46  60
ATOM     60  C   UNL A   1      43.416  27.224  34.783  1.00  0.00    -0.014 A 
ATOM     61  C   UNL A   1      43.125  25.891  34.436  1.00  0.00     0.009 A 
ATOM     62  C   UNL A   1      43.685  27.478  36.141  1.00  0.00     0.009 A 
ATOM     63  C   UNL A   1      43.028  24.889  35.410  1.00  0.00     0.001 A 
ATOM     64  C   UNL A   1      43.631  26.472  37.109  1.00  0.00     0.001 A 
ATOM     65  C   UNL A   1      43.271  25.183  36.747  1.00  0.00     0.000 A 
ENDBRANCH  46  60
BRANCH  47  66
ATOM     66  C   UNL A   1      42.029  23.840  27.125  1.00  0.00    -0.014 A 
ATOM     67  C   UNL A   1      42.847  23.345  26.097  1.00  0.00     0.009 A 
ATOM     68  C   UNL A   1      41.082  22.964  27.688  1.00  0.00     0.009 A 
ATOM     69  C   UNL A   1      42.751  22.010  25.680  1.00  0.00     0.001 A 
ATOM     70  C   UNL A   1      40.981  21.634  27.267  1.00  0.00     0.001 A 
ATOM     71  C   UNL A   1      41.828  21.153  26.275  1.00  0.00     0.000 A 
ENDBRANCH  47  66
BRANCH  59  72
ATOM     72  C   UNL A   1      45.390  28.884  28.538  1.00  0.00    -0.014 A 
ATOM     73  C   UNL A   1      44.385  29.628  27.894  1.00  0.00     0.009 A 
ATOM     74  C   UNL A   1      46.712  29.036  28.095  1.00  0.00     0.009 A 
ATOM     75  C   UNL A   1      44.689  30.466  26.815  1.00  0.00     0.001 A 
ATOM     76  C   UNL A   1      47.020  29.891  27.034  1.00  0.00     0.001 A 
ATOM     77  C   UNL A   1      46.008  30.600  26.389  1.00  0.00     0.000 A 
ENDBRANCH  59  72
ENDBRANCH  33  34
ENDBRANCH  25  28
ENDBRANCH  23  24
ENDBRANCH  22  23
ENDBRANCH  21  22
ENDBRANCH   1  21
TORSDOF 16
ENDMDL
MODEL 3
REMARK VINA RESULT:      -9.9      5.747     11.093
REMARK SMILES C[C@]1(c2nnnn2CCC(=O)NCCCCCCNC(=O)c2ccc(-c3c4nc(c(-c5ccccc5)c5ccc([nH]5)c(-c5ccccc5)c5nc(c(-c6ccccc6)c6ccc3[nH]6)C=C5)C=C4)cc2)CCCO1
REMARK SMILES IDX 15 1 14 2 13 3 12 4 10 5 11 6 9 8 8 9 7 10 3 11 4 12 5 13
REMARK SMILES IDX 6 14 2 15 1 16 70 17 73 18 71 19 72 20 16 21 17 22 18 23
REMARK SMILES IDX 19 24 20 25 21 27 22 28 23 29 69 30 24 31 68 32 25 33 26 34
REMARK SMILES IDX 27 35 62 36 28 37 67 38 61 39 63 40 29 41 66 42 60 43 59 44
REMARK SMILES IDX 30 46 52 47 37 48 51 49 38 50 41 51 50 52 64 53 39 54 40 55
REMARK SMILES IDX 49 57 65 58 42 59 31 60 32 61 36 62 33 63 35 64 34 65 53 66
REMARK SMILES IDX 54 67 58 68 55 69 57 70 56 71 43 72 44 73 48 74 45 75 47 76
REMARK SMILES IDX 46 77
REMARK H PARENT 12 7 19 26 63 45 41 56
REMARK Flexibility Score: inf
ROOT
ATOM      1  C   UNL A   1      33.746  33.480  28.037  1.00  0.00     0.002 C 
ENDROOT
BRANCH   1   2
ATOM      2  C   UNL A   1      34.864  32.441  28.015  1.00  0.00     0.021 C 
BRANCH   2   3
ATOM      3  C   UNL A   1      34.430  30.990  27.815  1.00  0.00     0.116 C 
BRANCH   3   4
ATOM      4  N   UNL A   1      33.147  30.922  27.142  1.00  0.00    -0.356 N 
ATOM      5  C   UNL A   1      32.538  29.871  26.531  1.00  0.00     0.221 C 
ATOM      6  O   UNL A   1      31.515  30.081  25.877  1.00  0.00    -0.275 OA
ATOM      7  H   UNL A   1      32.640  31.766  27.126  1.00  0.00     0.163 HD
BRANCH   5   8
ATOM      8  C   UNL A   1      33.081  28.463  26.670  1.00  0.00     0.124 C 
BRANCH   8   9
ATOM      9  C   UNL A   1      32.722  27.585  25.476  1.00  0.00     0.158 C 
BRANCH   9  10
ATOM     10  N   UNL A   1      31.976  26.398  25.831  1.00  0.00    -0.226 N 
ATOM     11  C   UNL A   1      32.118  25.074  25.488  1.00  0.00     0.183 A 
ATOM     12  N   UNL A   1      31.019  24.452  25.889  1.00  0.00    -0.111 NA
ATOM     13  N   UNL A   1      30.324  25.344  26.652  1.00  0.00    -0.024 NA
ATOM     14  N   UNL A   1      30.919  26.525  26.652  1.00  0.00    -0.045 NA
BRANCH  11  15
ATOM     15  C   UNL A   1      33.336  24.362  24.994  1.00  0.00     0.126 C 
ATOM     16  C   UNL A   1      33.279  24.360  23.455  1.00  0.00     0.051 C 
ATOM     17  C   UNL A   1      34.648  24.945  25.511  1.00  0.00     0.046 C 
ATOM     18  O   UNL A   1      33.336  22.996  25.445  1.00  0.00    -0.367 OA
ATOM     19  C   UNL A   1      35.588  23.766  25.383  1.00  0.00     0.032 C 
ATOM     20  C   UNL A   1      34.688  22.600  25.734  1.00  0.00     0.161 C 
ENDBRANCH  11  15
ENDBRANCH   9  10
ENDBRANCH   8   9
ENDBRANCH   5   8
ENDBRANCH   3   4
ENDBRANCH   2   3
ENDBRANCH   1   2
BRANCH   1  21
ATOM     21  C   UNL A   1      34.163  34.904  28.418  1.00  0.00     0.002 C 
BRANCH  21  22
ATOM     22  C   UNL A   1      33.034  35.866  28.817  1.00  0.00     0.021 C 
BRANCH  22  23
ATOM     23  C   UNL A   1      33.351  36.728  30.030  1.00  0.00     0.116 C 
BRANCH  23  24
ATOM     24  N   UNL A   1      32.516  36.409  31.185  1.00  0.00    -0.352 N 
ATOM     25  C   UNL A   1      32.677  35.392  32.101  1.00  0.00     0.251 C 
ATOM     26  H   UNL A   1      31.738  36.995  31.327  1.00  0.00     0.163 HD
ATOM     27  O   UNL A   1      31.744  35.042  32.822  1.00  0.00    -0.269 OA
BRANCH  25  28
ATOM     28  C   UNL A   1      33.983  34.718  32.206  1.00  0.00     0.039 A 
ATOM     29  C   UNL A   1      34.149  33.400  31.772  1.00  0.00     0.014 A 
ATOM     30  C   UNL A   1      35.054  35.427  32.742  1.00  0.00     0.014 A 
ATOM     31  C   UNL A   1      35.419  32.830  31.816  1.00  0.00     0.010 A 
ATOM     32  C   UNL A   1      36.327  34.922  32.643  1.00  0.00     0.010 A 
ATOM     33  C   UNL A   1      36.510  33.605  32.237  1.00  0.00    -0.014 A 
BRANCH  33  34
ATOM     34  C   UNL A   1      37.870  33.080  32.163  1.00  0.00     0.031 A 
ATOM     35  C   UNL A   1      38.613  33.066  33.451  1.00  0.00     0.074 A 
ATOM     36  C   UNL A   1      38.359  32.446  31.076  1.00  0.00     0.049 A 
ATOM     37  N   UNL A   1      39.685  33.724  33.747  1.00  0.00    -0.248 NA
ATOM     38  C   UNL A   1      38.044  32.312  34.580  1.00  0.00     0.031 C 
ATOM     39  C   UNL A   1      37.658  32.095  29.835  1.00  0.00     0.029 A 
ATOM     40  N   UNL A   1      39.571  31.850  30.912  1.00  0.00    -0.354 N 
ATOM     41  C   UNL A   1      40.038  33.333  35.034  1.00  0.00     0.074 A 
ATOM     42  C   UNL A   1      38.915  32.590  35.553  1.00  0.00     0.031 C 
ATOM     43  C   UNL A   1      38.354  31.141  29.179  1.00  0.00     0.029 A 
ATOM     44  C   UNL A   1      39.623  30.949  29.856  1.00  0.00     0.049 A 
ATOM     45  H   UNL A   1      40.343  32.040  31.491  1.00  0.00     0.167 HD
ATOM     46  C   UNL A   1      41.318  33.450  35.486  1.00  0.00     0.031 A 
ATOM     47  C   UNL A   1      40.624  30.080  29.575  1.00  0.00     0.031 A 
ATOM     48  C   UNL A   1      42.107  34.310  34.641  1.00  0.00     0.049 A 
ATOM     49  C   UNL A   1      41.838  30.563  30.268  1.00  0.00     0.074 A 
ATOM     50  C   UNL A   1      42.007  35.623  34.226  1.00  0.00     0.029 A 
ATOM     51  N   UNL A   1      42.977  33.706  33.764  1.00  0.00    -0.354 N 
ATOM     52  N   UNL A   1      42.461  31.658  29.938  1.00  0.00    -0.248 NA
ATOM     53  C   UNL A   1      42.105  30.076  31.612  1.00  0.00     0.031 C 
ATOM     54  C   UNL A   1      42.403  35.601  32.856  1.00  0.00     0.029 A 
ATOM     55  C   UNL A   1      42.794  34.298  32.542  1.00  0.00     0.049 A 
ATOM     56  H   UNL A   1      43.611  32.983  33.974  1.00  0.00     0.167 HD
ATOM     57  C   UNL A   1      42.811  32.238  31.148  1.00  0.00     0.074 A 
ATOM     58  C   UNL A   1      42.673  31.167  32.134  1.00  0.00     0.031 C 
ATOM     59  C   UNL A   1      42.895  33.596  31.281  1.00  0.00     0.031 A 
BRANCH  46  60
ATOM     60  C   UNL A   1      41.960  32.470  36.436  1.00  0.00    -0.014 A 
ATOM     61  C   UNL A   1      42.537  32.959  37.624  1.00  0.00     0.009 A 
ATOM     62  C   UNL A   1      42.281  31.147  36.077  1.00  0.00     0.009 A 
ATOM     63  C   UNL A   1      43.449  32.193  38.360  1.00  0.00     0.001 A 
ATOM     64  C   UNL A   1      43.157  30.365  36.834  1.00  0.00     0.001 A 
ATOM     65  C   UNL A   1      43.766  30.900  37.960  1.00  0.00     0.000 A 
ENDBRANCH  46  60
BRANCH  47  66
ATOM     66  C   UNL A   1      40.547  28.747  28.942  1.00  0.00    -0.014 A 
ATOM     67  C   UNL A   1      39.899  27.682  29.587  1.00  0.00     0.009 A 
ATOM     68  C   UNL A   1      40.880  28.587  27.585  1.00  0.00     0.009 A 
ATOM     69  C   UNL A   1      39.557  26.517  28.885  1.00  0.00     0.001 A 
ATOM     70  C   UNL A   1      40.544  27.423  26.886  1.00  0.00     0.001 A 
ATOM     71  C   UNL A   1      39.867  26.394  27.533  1.00  0.00     0.000 A 
ENDBRANCH  47  66
BRANCH  59  72
ATOM     72  C   UNL A   1      42.814  34.440  30.030  1.00  0.00    -0.014 A 
ATOM     73  C   UNL A   1      43.928  34.727  29.221  1.00  0.00     0.009 A 
ATOM     74  C   UNL A   1      41.547  34.834  29.574  1.00  0.00     0.009 A 
ATOM     75  C   UNL A   1      43.783  35.420  28.014  1.00  0.00     0.001 A 
ATOM     76  C   UNL A   1      41.398  35.504  28.357  1.00  0.00     0.001 A 
ATOM     77  C   UNL A   1      42.516  35.804  27.581  1.00  0.00     0.000 A 
ENDBRANCH  59  72
ENDBRANCH  33  34
ENDBRANCH  25  28
ENDBRANCH  23  24
ENDBRANCH  22  23
ENDBRANCH  21  22
ENDBRANCH   1  21
TORSDOF 16
ENDMDL
