MODEL 1
REMARK VINA RESULT:      -9.1      0.000      0.000
REMARK SMILES C#CCN(CC(=O)NCCCCCCNC(=O)c1ccc(-c2c3nc(c(-c4ccccc4)c4ccc([nH]4)c(-c4ccccc4)c4nc(c(-c5ccccc5)c5ccc2[nH]5)C=C4)C=C3)cc1)C(=O)N(C)[C@H](C)c1cccs1
REMARK SMILES IDX 10 1 9 2 8 3 6 4 7 5 5 7 4 8 3 9 2 10 1 11 66 12 67 13 68 14
REMARK SMILES IDX 69 15 70 16 71 17 72 18 73 19 76 20 74 21 75 22 11 23 12 24
REMARK SMILES IDX 13 25 14 26 15 27 16 28 17 30 18 31 19 32 65 33 20 34 64 35
REMARK SMILES IDX 21 36 22 37 23 38 58 39 24 40 63 41 57 42 59 43 25 44 62 45
REMARK SMILES IDX 56 46 55 47 26 49 48 50 33 51 47 52 34 53 37 54 46 55 60 56
REMARK SMILES IDX 35 57 36 58 45 60 61 61 38 62 27 63 28 64 32 65 29 66 31 67
REMARK SMILES IDX 30 68 49 69 50 70 54 71 51 72 53 73 52 74 39 75 40 76 44 77
REMARK SMILES IDX 41 78 43 79 42 80
REMARK H PARENT 8 6 15 29 59 48 37 59
REMARK Flexibility Score: inf
ROOT
ATOM      1  C   UNL A   1      36.897  23.666  25.414  1.00  0.00     0.021 C 
ENDROOT
BRANCH   1   2
ATOM      2  C   UNL A   1      35.423  23.915  25.108  1.00  0.00     0.116 C 
BRANCH   2   3
ATOM      3  N   UNL A   1      35.137  23.826  23.694  1.00  0.00    -0.355 N 
ATOM      4  C   UNL A   1      34.128  23.156  23.065  1.00  0.00     0.239 C 
ATOM      5  O   UNL A   1      33.956  23.368  21.862  1.00  0.00    -0.273 OA
ATOM      6  H   UNL A   1      35.754  24.315  23.104  1.00  0.00     0.163 HD
BRANCH   4   7
ATOM      7  C   UNL A   1      33.166  22.270  23.864  1.00  0.00     0.222 C 
BRANCH   7   8
ATOM      8  N   UNL A   1      32.004  22.981  24.406  1.00  0.00    -0.304 N 
BRANCH   8   9
ATOM      9  C   UNL A   1      31.472  22.466  25.675  1.00  0.00     0.211 C 
BRANCH   9  10
ATOM     10  C   UNL A   1      32.473  22.424  26.748  1.00  0.00    -0.085 C 
ATOM     11  C   UNL A   1      33.276  22.303  27.636  1.00  0.00     0.006 C 
ENDBRANCH   9  10
ENDBRANCH   8   9
BRANCH   8  12
ATOM     12  C   UNL A   1      31.294  24.021  23.839  1.00  0.00     0.321 C 
ATOM     13  O   UNL A   1      30.302  23.728  23.157  1.00  0.00    -0.248 OA
BRANCH  12  14
ATOM     14  N   UNL A   1      31.637  25.350  24.005  1.00  0.00    -0.320 N 
ATOM     15  C   UNL A   1      32.173  26.307  23.043  1.00  0.00     0.149 C 
BRANCH  14  16
ATOM     16  C   UNL A   1      31.533  25.914  25.379  1.00  0.00     0.124 C 
ATOM     17  C   UNL A   1      30.085  25.965  25.895  1.00  0.00     0.037 C 
BRANCH  16  18
ATOM     18  C   UNL A   1      32.363  27.181  25.532  1.00  0.00     0.027 A 
ATOM     19  C   UNL A   1      33.685  27.297  25.937  1.00  0.00     0.017 A 
ATOM     20  S   UNL A   1      31.660  28.742  25.348  1.00  0.00    -0.147 S 
ATOM     21  C   UNL A   1      34.111  28.648  26.083  1.00  0.00     0.012 A 
ATOM     22  C   UNL A   1      33.107  29.536  25.779  1.00  0.00     0.065 A 
ENDBRANCH  16  18
ENDBRANCH  14  16
ENDBRANCH  12  14
ENDBRANCH   8  12
ENDBRANCH   7   8
ENDBRANCH   4   7
ENDBRANCH   2   3
ENDBRANCH   1   2
BRANCH   1  23
ATOM     23  C   UNL A   1      37.411  22.323  24.887  1.00  0.00     0.002 C 
BRANCH  23  24
ATOM     24  C   UNL A   1      38.554  21.712  25.705  1.00  0.00     0.002 C 
BRANCH  24  25
ATOM     25  C   UNL A   1      38.971  20.305  25.270  1.00  0.00     0.021 C 
BRANCH  25  26
ATOM     26  C   UNL A   1      39.690  19.510  26.352  1.00  0.00     0.116 C 
BRANCH  26  27
ATOM     27  N   UNL A   1      40.983  19.029  25.891  1.00  0.00    -0.352 N 
ATOM     28  C   UNL A   1      42.159  19.711  25.732  1.00  0.00     0.251 C 
ATOM     29  H   UNL A   1      41.017  18.072  25.660  1.00  0.00     0.163 HD
ATOM     30  O   UNL A   1      43.084  19.207  25.101  1.00  0.00    -0.269 OA
BRANCH  28  31
ATOM     31  C   UNL A   1      42.309  21.063  26.307  1.00  0.00     0.039 A 
ATOM     32  C   UNL A   1      42.216  21.220  27.691  1.00  0.00     0.014 A 
ATOM     33  C   UNL A   1      42.524  22.174  25.486  1.00  0.00     0.014 A 
ATOM     34  C   UNL A   1      42.386  22.484  28.253  1.00  0.00     0.010 A 
ATOM     35  C   UNL A   1      42.784  23.417  26.055  1.00  0.00     0.010 A 
ATOM     36  C   UNL A   1      42.705  23.588  27.443  1.00  0.00    -0.014 A 
BRANCH  36  37
ATOM     37  C   UNL A   1      42.957  24.922  28.043  1.00  0.00     0.031 A 
ATOM     38  C   UNL A   1      44.343  25.316  28.473  1.00  0.00     0.074 A 
ATOM     39  C   UNL A   1      41.926  25.770  28.229  1.00  0.00     0.049 A 
ATOM     40  N   UNL A   1      44.751  26.438  29.013  1.00  0.00    -0.248 NA
ATOM     41  C   UNL A   1      45.408  24.315  28.296  1.00  0.00     0.031 C 
ATOM     42  C   UNL A   1      40.528  25.492  27.889  1.00  0.00     0.029 A 
ATOM     43  N   UNL A   1      41.895  27.041  28.744  1.00  0.00    -0.354 N 
ATOM     44  C   UNL A   1      46.111  26.272  29.245  1.00  0.00     0.074 A 
ATOM     45  C   UNL A   1      46.447  24.924  28.846  1.00  0.00     0.031 C 
ATOM     46  C   UNL A   1      39.786  26.575  28.163  1.00  0.00     0.029 A 
ATOM     47  C   UNL A   1      40.641  27.603  28.746  1.00  0.00     0.049 A 
ATOM     48  H   UNL A   1      42.695  27.506  29.082  1.00  0.00     0.167 HD
ATOM     49  C   UNL A   1      47.005  27.169  29.727  1.00  0.00     0.031 A 
ATOM     50  C   UNL A   1      40.224  28.809  29.175  1.00  0.00     0.031 A 
ATOM     51  C   UNL A   1      46.666  28.509  30.132  1.00  0.00     0.049 A 
ATOM     52  C   UNL A   1      41.231  29.770  29.745  1.00  0.00     0.074 A 
ATOM     53  C   UNL A   1      47.506  29.507  30.591  1.00  0.00     0.029 A 
ATOM     54  N   UNL A   1      45.382  29.031  30.139  1.00  0.00    -0.354 N 
ATOM     55  N   UNL A   1      42.525  29.625  29.887  1.00  0.00    -0.248 NA
ATOM     56  C   UNL A   1      40.716  31.068  30.200  1.00  0.00     0.031 C 
ATOM     57  C   UNL A   1      46.722  30.608  30.946  1.00  0.00     0.029 A 
ATOM     58  C   UNL A   1      45.403  30.326  30.629  1.00  0.00     0.049 A 
ATOM     59  H   UNL A   1      44.575  28.553  29.841  1.00  0.00     0.167 HD
ATOM     60  C   UNL A   1      42.985  30.825  30.417  1.00  0.00     0.074 A 
ATOM     61  C   UNL A   1      41.832  31.692  30.548  1.00  0.00     0.031 C 
ATOM     62  C   UNL A   1      44.248  31.177  30.763  1.00  0.00     0.031 A 
BRANCH  49  63
ATOM     63  C   UNL A   1      48.436  26.721  29.860  1.00  0.00    -0.014 A 
ATOM     64  C   UNL A   1      48.896  26.069  31.017  1.00  0.00     0.009 A 
ATOM     65  C   UNL A   1      49.331  26.918  28.796  1.00  0.00     0.009 A 
ATOM     66  C   UNL A   1      50.229  25.665  31.121  1.00  0.00     0.001 A 
ATOM     67  C   UNL A   1      50.654  26.480  28.889  1.00  0.00     0.001 A 
ATOM     68  C   UNL A   1      51.103  25.863  30.055  1.00  0.00     0.000 A 
ENDBRANCH  49  63
BRANCH  50  69
ATOM     69  C   UNL A   1      38.786  29.180  29.081  1.00  0.00    -0.014 A 
ATOM     70  C   UNL A   1      38.265  29.743  27.905  1.00  0.00     0.009 A 
ATOM     71  C   UNL A   1      37.929  28.989  30.176  1.00  0.00     0.009 A 
ATOM     72  C   UNL A   1      36.928  30.139  27.842  1.00  0.00     0.001 A 
ATOM     73  C   UNL A   1      36.583  29.353  30.097  1.00  0.00     0.001 A 
ATOM     74  C   UNL A   1      36.087  29.940  28.935  1.00  0.00     0.000 A 
ENDBRANCH  50  69
BRANCH  62  75
ATOM     75  C   UNL A   1      44.455  32.579  31.276  1.00  0.00    -0.014 A 
ATOM     76  C   UNL A   1      44.715  33.651  30.409  1.00  0.00     0.009 A 
ATOM     77  C   UNL A   1      44.363  32.829  32.655  1.00  0.00     0.009 A 
ATOM     78  C   UNL A   1      44.928  34.934  30.917  1.00  0.00     0.001 A 
ATOM     79  C   UNL A   1      44.536  34.119  33.156  1.00  0.00     0.001 A 
ATOM     80  C   UNL A   1      44.834  35.168  32.288  1.00  0.00     0.000 A 
ENDBRANCH  62  75
ENDBRANCH  36  37
ENDBRANCH  28  31
ENDBRANCH  26  27
ENDBRANCH  25  26
ENDBRANCH  24  25
ENDBRANCH  23  24
ENDBRANCH   1  23
TORSDOF 20
ENDMDL
MODEL 2
REMARK VINA RESULT:      -9.0      3.566      8.812
REMARK SMILES C#CCN(CC(=O)NCCCCCCNC(=O)c1ccc(-c2c3nc(c(-c4ccccc4)c4ccc([nH]4)c(-c4ccccc4)c4nc(c(-c5ccccc5)c5ccc2[nH]5)C=C4)C=C3)cc1)C(=O)N(C)[C@H](C)c1cccs1
REMARK SMILES IDX 10 1 9 2 8 3 6 4 7 5 5 7 4 8 3 9 2 10 1 11 66 12 67 13 68 14
REMARK SMILES IDX 69 15 70 16 71 17 72 18 73 19 76 20 74 21 75 22 11 23 12 24
REMARK SMILES IDX 13 25 14 26 15 27 16 28 17 30 18 31 19 32 65 33 20 34 64 35
REMARK SMILES IDX 21 36 22 37 23 38 58 39 24 40 63 41 57 42 59 43 25 44 62 45
REMARK SMILES IDX 56 46 55 47 26 49 48 50 33 51 47 52 34 53 37 54 46 55 60 56
REMARK SMILES IDX 35 57 36 58 45 60 61 61 38 62 27 63 28 64 32 65 29 66 31 67
REMARK SMILES IDX 30 68 49 69 50 70 54 71 51 72 53 73 52 74 39 75 40 76 44 77
REMARK SMILES IDX 41 78 43 79 42 80
REMARK H PARENT 8 6 15 29 59 48 37 59
REMARK Flexibility Score: inf
ROOT
ATOM      1  C   UNL A   1      35.079  29.056  27.137  1.00  0.00     0.021 C 
ENDROOT
BRANCH   1   2
ATOM      2  C   UNL A   1      33.818  29.405  26.352  1.00  0.00     0.116 C 
BRANCH   2   3
ATOM      3  N   UNL A   1      32.816  28.367  26.440  1.00  0.00    -0.355 N 
ATOM      4  C   UNL A   1      32.739  27.191  25.754  1.00  0.00     0.239 C 
ATOM      5  O   UNL A   1      31.901  26.362  26.120  1.00  0.00    -0.273 OA
ATOM      6  H   UNL A   1      32.090  28.532  27.084  1.00  0.00     0.163 HD
BRANCH   4   7
ATOM      7  C   UNL A   1      33.750  26.867  24.647  1.00  0.00     0.222 C 
BRANCH   7   8
ATOM      8  N   UNL A   1      33.172  26.816  23.301  1.00  0.00    -0.304 N 
BRANCH   8   9
ATOM      9  C   UNL A   1      32.559  28.061  22.819  1.00  0.00     0.211 C 
BRANCH   9  10
ATOM     10  C   UNL A   1      31.095  27.997  22.749  1.00  0.00    -0.085 C 
ATOM     11  C   UNL A   1      29.899  27.862  22.724  1.00  0.00     0.006 C 
ENDBRANCH   9  10
ENDBRANCH   8   9
BRANCH   8  12
ATOM     12  C   UNL A   1      33.056  25.728  22.458  1.00  0.00     0.321 C 
ATOM     13  O   UNL A   1      33.531  25.837  21.320  1.00  0.00    -0.248 OA
BRANCH  12  14
ATOM     14  N   UNL A   1      32.449  24.543  22.832  1.00  0.00    -0.320 N 
ATOM     15  C   UNL A   1      31.090  24.292  23.299  1.00  0.00     0.149 C 
BRANCH  14  16
ATOM     16  C   UNL A   1      33.298  23.320  22.849  1.00  0.00     0.124 C 
ATOM     17  C   UNL A   1      32.476  22.022  22.785  1.00  0.00     0.037 C 
BRANCH  16  18
ATOM     18  C   UNL A   1      34.378  23.399  23.920  1.00  0.00     0.027 A 
ATOM     19  C   UNL A   1      35.751  23.490  23.747  1.00  0.00     0.017 A 
ATOM     20  S   UNL A   1      34.000  23.221  25.590  1.00  0.00    -0.147 S 
ATOM     21  C   UNL A   1      36.476  23.425  24.972  1.00  0.00     0.012 A 
ATOM     22  C   UNL A   1      35.640  23.293  26.054  1.00  0.00     0.065 A 
ENDBRANCH  16  18
ENDBRANCH  14  16
ENDBRANCH  12  14
ENDBRANCH   8  12
ENDBRANCH   7   8
ENDBRANCH   4   7
ENDBRANCH   2   3
ENDBRANCH   1   2
BRANCH   1  23
ATOM     23  C   UNL A   1      35.385  30.041  28.269  1.00  0.00     0.002 C 
BRANCH  23  24
ATOM     24  C   UNL A   1      35.490  31.506  27.829  1.00  0.00     0.002 C 
BRANCH  24  25
ATOM     25  C   UNL A   1      34.237  32.345  28.093  1.00  0.00     0.021 C 
BRANCH  25  26
ATOM     26  C   UNL A   1      34.506  33.839  28.209  1.00  0.00     0.116 C 
BRANCH  26  27
ATOM     27  N   UNL A   1      33.942  34.389  29.431  1.00  0.00    -0.352 N 
ATOM     28  C   UNL A   1      34.275  34.135  30.736  1.00  0.00     0.251 C 
ATOM     29  H   UNL A   1      33.215  35.040  29.302  1.00  0.00     0.163 HD
ATOM     30  O   UNL A   1      33.533  34.500  31.643  1.00  0.00    -0.269 OA
BRANCH  28  31
ATOM     31  C   UNL A   1      35.521  33.406  31.047  1.00  0.00     0.039 A 
ATOM     32  C   UNL A   1      35.440  32.211  31.765  1.00  0.00     0.014 A 
ATOM     33  C   UNL A   1      36.764  33.904  30.648  1.00  0.00     0.014 A 
ATOM     34  C   UNL A   1      36.604  31.494  32.040  1.00  0.00     0.010 A 
ATOM     35  C   UNL A   1      37.912  33.143  30.843  1.00  0.00     0.010 A 
ATOM     36  C   UNL A   1      37.847  31.937  31.552  1.00  0.00    -0.014 A 
BRANCH  36  37
ATOM     37  C   UNL A   1      39.079  31.141  31.781  1.00  0.00     0.031 A 
ATOM     38  C   UNL A   1      39.429  29.998  30.869  1.00  0.00     0.074 A 
ATOM     39  C   UNL A   1      39.867  31.430  32.834  1.00  0.00     0.049 A 
ATOM     40  N   UNL A   1      40.464  29.196  30.914  1.00  0.00    -0.248 NA
ATOM     41  C   UNL A   1      38.488  29.701  29.777  1.00  0.00     0.031 C 
ATOM     42  C   UNL A   1      39.617  32.490  33.815  1.00  0.00     0.029 A 
ATOM     43  N   UNL A   1      41.045  30.863  33.253  1.00  0.00    -0.354 N 
ATOM     44  C   UNL A   1      40.292  28.300  29.865  1.00  0.00     0.074 A 
ATOM     45  C   UNL A   1      39.027  28.617  29.242  1.00  0.00     0.031 C 
ATOM     46  C   UNL A   1      40.631  32.525  34.693  1.00  0.00     0.029 A 
ATOM     47  C   UNL A   1      41.574  31.459  34.372  1.00  0.00     0.049 A 
ATOM     48  H   UNL A   1      41.468  30.101  32.797  1.00  0.00     0.167 HD
ATOM     49  C   UNL A   1      41.123  27.315  29.446  1.00  0.00     0.031 A 
ATOM     50  C   UNL A   1      42.692  31.178  35.067  1.00  0.00     0.031 A 
ATOM     51  C   UNL A   1      42.378  26.995  30.075  1.00  0.00     0.049 A 
ATOM     52  C   UNL A   1      43.576  30.052  34.604  1.00  0.00     0.074 A 
ATOM     53  C   UNL A   1      43.311  26.046  29.699  1.00  0.00     0.029 A 
ATOM     54  N   UNL A   1      42.868  27.608  31.219  1.00  0.00    -0.354 N 
ATOM     55  N   UNL A   1      43.436  29.263  33.566  1.00  0.00    -0.248 NA
ATOM     56  C   UNL A   1      44.779  29.788  35.404  1.00  0.00     0.031 C 
ATOM     57  C   UNL A   1      44.330  26.033  30.657  1.00  0.00     0.029 A 
ATOM     58  C   UNL A   1      44.074  27.031  31.582  1.00  0.00     0.049 A 
ATOM     59  H   UNL A   1      42.425  28.343  31.700  1.00  0.00     0.167 HD
ATOM     60  C   UNL A   1      44.550  28.432  33.569  1.00  0.00     0.074 A 
ATOM     61  C   UNL A   1      45.364  28.830  34.700  1.00  0.00     0.031 C 
ATOM     62  C   UNL A   1      44.871  27.431  32.714  1.00  0.00     0.031 A 
BRANCH  49  63
ATOM     63  C   UNL A   1      40.688  26.497  28.259  1.00  0.00    -0.014 A 
ATOM     64  C   UNL A   1      41.197  26.742  26.972  1.00  0.00     0.009 A 
ATOM     65  C   UNL A   1      39.782  25.439  28.436  1.00  0.00     0.009 A 
ATOM     66  C   UNL A   1      40.777  25.974  25.885  1.00  0.00     0.001 A 
ATOM     67  C   UNL A   1      39.392  24.648  27.352  1.00  0.00     0.001 A 
ATOM     68  C   UNL A   1      39.882  24.924  26.077  1.00  0.00     0.000 A 
ENDBRANCH  49  63
BRANCH  50  69
ATOM     69  C   UNL A   1      43.045  31.974  36.273  1.00  0.00    -0.014 A 
ATOM     70  C   UNL A   1      43.845  33.123  36.165  1.00  0.00     0.009 A 
ATOM     71  C   UNL A   1      42.597  31.580  37.543  1.00  0.00     0.009 A 
ATOM     72  C   UNL A   1      44.218  33.836  37.307  1.00  0.00     0.001 A 
ATOM     73  C   UNL A   1      42.940  32.315  38.679  1.00  0.00     0.001 A 
ATOM     74  C   UNL A   1      43.762  33.435  38.562  1.00  0.00     0.000 A 
ENDBRANCH  50  69
BRANCH  62  75
ATOM     75  C   UNL A   1      46.182  26.724  32.942  1.00  0.00    -0.014 A 
ATOM     76  C   UNL A   1      47.381  27.194  32.386  1.00  0.00     0.009 A 
ATOM     77  C   UNL A   1      46.215  25.577  33.752  1.00  0.00     0.009 A 
ATOM     78  C   UNL A   1      48.576  26.503  32.594  1.00  0.00     0.001 A 
ATOM     79  C   UNL A   1      47.417  24.910  33.992  1.00  0.00     0.001 A 
ATOM     80  C   UNL A   1      48.594  25.365  33.400  1.00  0.00     0.000 A 
ENDBRANCH  62  75
ENDBRANCH  36  37
ENDBRANCH  28  31
ENDBRANCH  26  27
ENDBRANCH  25  26
ENDBRANCH  24  25
ENDBRANCH  23  24
ENDBRANCH   1  23
TORSDOF 20
ENDMDL
MODEL 3
REMARK VINA RESULT:      -8.9      3.342      8.737
REMARK SMILES C#CCN(CC(=O)NCCCCCCNC(=O)c1ccc(-c2c3nc(c(-c4ccccc4)c4ccc([nH]4)c(-c4ccccc4)c4nc(c(-c5ccccc5)c5ccc2[nH]5)C=C4)C=C3)cc1)C(=O)N(C)[C@H](C)c1cccs1
REMARK SMILES IDX 10 1 9 2 8 3 6 4 7 5 5 7 4 8 3 9 2 10 1 11 66 12 67 13 68 14
REMARK SMILES IDX 69 15 70 16 71 17 72 18 73 19 76 20 74 21 75 22 11 23 12 24
REMARK SMILES IDX 13 25 14 26 15 27 16 28 17 30 18 31 19 32 65 33 20 34 64 35
REMARK SMILES IDX 21 36 22 37 23 38 58 39 24 40 63 41 57 42 59 43 25 44 62 45
REMARK SMILES IDX 56 46 55 47 26 49 48 50 33 51 47 52 34 53 37 54 46 55 60 56
REMARK SMILES IDX 35 57 36 58 45 60 61 61 38 62 27 63 28 64 32 65 29 66 31 67
REMARK SMILES IDX 30 68 49 69 50 70 54 71 51 72 53 73 52 74 39 75 40 76 44 77
REMARK SMILES IDX 41 78 43 79 42 80
REMARK H PARENT 8 6 15 29 59 48 37 59
REMARK Flexibility Score: inf
ROOT
ATOM      1  C   UNL A   1      32.306  29.363  27.066  1.00  0.00     0.021 C 
ENDROOT
BRANCH   1   2
ATOM      2  C   UNL A   1      33.574  28.537  26.875  1.00  0.00     0.116 C 
BRANCH   2   3
ATOM      3  N   UNL A   1      33.754  28.123  25.501  1.00  0.00    -0.355 N 
ATOM      4  C   UNL A   1      33.797  26.860  24.987  1.00  0.00     0.239 C 
ATOM      5  O   UNL A   1      33.769  26.735  23.760  1.00  0.00    -0.273 OA
ATOM      6  H   UNL A   1      33.859  28.851  24.849  1.00  0.00     0.163 HD
BRANCH   4   7
ATOM      7  C   UNL A   1      33.753  25.640  25.914  1.00  0.00     0.222 C 
BRANCH   7   8
ATOM      8  N   UNL A   1      32.443  24.985  25.983  1.00  0.00    -0.304 N 
BRANCH   8   9
ATOM      9  C   UNL A   1      31.298  25.796  25.550  1.00  0.00     0.211 C 
BRANCH   9  10
ATOM     10  C   UNL A   1      30.682  25.313  24.308  1.00  0.00    -0.085 C 
ATOM     11  C   UNL A   1      30.206  24.836  23.311  1.00  0.00     0.006 C 
ENDBRANCH   9  10
ENDBRANCH   8   9
BRANCH   8  12
ATOM     12  C   UNL A   1      32.135  23.733  26.477  1.00  0.00     0.321 C 
ATOM     13  O   UNL A   1      31.508  23.681  27.544  1.00  0.00    -0.248 OA
BRANCH  12  14
ATOM     14  N   UNL A   1      32.487  22.559  25.837  1.00  0.00    -0.320 N 
ATOM     15  C   UNL A   1      31.717  21.724  24.922  1.00  0.00     0.149 C 
BRANCH  14  16
ATOM     16  C   UNL A   1      33.819  21.979  26.161  1.00  0.00     0.124 C 
ATOM     17  C   UNL A   1      34.123  21.987  27.669  1.00  0.00     0.037 C 
BRANCH  16  18
ATOM     18  C   UNL A   1      34.905  22.512  25.237  1.00  0.00     0.027 A 
ATOM     19  C   UNL A   1      34.909  22.549  23.850  1.00  0.00     0.017 A 
ATOM     20  S   UNL A   1      36.428  23.032  25.849  1.00  0.00    -0.147 S 
ATOM     21  C   UNL A   1      36.143  23.008  23.305  1.00  0.00     0.012 A 
ATOM     22  C   UNL A   1      37.052  23.319  24.287  1.00  0.00     0.065 A 
ENDBRANCH  16  18
ENDBRANCH  14  16
ENDBRANCH  12  14
ENDBRANCH   8  12
ENDBRANCH   7   8
ENDBRANCH   4   7
ENDBRANCH   2   3
ENDBRANCH   1   2
BRANCH   1  23
ATOM     23  C   UNL A   1      31.667  29.812  25.748  1.00  0.00     0.002 C 
BRANCH  23  24
ATOM     24  C   UNL A   1      31.009  31.196  25.798  1.00  0.00     0.002 C 
BRANCH  24  25
ATOM     25  C   UNL A   1      31.350  32.022  27.041  1.00  0.00     0.021 C 
BRANCH  25  26
ATOM     26  C   UNL A   1      32.559  32.930  26.868  1.00  0.00     0.116 C 
BRANCH  26  27
ATOM     27  N   UNL A   1      32.438  34.139  27.668  1.00  0.00    -0.352 N 
ATOM     28  C   UNL A   1      33.173  34.542  28.752  1.00  0.00     0.251 C 
ATOM     29  H   UNL A   1      31.724  34.757  27.390  1.00  0.00     0.163 HD
ATOM     30  O   UNL A   1      32.778  35.468  29.454  1.00  0.00    -0.269 OA
BRANCH  28  31
ATOM     31  C   UNL A   1      34.435  33.850  29.083  1.00  0.00     0.039 A 
ATOM     32  C   UNL A   1      35.611  34.256  28.450  1.00  0.00     0.014 A 
ATOM     33  C   UNL A   1      34.457  32.797  30.002  1.00  0.00     0.014 A 
ATOM     34  C   UNL A   1      36.817  33.635  28.775  1.00  0.00     0.010 A 
ATOM     35  C   UNL A   1      35.672  32.242  30.391  1.00  0.00     0.010 A 
ATOM     36  C   UNL A   1      36.863  32.645  29.773  1.00  0.00    -0.014 A 
BRANCH  36  37
ATOM     37  C   UNL A   1      38.153  32.031  30.173  1.00  0.00     0.031 A 
ATOM     38  C   UNL A   1      39.058  32.726  31.153  1.00  0.00     0.074 A 
ATOM     39  C   UNL A   1      38.525  30.857  29.627  1.00  0.00     0.049 A 
ATOM     40  N   UNL A   1      40.220  32.339  31.619  1.00  0.00    -0.248 NA
ATOM     41  C   UNL A   1      38.615  34.035  31.660  1.00  0.00     0.031 C 
ATOM     42  C   UNL A   1      37.753  30.101  28.636  1.00  0.00     0.029 A 
ATOM     43  N   UNL A   1      39.644  30.089  29.832  1.00  0.00    -0.354 N 
ATOM     44  C   UNL A   1      40.645  33.357  32.464  1.00  0.00     0.074 A 
ATOM     45  C   UNL A   1      39.650  34.404  32.399  1.00  0.00     0.031 C 
ATOM     46  C   UNL A   1      38.400  28.959  28.354  1.00  0.00     0.029 A 
ATOM     47  C   UNL A   1      39.653  28.926  29.100  1.00  0.00     0.049 A 
ATOM     48  H   UNL A   1      40.370  30.347  30.443  1.00  0.00     0.167 HD
ATOM     49  C   UNL A   1      41.754  33.408  33.241  1.00  0.00     0.031 A 
ATOM     50  C   UNL A   1      40.571  27.943  29.032  1.00  0.00     0.031 A 
ATOM     51  C   UNL A   1      42.748  32.368  33.297  1.00  0.00     0.049 A 
ATOM     52  C   UNL A   1      41.813  28.044  29.874  1.00  0.00     0.074 A 
ATOM     53  C   UNL A   1      43.883  32.304  34.085  1.00  0.00     0.029 A 
ATOM     54  N   UNL A   1      42.732  31.216  32.524  1.00  0.00    -0.354 N 
ATOM     55  N   UNL A   1      42.163  28.978  30.724  1.00  0.00    -0.248 NA
ATOM     56  C   UNL A   1      42.780  26.944  29.754  1.00  0.00     0.031 C 
ATOM     57  C   UNL A   1      44.593  31.152  33.736  1.00  0.00     0.029 A 
ATOM     58  C   UNL A   1      43.858  30.454  32.791  1.00  0.00     0.049 A 
ATOM     59  H   UNL A   1      42.027  30.977  31.882  1.00  0.00     0.167 HD
ATOM     60  C   UNL A   1      43.374  28.563  31.265  1.00  0.00     0.074 A 
ATOM     61  C   UNL A   1      43.683  27.282  30.663  1.00  0.00     0.031 C 
ATOM     62  C   UNL A   1      44.159  29.185  32.179  1.00  0.00     0.031 A 
BRANCH  49  63
ATOM     63  C   UNL A   1      41.960  34.641  34.080  1.00  0.00    -0.014 A 
ATOM     64  C   UNL A   1      42.625  35.771  33.574  1.00  0.00     0.009 A 
ATOM     65  C   UNL A   1      41.445  34.689  35.385  1.00  0.00     0.009 A 
ATOM     66  C   UNL A   1      42.808  36.903  34.371  1.00  0.00     0.001 A 
ATOM     67  C   UNL A   1      41.597  35.837  36.167  1.00  0.00     0.001 A 
ATOM     68  C   UNL A   1      42.287  36.938  35.663  1.00  0.00     0.000 A 
ENDBRANCH  49  63
BRANCH  50  69
ATOM     69  C   UNL A   1      40.351  26.775  28.137  1.00  0.00    -0.014 A 
ATOM     70  C   UNL A   1      39.647  25.647  28.588  1.00  0.00     0.009 A 
ATOM     71  C   UNL A   1      40.861  26.774  26.830  1.00  0.00     0.009 A 
ATOM     72  C   UNL A   1      39.491  24.532  27.762  1.00  0.00     0.001 A 
ATOM     73  C   UNL A   1      40.672  25.673  25.993  1.00  0.00     0.001 A 
ATOM     74  C   UNL A   1      39.999  24.547  26.464  1.00  0.00     0.000 A 
ENDBRANCH  50  69
BRANCH  62  75
ATOM     75  C   UNL A   1      45.408  28.465  32.617  1.00  0.00    -0.014 A 
ATOM     76  C   UNL A   1      46.641  28.674  31.980  1.00  0.00     0.009 A 
ATOM     77  C   UNL A   1      45.349  27.579  33.705  1.00  0.00     0.009 A 
ATOM     78  C   UNL A   1      47.776  27.973  32.391  1.00  0.00     0.001 A 
ATOM     79  C   UNL A   1      46.494  26.910  34.140  1.00  0.00     0.001 A 
ATOM     80  C   UNL A   1      47.703  27.096  33.473  1.00  0.00     0.000 A 
ENDBRANCH  62  75
ENDBRANCH  36  37
ENDBRANCH  28  31
ENDBRANCH  26  27
ENDBRANCH  25  26
ENDBRANCH  24  25
ENDBRANCH  23  24
ENDBRANCH   1  23
TORSDOF 20
ENDMDL
