MODEL 1
REMARK VINA RESULT:     -12.1      0.000      0.000
REMARK SMILES O=C(NCCCCCCNC(=O)c1cc2c(c(S(=O)(=O)Nc3cc(C(F)(F)F)ccc3-n3cccn3)c1)CCC2)c1ccc(-c2c3nc(c(-c4ccccc4)c4ccc([nH]4)c(-c4ccccc4)c4nc(c(-c5ccccc5)c5ccc2[nH]5)C=C4)C=C3)cc1
REMARK SMILES IDX 7 1 6 2 5 3 4 4 3 5 1 6 2 7 41 9 42 10 88 11 43 12 87 13
REMARK SMILES IDX 44 14 45 15 46 16 81 17 47 18 86 19 80 20 82 21 48 22 85 23
REMARK SMILES IDX 79 24 78 25 49 27 71 28 56 29 70 30 57 31 60 32 69 33 83 34
REMARK SMILES IDX 58 35 59 36 68 38 84 39 61 40 50 41 51 42 55 43 52 44 54 45
REMARK SMILES IDX 53 46 72 47 73 48 77 49 74 50 76 51 75 52 62 53 63 54 67 55
REMARK SMILES IDX 64 56 66 57 65 58 8 59 9 60 10 61 11 62 12 64 13 65 14 66
REMARK SMILES IDX 37 67 15 68 17 69 16 70 40 71 38 72 39 73 18 74 19 75 20 76
REMARK SMILES IDX 21 77 22 79 23 80 31 81 24 82 30 83 29 84 32 85 33 86 36 87
REMARK SMILES IDX 34 88 35 89 25 90 26 91 27 92 28 93
REMARK H PARENT 3 8 82 26 60 37 10 63 21 78
REMARK Flexibility Score: inf
ROOT
ATOM      1  C   UNL A   1      35.849  30.798  27.653  1.00  0.00     0.002 C 
ENDROOT
BRANCH   1   2
ATOM      2  C   UNL A   1      34.731  31.803  27.949  1.00  0.00     0.002 C 
BRANCH   2   3
ATOM      3  C   UNL A   1      35.138  33.281  27.976  1.00  0.00     0.021 C 
BRANCH   3   4
ATOM      4  C   UNL A   1      35.920  33.718  29.216  1.00  0.00     0.116 C 
BRANCH   4   5
ATOM      5  N   UNL A   1      35.387  33.203  30.458  1.00  0.00    -0.352 N 
ATOM      6  O   UNL A   1      35.103  32.168  32.385  1.00  0.00    -0.269 OA
ATOM      7  C   UNL A   1      35.767  32.239  31.348  1.00  0.00     0.251 C 
ATOM      8  H   UNL A   1      34.555  33.654  30.725  1.00  0.00     0.163 HD
BRANCH   7   9
ATOM      9  C   UNL A   1      36.865  31.253  31.140  1.00  0.00     0.039 A 
ATOM     10  C   UNL A   1      36.723  29.866  31.075  1.00  0.00     0.014 A 
ATOM     11  C   UNL A   1      38.159  31.799  31.032  1.00  0.00     0.014 A 
ATOM     12  C   UNL A   1      37.844  29.045  30.975  1.00  0.00     0.010 A 
ATOM     13  C   UNL A   1      39.281  30.986  30.922  1.00  0.00     0.010 A 
ATOM     14  C   UNL A   1      39.123  29.604  30.924  1.00  0.00    -0.014 A 
BRANCH  14  15
ATOM     15  C   UNL A   1      40.261  28.710  30.723  1.00  0.00     0.031 A 
ATOM     16  C   UNL A   1      41.059  28.419  31.949  1.00  0.00     0.074 A 
ATOM     17  C   UNL A   1      40.502  28.053  29.572  1.00  0.00     0.049 A 
ATOM     18  N   UNL A   1      42.321  28.623  32.154  1.00  0.00    -0.248 NA
ATOM     19  C   UNL A   1      40.338  27.902  33.124  1.00  0.00     0.031 C 
ATOM     20  C   UNL A   1      39.652  27.987  28.381  1.00  0.00     0.029 A 
ATOM     21  N   UNL A   1      41.523  27.197  29.272  1.00  0.00    -0.354 N 
ATOM     22  C   UNL A   1      42.595  28.110  33.421  1.00  0.00     0.074 A 
ATOM     23  C   UNL A   1      41.322  27.795  34.017  1.00  0.00     0.031 C 
ATOM     24  C   UNL A   1      40.068  26.968  27.595  1.00  0.00     0.029 A 
ATOM     25  C   UNL A   1      41.284  26.403  28.158  1.00  0.00     0.049 A 
ATOM     26  H   UNL A   1      42.353  27.146  29.799  1.00  0.00     0.167 HD
ATOM     27  C   UNL A   1      43.858  27.779  33.809  1.00  0.00     0.031 A 
ATOM     28  C   UNL A   1      41.995  25.319  27.761  1.00  0.00     0.031 A 
ATOM     29  C   UNL A   1      44.858  28.409  32.991  1.00  0.00     0.049 A 
ATOM     30  C   UNL A   1      43.317  25.369  28.420  1.00  0.00     0.074 A 
ATOM     31  C   UNL A   1      45.205  29.713  32.693  1.00  0.00     0.029 A 
ATOM     32  N   UNL A   1      45.490  27.633  32.052  1.00  0.00    -0.354 N 
ATOM     33  N   UNL A   1      44.235  26.244  28.132  1.00  0.00    -0.248 NA
ATOM     34  C   UNL A   1      43.481  24.686  29.692  1.00  0.00     0.031 C 
ATOM     35  C   UNL A   1      45.610  29.682  31.326  1.00  0.00     0.029 A 
ATOM     36  C   UNL A   1      45.532  28.357  30.892  1.00  0.00     0.049 A 
ATOM     37  H   UNL A   1      45.847  26.725  32.187  1.00  0.00     0.167 HD
ATOM     38  C   UNL A   1      44.827  26.543  29.348  1.00  0.00     0.074 A 
ATOM     39  C   UNL A   1      44.406  25.472  30.247  1.00  0.00     0.031 C 
ATOM     40  C   UNL A   1      45.370  27.775  29.580  1.00  0.00     0.031 A 
BRANCH  27  41
ATOM     41  C   UNL A   1      44.172  26.553  34.642  1.00  0.00    -0.014 A 
ATOM     42  C   UNL A   1      45.160  26.655  35.642  1.00  0.00     0.009 A 
ATOM     43  C   UNL A   1      43.776  25.252  34.283  1.00  0.00     0.009 A 
ATOM     44  C   UNL A   1      45.796  25.519  36.159  1.00  0.00     0.001 A 
ATOM     45  C   UNL A   1      44.377  24.116  34.831  1.00  0.00     0.001 A 
ATOM     46  C   UNL A   1      45.415  24.251  35.741  1.00  0.00     0.000 A 
ENDBRANCH  27  41
BRANCH  28  47
ATOM     47  C   UNL A   1      41.523  24.108  27.057  1.00  0.00    -0.014 A 
ATOM     48  C   UNL A   1      42.372  23.399  26.192  1.00  0.00     0.009 A 
ATOM     49  C   UNL A   1      40.319  23.491  27.446  1.00  0.00     0.009 A 
ATOM     50  C   UNL A   1      42.043  22.105  25.762  1.00  0.00     0.001 A 
ATOM     51  C   UNL A   1      39.990  22.203  27.013  1.00  0.00     0.001 A 
ATOM     52  C   UNL A   1      40.860  21.503  26.184  1.00  0.00     0.000 A 
ENDBRANCH  28  47
BRANCH  40  53
ATOM     53  C   UNL A   1      45.544  28.706  28.407  1.00  0.00    -0.014 A 
ATOM     54  C   UNL A   1      44.524  29.562  27.954  1.00  0.00     0.009 A 
ATOM     55  C   UNL A   1      46.820  28.831  27.840  1.00  0.00     0.009 A 
ATOM     56  C   UNL A   1      44.769  30.490  26.937  1.00  0.00     0.001 A 
ATOM     57  C   UNL A   1      47.070  29.774  26.841  1.00  0.00     0.001 A 
ATOM     58  C   UNL A   1      46.044  30.598  26.385  1.00  0.00     0.000 A 
ENDBRANCH  40  53
ENDBRANCH  14  15
ENDBRANCH   7   9
ENDBRANCH   4   5
ENDBRANCH   3   4
ENDBRANCH   2   3
ENDBRANCH   1   2
BRANCH   1  59
ATOM     59  C   UNL A   1      35.432  29.326  27.633  1.00  0.00     0.021 C 
BRANCH  59  60
ATOM     60  C   UNL A   1      34.203  29.009  26.787  1.00  0.00     0.116 C 
BRANCH  60  61
ATOM     61  N   UNL A   1      32.977  28.886  27.570  1.00  0.00    -0.352 N 
ATOM     62  C   UNL A   1      31.934  27.990  27.418  1.00  0.00     0.251 C 
ATOM     63  H   UNL A   1      32.879  29.530  28.309  1.00  0.00     0.163 HD
ATOM     64  O   UNL A   1      30.912  28.090  28.085  1.00  0.00    -0.269 OA
BRANCH  62  65
ATOM     65  C   UNL A   1      32.059  26.912  26.408  1.00  0.00     0.041 A 
ATOM     66  C   UNL A   1      32.122  27.270  25.064  1.00  0.00     0.018 A 
ATOM     67  C   UNL A   1      31.958  25.560  26.799  1.00  0.00     0.036 A 
ATOM     68  C   UNL A   1      31.816  26.299  24.137  1.00  0.00    -0.043 A 
ATOM     69  C   UNL A   1      31.731  24.554  25.835  1.00  0.00     0.092 A 
ATOM     70  C   UNL A   1      31.536  24.973  24.521  1.00  0.00    -0.024 A 
ATOM     71  C   UNL A   1      31.568  26.525  22.677  1.00  0.00     0.036 C 
ATOM     72  C   UNL A   1      30.889  24.296  23.353  1.00  0.00     0.037 C 
ATOM     73  C   UNL A   1      31.500  25.082  22.188  1.00  0.00     0.010 C 
BRANCH  69  74
ATOM     74  S   UNL A   1      31.426  22.886  26.385  1.00  0.00     0.262 S 
ATOM     75  O   UNL A   1      32.154  22.708  27.630  1.00  0.00    -0.201 OA
ATOM     76  O   UNL A   1      29.997  22.673  26.359  1.00  0.00    -0.201 OA
BRANCH  74  77
ATOM     77  N   UNL A   1      32.112  21.709  25.348  1.00  0.00    -0.277 N 
ATOM     78  H   UNL A   1      31.515  21.095  24.864  1.00  0.00     0.180 HD
BRANCH  77  79
ATOM     79  C   UNL A   1      33.530  21.588  25.162  1.00  0.00     0.075 A 
ATOM     80  C   UNL A   1      34.335  22.731  25.307  1.00  0.00     0.042 A 
ATOM     81  C   UNL A   1      34.142  20.338  24.974  1.00  0.00     0.089 A 
ATOM     82  C   UNL A   1      35.743  22.627  25.334  1.00  0.00     0.058 A 
ATOM     83  C   UNL A   1      35.541  20.234  24.962  1.00  0.00     0.031 A 
ATOM     84  C   UNL A   1      36.335  21.371  25.135  1.00  0.00     0.015 A 
BRANCH  81  85
ATOM     85  N   UNL A   1      33.376  19.153  24.860  1.00  0.00    -0.239 N 
ATOM     86  C   UNL A   1      32.856  18.377  25.871  1.00  0.00     0.115 A 
ATOM     87  N   UNL A   1      33.173  18.582  23.645  1.00  0.00    -0.177 NA
ATOM     88  C   UNL A   1      32.498  17.178  25.308  1.00  0.00     0.042 A 
ATOM     89  C   UNL A   1      32.753  17.347  23.938  1.00  0.00     0.135 A 
ENDBRANCH  81  85
BRANCH  82  90
ATOM     90  C   UNL A   1      36.594  23.834  25.666  1.00  0.00     0.416 C 
ATOM     91  F   UNL A   1      37.110  23.785  26.921  1.00  0.00    -0.166 F 
ATOM     92  F   UNL A   1      37.657  23.960  24.823  1.00  0.00    -0.166 F 
ATOM     93  F   UNL A   1      35.917  25.013  25.579  1.00  0.00    -0.166 F 
ENDBRANCH  82  90
ENDBRANCH  77  79
ENDBRANCH  74  77
ENDBRANCH  69  74
ENDBRANCH  62  65
ENDBRANCH  60  61
ENDBRANCH  59  60
ENDBRANCH   1  59
TORSDOF 18
ENDMDL
MODEL 2
REMARK VINA RESULT:     -11.9      2.340      3.252
REMARK SMILES O=C(NCCCCCCNC(=O)c1cc2c(c(S(=O)(=O)Nc3cc(C(F)(F)F)ccc3-n3cccn3)c1)CCC2)c1ccc(-c2c3nc(c(-c4ccccc4)c4ccc([nH]4)c(-c4ccccc4)c4nc(c(-c5ccccc5)c5ccc2[nH]5)C=C4)C=C3)cc1
REMARK SMILES IDX 7 1 6 2 5 3 4 4 3 5 1 6 2 7 41 9 42 10 88 11 43 12 87 13
REMARK SMILES IDX 44 14 45 15 46 16 81 17 47 18 86 19 80 20 82 21 48 22 85 23
REMARK SMILES IDX 79 24 78 25 49 27 71 28 56 29 70 30 57 31 60 32 69 33 83 34
REMARK SMILES IDX 58 35 59 36 68 38 84 39 61 40 50 41 51 42 55 43 52 44 54 45
REMARK SMILES IDX 53 46 72 47 73 48 77 49 74 50 76 51 75 52 62 53 63 54 67 55
REMARK SMILES IDX 64 56 66 57 65 58 8 59 9 60 10 61 11 62 12 64 13 65 14 66
REMARK SMILES IDX 37 67 15 68 17 69 16 70 40 71 38 72 39 73 18 74 19 75 20 76
REMARK SMILES IDX 21 77 22 79 23 80 31 81 24 82 30 83 29 84 32 85 33 86 36 87
REMARK SMILES IDX 34 88 35 89 25 90 26 91 27 92 28 93
REMARK H PARENT 3 8 82 26 60 37 10 63 21 78
REMARK Flexibility Score: inf
ROOT
ATOM      1  C   UNL A   1      33.501  28.431  26.944  1.00  0.00     0.002 C 
ENDROOT
BRANCH   1   2
ATOM      2  C   UNL A   1      34.074  29.304  28.066  1.00  0.00     0.002 C 
BRANCH   2   3
ATOM      3  C   UNL A   1      35.075  30.385  27.638  1.00  0.00     0.021 C 
BRANCH   3   4
ATOM      4  C   UNL A   1      34.677  31.818  27.998  1.00  0.00     0.116 C 
BRANCH   4   5
ATOM      5  N   UNL A   1      34.590  32.064  29.421  1.00  0.00    -0.352 N 
ATOM      6  O   UNL A   1      35.031  32.323  31.566  1.00  0.00    -0.269 OA
ATOM      7  C   UNL A   1      35.415  31.857  30.491  1.00  0.00     0.251 C 
ATOM      8  H   UNL A   1      33.736  32.478  29.679  1.00  0.00     0.163 HD
BRANCH   7   9
ATOM      9  C   UNL A   1      36.686  31.081  30.466  1.00  0.00     0.039 A 
ATOM     10  C   UNL A   1      37.950  31.582  30.148  1.00  0.00     0.014 A 
ATOM     11  C   UNL A   1      36.567  29.710  30.767  1.00  0.00     0.014 A 
ATOM     12  C   UNL A   1      39.048  30.729  30.065  1.00  0.00     0.010 A 
ATOM     13  C   UNL A   1      37.661  28.856  30.696  1.00  0.00     0.010 A 
ATOM     14  C   UNL A   1      38.898  29.363  30.313  1.00  0.00    -0.014 A 
BRANCH  14  15
ATOM     15  C   UNL A   1      40.094  28.524  30.308  1.00  0.00     0.031 A 
ATOM     16  C   UNL A   1      40.798  28.420  31.619  1.00  0.00     0.074 A 
ATOM     17  C   UNL A   1      40.467  27.759  29.264  1.00  0.00     0.049 A 
ATOM     18  N   UNL A   1      42.025  28.723  31.898  1.00  0.00    -0.248 NA
ATOM     19  C   UNL A   1      40.006  27.994  32.785  1.00  0.00     0.031 C 
ATOM     20  C   UNL A   1      39.727  27.509  28.025  1.00  0.00     0.029 A 
ATOM     21  N   UNL A   1      41.553  26.939  29.147  1.00  0.00    -0.354 N 
ATOM     22  C   UNL A   1      42.216  28.371  33.234  1.00  0.00     0.074 A 
ATOM     23  C   UNL A   1      40.914  28.047  33.759  1.00  0.00     0.031 C 
ATOM     24  C   UNL A   1      40.261  26.437  27.397  1.00  0.00     0.029 A 
ATOM     25  C   UNL A   1      41.452  26.014  28.117  1.00  0.00     0.049 A 
ATOM     26  H   UNL A   1      42.336  26.998  29.740  1.00  0.00     0.167 HD
ATOM     27  C   UNL A   1      43.456  28.163  33.757  1.00  0.00     0.031 A 
ATOM     28  C   UNL A   1      42.249  24.937  27.906  1.00  0.00     0.031 A 
ATOM     29  C   UNL A   1      44.489  28.759  32.953  1.00  0.00     0.049 A 
ATOM     30  C   UNL A   1      43.505  25.142  28.657  1.00  0.00     0.074 A 
ATOM     31  C   UNL A   1      44.792  30.040  32.535  1.00  0.00     0.029 A 
ATOM     32  N   UNL A   1      45.238  27.924  32.163  1.00  0.00    -0.354 N 
ATOM     33  N   UNL A   1      44.398  26.034  28.344  1.00  0.00    -0.248 NA
ATOM     34  C   UNL A   1      43.595  24.615  30.009  1.00  0.00     0.031 C 
ATOM     35  C   UNL A   1      45.314  29.882  31.217  1.00  0.00     0.029 A 
ATOM     36  C   UNL A   1      45.342  28.515  30.935  1.00  0.00     0.049 A 
ATOM     37  H   UNL A   1      45.629  27.060  32.431  1.00  0.00     0.167 HD
ATOM     38  C   UNL A   1      44.868  26.501  29.560  1.00  0.00     0.074 A 
ATOM     39  C   UNL A   1      44.427  25.513  30.541  1.00  0.00     0.031 C 
ATOM     40  C   UNL A   1      45.324  27.783  29.691  1.00  0.00     0.031 A 
BRANCH  27  41
ATOM     41  C   UNL A   1      43.761  27.059  34.748  1.00  0.00    -0.014 A 
ATOM     42  C   UNL A   1      43.818  25.732  34.280  1.00  0.00     0.009 A 
ATOM     43  C   UNL A   1      43.681  27.229  36.143  1.00  0.00     0.009 A 
ATOM     44  C   UNL A   1      43.680  24.643  35.150  1.00  0.00     0.001 A 
ATOM     45  C   UNL A   1      43.590  26.143  37.018  1.00  0.00     0.001 A 
ATOM     46  C   UNL A   1      43.550  24.851  36.518  1.00  0.00     0.000 A 
ENDBRANCH  27  41
BRANCH  28  47
ATOM     47  C   UNL A   1      41.903  23.629  27.311  1.00  0.00    -0.014 A 
ATOM     48  C   UNL A   1      42.651  23.099  26.247  1.00  0.00     0.009 A 
ATOM     49  C   UNL A   1      41.001  22.773  27.969  1.00  0.00     0.009 A 
ATOM     50  C   UNL A   1      42.525  21.751  25.882  1.00  0.00     0.001 A 
ATOM     51  C   UNL A   1      40.873  21.430  27.601  1.00  0.00     0.001 A 
ATOM     52  C   UNL A   1      41.648  20.915  26.567  1.00  0.00     0.000 A 
ENDBRANCH  28  47
BRANCH  40  53
ATOM     53  C   UNL A   1      45.549  28.586  28.435  1.00  0.00    -0.014 A 
ATOM     54  C   UNL A   1      44.614  29.516  27.945  1.00  0.00     0.009 A 
ATOM     55  C   UNL A   1      46.804  28.513  27.815  1.00  0.00     0.009 A 
ATOM     56  C   UNL A   1      44.917  30.321  26.843  1.00  0.00     0.001 A 
ATOM     57  C   UNL A   1      47.115  29.334  26.728  1.00  0.00     0.001 A 
ATOM     58  C   UNL A   1      46.169  30.232  26.239  1.00  0.00     0.000 A 
ENDBRANCH  40  53
ENDBRANCH  14  15
ENDBRANCH   7   9
ENDBRANCH   4   5
ENDBRANCH   3   4
ENDBRANCH   2   3
ENDBRANCH   1   2
BRANCH   1  59
ATOM     59  C   UNL A   1      34.124  28.631  25.562  1.00  0.00     0.021 C 
BRANCH  59  60
ATOM     60  C   UNL A   1      33.255  29.382  24.557  1.00  0.00     0.116 C 
BRANCH  60  61
ATOM     61  N   UNL A   1      33.677  29.192  23.172  1.00  0.00    -0.352 N 
ATOM     62  C   UNL A   1      33.522  28.083  22.361  1.00  0.00     0.251 C 
ATOM     63  H   UNL A   1      34.134  29.960  22.759  1.00  0.00     0.163 HD
ATOM     64  O   UNL A   1      34.038  28.034  21.251  1.00  0.00    -0.269 OA
BRANCH  62  65
ATOM     65  C   UNL A   1      32.738  26.931  22.866  1.00  0.00     0.041 A 
ATOM     66  C   UNL A   1      31.657  27.186  23.706  1.00  0.00     0.018 A 
ATOM     67  C   UNL A   1      33.178  25.612  22.623  1.00  0.00     0.036 A 
ATOM     68  C   UNL A   1      31.209  26.147  24.491  1.00  0.00    -0.043 A 
ATOM     69  C   UNL A   1      32.653  24.536  23.370  1.00  0.00     0.092 A 
ATOM     70  C   UNL A   1      31.760  24.854  24.390  1.00  0.00    -0.024 A 
ATOM     71  C   UNL A   1      30.250  26.261  25.636  1.00  0.00     0.036 C 
ATOM     72  C   UNL A   1      31.332  24.090  25.605  1.00  0.00     0.037 C 
ATOM     73  C   UNL A   1      30.007  24.785  25.934  1.00  0.00     0.010 C 
BRANCH  69  74
ATOM     74  S   UNL A   1      33.365  22.915  23.164  1.00  0.00     0.262 S 
ATOM     75  O   UNL A   1      32.408  22.123  22.409  1.00  0.00    -0.201 OA
ATOM     76  O   UNL A   1      34.705  23.089  22.654  1.00  0.00    -0.201 OA
BRANCH  74  77
ATOM     77  N   UNL A   1      33.512  22.062  24.641  1.00  0.00    -0.277 N 
ATOM     78  H   UNL A   1      33.126  22.453  25.457  1.00  0.00     0.180 HD
BRANCH  77  79
ATOM     79  C   UNL A   1      34.180  20.795  24.729  1.00  0.00     0.075 A 
ATOM     80  C   UNL A   1      33.474  19.628  24.385  1.00  0.00     0.042 A 
ATOM     81  C   UNL A   1      35.552  20.705  25.016  1.00  0.00     0.089 A 
ATOM     82  C   UNL A   1      34.139  18.389  24.260  1.00  0.00     0.058 A 
ATOM     83  C   UNL A   1      36.210  19.469  24.930  1.00  0.00     0.031 A 
ATOM     84  C   UNL A   1      35.507  18.319  24.561  1.00  0.00     0.015 A 
BRANCH  81  85
ATOM     85  N   UNL A   1      36.314  21.856  25.330  1.00  0.00    -0.239 N 
ATOM     86  C   UNL A   1      37.660  22.065  25.134  1.00  0.00     0.115 A 
ATOM     87  N   UNL A   1      35.750  22.887  26.010  1.00  0.00    -0.177 NA
ATOM     88  C   UNL A   1      38.009  23.156  25.889  1.00  0.00     0.042 A 
ATOM     89  C   UNL A   1      36.797  23.599  26.439  1.00  0.00     0.135 A 
ENDBRANCH  81  85
BRANCH  82  90
ATOM     90  C   UNL A   1      33.408  17.179  23.721  1.00  0.00     0.416 C 
ATOM     91  F   UNL A   1      32.842  16.426  24.700  1.00  0.00    -0.166 F 
ATOM     92  F   UNL A   1      32.395  17.526  22.876  1.00  0.00    -0.166 F 
ATOM     93  F   UNL A   1      34.207  16.338  23.007  1.00  0.00    -0.166 F 
ENDBRANCH  82  90
ENDBRANCH  77  79
ENDBRANCH  74  77
ENDBRANCH  69  74
ENDBRANCH  62  65
ENDBRANCH  60  61
ENDBRANCH  59  60
ENDBRANCH   1  59
TORSDOF 18
ENDMDL
MODEL 3
REMARK VINA RESULT:     -11.8      1.538      2.157
REMARK SMILES O=C(NCCCCCCNC(=O)c1cc2c(c(S(=O)(=O)Nc3cc(C(F)(F)F)ccc3-n3cccn3)c1)CCC2)c1ccc(-c2c3nc(c(-c4ccccc4)c4ccc([nH]4)c(-c4ccccc4)c4nc(c(-c5ccccc5)c5ccc2[nH]5)C=C4)C=C3)cc1
REMARK SMILES IDX 7 1 6 2 5 3 4 4 3 5 1 6 2 7 41 9 42 10 88 11 43 12 87 13
REMARK SMILES IDX 44 14 45 15 46 16 81 17 47 18 86 19 80 20 82 21 48 22 85 23
REMARK SMILES IDX 79 24 78 25 49 27 71 28 56 29 70 30 57 31 60 32 69 33 83 34
REMARK SMILES IDX 58 35 59 36 68 38 84 39 61 40 50 41 51 42 55 43 52 44 54 45
REMARK SMILES IDX 53 46 72 47 73 48 77 49 74 50 76 51 75 52 62 53 63 54 67 55
REMARK SMILES IDX 64 56 66 57 65 58 8 59 9 60 10 61 11 62 12 64 13 65 14 66
REMARK SMILES IDX 37 67 15 68 17 69 16 70 40 71 38 72 39 73 18 74 19 75 20 76
REMARK SMILES IDX 21 77 22 79 23 80 31 81 24 82 30 83 29 84 32 85 33 86 36 87
REMARK SMILES IDX 34 88 35 89 25 90 26 91 27 92 28 93
REMARK H PARENT 3 8 82 26 60 37 10 63 21 78
REMARK Flexibility Score: inf
ROOT
ATOM      1  C   UNL A   1      34.467  28.578  26.491  1.00  0.00     0.002 C 
ENDROOT
BRANCH   1   2
ATOM      2  C   UNL A   1      33.706  29.325  27.593  1.00  0.00     0.002 C 
BRANCH   2   3
ATOM      3  C   UNL A   1      33.447  30.816  27.345  1.00  0.00     0.021 C 
BRANCH   3   4
ATOM      4  C   UNL A   1      34.550  31.758  27.832  1.00  0.00     0.116 C 
BRANCH   4   5
ATOM      5  N   UNL A   1      34.479  32.064  29.244  1.00  0.00    -0.352 N 
ATOM      6  O   UNL A   1      34.943  32.408  31.373  1.00  0.00    -0.269 OA
ATOM      7  C   UNL A   1      35.311  31.892  30.314  1.00  0.00     0.251 C 
ATOM      8  H   UNL A   1      33.633  32.500  29.492  1.00  0.00     0.163 HD
BRANCH   7   9
ATOM      9  C   UNL A   1      36.572  31.099  30.311  1.00  0.00     0.039 A 
ATOM     10  C   UNL A   1      37.867  31.614  30.235  1.00  0.00     0.014 A 
ATOM     11  C   UNL A   1      36.410  29.701  30.361  1.00  0.00     0.014 A 
ATOM     12  C   UNL A   1      38.963  30.759  30.142  1.00  0.00     0.010 A 
ATOM     13  C   UNL A   1      37.500  28.843  30.278  1.00  0.00     0.010 A 
ATOM     14  C   UNL A   1      38.778  29.375  30.137  1.00  0.00    -0.014 A 
BRANCH  14  15
ATOM     15  C   UNL A   1      39.961  28.519  30.134  1.00  0.00     0.031 A 
ATOM     16  C   UNL A   1      40.644  28.380  31.452  1.00  0.00     0.074 A 
ATOM     17  C   UNL A   1      40.338  27.768  29.080  1.00  0.00     0.049 A 
ATOM     18  N   UNL A   1      41.871  28.659  31.754  1.00  0.00    -0.248 NA
ATOM     19  C   UNL A   1      39.829  27.945  32.598  1.00  0.00     0.031 C 
ATOM     20  C   UNL A   1      39.613  27.552  27.826  1.00  0.00     0.029 A 
ATOM     21  N   UNL A   1      41.414  26.934  28.964  1.00  0.00    -0.354 N 
ATOM     22  C   UNL A   1      42.037  28.280  33.086  1.00  0.00     0.074 A 
ATOM     23  C   UNL A   1      40.723  27.966  33.587  1.00  0.00     0.031 C 
ATOM     24  C   UNL A   1      40.141  26.483  27.187  1.00  0.00     0.029 A 
ATOM     25  C   UNL A   1      41.315  26.029  27.915  1.00  0.00     0.049 A 
ATOM     26  H   UNL A   1      42.188  26.971  29.570  1.00  0.00     0.167 HD
ATOM     27  C   UNL A   1      43.266  28.045  33.623  1.00  0.00     0.031 A 
ATOM     28  C   UNL A   1      42.099  24.946  27.696  1.00  0.00     0.031 A 
ATOM     29  C   UNL A   1      44.319  28.640  32.846  1.00  0.00     0.049 A 
ATOM     30  C   UNL A   1      43.347  25.117  28.469  1.00  0.00     0.074 A 
ATOM     31  C   UNL A   1      44.647  29.924  32.456  1.00  0.00     0.029 A 
ATOM     32  N   UNL A   1      45.068  27.808  32.051  1.00  0.00    -0.354 N 
ATOM     33  N   UNL A   1      44.257  26.002  28.185  1.00  0.00    -0.248 NA
ATOM     34  C   UNL A   1      43.409  24.565  29.812  1.00  0.00     0.031 C 
ATOM     35  C   UNL A   1      45.186  29.783  31.143  1.00  0.00     0.029 A 
ATOM     36  C   UNL A   1      45.198  28.421  30.836  1.00  0.00     0.049 A 
ATOM     37  H   UNL A   1      45.442  26.934  32.308  1.00  0.00     0.167 HD
ATOM     38  C   UNL A   1      44.715  26.440  29.417  1.00  0.00     0.074 A 
ATOM     39  C   UNL A   1      44.246  25.441  30.373  1.00  0.00     0.031 C 
ATOM     40  C   UNL A   1      45.188  27.712  29.578  1.00  0.00     0.031 A 
BRANCH  27  41
ATOM     41  C   UNL A   1      43.540  26.918  34.598  1.00  0.00    -0.014 A 
ATOM     42  C   UNL A   1      43.690  25.612  34.092  1.00  0.00     0.009 A 
ATOM     43  C   UNL A   1      43.346  27.033  35.987  1.00  0.00     0.009 A 
ATOM     44  C   UNL A   1      43.532  24.487  34.911  1.00  0.00     0.001 A 
ATOM     45  C   UNL A   1      43.234  25.914  36.815  1.00  0.00     0.001 A 
ATOM     46  C   UNL A   1      43.287  24.639  36.271  1.00  0.00     0.000 A 
ENDBRANCH  27  41
BRANCH  28  47
ATOM     47  C   UNL A   1      41.742  23.654  27.072  1.00  0.00    -0.014 A 
ATOM     48  C   UNL A   1      42.589  23.049  26.129  1.00  0.00     0.009 A 
ATOM     49  C   UNL A   1      40.697  22.878  27.606  1.00  0.00     0.009 A 
ATOM     50  C   UNL A   1      42.416  21.706  25.763  1.00  0.00     0.001 A 
ATOM     51  C   UNL A   1      40.521  21.541  27.237  1.00  0.00     0.001 A 
ATOM     52  C   UNL A   1      41.392  20.950  26.328  1.00  0.00     0.000 A 
ENDBRANCH  28  47
BRANCH  40  53
ATOM     53  C   UNL A   1      45.443  28.535  28.341  1.00  0.00    -0.014 A 
ATOM     54  C   UNL A   1      44.588  29.570  27.922  1.00  0.00     0.009 A 
ATOM     55  C   UNL A   1      46.660  28.361  27.666  1.00  0.00     0.009 A 
ATOM     56  C   UNL A   1      44.926  30.381  26.835  1.00  0.00     0.001 A 
ATOM     57  C   UNL A   1      47.008  29.187  26.595  1.00  0.00     0.001 A 
ATOM     58  C   UNL A   1      46.139  30.192  26.176  1.00  0.00     0.000 A 
ENDBRANCH  40  53
ENDBRANCH  14  15
ENDBRANCH   7   9
ENDBRANCH   4   5
ENDBRANCH   3   4
ENDBRANCH   2   3
ENDBRANCH   1   2
BRANCH   1  59
ATOM     59  C   UNL A   1      33.802  28.568  25.114  1.00  0.00     0.021 C 
BRANCH  59  60
ATOM     60  C   UNL A   1      32.364  28.058  25.088  1.00  0.00     0.116 C 
BRANCH  60  61
ATOM     61  N   UNL A   1      31.696  28.274  23.808  1.00  0.00    -0.352 N 
ATOM     62  C   UNL A   1      30.979  27.376  23.039  1.00  0.00     0.251 C 
ATOM     63  H   UNL A   1      31.766  29.186  23.441  1.00  0.00     0.163 HD
ATOM     64  O   UNL A   1      30.576  27.679  21.923  1.00  0.00    -0.269 OA
BRANCH  62  65
ATOM     65  C   UNL A   1      30.725  26.018  23.576  1.00  0.00     0.041 A 
ATOM     66  C   UNL A   1      29.943  25.897  24.723  1.00  0.00     0.018 A 
ATOM     67  C   UNL A   1      31.389  24.901  23.026  1.00  0.00     0.036 A 
ATOM     68  C   UNL A   1      30.055  24.730  25.443  1.00  0.00    -0.043 A 
ATOM     69  C   UNL A   1      31.429  23.677  23.728  1.00  0.00     0.092 A 
ATOM     70  C   UNL A   1      30.859  23.661  24.998  1.00  0.00    -0.024 A 
ATOM     71  C   UNL A   1      29.519  24.493  26.821  1.00  0.00     0.036 C 
ATOM     72  C   UNL A   1      31.057  22.737  26.160  1.00  0.00     0.037 C 
ATOM     73  C   UNL A   1      29.774  22.995  26.958  1.00  0.00     0.010 C 
BRANCH  69  74
ATOM     74  S   UNL A   1      32.431  22.349  23.089  1.00  0.00     0.262 S 
ATOM     75  O   UNL A   1      31.541  21.452  22.370  1.00  0.00    -0.201 OA
ATOM     76  O   UNL A   1      33.553  22.942  22.399  1.00  0.00    -0.201 OA
BRANCH  74  77
ATOM     77  N   UNL A   1      33.086  21.359  24.322  1.00  0.00    -0.277 N 
ATOM     78  H   UNL A   1      32.477  20.805  24.861  1.00  0.00     0.180 HD
BRANCH  77  79
ATOM     79  C   UNL A   1      34.493  21.308  24.597  1.00  0.00     0.075 A 
ATOM     80  C   UNL A   1      35.171  22.504  24.897  1.00  0.00     0.042 A 
ATOM     81  C   UNL A   1      35.178  20.087  24.705  1.00  0.00     0.089 A 
ATOM     82  C   UNL A   1      36.501  22.483  25.370  1.00  0.00     0.058 A 
ATOM     83  C   UNL A   1      36.512  20.065  25.138  1.00  0.00     0.031 A 
ATOM     84  C   UNL A   1      37.170  21.253  25.462  1.00  0.00     0.015 A 
BRANCH  81  85
ATOM     85  N   UNL A   1      34.529  18.855  24.450  1.00  0.00    -0.239 N 
ATOM     86  C   UNL A   1      35.082  17.596  24.405  1.00  0.00     0.115 A 
ATOM     87  N   UNL A   1      33.220  18.832  24.089  1.00  0.00    -0.177 NA
ATOM     88  C   UNL A   1      34.162  16.779  23.797  1.00  0.00     0.042 A 
ATOM     89  C   UNL A   1      33.048  17.605  23.589  1.00  0.00     0.135 A 
ENDBRANCH  81  85
BRANCH  82  90
ATOM     90  C   UNL A   1      37.160  23.755  25.856  1.00  0.00     0.416 C 
ATOM     91  F   UNL A   1      37.561  23.679  27.151  1.00  0.00    -0.166 F 
ATOM     92  F   UNL A   1      38.273  24.066  25.132  1.00  0.00    -0.166 F 
ATOM     93  F   UNL A   1      36.352  24.849  25.771  1.00  0.00    -0.166 F 
ENDBRANCH  82  90
ENDBRANCH  77  79
ENDBRANCH  74  77
ENDBRANCH  69  74
ENDBRANCH  62  65
ENDBRANCH  60  61
ENDBRANCH  59  60
ENDBRANCH   1  59
TORSDOF 18
ENDMDL
