MODEL 1
REMARK VINA RESULT:     -11.3      0.000      0.000
REMARK SMILES CCc1ccc2[nH]c(C(=O)c3cc(C)ccn3)c(CC(=O)NCCCCCCNC(=O)c3ccc(-c4c5nc(c(-c6ccccc6)c6ccc([nH]6)c(-c6ccccc6)c6nc(c(-c7ccccc7)c7ccc4[nH]7)C=C6)C=C5)cc3)c2c1
REMARK SMILES IDX 25 1 24 2 23 3 22 4 20 5 21 6 19 8 18 9 3 10 4 11 81 12 5 13
REMARK SMILES IDX 80 14 6 15 7 16 8 17 2 19 1 20 9 21 10 22 11 23 12 24 17 25
REMARK SMILES IDX 13 26 16 27 14 28 15 29 26 30 27 31 28 32 29 33 30 34 31 36
REMARK SMILES IDX 32 37 33 38 79 39 34 40 78 41 35 42 36 43 37 44 72 45 38 46
REMARK SMILES IDX 77 47 71 48 73 49 39 50 76 51 70 52 69 53 40 55 62 56 47 57
REMARK SMILES IDX 61 58 48 59 51 60 60 61 74 62 49 63 50 64 59 66 75 67 52 68
REMARK SMILES IDX 41 69 42 70 46 71 43 72 45 73 44 74 63 75 64 76 68 77 65 78
REMARK SMILES IDX 67 79 66 80 53 81 54 82 58 83 55 84 57 85 56 86
REMARK H PARENT 22 7 7 18 29 35 73 54 51 65
REMARK Flexibility Score: inf
ROOT
ATOM      1  C   UNL A   1      34.036  31.987  28.544  1.00  0.00     0.002 C 
ENDROOT
BRANCH   1   2
ATOM      2  C   UNL A   1      35.068  31.086  27.851  1.00  0.00     0.021 C 
BRANCH   2   3
ATOM      3  C   UNL A   1      34.454  29.919  27.079  1.00  0.00     0.116 C 
BRANCH   3   4
ATOM      4  N   UNL A   1      33.206  29.479  27.662  1.00  0.00    -0.356 N 
ATOM      5  C   UNL A   1      32.374  28.465  27.288  1.00  0.00     0.224 C 
ATOM      6  O   UNL A   1      31.454  28.188  28.065  1.00  0.00    -0.275 OA
ATOM      7  H   UNL A   1      32.912  29.991  28.451  1.00  0.00     0.163 HD
BRANCH   5   8
ATOM      8  C   UNL A   1      32.653  27.611  26.057  1.00  0.00     0.138 C 
BRANCH   8   9
ATOM      9  C   UNL A   1      31.458  26.918  25.453  1.00  0.00    -0.002 A 
ATOM     10  C   UNL A   1      29.182  29.167  23.302  1.00  0.00    -0.048 A 
ATOM     11  C   UNL A   1      28.224  28.178  23.061  1.00  0.00     0.006 A 
ATOM     12  C   UNL A   1      30.316  28.838  24.070  1.00  0.00     0.014 A 
ATOM     13  C   UNL A   1      28.367  26.877  23.562  1.00  0.00     0.027 A 
ATOM     14  C   UNL A   1      30.480  27.539  24.602  1.00  0.00     0.004 A 
ATOM     15  C   UNL A   1      29.502  26.593  24.328  1.00  0.00     0.046 A 
ATOM     16  N   UNL A   1      29.886  25.430  24.945  1.00  0.00    -0.352 N 
ATOM     17  C   UNL A   1      31.110  25.571  25.566  1.00  0.00     0.093 A 
ATOM     18  H   UNL A   1      29.356  24.600  24.945  1.00  0.00     0.167 HD
BRANCH  10  19
ATOM     19  C   UNL A   1      29.062  30.592  22.805  1.00  0.00     0.032 C 
ATOM     20  C   UNL A   1      29.153  31.699  23.846  1.00  0.00     0.009 C 
ENDBRANCH  10  19
BRANCH  17  21
ATOM     21  C   UNL A   1      31.840  24.491  26.223  1.00  0.00     0.227 C 
ATOM     22  O   UNL A   1      31.712  24.211  27.414  1.00  0.00    -0.285 OA
BRANCH  21  23
ATOM     23  C   UNL A   1      32.841  23.727  25.434  1.00  0.00     0.113 A 
ATOM     24  C   UNL A   1      33.950  23.181  26.075  1.00  0.00     0.036 A 
ATOM     25  N   UNL A   1      32.618  23.638  24.099  1.00  0.00    -0.253 NA
ATOM     26  C   UNL A   1      34.895  22.504  25.303  1.00  0.00    -0.047 A 
ATOM     27  C   UNL A   1      33.526  22.946  23.383  1.00  0.00     0.112 A 
ATOM     28  C   UNL A   1      36.127  21.917  25.922  1.00  0.00     0.044 C 
ATOM     29  C   UNL A   1      34.667  22.377  23.931  1.00  0.00     0.023 A 
ENDBRANCH  21  23
ENDBRANCH  17  21
ENDBRANCH   8   9
ENDBRANCH   5   8
ENDBRANCH   3   4
ENDBRANCH   2   3
ENDBRANCH   1   2
BRANCH   1  30
ATOM     30  C   UNL A   1      34.396  33.476  28.598  1.00  0.00     0.002 C 
BRANCH  30  31
ATOM     31  C   UNL A   1      33.202  34.435  28.614  1.00  0.00     0.021 C 
BRANCH  31  32
ATOM     32  C   UNL A   1      33.499  35.812  29.202  1.00  0.00     0.116 C 
BRANCH  32  33
ATOM     33  N   UNL A   1      32.632  36.125  30.329  1.00  0.00    -0.352 N 
ATOM     34  C   UNL A   1      32.706  35.708  31.633  1.00  0.00     0.251 C 
ATOM     35  H   UNL A   1      31.881  36.727  30.124  1.00  0.00     0.163 HD
ATOM     36  O   UNL A   1      31.774  35.923  32.405  1.00  0.00    -0.269 OA
BRANCH  34  37
ATOM     37  C   UNL A   1      33.900  34.982  32.114  1.00  0.00     0.039 A 
ATOM     38  C   UNL A   1      33.761  33.654  32.525  1.00  0.00     0.014 A 
ATOM     39  C   UNL A   1      35.148  35.608  32.174  1.00  0.00     0.014 A 
ATOM     40  C   UNL A   1      34.887  32.933  32.929  1.00  0.00     0.010 A 
ATOM     41  C   UNL A   1      36.278  34.870  32.514  1.00  0.00     0.010 A 
ATOM     42  C   UNL A   1      36.161  33.523  32.890  1.00  0.00    -0.014 A 
BRANCH  42  43
ATOM     43  C   UNL A   1      37.381  32.739  33.209  1.00  0.00     0.031 A 
ATOM     44  C   UNL A   1      38.130  32.981  34.488  1.00  0.00     0.074 A 
ATOM     45  C   UNL A   1      37.851  31.853  32.308  1.00  0.00     0.049 A 
ATOM     46  N   UNL A   1      39.247  32.437  34.905  1.00  0.00    -0.248 NA
ATOM     47  C   UNL A   1      37.568  33.980  35.411  1.00  0.00     0.031 C 
ATOM     48  C   UNL A   1      37.236  31.554  31.014  1.00  0.00     0.029 A 
ATOM     49  N   UNL A   1      38.962  31.048  32.344  1.00  0.00    -0.354 N 
ATOM     50  C   UNL A   1      39.524  33.033  36.128  1.00  0.00     0.074 A 
ATOM     51  C   UNL A   1      38.487  34.014  36.365  1.00  0.00     0.031 C 
ATOM     52  C   UNL A   1      37.965  30.614  30.389  1.00  0.00     0.029 A 
ATOM     53  C   UNL A   1      39.117  30.277  31.217  1.00  0.00     0.049 A 
ATOM     54  H   UNL A   1      39.587  31.026  33.103  1.00  0.00     0.167 HD
ATOM     55  C   UNL A   1      40.543  32.778  36.984  1.00  0.00     0.031 A 
ATOM     56  C   UNL A   1      40.084  29.403  30.882  1.00  0.00     0.031 A 
ATOM     57  C   UNL A   1      41.573  31.800  36.751  1.00  0.00     0.049 A 
ATOM     58  C   UNL A   1      41.217  29.157  31.838  1.00  0.00     0.074 A 
ATOM     59  C   UNL A   1      42.615  31.431  37.584  1.00  0.00     0.029 A 
ATOM     60  N   UNL A   1      41.695  31.041  35.598  1.00  0.00    -0.354 N 
ATOM     61  N   UNL A   1      41.428  29.682  33.021  1.00  0.00    -0.248 NA
ATOM     62  C   UNL A   1      42.241  28.190  31.416  1.00  0.00     0.031 C 
ATOM     63  C   UNL A   1      43.399  30.487  36.913  1.00  0.00     0.029 A 
ATOM     64  C   UNL A   1      42.812  30.226  35.686  1.00  0.00     0.049 A 
ATOM     65  H   UNL A   1      41.079  31.075  34.830  1.00  0.00     0.167 HD
ATOM     66  C   UNL A   1      42.592  29.091  33.494  1.00  0.00     0.074 A 
ATOM     67  C   UNL A   1      43.030  28.155  32.480  1.00  0.00     0.031 C 
ATOM     68  C   UNL A   1      43.239  29.304  34.666  1.00  0.00     0.031 A 
BRANCH  55  69
ATOM     69  C   UNL A   1      40.599  33.579  38.256  1.00  0.00    -0.014 A 
ATOM     70  C   UNL A   1      39.958  33.137  39.424  1.00  0.00     0.009 A 
ATOM     71  C   UNL A   1      41.340  34.771  38.298  1.00  0.00     0.009 A 
ATOM     72  C   UNL A   1      40.030  33.889  40.599  1.00  0.00     0.001 A 
ATOM     73  C   UNL A   1      41.436  35.505  39.482  1.00  0.00     0.001 A 
ATOM     74  C   UNL A   1      40.773  35.068  40.629  1.00  0.00     0.000 A 
ENDBRANCH  55  69
BRANCH  56  75
ATOM     75  C   UNL A   1      40.025  28.690  29.579  1.00  0.00    -0.014 A 
ATOM     76  C   UNL A   1      39.464  27.406  29.495  1.00  0.00     0.009 A 
ATOM     77  C   UNL A   1      40.539  29.283  28.416  1.00  0.00     0.009 A 
ATOM     78  C   UNL A   1      39.444  26.721  28.278  1.00  0.00     0.001 A 
ATOM     79  C   UNL A   1      40.490  28.609  27.194  1.00  0.00     0.001 A 
ATOM     80  C   UNL A   1      39.953  27.324  27.129  1.00  0.00     0.000 A 
ENDBRANCH  56  75
BRANCH  68  81
ATOM     81  C   UNL A   1      44.476  28.488  34.925  1.00  0.00    -0.014 A 
ATOM     82  C   UNL A   1      45.756  29.005  34.675  1.00  0.00     0.009 A 
ATOM     83  C   UNL A   1      44.356  27.196  35.459  1.00  0.00     0.009 A 
ATOM     84  C   UNL A   1      46.891  28.230  34.922  1.00  0.00     0.001 A 
ATOM     85  C   UNL A   1      45.492  26.434  35.734  1.00  0.00     0.001 A 
ATOM     86  C   UNL A   1      46.757  26.948  35.456  1.00  0.00     0.000 A 
ENDBRANCH  68  81
ENDBRANCH  42  43
ENDBRANCH  34  37
ENDBRANCH  32  33
ENDBRANCH  31  32
ENDBRANCH  30  31
ENDBRANCH   1  30
TORSDOF 17
ENDMDL
MODEL 2
REMARK VINA RESULT:     -11.3      1.002      3.731
REMARK SMILES CCc1ccc2[nH]c(C(=O)c3cc(C)ccn3)c(CC(=O)NCCCCCCNC(=O)c3ccc(-c4c5nc(c(-c6ccccc6)c6ccc([nH]6)c(-c6ccccc6)c6nc(c(-c7ccccc7)c7ccc4[nH]7)C=C6)C=C5)cc3)c2c1
REMARK SMILES IDX 25 1 24 2 23 3 22 4 20 5 21 6 19 8 18 9 3 10 4 11 81 12 5 13
REMARK SMILES IDX 80 14 6 15 7 16 8 17 2 19 1 20 9 21 10 22 11 23 12 24 17 25
REMARK SMILES IDX 13 26 16 27 14 28 15 29 26 30 27 31 28 32 29 33 30 34 31 36
REMARK SMILES IDX 32 37 33 38 79 39 34 40 78 41 35 42 36 43 37 44 72 45 38 46
REMARK SMILES IDX 77 47 71 48 73 49 39 50 76 51 70 52 69 53 40 55 62 56 47 57
REMARK SMILES IDX 61 58 48 59 51 60 60 61 74 62 49 63 50 64 59 66 75 67 52 68
REMARK SMILES IDX 41 69 42 70 46 71 43 72 45 73 44 74 63 75 64 76 68 77 65 78
REMARK SMILES IDX 67 79 66 80 53 81 54 82 58 83 55 84 57 85 56 86
REMARK H PARENT 22 7 7 18 29 35 73 54 51 65
REMARK Flexibility Score: inf
ROOT
ATOM      1  C   UNL A   1      34.254  32.381  29.356  1.00  0.00     0.002 C 
ENDROOT
BRANCH   1   2
ATOM      2  C   UNL A   1      34.814  31.272  28.455  1.00  0.00     0.021 C 
BRANCH   2   3
ATOM      3  C   UNL A   1      33.935  30.948  27.248  1.00  0.00     0.116 C 
BRANCH   3   4
ATOM      4  N   UNL A   1      32.944  29.940  27.555  1.00  0.00    -0.356 N 
ATOM      5  C   UNL A   1      32.934  28.606  27.268  1.00  0.00     0.224 C 
ATOM      6  O   UNL A   1      32.044  27.933  27.798  1.00  0.00    -0.275 OA
ATOM      7  H   UNL A   1      32.156  30.267  28.046  1.00  0.00     0.163 HD
BRANCH   5   8
ATOM      8  C   UNL A   1      34.051  27.950  26.465  1.00  0.00     0.138 C 
BRANCH   8   9
ATOM      9  C   UNL A   1      33.615  27.168  25.252  1.00  0.00    -0.002 A 
ATOM     10  C   UNL A   1      35.084  23.613  24.988  1.00  0.00    -0.048 A 
ATOM     11  C   UNL A   1      34.518  23.337  23.741  1.00  0.00     0.006 A 
ATOM     12  C   UNL A   1      34.820  24.858  25.592  1.00  0.00     0.014 A 
ATOM     13  C   UNL A   1      33.699  24.266  23.082  1.00  0.00     0.027 A 
ATOM     14  C   UNL A   1      34.012  25.820  24.945  1.00  0.00     0.004 A 
ATOM     15  C   UNL A   1      33.470  25.494  23.710  1.00  0.00     0.046 A 
ATOM     16  N   UNL A   1      32.735  26.576  23.297  1.00  0.00    -0.352 N 
ATOM     17  C   UNL A   1      32.735  27.576  24.248  1.00  0.00     0.093 A 
ATOM     18  H   UNL A   1      32.267  26.633  22.432  1.00  0.00     0.167 HD
BRANCH  10  19
ATOM     19  C   UNL A   1      35.993  22.655  25.728  1.00  0.00     0.032 C 
ATOM     20  C   UNL A   1      37.417  22.509  25.208  1.00  0.00     0.009 C 
ENDBRANCH  10  19
BRANCH  17  21
ATOM     21  C   UNL A   1      31.965  28.813  24.156  1.00  0.00     0.227 C 
ATOM     22  O   UNL A   1      32.427  29.921  24.422  1.00  0.00    -0.285 OA
BRANCH  21  23
ATOM     23  C   UNL A   1      30.529  28.730  23.784  1.00  0.00     0.113 A 
ATOM     24  C   UNL A   1      29.824  29.898  23.501  1.00  0.00     0.036 A 
ATOM     25  N   UNL A   1      29.977  27.492  23.777  1.00  0.00    -0.253 NA
ATOM     26  C   UNL A   1      28.467  29.794  23.194  1.00  0.00    -0.047 A 
ATOM     27  C   UNL A   1      28.674  27.416  23.440  1.00  0.00     0.112 A 
ATOM     28  C   UNL A   1      27.640  31.011  22.908  1.00  0.00     0.044 C 
ATOM     29  C   UNL A   1      27.888  28.523  23.153  1.00  0.00     0.023 A 
ENDBRANCH  21  23
ENDBRANCH  17  21
ENDBRANCH   8   9
ENDBRANCH   5   8
ENDBRANCH   3   4
ENDBRANCH   2   3
ENDBRANCH   1   2
BRANCH   1  30
ATOM     30  C   UNL A   1      34.487  33.812  28.857  1.00  0.00     0.002 C 
BRANCH  30  31
ATOM     31  C   UNL A   1      33.251  34.717  28.868  1.00  0.00     0.021 C 
BRANCH  31  32
ATOM     32  C   UNL A   1      33.451  36.061  29.562  1.00  0.00     0.116 C 
BRANCH  32  33
ATOM     33  N   UNL A   1      32.537  36.242  30.680  1.00  0.00    -0.352 N 
ATOM     34  C   UNL A   1      32.592  35.725  31.949  1.00  0.00     0.251 C 
ATOM     35  H   UNL A   1      31.764  36.824  30.498  1.00  0.00     0.163 HD
ATOM     36  O   UNL A   1      31.628  35.833  32.703  1.00  0.00    -0.269 OA
BRANCH  34  37
ATOM     37  C   UNL A   1      33.806  35.018  32.411  1.00  0.00     0.039 A 
ATOM     38  C   UNL A   1      33.685  33.706  32.878  1.00  0.00     0.014 A 
ATOM     39  C   UNL A   1      35.054  35.646  32.398  1.00  0.00     0.014 A 
ATOM     40  C   UNL A   1      34.826  33.001  33.265  1.00  0.00     0.010 A 
ATOM     41  C   UNL A   1      36.198  34.921  32.721  1.00  0.00     0.010 A 
ATOM     42  C   UNL A   1      36.097  33.589  33.153  1.00  0.00    -0.014 A 
BRANCH  42  43
ATOM     43  C   UNL A   1      37.329  32.818  33.454  1.00  0.00     0.031 A 
ATOM     44  C   UNL A   1      38.091  33.064  34.725  1.00  0.00     0.074 A 
ATOM     45  C   UNL A   1      37.799  31.942  32.544  1.00  0.00     0.049 A 
ATOM     46  N   UNL A   1      39.219  32.530  35.127  1.00  0.00    -0.248 NA
ATOM     47  C   UNL A   1      37.528  34.051  35.659  1.00  0.00     0.031 C 
ATOM     48  C   UNL A   1      37.173  31.641  31.255  1.00  0.00     0.029 A 
ATOM     49  N   UNL A   1      38.920  31.150  32.563  1.00  0.00    -0.354 N 
ATOM     50  C   UNL A   1      39.504  33.125  36.349  1.00  0.00     0.074 A 
ATOM     51  C   UNL A   1      38.458  34.092  36.603  1.00  0.00     0.031 C 
ATOM     52  C   UNL A   1      37.904  30.713  30.618  1.00  0.00     0.029 A 
ATOM     53  C   UNL A   1      39.070  30.385  31.431  1.00  0.00     0.049 A 
ATOM     54  H   UNL A   1      39.554  31.131  33.314  1.00  0.00     0.167 HD
ATOM     55  C   UNL A   1      40.535  32.878  37.191  1.00  0.00     0.031 A 
ATOM     56  C   UNL A   1      40.043  29.525  31.080  1.00  0.00     0.031 A 
ATOM     57  C   UNL A   1      41.573  31.913  36.941  1.00  0.00     0.049 A 
ATOM     58  C   UNL A   1      41.190  29.287  32.022  1.00  0.00     0.074 A 
ATOM     59  C   UNL A   1      42.630  31.552  37.761  1.00  0.00     0.029 A 
ATOM     60  N   UNL A   1      41.691  31.160  35.785  1.00  0.00    -0.354 N 
ATOM     61  N   UNL A   1      41.409  29.810  33.204  1.00  0.00    -0.248 NA
ATOM     62  C   UNL A   1      42.220  28.334  31.583  1.00  0.00     0.031 C 
ATOM     63  C   UNL A   1      43.417  30.620  37.077  1.00  0.00     0.029 A 
ATOM     64  C   UNL A   1      42.818  30.358  35.855  1.00  0.00     0.049 A 
ATOM     65  H   UNL A   1      41.065  31.190  35.024  1.00  0.00     0.167 HD
ATOM     66  C   UNL A   1      42.585  29.229  33.661  1.00  0.00     0.074 A 
ATOM     67  C   UNL A   1      43.022  28.304  32.638  1.00  0.00     0.031 C 
ATOM     68  C   UNL A   1      43.244  29.445  34.826  1.00  0.00     0.031 A 
BRANCH  55  69
ATOM     69  C   UNL A   1      40.598  33.674  38.466  1.00  0.00    -0.014 A 
ATOM     70  C   UNL A   1      39.990  33.210  39.644  1.00  0.00     0.009 A 
ATOM     71  C   UNL A   1      41.310  34.883  38.501  1.00  0.00     0.009 A 
ATOM     72  C   UNL A   1      40.068  33.958  40.822  1.00  0.00     0.001 A 
ATOM     73  C   UNL A   1      41.412  35.613  39.686  1.00  0.00     0.001 A 
ATOM     74  C   UNL A   1      40.782  35.155  40.843  1.00  0.00     0.000 A 
ENDBRANCH  55  69
BRANCH  56  75
ATOM     75  C   UNL A   1      39.977  28.816  29.775  1.00  0.00    -0.014 A 
ATOM     76  C   UNL A   1      39.421  27.531  29.689  1.00  0.00     0.009 A 
ATOM     77  C   UNL A   1      40.479  29.417  28.610  1.00  0.00     0.009 A 
ATOM     78  C   UNL A   1      39.394  26.851  28.470  1.00  0.00     0.001 A 
ATOM     79  C   UNL A   1      40.423  28.747  27.385  1.00  0.00     0.001 A 
ATOM     80  C   UNL A   1      39.891  27.461  27.319  1.00  0.00     0.000 A 
ENDBRANCH  56  75
BRANCH  68  81
ATOM     81  C   UNL A   1      44.492  28.642  35.067  1.00  0.00    -0.014 A 
ATOM     82  C   UNL A   1      45.750  29.107  34.651  1.00  0.00     0.009 A 
ATOM     83  C   UNL A   1      44.411  27.419  35.749  1.00  0.00     0.009 A 
ATOM     84  C   UNL A   1      46.896  28.346  34.885  1.00  0.00     0.001 A 
ATOM     85  C   UNL A   1      45.561  26.673  36.008  1.00  0.00     0.001 A 
ATOM     86  C   UNL A   1      46.801  27.132  35.567  1.00  0.00     0.000 A 
ENDBRANCH  68  81
ENDBRANCH  42  43
ENDBRANCH  34  37
ENDBRANCH  32  33
ENDBRANCH  31  32
ENDBRANCH  30  31
ENDBRANCH   1  30
TORSDOF 17
ENDMDL
MODEL 3
REMARK VINA RESULT:     -11.0      5.133     10.926
REMARK SMILES CCc1ccc2[nH]c(C(=O)c3cc(C)ccn3)c(CC(=O)NCCCCCCNC(=O)c3ccc(-c4c5nc(c(-c6ccccc6)c6ccc([nH]6)c(-c6ccccc6)c6nc(c(-c7ccccc7)c7ccc4[nH]7)C=C6)C=C5)cc3)c2c1
REMARK SMILES IDX 25 1 24 2 23 3 22 4 20 5 21 6 19 8 18 9 3 10 4 11 81 12 5 13
REMARK SMILES IDX 80 14 6 15 7 16 8 17 2 19 1 20 9 21 10 22 11 23 12 24 17 25
REMARK SMILES IDX 13 26 16 27 14 28 15 29 26 30 27 31 28 32 29 33 30 34 31 36
REMARK SMILES IDX 32 37 33 38 79 39 34 40 78 41 35 42 36 43 37 44 72 45 38 46
REMARK SMILES IDX 77 47 71 48 73 49 39 50 76 51 70 52 69 53 40 55 62 56 47 57
REMARK SMILES IDX 61 58 48 59 51 60 60 61 74 62 49 63 50 64 59 66 75 67 52 68
REMARK SMILES IDX 41 69 42 70 46 71 43 72 45 73 44 74 63 75 64 76 68 77 65 78
REMARK SMILES IDX 67 79 66 80 53 81 54 82 58 83 55 84 57 85 56 86
REMARK H PARENT 22 7 7 18 29 35 73 54 51 65
REMARK Flexibility Score: inf
ROOT
ATOM      1  C   UNL A   1      44.151  23.463  33.177  1.00  0.00     0.002 C 
ENDROOT
BRANCH   1   2
ATOM      2  C   UNL A   1      44.903  24.587  32.452  1.00  0.00     0.021 C 
BRANCH   2   3
ATOM      3  C   UNL A   1      44.709  24.588  30.936  1.00  0.00     0.116 C 
BRANCH   3   4
ATOM      4  N   UNL A   1      44.096  23.365  30.467  1.00  0.00    -0.356 N 
ATOM      5  C   UNL A   1      43.253  23.155  29.415  1.00  0.00     0.224 C 
ATOM      6  O   UNL A   1      43.012  21.979  29.125  1.00  0.00    -0.275 OA
ATOM      7  H   UNL A   1      44.323  22.560  30.987  1.00  0.00     0.163 HD
BRANCH   5   8
ATOM      8  C   UNL A   1      42.758  24.303  28.542  1.00  0.00     0.138 C 
BRANCH   8   9
ATOM      9  C   UNL A   1      43.491  24.501  27.240  1.00  0.00    -0.002 A 
ATOM     10  C   UNL A   1      45.961  27.461  27.191  1.00  0.00    -0.048 A 
ATOM     11  C   UNL A   1      46.298  27.318  25.842  1.00  0.00     0.006 A 
ATOM     12  C   UNL A   1      45.050  26.551  27.761  1.00  0.00     0.014 A 
ATOM     13  C   UNL A   1      45.753  26.297  25.051  1.00  0.00     0.027 A 
ATOM     14  C   UNL A   1      44.472  25.521  26.985  1.00  0.00     0.004 A 
ATOM     15  C   UNL A   1      44.845  25.420  25.652  1.00  0.00     0.046 A 
ATOM     16  N   UNL A   1      44.158  24.357  25.123  1.00  0.00    -0.352 N 
ATOM     17  C   UNL A   1      43.392  23.727  26.082  1.00  0.00     0.093 A 
ATOM     18  H   UNL A   1      44.205  24.079  24.179  1.00  0.00     0.167 HD
BRANCH  10  19
ATOM     19  C   UNL A   1      46.502  28.560  28.080  1.00  0.00     0.032 C 
ATOM     20  C   UNL A   1      45.984  28.612  29.511  1.00  0.00     0.009 C 
ENDBRANCH  10  19
BRANCH  17  21
ATOM     21  C   UNL A   1      42.624  22.505  25.864  1.00  0.00     0.227 C 
ATOM     22  O   UNL A   1      41.398  22.449  25.948  1.00  0.00    -0.285 OA
BRANCH  21  23
ATOM     23  C   UNL A   1      43.359  21.243  25.589  1.00  0.00     0.113 A 
ATOM     24  C   UNL A   1      44.703  21.295  25.232  1.00  0.00     0.036 A 
ATOM     25  N   UNL A   1      42.641  20.095  25.674  1.00  0.00    -0.253 NA
ATOM     26  C   UNL A   1      45.358  20.097  24.939  1.00  0.00    -0.047 A 
ATOM     27  C   UNL A   1      43.307  18.950  25.423  1.00  0.00     0.112 A 
ATOM     28  C   UNL A   1      46.797  20.081  24.519  1.00  0.00     0.044 C 
ATOM     29  C   UNL A   1      44.642  18.903  25.050  1.00  0.00     0.023 A 
ENDBRANCH  21  23
ENDBRANCH  17  21
ENDBRANCH   8   9
ENDBRANCH   5   8
ENDBRANCH   3   4
ENDBRANCH   2   3
ENDBRANCH   1   2
BRANCH   1  30
ATOM     30  C   UNL A   1      45.022  22.537  34.033  1.00  0.00     0.002 C 
BRANCH  30  31
ATOM     31  C   UNL A   1      45.560  23.158  35.325  1.00  0.00     0.021 C 
BRANCH  31  32
ATOM     32  C   UNL A   1      46.750  24.094  35.134  1.00  0.00     0.116 C 
BRANCH  32  33
ATOM     33  N   UNL A   1      46.986  24.929  36.303  1.00  0.00    -0.352 N 
ATOM     34  C   UNL A   1      46.521  26.187  36.589  1.00  0.00     0.251 C 
ATOM     35  H   UNL A   1      47.566  24.530  36.991  1.00  0.00     0.163 HD
ATOM     36  O   UNL A   1      46.981  26.814  37.540  1.00  0.00    -0.269 OA
BRANCH  34  37
ATOM     37  C   UNL A   1      45.476  26.802  35.743  1.00  0.00     0.039 A 
ATOM     38  C   UNL A   1      44.163  26.333  35.846  1.00  0.00     0.014 A 
ATOM     39  C   UNL A   1      45.788  27.825  34.844  1.00  0.00     0.014 A 
ATOM     40  C   UNL A   1      43.152  26.939  35.097  1.00  0.00     0.010 A 
ATOM     41  C   UNL A   1      44.769  28.471  34.149  1.00  0.00     0.010 A 
ATOM     42  C   UNL A   1      43.439  28.038  34.272  1.00  0.00    -0.014 A 
BRANCH  42  43
ATOM     43  C   UNL A   1      42.360  28.764  33.556  1.00  0.00     0.031 A 
ATOM     44  C   UNL A   1      41.495  29.754  34.283  1.00  0.00     0.074 A 
ATOM     45  C   UNL A   1      42.117  28.478  32.262  1.00  0.00     0.049 A 
ATOM     46  N   UNL A   1      40.468  30.436  33.838  1.00  0.00    -0.248 NA
ATOM     47  C   UNL A   1      41.808  29.997  35.701  1.00  0.00     0.031 C 
ATOM     48  C   UNL A   1      42.860  27.510  31.454  1.00  0.00     0.029 A 
ATOM     49  N   UNL A   1      41.167  28.971  31.402  1.00  0.00    -0.354 N 
ATOM     50  C   UNL A   1      40.008  31.175  34.919  1.00  0.00     0.074 A 
ATOM     51  C   UNL A   1      40.835  30.826  36.054  1.00  0.00     0.031 C 
ATOM     52  C   UNL A   1      42.355  27.497  30.209  1.00  0.00     0.029 A 
ATOM     53  C   UNL A   1      41.228  28.421  30.144  1.00  0.00     0.049 A 
ATOM     54  H   UNL A   1      40.507  29.652  31.661  1.00  0.00     0.167 HD
ATOM     55  C   UNL A   1      38.996  32.075  34.962  1.00  0.00     0.031 A 
ATOM     56  C   UNL A   1      40.457  28.628  29.061  1.00  0.00     0.031 A 
ATOM     57  C   UNL A   1      38.175  32.426  33.833  1.00  0.00     0.049 A 
ATOM     58  C   UNL A   1      39.324  29.613  29.141  1.00  0.00     0.074 A 
ATOM     59  C   UNL A   1      37.162  33.368  33.764  1.00  0.00     0.029 A 
ATOM     60  N   UNL A   1      38.268  31.847  32.578  1.00  0.00    -0.354 N 
ATOM     61  N   UNL A   1      38.945  30.353  30.155  1.00  0.00    -0.248 NA
ATOM     62  C   UNL A   1      38.520  29.797  27.925  1.00  0.00     0.031 C 
ATOM     63  C   UNL A   1      36.605  33.319  32.482  1.00  0.00     0.029 A 
ATOM     64  C   UNL A   1      37.311  32.388  31.736  1.00  0.00     0.049 A 
ATOM     65  H   UNL A   1      38.918  31.152  32.322  1.00  0.00     0.167 HD
ATOM     66  C   UNL A   1      37.876  31.109  29.691  1.00  0.00     0.074 A 
ATOM     67  C   UNL A   1      37.680  30.751  28.302  1.00  0.00     0.031 C 
ATOM     68  C   UNL A   1      37.124  32.018  30.357  1.00  0.00     0.031 A 
BRANCH  55  69
ATOM     69  C   UNL A   1      38.713  32.740  36.280  1.00  0.00    -0.014 A 
ATOM     70  C   UNL A   1      37.898  32.127  37.245  1.00  0.00     0.009 A 
ATOM     71  C   UNL A   1      39.304  33.978  36.579  1.00  0.00     0.009 A 
ATOM     72  C   UNL A   1      37.654  32.755  38.469  1.00  0.00     0.001 A 
ATOM     73  C   UNL A   1      39.083  34.590  37.815  1.00  0.00     0.001 A 
ATOM     74  C   UNL A   1      38.250  33.983  38.754  1.00  0.00     0.000 A 
ENDBRANCH  55  69
BRANCH  56  75
ATOM     75  C   UNL A   1      40.729  27.890  27.800  1.00  0.00    -0.014 A 
ATOM     76  C   UNL A   1      40.080  26.675  27.531  1.00  0.00     0.009 A 
ATOM     77  C   UNL A   1      41.648  28.390  26.863  1.00  0.00     0.009 A 
ATOM     78  C   UNL A   1      40.366  25.963  26.364  1.00  0.00     0.001 A 
ATOM     79  C   UNL A   1      41.909  27.692  25.682  1.00  0.00     0.001 A 
ATOM     80  C   UNL A   1      41.276  26.474  25.439  1.00  0.00     0.000 A 
ENDBRANCH  56  75
BRANCH  68  81
ATOM     81  C   UNL A   1      36.039  32.712  29.581  1.00  0.00    -0.014 A 
ATOM     82  C   UNL A   1      36.234  33.990  29.036  1.00  0.00     0.009 A 
ATOM     83  C   UNL A   1      34.814  32.060  29.364  1.00  0.00     0.009 A 
ATOM     84  C   UNL A   1      35.213  34.616  28.319  1.00  0.00     0.001 A 
ATOM     85  C   UNL A   1      33.806  32.674  28.622  1.00  0.00     0.001 A 
ATOM     86  C   UNL A   1      34.002  33.956  28.108  1.00  0.00     0.000 A 
ENDBRANCH  68  81
ENDBRANCH  42  43
ENDBRANCH  34  37
ENDBRANCH  32  33
ENDBRANCH  31  32
ENDBRANCH  30  31
ENDBRANCH   1  30
TORSDOF 17
ENDMDL
