MODEL 1
REMARK VINA RESULT:      -8.7      0.000      0.000
REMARK SMILES Cc1occc1C(=O)NN1C(=O)/C(=C\c2ccc(O[C@H](C)C(=O)NCCCCCCNC(=O)c3ccc(-c4c5nc(c(-c6ccccc6)c6ccc([nH]6)c(-c6ccccc6)c6nc(c(-c7ccccc7)c7ccc4[nH]7)C=C6)C=C5)cc3)cc2)SC1=S
REMARK SMILES IDX 26 1 25 2 24 3 22 4 23 5 20 7 21 8 19 9 18 10 15 11 16 12
REMARK SMILES IDX 83 13 17 14 82 15 14 16 10 17 11 18 85 19 12 20 13 21 84 22
REMARK SMILES IDX 86 23 9 24 7 25 8 26 6 28 1 29 2 30 3 31 4 32 5 33 27 34
REMARK SMILES IDX 28 35 29 36 30 37 31 38 32 39 33 41 34 42 35 43 81 44 36 45
REMARK SMILES IDX 80 46 37 47 38 48 39 49 74 50 40 51 79 52 73 53 75 54 41 55
REMARK SMILES IDX 78 56 72 57 71 58 42 60 64 61 49 62 63 63 50 64 53 65 62 66
REMARK SMILES IDX 76 67 51 68 52 69 61 71 77 72 54 73 43 74 44 75 48 76 45 77
REMARK SMILES IDX 47 78 46 79 65 80 66 81 70 82 67 83 69 84 68 85 55 86 56 87
REMARK SMILES IDX 60 88 57 89 59 90 58 91
REMARK H PARENT 24 6 9 27 31 40 75 59 53 70
REMARK Flexibility Score: inf
ROOT
ATOM      1  C   UNL A   1      34.840  33.932  33.751  1.00  0.00     0.021 C 
ENDROOT
BRANCH   1   2
ATOM      2  C   UNL A   1      36.116  33.166  34.081  1.00  0.00     0.116 C 
BRANCH   2   3
ATOM      3  N   UNL A   1      37.037  33.905  34.909  1.00  0.00    -0.353 N 
ATOM      4  C   UNL A   1      38.267  33.560  35.381  1.00  0.00     0.260 C 
ATOM      5  O   UNL A   1      38.904  34.455  35.949  1.00  0.00    -0.271 OA
ATOM      6  H   UNL A   1      36.727  34.801  35.176  1.00  0.00     0.163 HD
BRANCH   4   7
ATOM      7  C   UNL A   1      38.832  32.108  35.344  1.00  0.00     0.258 C 
ATOM      8  C   UNL A   1      38.186  31.287  36.457  1.00  0.00     0.064 C 
BRANCH   7   9
ATOM      9  O   UNL A   1      39.130  31.474  34.104  1.00  0.00    -0.481 OA
BRANCH   9  10
ATOM     10  C   UNL A   1      39.966  30.420  33.924  1.00  0.00     0.120 A 
ATOM     11  C   UNL A   1      41.946  28.443  33.575  1.00  0.00    -0.024 A 
ATOM     12  C   UNL A   1      40.649  28.250  33.098  1.00  0.00     0.012 A 
ATOM     13  C   UNL A   1      42.253  29.626  34.250  1.00  0.00     0.012 A 
ATOM     14  C   UNL A   1      39.662  29.218  33.295  1.00  0.00     0.047 A 
ATOM     15  C   UNL A   1      41.261  30.601  34.429  1.00  0.00     0.047 A 
BRANCH  11  16
ATOM     16  C   UNL A   1      42.881  27.328  33.415  1.00  0.00     0.029 C 
ATOM     17  N   UNL A   1      43.669  25.781  36.608  1.00  0.00    -0.198 N 
ATOM     18  C   UNL A   1      43.021  26.766  35.880  1.00  0.00     0.285 C 
ATOM     19  C   UNL A   1      44.186  24.699  35.931  1.00  0.00     0.168 C 
ATOM     20  O   UNL A   1      42.348  27.659  36.364  1.00  0.00    -0.266 OA
ATOM     21  C   UNL A   1      43.272  26.542  34.428  1.00  0.00     0.082 C 
ATOM     22  S   UNL A   1      44.124  25.050  34.199  1.00  0.00    -0.052 SA
ATOM     23  S   UNL A   1      44.772  23.272  36.558  1.00  0.00    -0.050 S 
BRANCH  17  24
ATOM     24  N   UNL A   1      43.552  25.856  37.990  1.00  0.00    -0.254 N 
ATOM     25  C   UNL A   1      44.477  26.360  38.873  1.00  0.00     0.273 C 
ATOM     26  O   UNL A   1      44.082  26.585  40.019  1.00  0.00    -0.267 OA
ATOM     27  H   UNL A   1      42.717  25.509  38.377  1.00  0.00     0.192 HD
BRANCH  25  28
ATOM     28  C   UNL A   1      45.894  26.504  38.553  1.00  0.00     0.082 A 
ATOM     29  C   UNL A   1      46.314  28.466  36.792  1.00  0.00     0.088 C 
ATOM     30  C   UNL A   1      46.604  27.341  37.701  1.00  0.00     0.113 A 
ATOM     31  O   UNL A   1      47.942  27.064  37.775  1.00  0.00    -0.469 OA
ATOM     32  C   UNL A   1      48.116  26.111  38.715  1.00  0.00     0.196 A 
ATOM     33  C   UNL A   1      46.906  25.749  39.240  1.00  0.00     0.056 A 
ENDBRANCH  25  28
ENDBRANCH  17  24
ENDBRANCH  11  16
ENDBRANCH   9  10
ENDBRANCH   7   9
ENDBRANCH   4   7
ENDBRANCH   2   3
ENDBRANCH   1   2
BRANCH   1  34
ATOM     34  C   UNL A   1      35.076  35.295  33.097  1.00  0.00     0.002 C 
BRANCH  34  35
ATOM     35  C   UNL A   1      33.892  36.269  33.158  1.00  0.00     0.002 C 
BRANCH  35  36
ATOM     36  C   UNL A   1      32.852  36.125  32.041  1.00  0.00     0.021 C 
BRANCH  36  37
ATOM     37  C   UNL A   1      33.391  36.320  30.627  1.00  0.00     0.116 C 
BRANCH  37  38
ATOM     38  N   UNL A   1      32.693  35.492  29.656  1.00  0.00    -0.352 N 
ATOM     39  C   UNL A   1      33.147  34.437  28.908  1.00  0.00     0.251 C 
ATOM     40  H   UNL A   1      31.747  35.726  29.514  1.00  0.00     0.163 HD
ATOM     41  O   UNL A   1      32.459  33.994  27.993  1.00  0.00    -0.269 OA
BRANCH  39  42
ATOM     42  C   UNL A   1      34.466  33.831  29.190  1.00  0.00     0.039 A 
ATOM     43  C   UNL A   1      35.538  34.129  28.343  1.00  0.00     0.014 A 
ATOM     44  C   UNL A   1      34.639  32.939  30.252  1.00  0.00     0.014 A 
ATOM     45  C   UNL A   1      36.795  33.575  28.592  1.00  0.00     0.010 A 
ATOM     46  C   UNL A   1      35.905  32.432  30.534  1.00  0.00     0.010 A 
ATOM     47  C   UNL A   1      36.995  32.743  29.705  1.00  0.00    -0.014 A 
BRANCH  47  48
ATOM     48  C   UNL A   1      38.335  32.184  30.016  1.00  0.00     0.031 A 
ATOM     49  C   UNL A   1      39.314  32.978  30.836  1.00  0.00     0.074 A 
ATOM     50  C   UNL A   1      38.691  30.987  29.510  1.00  0.00     0.049 A 
ATOM     51  N   UNL A   1      40.554  32.692  31.146  1.00  0.00    -0.248 NA
ATOM     52  C   UNL A   1      38.846  34.271  31.363  1.00  0.00     0.031 C 
ATOM     53  C   UNL A   1      37.844  30.131  28.675  1.00  0.00     0.029 A 
ATOM     54  N   UNL A   1      39.867  30.287  29.618  1.00  0.00    -0.354 N 
ATOM     55  C   UNL A   1      41.016  33.771  31.888  1.00  0.00     0.074 A 
ATOM     56  C   UNL A   1      39.941  34.737  31.947  1.00  0.00     0.031 C 
ATOM     57  C   UNL A   1      38.522  29.016  28.361  1.00  0.00     0.029 A 
ATOM     58  C   UNL A   1      39.860  29.093  28.940  1.00  0.00     0.049 A 
ATOM     59  H   UNL A   1      40.641  30.611  30.132  1.00  0.00     0.167 HD
ATOM     60  C   UNL A   1      42.221  33.935  32.485  1.00  0.00     0.031 A 
ATOM     61  C   UNL A   1      40.826  28.167  28.794  1.00  0.00     0.031 A 
ATOM     62  C   UNL A   1      43.287  32.972  32.441  1.00  0.00     0.049 A 
ATOM     63  C   UNL A   1      42.158  28.381  29.458  1.00  0.00     0.074 A 
ATOM     64  C   UNL A   1      44.533  33.035  33.043  1.00  0.00     0.029 A 
ATOM     65  N   UNL A   1      43.233  31.767  31.759  1.00  0.00    -0.354 N 
ATOM     66  N   UNL A   1      42.559  29.386  30.197  1.00  0.00    -0.248 NA
ATOM     67  C   UNL A   1      43.164  27.324  29.277  1.00  0.00     0.031 C 
ATOM     68  C   UNL A   1      45.245  31.883  32.696  1.00  0.00     0.029 A 
ATOM     69  C   UNL A   1      44.425  31.083  31.916  1.00  0.00     0.049 A 
ATOM     70  H   UNL A   1      42.460  31.445  31.240  1.00  0.00     0.167 HD
ATOM     71  C   UNL A   1      43.853  29.070  30.591  1.00  0.00     0.074 A 
ATOM     72  C   UNL A   1      44.162  27.773  30.025  1.00  0.00     0.031 C 
ATOM     73  C   UNL A   1      44.712  29.790  31.352  1.00  0.00     0.031 A 
BRANCH  60  74
ATOM     74  C   UNL A   1      42.449  35.210  33.248  1.00  0.00    -0.014 A 
ATOM     75  C   UNL A   1      42.012  35.345  34.576  1.00  0.00     0.009 A 
ATOM     76  C   UNL A   1      43.155  36.267  32.653  1.00  0.00     0.009 A 
ATOM     77  C   UNL A   1      42.254  36.525  35.283  1.00  0.00     0.001 A 
ATOM     78  C   UNL A   1      43.418  37.436  33.372  1.00  0.00     0.001 A 
ATOM     79  C   UNL A   1      42.961  37.565  34.683  1.00  0.00     0.000 A 
ENDBRANCH  60  74
BRANCH  61  80
ATOM     80  C   UNL A   1      40.575  26.943  27.988  1.00  0.00    -0.014 A 
ATOM     81  C   UNL A   1      40.983  26.880  26.647  1.00  0.00     0.009 A 
ATOM     82  C   UNL A   1      39.901  25.846  28.547  1.00  0.00     0.009 A 
ATOM     83  C   UNL A   1      40.689  25.755  25.872  1.00  0.00     0.001 A 
ATOM     84  C   UNL A   1      39.635  24.712  27.777  1.00  0.00     0.001 A 
ATOM     85  C   UNL A   1      40.019  24.672  26.438  1.00  0.00     0.000 A 
ENDBRANCH  61  80
BRANCH  73  86
ATOM     86  C   UNL A   1      46.048  29.173  31.650  1.00  0.00    -0.014 A 
ATOM     87  C   UNL A   1      47.154  29.398  30.818  1.00  0.00     0.009 A 
ATOM     88  C   UNL A   1      46.207  28.387  32.801  1.00  0.00     0.009 A 
ATOM     89  C   UNL A   1      48.389  28.820  31.117  1.00  0.00     0.001 A 
ATOM     90  C   UNL A   1      47.449  27.832  33.112  1.00  0.00     0.001 A 
ATOM     91  C   UNL A   1      48.537  28.041  32.265  1.00  0.00     0.000 A 
ENDBRANCH  73  86
ENDBRANCH  47  48
ENDBRANCH  39  42
ENDBRANCH  37  38
ENDBRANCH  36  37
ENDBRANCH  35  36
ENDBRANCH  34  35
ENDBRANCH   1  34
TORSDOF 18
ENDMDL
MODEL 2
REMARK VINA RESULT:      -8.7      6.363     10.269
REMARK SMILES Cc1occc1C(=O)NN1C(=O)/C(=C\c2ccc(O[C@H](C)C(=O)NCCCCCCNC(=O)c3ccc(-c4c5nc(c(-c6ccccc6)c6ccc([nH]6)c(-c6ccccc6)c6nc(c(-c7ccccc7)c7ccc4[nH]7)C=C6)C=C5)cc3)cc2)SC1=S
REMARK SMILES IDX 26 1 25 2 24 3 22 4 23 5 20 7 21 8 19 9 18 10 15 11 16 12
REMARK SMILES IDX 83 13 17 14 82 15 14 16 10 17 11 18 85 19 12 20 13 21 84 22
REMARK SMILES IDX 86 23 9 24 7 25 8 26 6 28 1 29 2 30 3 31 4 32 5 33 27 34
REMARK SMILES IDX 28 35 29 36 30 37 31 38 32 39 33 41 34 42 35 43 81 44 36 45
REMARK SMILES IDX 80 46 37 47 38 48 39 49 74 50 40 51 79 52 73 53 75 54 41 55
REMARK SMILES IDX 78 56 72 57 71 58 42 60 64 61 49 62 63 63 50 64 53 65 62 66
REMARK SMILES IDX 76 67 51 68 52 69 61 71 77 72 54 73 43 74 44 75 48 76 45 77
REMARK SMILES IDX 47 78 46 79 65 80 66 81 70 82 67 83 69 84 68 85 55 86 56 87
REMARK SMILES IDX 60 88 57 89 59 90 58 91
REMARK H PARENT 24 6 9 27 31 40 75 59 53 70
REMARK Flexibility Score: inf
ROOT
ATOM      1  C   UNL A   1      35.498  30.202  28.087  1.00  0.00     0.021 C 
ENDROOT
BRANCH   1   2
ATOM      2  C   UNL A   1      34.716  29.282  27.156  1.00  0.00     0.116 C 
BRANCH   2   3
ATOM      3  N   UNL A   1      33.511  28.752  27.744  1.00  0.00    -0.353 N 
ATOM      4  C   UNL A   1      32.218  28.832  27.322  1.00  0.00     0.260 C 
ATOM      5  O   UNL A   1      31.398  28.149  27.949  1.00  0.00    -0.271 OA
ATOM      6  H   UNL A   1      33.644  28.253  28.582  1.00  0.00     0.163 HD
BRANCH   4   7
ATOM      7  C   UNL A   1      31.730  29.803  26.206  1.00  0.00     0.258 C 
ATOM      8  C   UNL A   1      31.780  31.237  26.728  1.00  0.00     0.064 C 
BRANCH   7   9
ATOM      9  O   UNL A   1      32.041  29.555  24.838  1.00  0.00    -0.481 OA
BRANCH   9  10
ATOM     10  C   UNL A   1      32.057  28.342  24.229  1.00  0.00     0.120 A 
ATOM     11  C   UNL A   1      32.386  25.904  22.851  1.00  0.00    -0.024 A 
ATOM     12  C   UNL A   1      31.113  26.391  23.152  1.00  0.00     0.012 A 
ATOM     13  C   UNL A   1      33.505  26.632  23.257  1.00  0.00     0.012 A 
ATOM     14  C   UNL A   1      30.951  27.584  23.859  1.00  0.00     0.047 A 
ATOM     15  C   UNL A   1      33.335  27.839  23.951  1.00  0.00     0.047 A 
BRANCH  11  16
ATOM     16  C   UNL A   1      32.455  24.594  22.203  1.00  0.00     0.029 C 
ATOM     17  N   UNL A   1      32.984  21.937  24.626  1.00  0.00    -0.198 N 
ATOM     18  C   UNL A   1      32.851  23.285  24.334  1.00  0.00     0.285 C 
ATOM     19  C   UNL A   1      32.615  21.019  23.667  1.00  0.00     0.168 C 
ATOM     20  O   UNL A   1      32.942  24.186  25.150  1.00  0.00    -0.266 OA
ATOM     21  C   UNL A   1      32.567  23.442  22.879  1.00  0.00     0.082 C 
ATOM     22  S   UNL A   1      32.341  21.886  22.151  1.00  0.00    -0.052 SA
ATOM     23  S   UNL A   1      32.426  19.374  23.832  1.00  0.00    -0.050 S 
BRANCH  17  24
ATOM     24  N   UNL A   1      33.272  21.615  25.946  1.00  0.00    -0.254 N 
ATOM     25  C   UNL A   1      34.507  21.626  26.551  1.00  0.00     0.273 C 
ATOM     26  O   UNL A   1      34.519  21.573  27.783  1.00  0.00    -0.267 OA
ATOM     27  H   UNL A   1      32.509  21.351  26.508  1.00  0.00     0.192 HD
BRANCH  25  28
ATOM     28  C   UNL A   1      35.761  21.559  25.808  1.00  0.00     0.082 A 
ATOM     29  C   UNL A   1      37.182  23.805  26.065  1.00  0.00     0.088 C 
ATOM     30  C   UNL A   1      36.808  22.451  25.612  1.00  0.00     0.113 A 
ATOM     31  O   UNL A   1      37.768  21.885  24.819  1.00  0.00    -0.469 OA
ATOM     32  C   UNL A   1      37.394  20.615  24.557  1.00  0.00     0.196 A 
ATOM     33  C   UNL A   1      36.191  20.353  25.155  1.00  0.00     0.056 A 
ENDBRANCH  25  28
ENDBRANCH  17  24
ENDBRANCH  11  16
ENDBRANCH   9  10
ENDBRANCH   7   9
ENDBRANCH   4   7
ENDBRANCH   2   3
ENDBRANCH   1   2
BRANCH   1  34
ATOM     34  C   UNL A   1      35.312  31.693  27.799  1.00  0.00     0.002 C 
BRANCH  34  35
ATOM     35  C   UNL A   1      35.786  32.643  28.907  1.00  0.00     0.002 C 
BRANCH  35  36
ATOM     36  C   UNL A   1      34.908  32.696  30.162  1.00  0.00     0.021 C 
BRANCH  36  37
ATOM     37  C   UNL A   1      35.671  32.773  31.482  1.00  0.00     0.116 C 
BRANCH  37  38
ATOM     38  N   UNL A   1      35.796  31.471  32.118  1.00  0.00    -0.352 N 
ATOM     39  C   UNL A   1      36.841  30.584  32.114  1.00  0.00     0.251 C 
ATOM     40  H   UNL A   1      35.006  31.182  32.630  1.00  0.00     0.163 HD
ATOM     41  O   UNL A   1      36.680  29.446  32.544  1.00  0.00    -0.269 OA
BRANCH  39  42
ATOM     42  C   UNL A   1      38.163  30.987  31.590  1.00  0.00     0.039 A 
ATOM     43  C   UNL A   1      38.480  30.685  30.261  1.00  0.00     0.014 A 
ATOM     44  C   UNL A   1      39.105  31.615  32.408  1.00  0.00     0.014 A 
ATOM     45  C   UNL A   1      39.720  31.061  29.740  1.00  0.00     0.010 A 
ATOM     46  C   UNL A   1      40.318  32.041  31.872  1.00  0.00     0.010 A 
ATOM     47  C   UNL A   1      40.639  31.765  30.534  1.00  0.00    -0.014 A 
BRANCH  47  48
ATOM     48  C   UNL A   1      41.941  32.218  29.984  1.00  0.00     0.031 A 
ATOM     49  C   UNL A   1      42.106  33.630  29.493  1.00  0.00     0.074 A 
ATOM     50  C   UNL A   1      42.957  31.341  29.872  1.00  0.00     0.049 A 
ATOM     51  N   UNL A   1      43.138  34.185  28.911  1.00  0.00    -0.248 NA
ATOM     52  C   UNL A   1      40.953  34.531  29.660  1.00  0.00     0.031 C 
ATOM     53  C   UNL A   1      42.916  29.935  30.284  1.00  0.00     0.029 A 
ATOM     54  N   UNL A   1      44.224  31.501  29.367  1.00  0.00    -0.354 N 
ATOM     55  C   UNL A   1      42.757  35.492  28.632  1.00  0.00     0.074 A 
ATOM     56  C   UNL A   1      41.385  35.635  29.067  1.00  0.00     0.031 C 
ATOM     57  C   UNL A   1      44.107  29.368  30.030  1.00  0.00     0.029 A 
ATOM     58  C   UNL A   1      44.982  30.357  29.407  1.00  0.00     0.049 A 
ATOM     59  H   UNL A   1      44.557  32.356  29.012  1.00  0.00     0.167 HD
ATOM     60  C   UNL A   1      43.489  36.489  28.081  1.00  0.00     0.031 A 
ATOM     61  C   UNL A   1      46.238  30.127  28.982  1.00  0.00     0.031 A 
ATOM     62  C   UNL A   1      44.857  36.355  27.660  1.00  0.00     0.049 A 
ATOM     63  C   UNL A   1      47.023  31.249  28.363  1.00  0.00     0.074 A 
ATOM     64  C   UNL A   1      45.692  37.319  27.121  1.00  0.00     0.029 A 
ATOM     65  N   UNL A   1      45.594  35.184  27.734  1.00  0.00    -0.354 N 
ATOM     66  N   UNL A   1      46.661  32.492  28.152  1.00  0.00    -0.248 NA
ATOM     67  C   UNL A   1      48.395  30.939  27.936  1.00  0.00     0.031 C 
ATOM     68  C   UNL A   1      46.925  36.721  26.837  1.00  0.00     0.029 A 
ATOM     69  C   UNL A   1      46.869  35.397  27.242  1.00  0.00     0.049 A 
ATOM     70  H   UNL A   1      45.259  34.327  28.086  1.00  0.00     0.167 HD
ATOM     71  C   UNL A   1      47.769  33.116  27.594  1.00  0.00     0.074 A 
ATOM     72  C   UNL A   1      48.819  32.123  27.517  1.00  0.00     0.031 C 
ATOM     73  C   UNL A   1      47.904  34.399  27.180  1.00  0.00     0.031 A 
BRANCH  60  74
ATOM     74  C   UNL A   1      42.822  37.825  27.907  1.00  0.00    -0.014 A 
ATOM     75  C   UNL A   1      42.881  38.798  28.917  1.00  0.00     0.009 A 
ATOM     76  C   UNL A   1      42.173  38.133  26.701  1.00  0.00     0.009 A 
ATOM     77  C   UNL A   1      42.280  40.046  28.732  1.00  0.00     0.001 A 
ATOM     78  C   UNL A   1      41.596  39.390  26.509  1.00  0.00     0.001 A 
ATOM     79  C   UNL A   1      41.644  40.342  27.528  1.00  0.00     0.000 A 
ENDBRANCH  60  74
BRANCH  61  80
ATOM     80  C   UNL A   1      46.842  28.776  29.127  1.00  0.00    -0.014 A 
ATOM     81  C   UNL A   1      47.437  28.390  30.337  1.00  0.00     0.009 A 
ATOM     82  C   UNL A   1      46.853  27.880  28.046  1.00  0.00     0.009 A 
ATOM     83  C   UNL A   1      48.061  27.146  30.452  1.00  0.00     0.001 A 
ATOM     84  C   UNL A   1      47.454  26.625  28.174  1.00  0.00     0.001 A 
ATOM     85  C   UNL A   1      48.066  26.264  29.373  1.00  0.00     0.000 A 
ENDBRANCH  61  80
BRANCH  73  86
ATOM     86  C   UNL A   1      49.246  34.810  26.646  1.00  0.00    -0.014 A 
ATOM     87  C   UNL A   1      49.517  34.795  25.270  1.00  0.00     0.009 A 
ATOM     88  C   UNL A   1      50.239  35.254  27.533  1.00  0.00     0.009 A 
ATOM     89  C   UNL A   1      50.770  35.187  24.795  1.00  0.00     0.001 A 
ATOM     90  C   UNL A   1      51.481  35.670  27.053  1.00  0.00     0.001 A 
ATOM     91  C   UNL A   1      51.749  35.627  25.685  1.00  0.00     0.000 A 
ENDBRANCH  73  86
ENDBRANCH  47  48
ENDBRANCH  39  42
ENDBRANCH  37  38
ENDBRANCH  36  37
ENDBRANCH  35  36
ENDBRANCH  34  35
ENDBRANCH   1  34
TORSDOF 18
ENDMDL
MODEL 3
REMARK VINA RESULT:      -8.5      6.626     12.580
REMARK SMILES Cc1occc1C(=O)NN1C(=O)/C(=C\c2ccc(O[C@H](C)C(=O)NCCCCCCNC(=O)c3ccc(-c4c5nc(c(-c6ccccc6)c6ccc([nH]6)c(-c6ccccc6)c6nc(c(-c7ccccc7)c7ccc4[nH]7)C=C6)C=C5)cc3)cc2)SC1=S
REMARK SMILES IDX 26 1 25 2 24 3 22 4 23 5 20 7 21 8 19 9 18 10 15 11 16 12
REMARK SMILES IDX 83 13 17 14 82 15 14 16 10 17 11 18 85 19 12 20 13 21 84 22
REMARK SMILES IDX 86 23 9 24 7 25 8 26 6 28 1 29 2 30 3 31 4 32 5 33 27 34
REMARK SMILES IDX 28 35 29 36 30 37 31 38 32 39 33 41 34 42 35 43 81 44 36 45
REMARK SMILES IDX 80 46 37 47 38 48 39 49 74 50 40 51 79 52 73 53 75 54 41 55
REMARK SMILES IDX 78 56 72 57 71 58 42 60 64 61 49 62 63 63 50 64 53 65 62 66
REMARK SMILES IDX 76 67 51 68 52 69 61 71 77 72 54 73 43 74 44 75 48 76 45 77
REMARK SMILES IDX 47 78 46 79 65 80 66 81 70 82 67 83 69 84 68 85 55 86 56 87
REMARK SMILES IDX 60 88 57 89 59 90 58 91
REMARK H PARENT 24 6 9 27 31 40 75 59 53 70
REMARK Flexibility Score: inf
ROOT
ATOM      1  C   UNL A   1      30.951  31.551  25.792  1.00  0.00     0.021 C 
ENDROOT
BRANCH   1   2
ATOM      2  C   UNL A   1      30.290  31.442  24.423  1.00  0.00     0.116 C 
BRANCH   2   3
ATOM      3  N   UNL A   1      28.859  31.619  24.457  1.00  0.00    -0.353 N 
ATOM      4  C   UNL A   1      27.915  31.327  23.518  1.00  0.00     0.260 C 
ATOM      5  O   UNL A   1      26.737  31.446  23.876  1.00  0.00    -0.271 OA
ATOM      6  H   UNL A   1      28.509  32.012  25.288  1.00  0.00     0.163 HD
BRANCH   4   7
ATOM      7  C   UNL A   1      28.247  30.985  22.035  1.00  0.00     0.258 C 
ATOM      8  C   UNL A   1      28.759  32.238  21.329  1.00  0.00     0.064 C 
BRANCH   7   9
ATOM      9  O   UNL A   1      28.803  29.720  21.687  1.00  0.00    -0.481 OA
BRANCH   9  10
ATOM     10  C   UNL A   1      29.687  29.004  22.427  1.00  0.00     0.120 A 
ATOM     11  C   UNL A   1      31.736  27.563  23.721  1.00  0.00    -0.024 A 
ATOM     12  C   UNL A   1      30.394  27.336  24.032  1.00  0.00     0.012 A 
ATOM     13  C   UNL A   1      32.059  28.531  22.770  1.00  0.00     0.012 A 
ATOM     14  C   UNL A   1      29.382  28.069  23.410  1.00  0.00     0.047 A 
ATOM     15  C   UNL A   1      31.036  29.252  22.137  1.00  0.00     0.047 A 
BRANCH  11  16
ATOM     16  C   UNL A   1      32.728  26.822  24.502  1.00  0.00     0.029 C 
ATOM     17  N   UNL A   1      33.333  23.524  23.100  1.00  0.00    -0.198 N 
ATOM     18  C   UNL A   1      32.648  24.727  23.081  1.00  0.00     0.285 C 
ATOM     19  C   UNL A   1      34.474  23.432  23.867  1.00  0.00     0.168 C 
ATOM     20  O   UNL A   1      31.756  25.008  22.299  1.00  0.00    -0.266 OA
ATOM     21  C   UNL A   1      33.186  25.611  24.154  1.00  0.00     0.082 C 
ATOM     22  S   UNL A   1      34.567  24.869  24.891  1.00  0.00    -0.052 SA
ATOM     23  S   UNL A   1      35.617  22.221  23.876  1.00  0.00    -0.050 S 
BRANCH  17  24
ATOM     24  N   UNL A   1      32.939  22.572  22.169  1.00  0.00    -0.254 N 
ATOM     25  C   UNL A   1      32.304  21.379  22.421  1.00  0.00     0.273 C 
ATOM     26  O   UNL A   1      31.800  20.805  21.454  1.00  0.00    -0.267 OA
ATOM     27  H   UNL A   1      33.135  22.775  21.226  1.00  0.00     0.192 HD
BRANCH  25  28
ATOM     28  C   UNL A   1      32.326  20.723  23.725  1.00  0.00     0.082 A 
ATOM     29  C   UNL A   1      31.207  22.241  25.614  1.00  0.00     0.088 C 
ATOM     30  C   UNL A   1      31.899  21.095  24.994  1.00  0.00     0.113 A 
ATOM     31  O   UNL A   1      32.153  20.094  25.890  1.00  0.00    -0.469 OA
ATOM     32  C   UNL A   1      32.672  19.050  25.209  1.00  0.00     0.196 A 
ATOM     33  C   UNL A   1      32.778  19.367  23.882  1.00  0.00     0.056 A 
ENDBRANCH  25  28
ENDBRANCH  17  24
ENDBRANCH  11  16
ENDBRANCH   9  10
ENDBRANCH   7   9
ENDBRANCH   4   7
ENDBRANCH   2   3
ENDBRANCH   1   2
BRANCH   1  34
ATOM     34  C   UNL A   1      31.550  30.240  26.307  1.00  0.00     0.002 C 
BRANCH  34  35
ATOM     35  C   UNL A   1      33.081  30.154  26.264  1.00  0.00     0.002 C 
BRANCH  35  36
ATOM     36  C   UNL A   1      33.716  29.098  27.176  1.00  0.00     0.021 C 
BRANCH  36  37
ATOM     37  C   UNL A   1      35.142  29.406  27.627  1.00  0.00     0.116 C 
BRANCH  37  38
ATOM     38  N   UNL A   1      35.172  30.113  28.897  1.00  0.00    -0.352 N 
ATOM     39  C   UNL A   1      36.201  30.279  29.789  1.00  0.00     0.251 C 
ATOM     40  H   UNL A   1      34.323  30.537  29.157  1.00  0.00     0.163 HD
ATOM     41  O   UNL A   1      35.975  30.737  30.905  1.00  0.00    -0.269 OA
BRANCH  39  42
ATOM     42  C   UNL A   1      37.581  29.902  29.420  1.00  0.00     0.039 A 
ATOM     43  C   UNL A   1      38.453  29.470  30.425  1.00  0.00     0.014 A 
ATOM     44  C   UNL A   1      38.033  30.014  28.102  1.00  0.00     0.014 A 
ATOM     45  C   UNL A   1      39.760  29.102  30.100  1.00  0.00     0.010 A 
ATOM     46  C   UNL A   1      39.318  29.592  27.770  1.00  0.00     0.010 A 
ATOM     47  C   UNL A   1      40.195  29.135  28.766  1.00  0.00    -0.014 A 
BRANCH  47  48
ATOM     48  C   UNL A   1      41.565  28.699  28.393  1.00  0.00     0.031 A 
ATOM     49  C   UNL A   1      41.834  27.260  28.050  1.00  0.00     0.074 A 
ATOM     50  C   UNL A   1      42.576  29.588  28.421  1.00  0.00     0.049 A 
ATOM     51  N   UNL A   1      42.974  26.677  27.777  1.00  0.00    -0.248 NA
ATOM     52  C   UNL A   1      40.674  26.353  28.031  1.00  0.00     0.031 C 
ATOM     53  C   UNL A   1      42.452  31.007  28.766  1.00  0.00     0.029 A 
ATOM     54  N   UNL A   1      43.915  29.426  28.163  1.00  0.00    -0.354 N 
ATOM     55  C   UNL A   1      42.672  25.337  27.566  1.00  0.00     0.074 A 
ATOM     56  C   UNL A   1      41.250  25.184  27.786  1.00  0.00     0.031 C 
ATOM     57  C   UNL A   1      43.661  31.587  28.682  1.00  0.00     0.029 A 
ATOM     58  C   UNL A   1      44.649  30.577  28.314  1.00  0.00     0.049 A 
ATOM     59  H   UNL A   1      44.310  28.566  27.895  1.00  0.00     0.167 HD
ATOM     60  C   UNL A   1      43.499  24.329  27.203  1.00  0.00     0.031 A 
ATOM     61  C   UNL A   1      45.970  30.794  28.178  1.00  0.00     0.031 A 
ATOM     62  C   UNL A   1      44.910  24.480  26.970  1.00  0.00     0.049 A 
ATOM     63  C   UNL A   1      46.867  29.653  27.785  1.00  0.00     0.074 A 
ATOM     64  C   UNL A   1      45.825  23.522  26.565  1.00  0.00     0.029 A 
ATOM     65  N   UNL A   1      45.611  25.667  27.115  1.00  0.00    -0.354 N 
ATOM     66  N   UNL A   1      46.554  28.403  27.543  1.00  0.00    -0.248 NA
ATOM     67  C   UNL A   1      48.297  29.958  27.635  1.00  0.00     0.031 C 
ATOM     68  C   UNL A   1      47.087  24.123  26.501  1.00  0.00     0.029 A 
ATOM     69  C   UNL A   1      46.947  25.464  26.820  1.00  0.00     0.049 A 
ATOM     70  H   UNL A   1      45.215  26.527  27.388  1.00  0.00     0.167 HD
ATOM     71  C   UNL A   1      47.743  27.781  27.186  1.00  0.00     0.074 A 
ATOM     72  C   UNL A   1      48.778  28.793  27.224  1.00  0.00     0.031 C 
ATOM     73  C   UNL A   1      47.961  26.485  26.856  1.00  0.00     0.031 A 
BRANCH  60  74
ATOM     74  C   UNL A   1      42.894  22.964  27.027  1.00  0.00    -0.014 A 
ATOM     75  C   UNL A   1      42.640  22.446  25.747  1.00  0.00     0.009 A 
ATOM     76  C   UNL A   1      42.626  22.166  28.151  1.00  0.00     0.009 A 
ATOM     77  C   UNL A   1      42.103  21.166  25.597  1.00  0.00     0.001 A 
ATOM     78  C   UNL A   1      42.113  20.877  27.996  1.00  0.00     0.001 A 
ATOM     79  C   UNL A   1      41.845  20.381  26.720  1.00  0.00     0.000 A 
ENDBRANCH  60  74
BRANCH  61  80
ATOM     80  C   UNL A   1      46.535  32.149  28.411  1.00  0.00    -0.014 A 
ATOM     81  C   UNL A   1      46.607  33.078  27.362  1.00  0.00     0.009 A 
ATOM     82  C   UNL A   1      47.029  32.508  29.674  1.00  0.00     0.009 A 
ATOM     83  C   UNL A   1      47.197  34.328  27.566  1.00  0.00     0.001 A 
ATOM     84  C   UNL A   1      47.592  33.770  29.881  1.00  0.00     0.001 A 
ATOM     85  C   UNL A   1      47.685  34.674  28.825  1.00  0.00     0.000 A 
ENDBRANCH  61  80
BRANCH  73  86
ATOM     86  C   UNL A   1      49.361  26.099  26.472  1.00  0.00    -0.014 A 
ATOM     87  C   UNL A   1      49.843  26.312  25.173  1.00  0.00     0.009 A 
ATOM     88  C   UNL A   1      50.217  25.550  27.438  1.00  0.00     0.009 A 
ATOM     89  C   UNL A   1      51.150  25.952  24.839  1.00  0.00     0.001 A 
ATOM     90  C   UNL A   1      51.531  25.215  27.109  1.00  0.00     0.001 A 
ATOM     91  C   UNL A   1      51.994  25.408  25.808  1.00  0.00     0.000 A 
ENDBRANCH  73  86
ENDBRANCH  47  48
ENDBRANCH  39  42
ENDBRANCH  37  38
ENDBRANCH  36  37
ENDBRANCH  35  36
ENDBRANCH  34  35
ENDBRANCH   1  34
TORSDOF 18
ENDMDL
