MODEL 1
REMARK VINA RESULT:     -10.9      0.000      0.000
REMARK SMILES NC(=O)c1c(F)cccc1N1CCC[C@H](CC(=O)NCCCCCCNC(=O)c2ccc(-c3c4nc(c(-c5ccccc5)c5ccc([nH]5)c(-c5ccccc5)c5nc(c(-c6ccccc6)c6ccc3[nH]6)C=C5)C=C4)cc2)C1
REMARK SMILES IDX 22 1 21 2 20 3 19 4 17 5 18 6 16 8 15 9 11 10 12 11 77 12
REMARK SMILES IDX 13 13 14 14 10 15 4 16 5 17 6 18 7 19 9 20 8 21 2 22 1 23
REMARK SMILES IDX 3 26 23 27 24 28 25 29 26 30 27 31 28 33 29 34 30 35 76 36
REMARK SMILES IDX 31 37 75 38 32 39 33 40 34 41 69 42 35 43 74 44 68 45 70 46
REMARK SMILES IDX 36 47 73 48 67 49 66 50 37 52 59 53 44 54 58 55 45 56 48 57
REMARK SMILES IDX 57 58 71 59 46 60 47 61 56 63 72 64 49 65 38 66 39 67 43 68
REMARK SMILES IDX 40 69 42 70 41 71 60 72 61 73 65 74 62 75 64 76 63 77 50 78
REMARK SMILES IDX 51 79 55 80 52 81 54 82 53 83
REMARK H PARENT 19 7 1 24 1 25 26 32 70 51 48 62
REMARK Flexibility Score: inf
ROOT
ATOM      1  C   UNL A   1      34.075  21.432  26.702  1.00  0.00     0.002 C 
ENDROOT
BRANCH   1   2
ATOM      2  C   UNL A   1      33.080  20.660  25.834  1.00  0.00     0.021 C 
BRANCH   2   3
ATOM      3  C   UNL A   1      31.962  21.533  25.260  1.00  0.00     0.116 C 
BRANCH   3   4
ATOM      4  N   UNL A   1      31.509  22.492  26.248  1.00  0.00    -0.356 N 
ATOM      5  C   UNL A   1      31.538  23.852  26.225  1.00  0.00     0.220 C 
ATOM      6  O   UNL A   1      31.228  24.463  27.248  1.00  0.00    -0.275 OA
ATOM      7  H   UNL A   1      31.119  22.097  27.063  1.00  0.00     0.163 HD
BRANCH   5   8
ATOM      8  C   UNL A   1      31.922  24.594  24.963  1.00  0.00     0.105 C 
BRANCH   8   9
ATOM      9  C   UNL A   1      33.447  24.703  24.765  1.00  0.00     0.018 C 
ATOM     10  N   UNL A   1      33.449  27.130  24.787  1.00  0.00    -0.371 N 
ATOM     11  C   UNL A   1      33.885  27.308  23.402  1.00  0.00     0.116 C 
ATOM     12  C   UNL A   1      33.976  25.956  25.482  1.00  0.00     0.120 C 
ATOM     13  C   UNL A   1      33.474  26.075  22.595  1.00  0.00     0.022 C 
ATOM     14  C   UNL A   1      33.884  24.771  23.289  1.00  0.00     0.008 C 
BRANCH  10  15
ATOM     15  C   UNL A   1      33.188  28.279  25.524  1.00  0.00     0.053 A 
ATOM     16  C   UNL A   1      32.150  29.201  25.281  1.00  0.00     0.098 A 
ATOM     17  C   UNL A   1      32.066  30.366  26.057  1.00  0.00     0.138 A 
ATOM     18  F   UNL A   1      31.094  31.265  25.844  1.00  0.00    -0.206 F 
ATOM     19  C   UNL A   1      32.981  30.631  27.073  1.00  0.00     0.040 A 
ATOM     20  C   UNL A   1      34.092  28.560  26.569  1.00  0.00     0.027 A 
ATOM     21  C   UNL A   1      33.997  29.723  27.335  1.00  0.00     0.005 A 
BRANCH  16  22
ATOM     22  C   UNL A   1      31.105  28.961  24.257  1.00  0.00     0.253 C 
ATOM     23  N   UNL A   1      31.171  29.717  23.120  1.00  0.00    -0.365 N 
ATOM     24  H   UNL A   1      30.501  29.596  22.409  1.00  0.00     0.159 HD
ATOM     25  H   UNL A   1      31.889  30.381  23.011  1.00  0.00     0.159 HD
ATOM     26  O   UNL A   1      30.216  28.134  24.399  1.00  0.00    -0.269 OA
ENDBRANCH  16  22
ENDBRANCH  10  15
ENDBRANCH   8   9
ENDBRANCH   5   8
ENDBRANCH   3   4
ENDBRANCH   2   3
ENDBRANCH   1   2
BRANCH   1  27
ATOM     27  C   UNL A   1      35.453  21.640  26.064  1.00  0.00     0.002 C 
BRANCH  27  28
ATOM     28  C   UNL A   1      36.011  23.065  26.143  1.00  0.00     0.021 C 
BRANCH  28  29
ATOM     29  C   UNL A   1      37.202  23.351  25.228  1.00  0.00     0.116 C 
BRANCH  29  30
ATOM     30  N   UNL A   1      38.353  22.521  25.549  1.00  0.00    -0.352 N 
ATOM     31  C   UNL A   1      39.539  22.853  26.155  1.00  0.00     0.251 C 
ATOM     32  H   UNL A   1      38.268  21.575  25.293  1.00  0.00     0.163 HD
ATOM     33  O   UNL A   1      40.472  22.056  26.158  1.00  0.00    -0.269 OA
BRANCH  31  34
ATOM     34  C   UNL A   1      39.707  24.176  26.790  1.00  0.00     0.039 A 
ATOM     35  C   UNL A   1      39.152  24.390  28.055  1.00  0.00     0.014 A 
ATOM     36  C   UNL A   1      40.387  25.207  26.136  1.00  0.00     0.014 A 
ATOM     37  C   UNL A   1      39.344  25.615  28.697  1.00  0.00     0.010 A 
ATOM     38  C   UNL A   1      40.623  26.410  26.799  1.00  0.00     0.010 A 
ATOM     39  C   UNL A   1      40.114  26.619  28.090  1.00  0.00    -0.014 A 
BRANCH  39  40
ATOM     40  C   UNL A   1      40.441  27.875  28.810  1.00  0.00     0.031 A 
ATOM     41  C   UNL A   1      41.736  28.015  29.556  1.00  0.00     0.074 A 
ATOM     42  C   UNL A   1      39.527  28.863  28.854  1.00  0.00     0.049 A 
ATOM     43  N   UNL A   1      42.154  29.009  30.301  1.00  0.00    -0.248 NA
ATOM     44  C   UNL A   1      42.677  26.888  29.473  1.00  0.00     0.031 C 
ATOM     45  C   UNL A   1      38.214  28.834  28.205  1.00  0.00     0.029 A 
ATOM     46  N   UNL A   1      39.556  30.080  29.488  1.00  0.00    -0.354 N 
ATOM     47  C   UNL A   1      43.396  28.620  30.785  1.00  0.00     0.074 A 
ATOM     48  C   UNL A   1      43.650  27.288  30.280  1.00  0.00     0.031 C 
ATOM     49  C   UNL A   1      37.571  29.984  28.463  1.00  0.00     0.029 A 
ATOM     50  C   UNL A   1      38.405  30.812  29.326  1.00  0.00     0.049 A 
ATOM     51  H   UNL A   1      40.329  30.398  30.010  1.00  0.00     0.167 HD
ATOM     52  C   UNL A   1      44.252  29.315  31.572  1.00  0.00     0.031 A 
ATOM     53  C   UNL A   1      38.053  32.010  29.827  1.00  0.00     0.031 A 
ATOM     54  C   UNL A   1      44.006  30.643  32.069  1.00  0.00     0.049 A 
ATOM     55  C   UNL A   1      39.010  32.748  30.718  1.00  0.00     0.074 A 
ATOM     56  C   UNL A   1      44.848  31.457  32.806  1.00  0.00     0.029 A 
ATOM     57  N   UNL A   1      42.827  31.347  31.886  1.00  0.00    -0.354 N 
ATOM     58  N   UNL A   1      40.213  32.398  31.104  1.00  0.00    -0.248 NA
ATOM     59  C   UNL A   1      38.561  34.047  31.240  1.00  0.00     0.031 C 
ATOM     60  C   UNL A   1      44.158  32.636  33.113  1.00  0.00     0.029 A 
ATOM     61  C   UNL A   1      42.905  32.572  32.528  1.00  0.00     0.049 A 
ATOM     62  H   UNL A   1      42.049  31.025  31.376  1.00  0.00     0.167 HD
ATOM     63  C   UNL A   1      40.669  33.437  31.904  1.00  0.00     0.074 A 
ATOM     64  C   UNL A   1      39.622  34.438  31.931  1.00  0.00     0.031 C 
ATOM     65  C   UNL A   1      41.849  33.549  32.560  1.00  0.00     0.031 A 
BRANCH  52  66
ATOM     66  C   UNL A   1      45.540  28.644  31.956  1.00  0.00    -0.014 A 
ATOM     67  C   UNL A   1      45.631  27.857  33.114  1.00  0.00     0.009 A 
ATOM     68  C   UNL A   1      46.664  28.764  31.124  1.00  0.00     0.009 A 
ATOM     69  C   UNL A   1      46.832  27.225  33.446  1.00  0.00     0.001 A 
ATOM     70  C   UNL A   1      47.856  28.112  31.446  1.00  0.00     0.001 A 
ATOM     71  C   UNL A   1      47.941  27.350  32.611  1.00  0.00     0.000 A 
ENDBRANCH  52  66
BRANCH  53  72
ATOM     72  C   UNL A   1      36.723  32.585  29.506  1.00  0.00    -0.014 A 
ATOM     73  C   UNL A   1      35.624  32.343  30.342  1.00  0.00     0.009 A 
ATOM     74  C   UNL A   1      36.547  33.381  28.364  1.00  0.00     0.009 A 
ATOM     75  C   UNL A   1      34.369  32.871  30.030  1.00  0.00     0.001 A 
ATOM     76  C   UNL A   1      35.297  33.928  28.066  1.00  0.00     0.001 A 
ATOM     77  C   UNL A   1      34.208  33.665  28.895  1.00  0.00     0.000 A 
ENDBRANCH  53  72
BRANCH  65  78
ATOM     78  C   UNL A   1      42.068  34.800  33.360  1.00  0.00    -0.014 A 
ATOM     79  C   UNL A   1      41.565  34.918  34.665  1.00  0.00     0.009 A 
ATOM     80  C   UNL A   1      42.814  35.857  32.817  1.00  0.00     0.009 A 
ATOM     81  C   UNL A   1      41.784  36.083  35.402  1.00  0.00     0.001 A 
ATOM     82  C   UNL A   1      43.053  37.010  33.565  1.00  0.00     0.001 A 
ATOM     83  C   UNL A   1      42.531  37.125  34.854  1.00  0.00     0.000 A 
ENDBRANCH  65  78
ENDBRANCH  39  40
ENDBRANCH  31  34
ENDBRANCH  29  30
ENDBRANCH  28  29
ENDBRANCH  27  28
ENDBRANCH   1  27
TORSDOF 16
ENDMDL
MODEL 2
REMARK VINA RESULT:     -10.7      2.792      8.084
REMARK SMILES NC(=O)c1c(F)cccc1N1CCC[C@H](CC(=O)NCCCCCCNC(=O)c2ccc(-c3c4nc(c(-c5ccccc5)c5ccc([nH]5)c(-c5ccccc5)c5nc(c(-c6ccccc6)c6ccc3[nH]6)C=C5)C=C4)cc2)C1
REMARK SMILES IDX 22 1 21 2 20 3 19 4 17 5 18 6 16 8 15 9 11 10 12 11 77 12
REMARK SMILES IDX 13 13 14 14 10 15 4 16 5 17 6 18 7 19 9 20 8 21 2 22 1 23
REMARK SMILES IDX 3 26 23 27 24 28 25 29 26 30 27 31 28 33 29 34 30 35 76 36
REMARK SMILES IDX 31 37 75 38 32 39 33 40 34 41 69 42 35 43 74 44 68 45 70 46
REMARK SMILES IDX 36 47 73 48 67 49 66 50 37 52 59 53 44 54 58 55 45 56 48 57
REMARK SMILES IDX 57 58 71 59 46 60 47 61 56 63 72 64 49 65 38 66 39 67 43 68
REMARK SMILES IDX 40 69 42 70 41 71 60 72 61 73 65 74 62 75 64 76 63 77 50 78
REMARK SMILES IDX 51 79 55 80 52 81 54 82 53 83
REMARK H PARENT 19 7 1 24 1 25 26 32 70 51 48 62
REMARK Flexibility Score: inf
ROOT
ATOM      1  C   UNL A   1      32.681  28.493  23.359  1.00  0.00     0.002 C 
ENDROOT
BRANCH   1   2
ATOM      2  C   UNL A   1      33.537  27.850  22.268  1.00  0.00     0.021 C 
BRANCH   2   3
ATOM      3  C   UNL A   1      32.976  26.523  21.752  1.00  0.00     0.116 C 
BRANCH   3   4
ATOM      4  N   UNL A   1      31.675  26.261  22.335  1.00  0.00    -0.356 N 
ATOM      5  C   UNL A   1      31.311  25.370  23.297  1.00  0.00     0.220 C 
ATOM      6  O   UNL A   1      30.111  25.220  23.534  1.00  0.00    -0.275 OA
ATOM      7  H   UNL A   1      30.940  26.814  21.979  1.00  0.00     0.163 HD
BRANCH   5   8
ATOM      8  C   UNL A   1      32.358  24.599  24.070  1.00  0.00     0.105 C 
BRANCH   8   9
ATOM      9  C   UNL A   1      32.731  25.263  25.411  1.00  0.00     0.018 C 
ATOM     10  N   UNL A   1      34.258  23.491  26.059  1.00  0.00    -0.371 N 
ATOM     11  C   UNL A   1      33.493  23.027  27.217  1.00  0.00     0.116 C 
ATOM     12  C   UNL A   1      34.187  24.923  25.771  1.00  0.00     0.120 C 
ATOM     13  C   UNL A   1      32.020  23.379  27.005  1.00  0.00     0.022 C 
ATOM     14  C   UNL A   1      31.832  24.844  26.591  1.00  0.00     0.008 C 
BRANCH  10  15
ATOM     15  C   UNL A   1      35.430  22.808  25.757  1.00  0.00     0.053 A 
ATOM     16  C   UNL A   1      35.519  21.483  25.284  1.00  0.00     0.098 A 
ATOM     17  C   UNL A   1      36.781  20.897  25.108  1.00  0.00     0.138 A 
ATOM     18  F   UNL A   1      36.896  19.635  24.667  1.00  0.00    -0.206 F 
ATOM     19  C   UNL A   1      37.954  21.595  25.383  1.00  0.00     0.040 A 
ATOM     20  C   UNL A   1      36.631  23.502  26.012  1.00  0.00     0.027 A 
ATOM     21  C   UNL A   1      37.880  22.906  25.832  1.00  0.00     0.005 A 
BRANCH  16  22
ATOM     22  C   UNL A   1      34.320  20.695  24.914  1.00  0.00     0.253 C 
ATOM     23  N   UNL A   1      33.962  19.683  25.761  1.00  0.00    -0.365 N 
ATOM     24  H   UNL A   1      33.172  19.130  25.561  1.00  0.00     0.159 HD
ATOM     25  H   UNL A   1      34.493  19.508  26.571  1.00  0.00     0.159 HD
ATOM     26  O   UNL A   1      33.664  20.919  23.906  1.00  0.00    -0.269 OA
ENDBRANCH  16  22
ENDBRANCH  10  15
ENDBRANCH   8   9
ENDBRANCH   5   8
ENDBRANCH   3   4
ENDBRANCH   2   3
ENDBRANCH   1   2
BRANCH   1  27
ATOM     27  C   UNL A   1      33.449  28.892  24.623  1.00  0.00     0.002 C 
BRANCH  27  28
ATOM     28  C   UNL A   1      32.672  28.770  25.939  1.00  0.00     0.021 C 
BRANCH  28  29
ATOM     29  C   UNL A   1      33.509  28.919  27.208  1.00  0.00     0.116 C 
BRANCH  29  30
ATOM     30  N   UNL A   1      33.583  30.300  27.658  1.00  0.00    -0.352 N 
ATOM     31  C   UNL A   1      34.574  30.953  28.347  1.00  0.00     0.251 C 
ATOM     32  H   UNL A   1      32.801  30.854  27.432  1.00  0.00     0.163 HD
ATOM     33  O   UNL A   1      34.366  32.069  28.813  1.00  0.00    -0.269 OA
BRANCH  31  34
ATOM     34  C   UNL A   1      35.889  30.310  28.548  1.00  0.00     0.039 A 
ATOM     35  C   UNL A   1      36.801  30.299  27.489  1.00  0.00     0.014 A 
ATOM     36  C   UNL A   1      36.214  29.702  29.764  1.00  0.00     0.014 A 
ATOM     37  C   UNL A   1      38.069  29.745  27.674  1.00  0.00     0.010 A 
ATOM     38  C   UNL A   1      37.498  29.198  29.964  1.00  0.00     0.010 A 
ATOM     39  C   UNL A   1      38.440  29.226  28.924  1.00  0.00    -0.014 A 
BRANCH  39  40
ATOM     40  C   UNL A   1      39.824  28.754  29.179  1.00  0.00     0.031 A 
ATOM     41  C   UNL A   1      40.851  29.678  29.768  1.00  0.00     0.074 A 
ATOM     42  C   UNL A   1      40.173  27.509  28.802  1.00  0.00     0.049 A 
ATOM     43  N   UNL A   1      42.124  29.460  29.988  1.00  0.00    -0.248 NA
ATOM     44  C   UNL A   1      40.398  31.026  30.139  1.00  0.00     0.031 C 
ATOM     45  C   UNL A   1      39.278  26.529  28.183  1.00  0.00     0.029 A 
ATOM     46  N   UNL A   1      41.381  26.860  28.870  1.00  0.00    -0.354 N 
ATOM     47  C   UNL A   1      42.625  30.645  30.508  1.00  0.00     0.074 A 
ATOM     48  C   UNL A   1      41.529  31.591  30.539  1.00  0.00     0.031 C 
ATOM     49  C   UNL A   1      39.965  25.401  27.940  1.00  0.00     0.029 A 
ATOM     50  C   UNL A   1      41.351  25.590  28.349  1.00  0.00     0.049 A 
ATOM     51  H   UNL A   1      42.190  27.267  29.256  1.00  0.00     0.167 HD
ATOM     52  C   UNL A   1      43.882  30.918  30.931  1.00  0.00     0.031 A 
ATOM     53  C   UNL A   1      42.335  24.683  28.201  1.00  0.00     0.031 A 
ATOM     54  C   UNL A   1      44.971  29.978  30.910  1.00  0.00     0.049 A 
ATOM     55  C   UNL A   1      43.725  25.021  28.656  1.00  0.00     0.074 A 
ATOM     56  C   UNL A   1      46.259  30.140  31.391  1.00  0.00     0.029 A 
ATOM     57  N   UNL A   1      44.902  28.705  30.370  1.00  0.00    -0.354 N 
ATOM     58  N   UNL A   1      44.164  26.121  29.216  1.00  0.00    -0.248 NA
ATOM     59  C   UNL A   1      44.754  23.990  28.457  1.00  0.00     0.031 C 
ATOM     60  C   UNL A   1      46.984  28.980  31.097  1.00  0.00     0.029 A 
ATOM     61  C   UNL A   1      46.135  28.081  30.473  1.00  0.00     0.049 A 
ATOM     62  H   UNL A   1      44.096  28.302  29.972  1.00  0.00     0.167 HD
ATOM     63  C   UNL A   1      45.517  25.912  29.448  1.00  0.00     0.074 A 
ATOM     64  C   UNL A   1      45.821  24.573  28.987  1.00  0.00     0.031 C 
ATOM     65  C   UNL A   1      46.426  26.756  29.993  1.00  0.00     0.031 A 
BRANCH  52  66
ATOM     66  C   UNL A   1      44.153  32.303  31.449  1.00  0.00    -0.014 A 
ATOM     67  C   UNL A   1      44.454  33.359  30.576  1.00  0.00     0.009 A 
ATOM     68  C   UNL A   1      44.061  32.563  32.825  1.00  0.00     0.009 A 
ATOM     69  C   UNL A   1      44.686  34.643  31.072  1.00  0.00     0.001 A 
ATOM     70  C   UNL A   1      44.269  33.853  33.318  1.00  0.00     0.001 A 
ATOM     71  C   UNL A   1      44.590  34.890  32.441  1.00  0.00     0.000 A 
ENDBRANCH  52  66
BRANCH  53  72
ATOM     72  C   UNL A   1      42.040  23.366  27.584  1.00  0.00    -0.014 A 
ATOM     73  C   UNL A   1      41.505  22.324  28.355  1.00  0.00     0.009 A 
ATOM     74  C   UNL A   1      42.288  23.146  26.221  1.00  0.00     0.009 A 
ATOM     75  C   UNL A   1      41.243  21.080  27.777  1.00  0.00     0.001 A 
ATOM     76  C   UNL A   1      42.004  21.908  25.639  1.00  0.00     0.001 A 
ATOM     77  C   UNL A   1      41.489  20.874  26.420  1.00  0.00     0.000 A 
ENDBRANCH  53  72
BRANCH  65  78
ATOM     78  C   UNL A   1      47.833  26.252  30.120  1.00  0.00    -0.014 A 
ATOM     79  C   UNL A   1      48.308  25.739  31.336  1.00  0.00     0.009 A 
ATOM     80  C   UNL A   1      48.682  26.257  29.002  1.00  0.00     0.009 A 
ATOM     81  C   UNL A   1      49.617  25.263  31.438  1.00  0.00     0.001 A 
ATOM     82  C   UNL A   1      49.982  25.759  29.101  1.00  0.00     0.001 A 
ATOM     83  C   UNL A   1      50.450  25.270  30.320  1.00  0.00     0.000 A 
ENDBRANCH  65  78
ENDBRANCH  39  40
ENDBRANCH  31  34
ENDBRANCH  29  30
ENDBRANCH  28  29
ENDBRANCH  27  28
ENDBRANCH   1  27
TORSDOF 16
ENDMDL
MODEL 3
REMARK VINA RESULT:     -10.7      2.551      6.873
REMARK SMILES NC(=O)c1c(F)cccc1N1CCC[C@H](CC(=O)NCCCCCCNC(=O)c2ccc(-c3c4nc(c(-c5ccccc5)c5ccc([nH]5)c(-c5ccccc5)c5nc(c(-c6ccccc6)c6ccc3[nH]6)C=C5)C=C4)cc2)C1
REMARK SMILES IDX 22 1 21 2 20 3 19 4 17 5 18 6 16 8 15 9 11 10 12 11 77 12
REMARK SMILES IDX 13 13 14 14 10 15 4 16 5 17 6 18 7 19 9 20 8 21 2 22 1 23
REMARK SMILES IDX 3 26 23 27 24 28 25 29 26 30 27 31 28 33 29 34 30 35 76 36
REMARK SMILES IDX 31 37 75 38 32 39 33 40 34 41 69 42 35 43 74 44 68 45 70 46
REMARK SMILES IDX 36 47 73 48 67 49 66 50 37 52 59 53 44 54 58 55 45 56 48 57
REMARK SMILES IDX 57 58 71 59 46 60 47 61 56 63 72 64 49 65 38 66 39 67 43 68
REMARK SMILES IDX 40 69 42 70 41 71 60 72 61 73 65 74 62 75 64 76 63 77 50 78
REMARK SMILES IDX 51 79 55 80 52 81 54 82 53 83
REMARK H PARENT 19 7 1 24 1 25 26 32 70 51 48 62
REMARK Flexibility Score: inf
ROOT
ATOM      1  C   UNL A   1      34.726  20.418  25.037  1.00  0.00     0.002 C 
ENDROOT
BRANCH   1   2
ATOM      2  C   UNL A   1      33.597  21.073  24.241  1.00  0.00     0.021 C 
BRANCH   2   3
ATOM      3  C   UNL A   1      32.236  21.002  24.937  1.00  0.00     0.116 C 
BRANCH   3   4
ATOM      4  N   UNL A   1      32.367  21.332  26.343  1.00  0.00    -0.356 N 
ATOM      5  C   UNL A   1      32.436  22.546  26.953  1.00  0.00     0.220 C 
ATOM      6  O   UNL A   1      32.695  22.584  28.156  1.00  0.00    -0.275 OA
ATOM      7  H   UNL A   1      32.414  20.557  26.950  1.00  0.00     0.163 HD
BRANCH   5   8
ATOM      8  C   UNL A   1      32.178  23.817  26.173  1.00  0.00     0.105 C 
BRANCH   8   9
ATOM      9  C   UNL A   1      33.341  24.827  26.257  1.00  0.00     0.018 C 
ATOM     10  N   UNL A   1      32.453  26.258  24.510  1.00  0.00    -0.371 N 
ATOM     11  C   UNL A   1      33.535  26.040  23.551  1.00  0.00     0.116 C 
ATOM     12  C   UNL A   1      32.829  26.238  25.923  1.00  0.00     0.120 C 
ATOM     13  C   UNL A   1      34.177  24.681  23.834  1.00  0.00     0.022 C 
ATOM     14  C   UNL A   1      34.520  24.505  25.319  1.00  0.00     0.008 C 
BRANCH  10  15
ATOM     15  C   UNL A   1      31.406  27.081  24.112  1.00  0.00     0.053 A 
ATOM     16  C   UNL A   1      31.413  28.491  24.117  1.00  0.00     0.098 A 
ATOM     17  C   UNL A   1      30.247  29.188  23.771  1.00  0.00     0.138 A 
ATOM     18  F   UNL A   1      30.221  30.529  23.774  1.00  0.00    -0.206 F 
ATOM     19  C   UNL A   1      29.078  28.520  23.414  1.00  0.00     0.040 A 
ATOM     20  C   UNL A   1      30.217  26.427  23.730  1.00  0.00     0.027 A 
ATOM     21  C   UNL A   1      29.063  27.132  23.388  1.00  0.00     0.005 A 
BRANCH  16  22
ATOM     22  C   UNL A   1      32.634  29.272  24.428  1.00  0.00     0.253 C 
ATOM     23  N   UNL A   1      33.514  29.475  23.402  1.00  0.00    -0.365 N 
ATOM     24  H   UNL A   1      34.340  29.989  23.556  1.00  0.00     0.159 HD
ATOM     25  H   UNL A   1      33.322  29.109  22.509  1.00  0.00     0.159 HD
ATOM     26  O   UNL A   1      32.866  29.725  25.540  1.00  0.00    -0.269 OA
ENDBRANCH  16  22
ENDBRANCH  10  15
ENDBRANCH   8   9
ENDBRANCH   5   8
ENDBRANCH   3   4
ENDBRANCH   2   3
ENDBRANCH   1   2
BRANCH   1  27
ATOM     27  C   UNL A   1      36.064  21.163  24.983  1.00  0.00     0.002 C 
BRANCH  27  28
ATOM     28  C   UNL A   1      37.306  20.285  24.794  1.00  0.00     0.021 C 
BRANCH  28  29
ATOM     29  C   UNL A   1      38.553  20.747  25.546  1.00  0.00     0.116 C 
BRANCH  29  30
ATOM     30  N   UNL A   1      39.559  19.701  25.635  1.00  0.00    -0.352 N 
ATOM     31  C   UNL A   1      40.885  19.778  25.983  1.00  0.00     0.251 C 
ATOM     32  H   UNL A   1      39.241  18.797  25.413  1.00  0.00     0.163 HD
ATOM     33  O   UNL A   1      41.625  18.815  25.805  1.00  0.00    -0.269 OA
BRANCH  31  34
ATOM     34  C   UNL A   1      41.434  21.025  26.556  1.00  0.00     0.039 A 
ATOM     35  C   UNL A   1      42.004  21.966  25.695  1.00  0.00     0.014 A 
ATOM     36  C   UNL A   1      41.409  21.256  27.934  1.00  0.00     0.014 A 
ATOM     37  C   UNL A   1      42.480  23.174  26.208  1.00  0.00     0.010 A 
ATOM     38  C   UNL A   1      41.835  22.483  28.438  1.00  0.00     0.010 A 
ATOM     39  C   UNL A   1      42.364  23.457  27.577  1.00  0.00    -0.014 A 
BRANCH  39  40
ATOM     40  C   UNL A   1      42.741  24.786  28.121  1.00  0.00     0.031 A 
ATOM     41  C   UNL A   1      41.702  25.848  28.335  1.00  0.00     0.074 A 
ATOM     42  C   UNL A   1      44.040  25.057  28.347  1.00  0.00     0.049 A 
ATOM     43  N   UNL A   1      41.862  27.088  28.729  1.00  0.00    -0.248 NA
ATOM     44  C   UNL A   1      40.307  25.481  28.051  1.00  0.00     0.031 C 
ATOM     45  C   UNL A   1      45.150  24.123  28.141  1.00  0.00     0.029 A 
ATOM     46  N   UNL A   1      44.650  26.206  28.785  1.00  0.00    -0.354 N 
ATOM     47  C   UNL A   1      40.592  27.650  28.726  1.00  0.00     0.074 A 
ATOM     48  C   UNL A   1      39.678  26.630  28.258  1.00  0.00     0.031 C 
ATOM     49  C   UNL A   1      46.302  24.733  28.464  1.00  0.00     0.029 A 
ATOM     50  C   UNL A   1      46.018  26.107  28.862  1.00  0.00     0.049 A 
ATOM     51  H   UNL A   1      44.154  27.023  29.022  1.00  0.00     0.167 HD
ATOM     52  C   UNL A   1      40.221  28.901  29.090  1.00  0.00     0.031 A 
ATOM     53  C   UNL A   1      46.943  27.024  29.199  1.00  0.00     0.031 A 
ATOM     54  C   UNL A   1      41.126  29.914  29.564  1.00  0.00     0.049 A 
ATOM     55  C   UNL A   1      46.507  28.410  29.574  1.00  0.00     0.074 A 
ATOM     56  C   UNL A   1      40.832  31.183  30.030  1.00  0.00     0.029 A 
ATOM     57  N   UNL A   1      42.503  29.775  29.622  1.00  0.00    -0.354 N 
ATOM     58  N   UNL A   1      45.294  28.902  29.639  1.00  0.00    -0.248 NA
ATOM     59  C   UNL A   1      47.567  29.366  29.922  1.00  0.00     0.031 C 
ATOM     60  C   UNL A   1      42.036  31.831  30.324  1.00  0.00     0.029 A 
ATOM     61  C   UNL A   1      43.077  30.950  30.082  1.00  0.00     0.049 A 
ATOM     62  H   UNL A   1      43.001  28.963  29.373  1.00  0.00     0.167 HD
ATOM     63  C   UNL A   1      45.444  30.221  30.047  1.00  0.00     0.074 A 
ATOM     64  C   UNL A   1      46.863  30.445  30.233  1.00  0.00     0.031 C 
ATOM     65  C   UNL A   1      44.490  31.163  30.246  1.00  0.00     0.031 A 
BRANCH  52  66
ATOM     66  C   UNL A   1      38.764  29.250  28.981  1.00  0.00    -0.014 A 
ATOM     67  C   UNL A   1      38.220  29.730  27.779  1.00  0.00     0.009 A 
ATOM     68  C   UNL A   1      37.915  29.052  30.081  1.00  0.00     0.009 A 
ATOM     69  C   UNL A   1      36.860  30.033  27.690  1.00  0.00     0.001 A 
ATOM     70  C   UNL A   1      36.550  29.333  29.982  1.00  0.00     0.001 A 
ATOM     71  C   UNL A   1      36.026  29.831  28.789  1.00  0.00     0.000 A 
ENDBRANCH  52  66
BRANCH  53  72
ATOM     72  C   UNL A   1      48.383  26.661  29.188  1.00  0.00    -0.014 A 
ATOM     73  C   UNL A   1      48.983  26.104  30.326  1.00  0.00     0.009 A 
ATOM     74  C   UNL A   1      49.161  26.867  28.039  1.00  0.00     0.009 A 
ATOM     75  C   UNL A   1      50.342  25.779  30.321  1.00  0.00     0.001 A 
ATOM     76  C   UNL A   1      50.514  26.519  28.028  1.00  0.00     0.001 A 
ATOM     77  C   UNL A   1      51.104  25.983  29.171  1.00  0.00     0.000 A 
ENDBRANCH  53  72
BRANCH  65  78
ATOM     78  C   UNL A   1      44.954  32.519  30.690  1.00  0.00    -0.014 A 
ATOM     79  C   UNL A   1      45.301  33.504  29.753  1.00  0.00     0.009 A 
ATOM     80  C   UNL A   1      45.010  32.827  32.057  1.00  0.00     0.009 A 
ATOM     81  C   UNL A   1      45.721  34.765  30.179  1.00  0.00     0.001 A 
ATOM     82  C   UNL A   1      45.407  34.096  32.480  1.00  0.00     0.001 A 
ATOM     83  C   UNL A   1      45.769  35.061  31.541  1.00  0.00     0.000 A 
ENDBRANCH  65  78
ENDBRANCH  39  40
ENDBRANCH  31  34
ENDBRANCH  29  30
ENDBRANCH  28  29
ENDBRANCH  27  28
ENDBRANCH   1  27
TORSDOF 16
ENDMDL
