MODEL 1
REMARK VINA RESULT:      -9.6      0.000      0.000
REMARK SMILES CN(C)C(=O)CC(C)(C)CC(=O)NCCCCCCNC(=O)c1ccc(-c2c3nc(c(-c4ccccc4)c4ccc([nH]4)c(-c4ccccc4)c4nc(c(-c5ccccc5)c5ccc2[nH]5)C=C4)C=C3)cc1
REMARK SMILES IDX 16 1 15 2 14 3 13 4 11 5 12 6 10 8 7 9 8 10 9 11 6 12 4 13
REMARK SMILES IDX 1 14 2 15 3 16 5 17 17 18 18 19 19 20 20 21 21 22 22 24
REMARK SMILES IDX 23 25 24 26 70 27 25 28 69 29 26 30 27 31 28 32 63 33 29 34
REMARK SMILES IDX 68 35 62 36 64 37 30 38 67 39 61 40 60 41 31 43 53 44 38 45
REMARK SMILES IDX 52 46 39 47 42 48 51 49 65 50 40 51 41 52 50 54 66 55 43 56
REMARK SMILES IDX 32 57 33 58 37 59 34 60 36 61 35 62 54 63 55 64 59 65 56 66
REMARK SMILES IDX 58 67 57 68 44 69 45 70 49 71 46 72 48 73 47 74
REMARK H PARENT 13 7 20 23 64 42 42 53
REMARK Flexibility Score: inf
ROOT
ATOM      1  C   UNL A   1      36.020  21.605  25.426  1.00  0.00     0.002 C 
ENDROOT
BRANCH   1   2
ATOM      2  C   UNL A   1      35.041  21.687  26.597  1.00  0.00     0.021 C 
BRANCH   2   3
ATOM      3  C   UNL A   1      33.635  21.200  26.252  1.00  0.00     0.116 C 
BRANCH   3   4
ATOM      4  N   UNL A   1      32.661  22.033  26.915  1.00  0.00    -0.356 N 
ATOM      5  C   UNL A   1      31.903  23.046  26.420  1.00  0.00     0.220 C 
ATOM      6  O   UNL A   1      31.271  23.722  27.230  1.00  0.00    -0.275 OA
ATOM      7  H   UNL A   1      32.528  21.839  27.871  1.00  0.00     0.163 HD
BRANCH   5   8
ATOM      8  C   UNL A   1      31.787  23.265  24.920  1.00  0.00     0.107 C 
BRANCH   8   9
ATOM      9  C   UNL A   1      32.806  24.191  24.198  1.00  0.00    -0.018 C 
ATOM     10  C   UNL A   1      33.637  23.276  23.272  1.00  0.00     0.012 C 
ATOM     11  C   UNL A   1      33.822  24.836  25.158  1.00  0.00     0.012 C 
BRANCH   9  12
ATOM     12  C   UNL A   1      32.119  25.354  23.437  1.00  0.00     0.107 C 
BRANCH  12  13
ATOM     13  C   UNL A   1      33.048  26.369  22.790  1.00  0.00     0.222 C 
ATOM     14  C   UNL A   1      34.048  28.576  22.685  1.00  0.00     0.146 C 
ATOM     15  N   UNL A   1      33.080  27.667  23.275  1.00  0.00    -0.349 N 
ATOM     16  C   UNL A   1      32.187  28.250  24.264  1.00  0.00     0.146 C 
ATOM     17  O   UNL A   1      33.767  26.019  21.852  1.00  0.00    -0.275 OA
ENDBRANCH  12  13
ENDBRANCH   9  12
ENDBRANCH   8   9
ENDBRANCH   5   8
ENDBRANCH   3   4
ENDBRANCH   2   3
ENDBRANCH   1   2
BRANCH   1  18
ATOM     18  C   UNL A   1      36.360  20.181  24.982  1.00  0.00     0.002 C 
BRANCH  18  19
ATOM     19  C   UNL A   1      37.834  19.949  24.648  1.00  0.00     0.021 C 
BRANCH  19  20
ATOM     20  C   UNL A   1      38.800  20.317  25.769  1.00  0.00     0.116 C 
BRANCH  20  21
ATOM     21  N   UNL A   1      39.897  19.370  25.867  1.00  0.00    -0.352 N 
ATOM     22  C   UNL A   1      41.224  19.606  26.114  1.00  0.00     0.251 C 
ATOM     23  H   UNL A   1      39.653  18.425  25.736  1.00  0.00     0.163 HD
ATOM     24  O   UNL A   1      42.058  18.727  25.930  1.00  0.00    -0.269 OA
BRANCH  22  25
ATOM     25  C   UNL A   1      41.644  20.934  26.602  1.00  0.00     0.039 A 
ATOM     26  C   UNL A   1      41.634  21.184  27.976  1.00  0.00     0.014 A 
ATOM     27  C   UNL A   1      42.021  21.935  25.702  1.00  0.00     0.014 A 
ATOM     28  C   UNL A   1      42.037  22.433  28.450  1.00  0.00     0.010 A 
ATOM     29  C   UNL A   1      42.493  23.152  26.179  1.00  0.00     0.010 A 
ATOM     30  C   UNL A   1      42.485  23.419  27.557  1.00  0.00    -0.014 A 
BRANCH  30  31
ATOM     31  C   UNL A   1      42.904  24.757  28.039  1.00  0.00     0.031 A 
ATOM     32  C   UNL A   1      41.867  25.818  28.294  1.00  0.00     0.074 A 
ATOM     33  C   UNL A   1      44.212  25.034  28.202  1.00  0.00     0.049 A 
ATOM     34  N   UNL A   1      42.032  27.062  28.665  1.00  0.00    -0.248 NA
ATOM     35  C   UNL A   1      40.461  25.436  28.081  1.00  0.00     0.031 C 
ATOM     36  C   UNL A   1      45.314  24.101  27.961  1.00  0.00     0.029 A 
ATOM     37  N   UNL A   1      44.834  26.187  28.610  1.00  0.00    -0.354 N 
ATOM     38  C   UNL A   1      40.757  27.611  28.712  1.00  0.00     0.074 A 
ATOM     39  C   UNL A   1      39.835  26.586  28.279  1.00  0.00     0.031 C 
ATOM     40  C   UNL A   1      46.476  24.709  28.256  1.00  0.00     0.029 A 
ATOM     41  C   UNL A   1      46.203  26.082  28.667  1.00  0.00     0.049 A 
ATOM     42  H   UNL A   1      44.347  27.010  28.841  1.00  0.00     0.167 HD
ATOM     43  C   UNL A   1      40.381  28.852  29.106  1.00  0.00     0.031 A 
ATOM     44  C   UNL A   1      47.132  26.993  29.010  1.00  0.00     0.031 A 
ATOM     45  C   UNL A   1      41.295  29.867  29.550  1.00  0.00     0.049 A 
ATOM     46  C   UNL A   1      46.690  28.371  29.423  1.00  0.00     0.074 A 
ATOM     47  C   UNL A   1      41.013  31.143  30.007  1.00  0.00     0.029 A 
ATOM     48  N   UNL A   1      42.673  29.720  29.595  1.00  0.00    -0.354 N 
ATOM     49  N   UNL A   1      45.476  28.858  29.513  1.00  0.00    -0.248 NA
ATOM     50  C   UNL A   1      47.750  29.319  29.796  1.00  0.00     0.031 C 
ATOM     51  C   UNL A   1      42.224  31.784  30.286  1.00  0.00     0.029 A 
ATOM     52  C   UNL A   1      43.256  30.887  30.058  1.00  0.00     0.049 A 
ATOM     53  H   UNL A   1      43.164  28.907  29.337  1.00  0.00     0.167 HD
ATOM     54  C   UNL A   1      45.624  30.154  29.988  1.00  0.00     0.074 A 
ATOM     55  C   UNL A   1      47.043  30.373  30.178  1.00  0.00     0.031 C 
ATOM     56  C   UNL A   1      44.670  31.082  30.248  1.00  0.00     0.031 A 
BRANCH  43  57
ATOM     57  C   UNL A   1      38.912  29.173  29.069  1.00  0.00    -0.014 A 
ATOM     58  C   UNL A   1      38.093  28.961  30.192  1.00  0.00     0.009 A 
ATOM     59  C   UNL A   1      38.343  29.720  27.909  1.00  0.00     0.009 A 
ATOM     60  C   UNL A   1      36.729  29.254  30.139  1.00  0.00     0.001 A 
ATOM     61  C   UNL A   1      36.985  30.041  27.869  1.00  0.00     0.001 A 
ATOM     62  C   UNL A   1      36.177  29.799  28.980  1.00  0.00     0.000 A 
ENDBRANCH  43  57
BRANCH  44  63
ATOM     63  C   UNL A   1      48.574  26.633  29.002  1.00  0.00    -0.014 A 
ATOM     64  C   UNL A   1      49.195  26.159  30.167  1.00  0.00     0.009 A 
ATOM     65  C   UNL A   1      49.342  26.778  27.835  1.00  0.00     0.009 A 
ATOM     66  C   UNL A   1      50.561  25.870  30.176  1.00  0.00     0.001 A 
ATOM     67  C   UNL A   1      50.702  26.459  27.838  1.00  0.00     0.001 A 
ATOM     68  C   UNL A   1      51.312  26.017  29.010  1.00  0.00     0.000 A 
ENDBRANCH  44  63
BRANCH  56  69
ATOM     69  C   UNL A   1      45.125  32.397  30.814  1.00  0.00    -0.014 A 
ATOM     70  C   UNL A   1      45.431  33.486  29.984  1.00  0.00     0.009 A 
ATOM     71  C   UNL A   1      45.209  32.557  32.207  1.00  0.00     0.009 A 
ATOM     72  C   UNL A   1      45.846  34.699  30.538  1.00  0.00     0.001 A 
ATOM     73  C   UNL A   1      45.596  33.779  32.758  1.00  0.00     0.001 A 
ATOM     74  C   UNL A   1      45.923  34.846  31.923  1.00  0.00     0.000 A 
ENDBRANCH  56  69
ENDBRANCH  30  31
ENDBRANCH  22  25
ENDBRANCH  20  21
ENDBRANCH  19  20
ENDBRANCH  18  19
ENDBRANCH   1  18
TORSDOF 16
ENDMDL
MODEL 2
REMARK VINA RESULT:      -9.5      0.741      1.335
REMARK SMILES CN(C)C(=O)CC(C)(C)CC(=O)NCCCCCCNC(=O)c1ccc(-c2c3nc(c(-c4ccccc4)c4ccc([nH]4)c(-c4ccccc4)c4nc(c(-c5ccccc5)c5ccc2[nH]5)C=C4)C=C3)cc1
REMARK SMILES IDX 16 1 15 2 14 3 13 4 11 5 12 6 10 8 7 9 8 10 9 11 6 12 4 13
REMARK SMILES IDX 1 14 2 15 3 16 5 17 17 18 18 19 19 20 20 21 21 22 22 24
REMARK SMILES IDX 23 25 24 26 70 27 25 28 69 29 26 30 27 31 28 32 63 33 29 34
REMARK SMILES IDX 68 35 62 36 64 37 30 38 67 39 61 40 60 41 31 43 53 44 38 45
REMARK SMILES IDX 52 46 39 47 42 48 51 49 65 50 40 51 41 52 50 54 66 55 43 56
REMARK SMILES IDX 32 57 33 58 37 59 34 60 36 61 35 62 54 63 55 64 59 65 56 66
REMARK SMILES IDX 58 67 57 68 44 69 45 70 49 71 46 72 48 73 47 74
REMARK H PARENT 13 7 20 23 64 42 42 53
REMARK Flexibility Score: inf
ROOT
ATOM      1  C   UNL A   1      35.517  20.546  24.990  1.00  0.00     0.002 C 
ENDROOT
BRANCH   1   2
ATOM      2  C   UNL A   1      34.744  21.208  26.131  1.00  0.00     0.021 C 
BRANCH   2   3
ATOM      3  C   UNL A   1      33.235  20.988  26.054  1.00  0.00     0.116 C 
BRANCH   3   4
ATOM      4  N   UNL A   1      32.560  22.019  26.806  1.00  0.00    -0.356 N 
ATOM      5  C   UNL A   1      32.207  23.277  26.434  1.00  0.00     0.220 C 
ATOM      6  O   UNL A   1      31.795  24.029  27.316  1.00  0.00    -0.275 OA
ATOM      7  H   UNL A   1      32.320  21.772  27.728  1.00  0.00     0.163 HD
BRANCH   5   8
ATOM      8  C   UNL A   1      32.249  23.694  24.973  1.00  0.00     0.107 C 
BRANCH   8   9
ATOM      9  C   UNL A   1      33.487  24.462  24.428  1.00  0.00    -0.018 C 
ATOM     10  C   UNL A   1      34.075  23.584  23.301  1.00  0.00     0.012 C 
ATOM     11  C   UNL A   1      34.614  24.606  25.467  1.00  0.00     0.012 C 
BRANCH   9  12
ATOM     12  C   UNL A   1      33.137  25.896  23.955  1.00  0.00     0.107 C 
BRANCH  12  13
ATOM     13  C   UNL A   1      31.720  26.103  23.446  1.00  0.00     0.222 C 
ATOM     14  C   UNL A   1      29.493  27.039  23.668  1.00  0.00     0.146 C 
ATOM     15  N   UNL A   1      30.808  26.788  24.234  1.00  0.00    -0.349 N 
ATOM     16  C   UNL A   1      30.995  27.216  25.611  1.00  0.00     0.146 C 
ATOM     17  O   UNL A   1      31.406  25.669  22.336  1.00  0.00    -0.275 OA
ENDBRANCH  12  13
ENDBRANCH   9  12
ENDBRANCH   8   9
ENDBRANCH   5   8
ENDBRANCH   3   4
ENDBRANCH   2   3
ENDBRANCH   1   2
BRANCH   1  18
ATOM     18  C   UNL A   1      36.939  21.078  24.798  1.00  0.00     0.002 C 
BRANCH  18  19
ATOM     19  C   UNL A   1      38.036  20.014  24.879  1.00  0.00     0.021 C 
BRANCH  19  20
ATOM     20  C   UNL A   1      39.002  20.193  26.045  1.00  0.00     0.116 C 
BRANCH  20  21
ATOM     21  N   UNL A   1      40.171  19.340  25.910  1.00  0.00    -0.352 N 
ATOM     22  C   UNL A   1      41.498  19.674  25.985  1.00  0.00     0.251 C 
ATOM     23  H   UNL A   1      39.983  18.389  25.740  1.00  0.00     0.163 HD
ATOM     24  O   UNL A   1      42.360  18.886  25.615  1.00  0.00    -0.269 OA
BRANCH  22  25
ATOM     25  C   UNL A   1      41.882  20.997  26.514  1.00  0.00     0.039 A 
ATOM     26  C   UNL A   1      42.232  22.009  25.618  1.00  0.00     0.014 A 
ATOM     27  C   UNL A   1      41.920  21.226  27.893  1.00  0.00     0.014 A 
ATOM     28  C   UNL A   1      42.588  23.266  26.106  1.00  0.00     0.010 A 
ATOM     29  C   UNL A   1      42.202  22.500  28.373  1.00  0.00     0.010 A 
ATOM     30  C   UNL A   1      42.560  23.526  27.485  1.00  0.00    -0.014 A 
BRANCH  30  31
ATOM     31  C   UNL A   1      42.948  24.850  28.026  1.00  0.00     0.031 A 
ATOM     32  C   UNL A   1      41.894  25.897  28.268  1.00  0.00     0.074 A 
ATOM     33  C   UNL A   1      44.246  25.129  28.255  1.00  0.00     0.049 A 
ATOM     34  N   UNL A   1      42.034  27.130  28.683  1.00  0.00    -0.248 NA
ATOM     35  C   UNL A   1      40.501  25.514  27.981  1.00  0.00     0.031 C 
ATOM     36  C   UNL A   1      45.363  24.210  28.034  1.00  0.00     0.029 A 
ATOM     37  N   UNL A   1      44.842  26.271  28.725  1.00  0.00    -0.354 N 
ATOM     38  C   UNL A   1      40.754  27.671  28.691  1.00  0.00     0.074 A 
ATOM     39  C   UNL A   1      39.859  26.654  28.187  1.00  0.00     0.031 C 
ATOM     40  C   UNL A   1      46.507  24.814  28.398  1.00  0.00     0.029 A 
ATOM     41  C   UNL A   1      46.207  26.172  28.838  1.00  0.00     0.049 A 
ATOM     42  H   UNL A   1      44.339  27.085  28.959  1.00  0.00     0.167 HD
ATOM     43  C   UNL A   1      40.353  28.896  29.106  1.00  0.00     0.031 A 
ATOM     44  C   UNL A   1      47.114  27.078  29.249  1.00  0.00     0.031 A 
ATOM     45  C   UNL A   1      41.240  29.903  29.620  1.00  0.00     0.049 A 
ATOM     46  C   UNL A   1      46.646  28.439  29.685  1.00  0.00     0.074 A 
ATOM     47  C   UNL A   1      40.930  31.162  30.103  1.00  0.00     0.029 A 
ATOM     48  N   UNL A   1      42.616  29.761  29.721  1.00  0.00    -0.354 N 
ATOM     49  N   UNL A   1      45.426  28.917  29.736  1.00  0.00    -0.248 NA
ATOM     50  C   UNL A   1      47.682  29.381  30.133  1.00  0.00     0.031 C 
ATOM     51  C   UNL A   1      42.124  31.800  30.455  1.00  0.00     0.029 A 
ATOM     52  C   UNL A   1      43.170  30.917  30.245  1.00  0.00     0.049 A 
ATOM     53  H   UNL A   1      43.123  28.959  29.460  1.00  0.00     0.167 HD
ATOM     54  C   UNL A   1      45.544  30.199  30.257  1.00  0.00     0.074 A 
ATOM     55  C   UNL A   1      46.951  30.420  30.515  1.00  0.00     0.031 C 
ATOM     56  C   UNL A   1      44.573  31.113  30.503  1.00  0.00     0.031 A 
BRANCH  43  57
ATOM     57  C   UNL A   1      38.885  29.211  29.014  1.00  0.00    -0.014 A 
ATOM     58  C   UNL A   1      38.317  29.688  27.821  1.00  0.00     0.009 A 
ATOM     59  C   UNL A   1      38.053  29.001  30.125  1.00  0.00     0.009 A 
ATOM     60  C   UNL A   1      36.954  29.985  27.755  1.00  0.00     0.001 A 
ATOM     61  C   UNL A   1      36.686  29.270  30.047  1.00  0.00     0.001 A 
ATOM     62  C   UNL A   1      36.139  29.772  28.866  1.00  0.00     0.000 A 
ENDBRANCH  43  57
BRANCH  44  63
ATOM     63  C   UNL A   1      48.558  26.726  29.294  1.00  0.00    -0.014 A 
ATOM     64  C   UNL A   1      49.390  26.998  28.197  1.00  0.00     0.009 A 
ATOM     65  C   UNL A   1      49.108  26.101  30.424  1.00  0.00     0.009 A 
ATOM     66  C   UNL A   1      50.735  26.620  28.216  1.00  0.00     0.001 A 
ATOM     67  C   UNL A   1      50.460  25.751  30.453  1.00  0.00     0.001 A 
ATOM     68  C   UNL A   1      51.269  26.001  29.345  1.00  0.00     0.000 A 
ENDBRANCH  44  63
BRANCH  56  69
ATOM     69  C   UNL A   1      44.994  32.413  31.128  1.00  0.00    -0.014 A 
ATOM     70  C   UNL A   1      45.334  33.527  30.346  1.00  0.00     0.009 A 
ATOM     71  C   UNL A   1      45.012  32.531  32.528  1.00  0.00     0.009 A 
ATOM     72  C   UNL A   1      45.716  34.725  30.954  1.00  0.00     0.001 A 
ATOM     73  C   UNL A   1      45.365  33.738  33.132  1.00  0.00     0.001 A 
ATOM     74  C   UNL A   1      45.727  34.830  32.345  1.00  0.00     0.000 A 
ENDBRANCH  56  69
ENDBRANCH  30  31
ENDBRANCH  22  25
ENDBRANCH  20  21
ENDBRANCH  19  20
ENDBRANCH  18  19
ENDBRANCH   1  18
TORSDOF 16
ENDMDL
MODEL 3
REMARK VINA RESULT:      -9.5      0.923      6.189
REMARK SMILES CN(C)C(=O)CC(C)(C)CC(=O)NCCCCCCNC(=O)c1ccc(-c2c3nc(c(-c4ccccc4)c4ccc([nH]4)c(-c4ccccc4)c4nc(c(-c5ccccc5)c5ccc2[nH]5)C=C4)C=C3)cc1
REMARK SMILES IDX 16 1 15 2 14 3 13 4 11 5 12 6 10 8 7 9 8 10 9 11 6 12 4 13
REMARK SMILES IDX 1 14 2 15 3 16 5 17 17 18 18 19 19 20 20 21 21 22 22 24
REMARK SMILES IDX 23 25 24 26 70 27 25 28 69 29 26 30 27 31 28 32 63 33 29 34
REMARK SMILES IDX 68 35 62 36 64 37 30 38 67 39 61 40 60 41 31 43 53 44 38 45
REMARK SMILES IDX 52 46 39 47 42 48 51 49 65 50 40 51 41 52 50 54 66 55 43 56
REMARK SMILES IDX 32 57 33 58 37 59 34 60 36 61 35 62 54 63 55 64 59 65 56 66
REMARK SMILES IDX 58 67 57 68 44 69 45 70 49 71 46 72 48 73 47 74
REMARK H PARENT 13 7 20 23 64 42 42 53
REMARK Flexibility Score: inf
ROOT
ATOM      1  C   UNL A   1      35.655  20.523  24.980  1.00  0.00     0.002 C 
ENDROOT
BRANCH   1   2
ATOM      2  C   UNL A   1      34.833  21.168  26.096  1.00  0.00     0.021 C 
BRANCH   2   3
ATOM      3  C   UNL A   1      33.329  20.947  25.953  1.00  0.00     0.116 C 
BRANCH   3   4
ATOM      4  N   UNL A   1      32.621  21.929  26.738  1.00  0.00    -0.356 N 
ATOM      5  C   UNL A   1      32.258  23.199  26.421  1.00  0.00     0.220 C 
ATOM      6  O   UNL A   1      31.814  23.900  27.329  1.00  0.00    -0.275 OA
ATOM      7  H   UNL A   1      32.364  21.634  27.641  1.00  0.00     0.163 HD
BRANCH   5   8
ATOM      8  C   UNL A   1      32.328  23.688  24.983  1.00  0.00     0.107 C 
BRANCH   8   9
ATOM      9  C   UNL A   1      33.564  24.502  24.507  1.00  0.00    -0.018 C 
ATOM     10  C   UNL A   1      34.229  23.660  23.394  1.00  0.00     0.012 C 
ATOM     11  C   UNL A   1      34.639  24.662  25.598  1.00  0.00     0.012 C 
BRANCH   9  12
ATOM     12  C   UNL A   1      33.192  25.932  24.039  1.00  0.00     0.107 C 
BRANCH  12  13
ATOM     13  C   UNL A   1      31.771  26.120  23.533  1.00  0.00     0.222 C 
ATOM     14  C   UNL A   1      29.512  26.964  23.794  1.00  0.00     0.146 C 
ATOM     15  N   UNL A   1      30.832  26.726  24.353  1.00  0.00    -0.349 N 
ATOM     16  C   UNL A   1      30.997  27.078  25.754  1.00  0.00     0.146 C 
ATOM     17  O   UNL A   1      31.478  25.741  22.397  1.00  0.00    -0.275 OA
ENDBRANCH  12  13
ENDBRANCH   9  12
ENDBRANCH   8   9
ENDBRANCH   5   8
ENDBRANCH   3   4
ENDBRANCH   2   3
ENDBRANCH   1   2
BRANCH   1  18
ATOM     18  C   UNL A   1      37.089  21.045  24.867  1.00  0.00     0.002 C 
BRANCH  18  19
ATOM     19  C   UNL A   1      38.166  19.958  24.854  1.00  0.00     0.021 C 
BRANCH  19  20
ATOM     20  C   UNL A   1      39.073  19.955  26.080  1.00  0.00     0.116 C 
BRANCH  20  21
ATOM     21  N   UNL A   1      40.318  19.250  25.826  1.00  0.00    -0.352 N 
ATOM     22  C   UNL A   1      41.601  19.731  25.838  1.00  0.00     0.251 C 
ATOM     23  H   UNL A   1      40.226  18.292  25.615  1.00  0.00     0.163 HD
ATOM     24  O   UNL A   1      42.519  19.065  25.372  1.00  0.00    -0.269 OA
BRANCH  22  25
ATOM     25  C   UNL A   1      41.870  21.062  26.415  1.00  0.00     0.039 A 
ATOM     26  C   UNL A   1      41.754  21.237  27.795  1.00  0.00     0.014 A 
ATOM     27  C   UNL A   1      42.211  22.137  25.589  1.00  0.00     0.014 A 
ATOM     28  C   UNL A   1      42.015  22.489  28.353  1.00  0.00     0.010 A 
ATOM     29  C   UNL A   1      42.543  23.363  26.154  1.00  0.00     0.010 A 
ATOM     30  C   UNL A   1      42.427  23.556  27.539  1.00  0.00    -0.014 A 
BRANCH  30  31
ATOM     31  C   UNL A   1      42.695  24.898  28.110  1.00  0.00     0.031 A 
ATOM     32  C   UNL A   1      44.086  25.253  28.561  1.00  0.00     0.074 A 
ATOM     33  C   UNL A   1      41.687  25.777  28.264  1.00  0.00     0.049 A 
ATOM     34  N   UNL A   1      44.514  26.350  29.134  1.00  0.00    -0.248 NA
ATOM     35  C   UNL A   1      45.128  24.231  28.366  1.00  0.00     0.031 C 
ATOM     36  C   UNL A   1      40.291  25.541  27.891  1.00  0.00     0.029 A 
ATOM     37  N   UNL A   1      41.684  27.048  28.778  1.00  0.00    -0.354 N 
ATOM     38  C   UNL A   1      45.865  26.141  29.380  1.00  0.00     0.074 A 
ATOM     39  C   UNL A   1      46.175  24.797  28.949  1.00  0.00     0.031 C 
ATOM     40  C   UNL A   1      39.573  26.645  28.161  1.00  0.00     0.029 A 
ATOM     41  C   UNL A   1      40.448  27.647  28.760  1.00  0.00     0.049 A 
ATOM     42  H   UNL A   1      42.492  27.491  29.127  1.00  0.00     0.167 HD
ATOM     43  C   UNL A   1      46.777  27.001  29.896  1.00  0.00     0.031 A 
ATOM     44  C   UNL A   1      40.065  28.866  29.182  1.00  0.00     0.031 A 
ATOM     45  C   UNL A   1      46.473  28.342  30.312  1.00  0.00     0.049 A 
ATOM     46  C   UNL A   1      41.091  29.794  29.770  1.00  0.00     0.074 A 
ATOM     47  C   UNL A   1      47.331  29.306  30.811  1.00  0.00     0.029 A 
ATOM     48  N   UNL A   1      45.208  28.910  30.274  1.00  0.00    -0.354 N 
ATOM     49  N   UNL A   1      42.376  29.601  29.948  1.00  0.00    -0.248 NA
ATOM     50  C   UNL A   1      40.614  31.116  30.204  1.00  0.00     0.031 C 
ATOM     51  C   UNL A   1      46.578  30.444  31.118  1.00  0.00     0.029 A 
ATOM     52  C   UNL A   1      45.261  30.207  30.755  1.00  0.00     0.049 A 
ATOM     53  H   UNL A   1      44.395  28.459  29.953  1.00  0.00     0.167 HD
ATOM     54  C   UNL A   1      42.867  30.788  30.477  1.00  0.00     0.074 A 
ATOM     55  C   UNL A   1      41.745  31.697  30.581  1.00  0.00     0.031 C 
ATOM     56  C   UNL A   1      44.135  31.099  30.842  1.00  0.00     0.031 A 
BRANCH  43  57
ATOM     57  C   UNL A   1      48.190  26.506  30.038  1.00  0.00    -0.014 A 
ATOM     58  C   UNL A   1      48.615  25.846  31.203  1.00  0.00     0.009 A 
ATOM     59  C   UNL A   1      49.101  26.677  28.985  1.00  0.00     0.009 A 
ATOM     60  C   UNL A   1      49.933  25.402  31.325  1.00  0.00     0.001 A 
ATOM     61  C   UNL A   1      50.410  26.205  29.097  1.00  0.00     0.001 A 
ATOM     62  C   UNL A   1      50.828  25.577  30.270  1.00  0.00     0.000 A 
ENDBRANCH  43  57
BRANCH  44  63
ATOM     63  C   UNL A   1      38.648  29.296  29.044  1.00  0.00    -0.014 A 
ATOM     64  C   UNL A   1      37.767  29.200  30.133  1.00  0.00     0.009 A 
ATOM     65  C   UNL A   1      38.164  29.787  27.821  1.00  0.00     0.009 A 
ATOM     66  C   UNL A   1      36.424  29.554  29.991  1.00  0.00     0.001 A 
ATOM     67  C   UNL A   1      36.827  30.168  27.691  1.00  0.00     0.001 A 
ATOM     68  C   UNL A   1      35.956  30.041  28.772  1.00  0.00     0.000 A 
ENDBRANCH  44  63
BRANCH  56  69
ATOM     69  C   UNL A   1      44.384  32.496  31.338  1.00  0.00    -0.014 A 
ATOM     70  C   UNL A   1      44.314  32.813  32.703  1.00  0.00     0.009 A 
ATOM     71  C   UNL A   1      44.736  33.501  30.421  1.00  0.00     0.009 A 
ATOM     72  C   UNL A   1      44.557  34.118  33.136  1.00  0.00     0.001 A 
ATOM     73  C   UNL A   1      45.007  34.797  30.861  1.00  0.00     0.001 A 
ATOM     74  C   UNL A   1      44.907  35.107  32.216  1.00  0.00     0.000 A 
ENDBRANCH  56  69
ENDBRANCH  30  31
ENDBRANCH  22  25
ENDBRANCH  20  21
ENDBRANCH  19  20
ENDBRANCH  18  19
ENDBRANCH   1  18
TORSDOF 16
ENDMDL
