MODEL 1
REMARK VINA RESULT:     -11.6      0.000      0.000
REMARK SMILES Nc1oc2ccc(F)cc2c(=O)c1[C@@H]1[NH2+][C@H](C(=O)NCCCCCCNC(=O)c2ccc(-c3c4nc(c(-c5ccccc5)c5ccc([nH]5)c(-c5ccccc5)c5nc(c(-c6ccccc6)c6ccc3[nH]6)C=C5)C=C4)cc2)CS1
REMARK SMILES IDX 22 1 21 2 20 3 19 4 17 5 18 6 16 8 14 9 15 10 78 11 77 14
REMARK SMILES IDX 13 15 2 16 3 17 4 18 11 19 5 20 10 21 12 22 6 23 9 24 7 25
REMARK SMILES IDX 8 26 1 27 23 30 24 31 25 32 26 33 27 34 28 36 29 37 30 38
REMARK SMILES IDX 76 39 31 40 75 41 32 42 33 43 34 44 69 45 35 46 74 47 68 48
REMARK SMILES IDX 70 49 36 50 73 51 67 52 66 53 37 55 59 56 44 57 58 58 45 59
REMARK SMILES IDX 48 60 57 61 71 62 46 63 47 64 56 66 72 67 49 68 38 69 39 70
REMARK SMILES IDX 43 71 40 72 42 73 41 74 60 75 61 76 65 77 62 78 64 79 63 80
REMARK SMILES IDX 50 81 51 82 55 83 52 84 54 85 53 86
REMARK H PARENT 19 7 15 12 15 13 1 28 1 29 26 35 70 54 48 65
REMARK Flexibility Score: inf
ROOT
ATOM      1  C   UNL A   1      30.597  29.663  24.263  1.00  0.00     0.002 C 
ENDROOT
BRANCH   1   2
ATOM      2  C   UNL A   1      30.449  29.312  22.761  1.00  0.00     0.021 C 
BRANCH   2   3
ATOM      3  C   UNL A   1      30.648  27.866  22.274  1.00  0.00     0.116 C 
BRANCH   3   4
ATOM      4  N   UNL A   1      32.031  27.459  22.061  1.00  0.00    -0.351 N 
ATOM      5  C   UNL A   1      32.632  26.228  22.121  1.00  0.00     0.279 C 
ATOM      6  O   UNL A   1      33.783  26.160  21.666  1.00  0.00    -0.268 OA
ATOM      7  H   UNL A   1      32.642  28.198  21.834  1.00  0.00     0.163 HD
BRANCH   5   8
ATOM      8  C   UNL A   1      31.960  24.926  22.633  1.00  0.00     0.283 C 
ATOM      9  C   UNL A   1      32.505  22.954  23.962  1.00  0.00     0.283 C 
ATOM     10  N   UNL A   1      32.920  23.824  22.842  1.00  0.00    -0.320 N 
ATOM     11  S   UNL A   1      30.979  23.598  24.689  1.00  0.00    -0.087 SA
ATOM     12  H   UNL A   1      32.974  23.266  21.989  1.00  0.00     0.348 HD
ATOM     13  H   UNL A   1      33.829  24.228  23.068  1.00  0.00     0.348 HD
ATOM     14  C   UNL A   1      31.118  25.200  23.867  1.00  0.00     0.151 C 
BRANCH   9  15
ATOM     15  C   UNL A   1      33.679  22.856  24.905  1.00  0.00     0.128 A 
ATOM     16  C   UNL A   1      34.298  23.847  25.590  1.00  0.00     0.205 A 
ATOM     17  O   UNL A   1      35.580  23.717  26.096  1.00  0.00    -0.440 OA
ATOM     18  C   UNL A   1      36.318  22.633  25.718  1.00  0.00     0.140 A 
ATOM     19  C   UNL A   1      34.320  21.508  24.926  1.00  0.00     0.205 A 
ATOM     20  C   UNL A   1      37.697  22.727  25.808  1.00  0.00     0.051 A 
ATOM     21  C   UNL A   1      35.741  21.462  25.265  1.00  0.00     0.068 A 
ATOM     22  O   UNL A   1      33.727  20.484  24.597  1.00  0.00    -0.288 OA
ATOM     23  C   UNL A   1      38.496  21.641  25.470  1.00  0.00     0.043 A 
ATOM     24  C   UNL A   1      36.521  20.324  25.045  1.00  0.00     0.055 A 
ATOM     25  C   UNL A   1      37.900  20.430  25.152  1.00  0.00     0.124 A 
ATOM     26  F   UNL A   1      38.676  19.364  24.925  1.00  0.00    -0.207 F 
BRANCH  16  27
ATOM     27  N   UNL A   1      33.816  25.112  25.763  1.00  0.00    -0.369 N 
ATOM     28  H   UNL A   1      34.366  25.789  26.219  1.00  0.00     0.159 HD
ATOM     29  H   UNL A   1      32.919  25.347  25.434  1.00  0.00     0.159 HD
ENDBRANCH  16  27
ENDBRANCH   9  15
ENDBRANCH   5   8
ENDBRANCH   3   4
ENDBRANCH   2   3
ENDBRANCH   1   2
BRANCH   1  30
ATOM     30  C   UNL A   1      31.959  29.678  24.982  1.00  0.00     0.002 C 
BRANCH  30  31
ATOM     31  C   UNL A   1      32.345  28.589  26.001  1.00  0.00     0.021 C 
BRANCH  31  32
ATOM     32  C   UNL A   1      33.255  28.918  27.195  1.00  0.00     0.116 C 
BRANCH  32  33
ATOM     33  N   UNL A   1      33.311  30.283  27.676  1.00  0.00    -0.352 N 
ATOM     34  C   UNL A   1      34.430  30.966  28.134  1.00  0.00     0.251 C 
ATOM     35  H   UNL A   1      32.462  30.781  27.680  1.00  0.00     0.163 HD
ATOM     36  O   UNL A   1      34.359  32.165  28.398  1.00  0.00    -0.269 OA
BRANCH  34  37
ATOM     37  C   UNL A   1      35.718  30.253  28.375  1.00  0.00     0.039 A 
ATOM     38  C   UNL A   1      36.004  29.623  29.586  1.00  0.00     0.014 A 
ATOM     39  C   UNL A   1      36.666  30.197  27.351  1.00  0.00     0.014 A 
ATOM     40  C   UNL A   1      37.285  29.095  29.833  1.00  0.00     0.010 A 
ATOM     41  C   UNL A   1      37.920  29.603  27.574  1.00  0.00     0.010 A 
ATOM     42  C   UNL A   1      38.278  29.096  28.837  1.00  0.00    -0.014 A 
BRANCH  42  43
ATOM     43  C   UNL A   1      39.685  28.624  29.094  1.00  0.00     0.031 A 
ATOM     44  C   UNL A   1      40.685  29.531  29.787  1.00  0.00     0.074 A 
ATOM     45  C   UNL A   1      40.112  27.399  28.716  1.00  0.00     0.049 A 
ATOM     46  N   UNL A   1      41.974  29.364  29.976  1.00  0.00    -0.248 NA
ATOM     47  C   UNL A   1      40.168  30.796  30.332  1.00  0.00     0.031 C 
ATOM     48  C   UNL A   1      39.289  26.373  28.080  1.00  0.00     0.029 A 
ATOM     49  N   UNL A   1      41.356  26.809  28.815  1.00  0.00    -0.354 N 
ATOM     50  C   UNL A   1      42.422  30.514  30.621  1.00  0.00     0.074 A 
ATOM     51  C   UNL A   1      41.275  31.384  30.762  1.00  0.00     0.031 C 
ATOM     52  C   UNL A   1      40.033  25.273  27.881  1.00  0.00     0.029 A 
ATOM     53  C   UNL A   1      41.410  25.536  28.297  1.00  0.00     0.049 A 
ATOM     54  H   UNL A   1      42.133  27.258  29.218  1.00  0.00     0.167 HD
ATOM     55  C   UNL A   1      43.664  30.820  31.072  1.00  0.00     0.031 A 
ATOM     56  C   UNL A   1      42.439  24.675  28.138  1.00  0.00     0.031 A 
ATOM     57  C   UNL A   1      44.814  29.956  30.973  1.00  0.00     0.049 A 
ATOM     58  C   UNL A   1      43.829  25.061  28.572  1.00  0.00     0.074 A 
ATOM     59  C   UNL A   1      46.100  30.188  31.435  1.00  0.00     0.029 A 
ATOM     60  N   UNL A   1      44.823  28.702  30.386  1.00  0.00    -0.354 N 
ATOM     61  N   UNL A   1      44.233  26.157  29.165  1.00  0.00    -0.248 NA
ATOM     62  C   UNL A   1      44.908  24.092  28.310  1.00  0.00     0.031 C 
ATOM     63  C   UNL A   1      46.904  29.110  31.060  1.00  0.00     0.029 A 
ATOM     64  C   UNL A   1      46.100  28.165  30.445  1.00  0.00     0.049 A 
ATOM     65  H   UNL A   1      44.040  28.258  29.987  1.00  0.00     0.167 HD
ATOM     66  C   UNL A   1      45.600  26.001  29.369  1.00  0.00     0.074 A 
ATOM     67  C   UNL A   1      45.958  24.697  28.852  1.00  0.00     0.031 C 
ATOM     68  C   UNL A   1      46.473  26.869  29.937  1.00  0.00     0.031 A 
BRANCH  55  69
ATOM     69  C   UNL A   1      43.874  32.167  31.721  1.00  0.00    -0.014 A 
ATOM     70  C   UNL A   1      43.658  32.315  33.102  1.00  0.00     0.009 A 
ATOM     71  C   UNL A   1      44.177  33.306  30.960  1.00  0.00     0.009 A 
ATOM     72  C   UNL A   1      43.728  33.574  33.704  1.00  0.00     0.001 A 
ATOM     73  C   UNL A   1      44.284  34.559  31.571  1.00  0.00     0.001 A 
ATOM     74  C   UNL A   1      44.049  34.693  32.939  1.00  0.00     0.000 A 
ENDBRANCH  55  69
BRANCH  56  75
ATOM     75  C   UNL A   1      42.182  23.338  27.530  1.00  0.00    -0.014 A 
ATOM     76  C   UNL A   1      41.701  22.273  28.309  1.00  0.00     0.009 A 
ATOM     77  C   UNL A   1      42.469  23.106  26.175  1.00  0.00     0.009 A 
ATOM     78  C   UNL A   1      41.559  20.997  27.761  1.00  0.00     0.001 A 
ATOM     79  C   UNL A   1      42.291  21.836  25.620  1.00  0.00     0.001 A 
ATOM     80  C   UNL A   1      41.852  20.780  26.416  1.00  0.00     0.000 A 
ENDBRANCH  56  75
BRANCH  68  81
ATOM     81  C   UNL A   1      47.918  26.461  30.069  1.00  0.00    -0.014 A 
ATOM     82  C   UNL A   1      48.784  26.594  28.970  1.00  0.00     0.009 A 
ATOM     83  C   UNL A   1      48.396  25.828  31.227  1.00  0.00     0.009 A 
ATOM     84  C   UNL A   1      50.082  26.082  29.016  1.00  0.00     0.001 A 
ATOM     85  C   UNL A   1      49.706  25.347  31.283  1.00  0.00     0.001 A 
ATOM     86  C   UNL A   1      50.543  25.461  30.174  1.00  0.00     0.000 A 
ENDBRANCH  68  81
ENDBRANCH  42  43
ENDBRANCH  34  37
ENDBRANCH  32  33
ENDBRANCH  31  32
ENDBRANCH  30  31
ENDBRANCH   1  30
TORSDOF 15
ENDMDL
MODEL 2
REMARK VINA RESULT:     -11.4      4.207      6.241
REMARK SMILES Nc1oc2ccc(F)cc2c(=O)c1[C@@H]1[NH2+][C@H](C(=O)NCCCCCCNC(=O)c2ccc(-c3c4nc(c(-c5ccccc5)c5ccc([nH]5)c(-c5ccccc5)c5nc(c(-c6ccccc6)c6ccc3[nH]6)C=C5)C=C4)cc2)CS1
REMARK SMILES IDX 22 1 21 2 20 3 19 4 17 5 18 6 16 8 14 9 15 10 78 11 77 14
REMARK SMILES IDX 13 15 2 16 3 17 4 18 11 19 5 20 10 21 12 22 6 23 9 24 7 25
REMARK SMILES IDX 8 26 1 27 23 30 24 31 25 32 26 33 27 34 28 36 29 37 30 38
REMARK SMILES IDX 76 39 31 40 75 41 32 42 33 43 34 44 69 45 35 46 74 47 68 48
REMARK SMILES IDX 70 49 36 50 73 51 67 52 66 53 37 55 59 56 44 57 58 58 45 59
REMARK SMILES IDX 48 60 57 61 71 62 46 63 47 64 56 66 72 67 49 68 38 69 39 70
REMARK SMILES IDX 43 71 40 72 42 73 41 74 60 75 61 76 65 77 62 78 64 79 63 80
REMARK SMILES IDX 50 81 51 82 55 83 52 84 54 85 53 86
REMARK H PARENT 19 7 15 12 15 13 1 28 1 29 26 35 70 54 48 65
REMARK Flexibility Score: inf
ROOT
ATOM      1  C   UNL A   1      35.348  32.821  28.075  1.00  0.00     0.002 C 
ENDROOT
BRANCH   1   2
ATOM      2  C   UNL A   1      34.448  31.598  28.384  1.00  0.00     0.021 C 
BRANCH   2   3
ATOM      3  C   UNL A   1      33.645  30.917  27.262  1.00  0.00     0.116 C 
BRANCH   3   4
ATOM      4  N   UNL A   1      32.681  29.914  27.699  1.00  0.00    -0.351 N 
ATOM      5  C   UNL A   1      32.148  28.829  27.053  1.00  0.00     0.279 C 
ATOM      6  O   UNL A   1      31.525  28.025  27.760  1.00  0.00    -0.268 OA
ATOM      7  H   UNL A   1      32.357  30.037  28.622  1.00  0.00     0.163 HD
BRANCH   5   8
ATOM      8  C   UNL A   1      32.333  28.502  25.546  1.00  0.00     0.283 C 
ATOM      9  C   UNL A   1      33.058  26.660  24.122  1.00  0.00     0.283 C 
ATOM     10  N   UNL A   1      33.381  27.492  25.299  1.00  0.00    -0.320 N 
ATOM     11  S   UNL A   1      31.461  27.173  23.443  1.00  0.00    -0.087 SA
ATOM     12  H   UNL A   1      34.269  27.969  25.136  1.00  0.00     0.348 HD
ATOM     13  H   UNL A   1      33.441  26.885  26.116  1.00  0.00     0.348 HD
ATOM     14  C   UNL A   1      31.007  28.128  24.906  1.00  0.00     0.151 C 
BRANCH   9  15
ATOM     15  C   UNL A   1      33.140  25.219  24.562  1.00  0.00     0.128 A 
ATOM     16  C   UNL A   1      32.639  24.649  25.684  1.00  0.00     0.205 A 
ATOM     17  O   UNL A   1      33.103  23.442  26.180  1.00  0.00    -0.440 OA
ATOM     18  C   UNL A   1      34.236  22.912  25.635  1.00  0.00     0.140 A 
ATOM     19  C   UNL A   1      34.041  24.383  23.716  1.00  0.00     0.205 A 
ATOM     20  C   UNL A   1      34.960  22.010  26.398  1.00  0.00     0.051 A 
ATOM     21  C   UNL A   1      34.671  23.234  24.363  1.00  0.00     0.068 A 
ATOM     22  O   UNL A   1      34.323  24.673  22.556  1.00  0.00    -0.288 OA
ATOM     23  C   UNL A   1      36.103  21.413  25.880  1.00  0.00     0.043 A 
ATOM     24  C   UNL A   1      35.741  22.548  23.783  1.00  0.00     0.055 A 
ATOM     25  C   UNL A   1      36.448  21.639  24.556  1.00  0.00     0.124 A 
ATOM     26  F   UNL A   1      37.492  20.983  24.036  1.00  0.00    -0.207 F 
BRANCH  16  27
ATOM     27  N   UNL A   1      31.730  25.220  26.526  1.00  0.00    -0.369 N 
ATOM     28  H   UNL A   1      31.085  25.879  26.179  1.00  0.00     0.159 HD
ATOM     29  H   UNL A   1      31.717  24.974  27.479  1.00  0.00     0.159 HD
ENDBRANCH  16  27
ENDBRANCH   9  15
ENDBRANCH   5   8
ENDBRANCH   3   4
ENDBRANCH   2   3
ENDBRANCH   1   2
BRANCH   1  30
ATOM     30  C   UNL A   1      34.958  34.259  28.465  1.00  0.00     0.002 C 
BRANCH  30  31
ATOM     31  C   UNL A   1      33.575  34.586  29.059  1.00  0.00     0.021 C 
BRANCH  31  32
ATOM     32  C   UNL A   1      33.251  36.000  29.566  1.00  0.00     0.116 C 
BRANCH  32  33
ATOM     33  N   UNL A   1      32.262  36.159  30.612  1.00  0.00    -0.352 N 
ATOM     34  C   UNL A   1      32.426  35.907  31.968  1.00  0.00     0.251 C 
ATOM     35  H   UNL A   1      31.376  36.483  30.331  1.00  0.00     0.163 HD
ATOM     36  O   UNL A   1      31.539  36.204  32.765  1.00  0.00    -0.269 OA
BRANCH  34  37
ATOM     37  C   UNL A   1      33.647  35.216  32.476  1.00  0.00     0.039 A 
ATOM     38  C   UNL A   1      34.883  35.858  32.560  1.00  0.00     0.014 A 
ATOM     39  C   UNL A   1      33.551  33.889  32.898  1.00  0.00     0.014 A 
ATOM     40  C   UNL A   1      36.043  35.134  32.898  1.00  0.00     0.010 A 
ATOM     41  C   UNL A   1      34.698  33.187  33.306  1.00  0.00     0.010 A 
ATOM     42  C   UNL A   1      35.975  33.776  33.255  1.00  0.00    -0.014 A 
BRANCH  42  43
ATOM     43  C   UNL A   1      37.204  32.948  33.531  1.00  0.00     0.031 A 
ATOM     44  C   UNL A   1      37.961  33.108  34.836  1.00  0.00     0.074 A 
ATOM     45  C   UNL A   1      37.681  32.053  32.638  1.00  0.00     0.049 A 
ATOM     46  N   UNL A   1      39.111  32.592  35.204  1.00  0.00    -0.248 NA
ATOM     47  C   UNL A   1      37.346  33.967  35.860  1.00  0.00     0.031 C 
ATOM     48  C   UNL A   1      37.068  31.727  31.353  1.00  0.00     0.029 A 
ATOM     49  N   UNL A   1      38.802  31.248  32.683  1.00  0.00    -0.354 N 
ATOM     50  C   UNL A   1      39.372  33.096  36.475  1.00  0.00     0.074 A 
ATOM     51  C   UNL A   1      38.277  33.982  36.803  1.00  0.00     0.031 C 
ATOM     52  C   UNL A   1      37.793  30.770  30.750  1.00  0.00     0.029 A 
ATOM     53  C   UNL A   1      38.970  30.467  31.562  1.00  0.00     0.049 A 
ATOM     54  H   UNL A   1      39.423  31.234  33.445  1.00  0.00     0.167 HD
ATOM     55  C   UNL A   1      40.412  32.839  37.307  1.00  0.00     0.031 A 
ATOM     56  C   UNL A   1      39.960  29.623  31.197  1.00  0.00     0.031 A 
ATOM     57  C   UNL A   1      41.496  31.935  37.017  1.00  0.00     0.049 A 
ATOM     58  C   UNL A   1      41.149  29.409  32.098  1.00  0.00     0.074 A 
ATOM     59  C   UNL A   1      42.572  31.602  37.825  1.00  0.00     0.029 A 
ATOM     60  N   UNL A   1      41.645  31.216  35.843  1.00  0.00    -0.354 N 
ATOM     61  N   UNL A   1      41.382  29.906  33.287  1.00  0.00    -0.248 NA
ATOM     62  C   UNL A   1      42.215  28.521  31.602  1.00  0.00     0.031 C 
ATOM     63  C   UNL A   1      43.410  30.743  37.112  1.00  0.00     0.029 A 
ATOM     64  C   UNL A   1      42.812  30.468  35.893  1.00  0.00     0.049 A 
ATOM     65  H   UNL A   1      41.016  31.233  35.085  1.00  0.00     0.167 HD
ATOM     66  C   UNL A   1      42.602  29.374  33.692  1.00  0.00     0.074 A 
ATOM     67  C   UNL A   1      43.056  28.502  32.629  1.00  0.00     0.031 C 
ATOM     68  C   UNL A   1      43.277  29.595  34.846  1.00  0.00     0.031 A 
BRANCH  55  69
ATOM     69  C   UNL A   1      40.453  33.553  38.636  1.00  0.00    -0.014 A 
ATOM     70  C   UNL A   1      39.725  33.042  39.724  1.00  0.00     0.009 A 
ATOM     71  C   UNL A   1      41.119  34.779  38.787  1.00  0.00     0.009 A 
ATOM     72  C   UNL A   1      39.649  33.748  40.927  1.00  0.00     0.001 A 
ATOM     73  C   UNL A   1      41.074  35.464  40.005  1.00  0.00     0.001 A 
ATOM     74  C   UNL A   1      40.331  34.955  41.069  1.00  0.00     0.000 A 
ENDBRANCH  55  69
BRANCH  56  75
ATOM     75  C   UNL A   1      39.861  28.906  29.894  1.00  0.00    -0.014 A 
ATOM     76  C   UNL A   1      39.253  27.642  29.813  1.00  0.00     0.009 A 
ATOM     77  C   UNL A   1      40.423  29.460  28.733  1.00  0.00     0.009 A 
ATOM     78  C   UNL A   1      39.254  26.928  28.613  1.00  0.00     0.001 A 
ATOM     79  C   UNL A   1      40.388  28.759  27.525  1.00  0.00     0.001 A 
ATOM     80  C   UNL A   1      39.819  27.488  27.469  1.00  0.00     0.000 A 
ENDBRANCH  56  75
BRANCH  68  81
ATOM     81  C   UNL A   1      44.585  28.878  35.069  1.00  0.00    -0.014 A 
ATOM     82  C   UNL A   1      45.781  29.446  34.599  1.00  0.00     0.009 A 
ATOM     83  C   UNL A   1      44.626  27.590  35.625  1.00  0.00     0.009 A 
ATOM     84  C   UNL A   1      46.981  28.734  34.654  1.00  0.00     0.001 A 
ATOM     85  C   UNL A   1      45.833  26.892  35.710  1.00  0.00     0.001 A 
ATOM     86  C   UNL A   1      47.007  27.458  35.212  1.00  0.00     0.000 A 
ENDBRANCH  68  81
ENDBRANCH  42  43
ENDBRANCH  34  37
ENDBRANCH  32  33
ENDBRANCH  31  32
ENDBRANCH  30  31
ENDBRANCH   1  30
TORSDOF 15
ENDMDL
MODEL 3
REMARK VINA RESULT:     -11.2      2.784      8.285
REMARK SMILES Nc1oc2ccc(F)cc2c(=O)c1[C@@H]1[NH2+][C@H](C(=O)NCCCCCCNC(=O)c2ccc(-c3c4nc(c(-c5ccccc5)c5ccc([nH]5)c(-c5ccccc5)c5nc(c(-c6ccccc6)c6ccc3[nH]6)C=C5)C=C4)cc2)CS1
REMARK SMILES IDX 22 1 21 2 20 3 19 4 17 5 18 6 16 8 14 9 15 10 78 11 77 14
REMARK SMILES IDX 13 15 2 16 3 17 4 18 11 19 5 20 10 21 12 22 6 23 9 24 7 25
REMARK SMILES IDX 8 26 1 27 23 30 24 31 25 32 26 33 27 34 28 36 29 37 30 38
REMARK SMILES IDX 76 39 31 40 75 41 32 42 33 43 34 44 69 45 35 46 74 47 68 48
REMARK SMILES IDX 70 49 36 50 73 51 67 52 66 53 37 55 59 56 44 57 58 58 45 59
REMARK SMILES IDX 48 60 57 61 71 62 46 63 47 64 56 66 72 67 49 68 38 69 39 70
REMARK SMILES IDX 43 71 40 72 42 73 41 74 60 75 61 76 65 77 62 78 64 79 63 80
REMARK SMILES IDX 50 81 51 82 55 83 52 84 54 85 53 86
REMARK H PARENT 19 7 15 12 15 13 1 28 1 29 26 35 70 54 48 65
REMARK Flexibility Score: inf
ROOT
ATOM      1  C   UNL A   1      37.124  23.314  25.031  1.00  0.00     0.002 C 
ENDROOT
BRANCH   1   2
ATOM      2  C   UNL A   1      36.348  23.034  23.719  1.00  0.00     0.021 C 
BRANCH   2   3
ATOM      3  C   UNL A   1      34.841  22.724  23.755  1.00  0.00     0.116 C 
BRANCH   3   4
ATOM      4  N   UNL A   1      34.038  23.395  22.740  1.00  0.00    -0.351 N 
ATOM      5  C   UNL A   1      33.602  24.691  22.641  1.00  0.00     0.279 C 
ATOM      6  O   UNL A   1      33.128  25.026  21.547  1.00  0.00    -0.268 OA
ATOM      7  H   UNL A   1      33.759  22.815  21.993  1.00  0.00     0.163 HD
BRANCH   5   8
ATOM      8  C   UNL A   1      33.731  25.767  23.753  1.00  0.00     0.283 C 
ATOM      9  C   UNL A   1      32.577  27.764  24.547  1.00  0.00     0.283 C 
ATOM     10  N   UNL A   1      33.138  27.064  23.372  1.00  0.00    -0.320 N 
ATOM     11  S   UNL A   1      32.796  26.736  26.020  1.00  0.00    -0.087 SA
ATOM     12  H   UNL A   1      33.861  27.649  22.951  1.00  0.00     0.348 HD
ATOM     13  H   UNL A   1      32.383  26.890  22.710  1.00  0.00     0.348 HD
ATOM     14  C   UNL A   1      33.189  25.250  25.074  1.00  0.00     0.151 C 
BRANCH   9  15
ATOM     15  C   UNL A   1      31.148  28.117  24.211  1.00  0.00     0.128 A 
ATOM     16  C   UNL A   1      30.237  27.386  23.526  1.00  0.00     0.205 A 
ATOM     17  O   UNL A   1      29.117  27.949  22.938  1.00  0.00    -0.440 OA
ATOM     18  C   UNL A   1      29.037  29.310  22.873  1.00  0.00     0.140 A 
ATOM     19  C   UNL A   1      30.785  29.526  24.540  1.00  0.00     0.205 A 
ATOM     20  C   UNL A   1      28.214  29.864  21.906  1.00  0.00     0.051 A 
ATOM     21  C   UNL A   1      29.731  30.138  23.735  1.00  0.00     0.068 A 
ATOM     22  O   UNL A   1      31.384  30.188  25.385  1.00  0.00    -0.288 OA
ATOM     23  C   UNL A   1      28.067  31.243  21.817  1.00  0.00     0.043 A 
ATOM     24  C   UNL A   1      29.495  31.515  23.742  1.00  0.00     0.055 A 
ATOM     25  C   UNL A   1      28.658  32.053  22.774  1.00  0.00     0.124 A 
ATOM     26  F   UNL A   1      28.430  33.371  22.740  1.00  0.00    -0.207 F 
BRANCH  16  27
ATOM     27  N   UNL A   1      30.350  26.061  23.221  1.00  0.00    -0.369 N 
ATOM     28  H   UNL A   1      30.112  25.380  23.891  1.00  0.00     0.159 HD
ATOM     29  H   UNL A   1      30.669  25.786  22.332  1.00  0.00     0.159 HD
ENDBRANCH  16  27
ENDBRANCH   9  15
ENDBRANCH   5   8
ENDBRANCH   3   4
ENDBRANCH   2   3
ENDBRANCH   1   2
BRANCH   1  30
ATOM     30  C   UNL A   1      38.079  22.286  25.666  1.00  0.00     0.002 C 
BRANCH  30  31
ATOM     31  C   UNL A   1      38.303  20.898  25.037  1.00  0.00     0.021 C 
BRANCH  31  32
ATOM     32  C   UNL A   1      38.691  19.693  25.909  1.00  0.00     0.116 C 
BRANCH  32  33
ATOM     33  N   UNL A   1      39.959  19.035  25.667  1.00  0.00    -0.352 N 
ATOM     34  C   UNL A   1      41.222  19.493  26.020  1.00  0.00     0.251 C 
ATOM     35  H   UNL A   1      39.921  18.169  25.202  1.00  0.00     0.163 HD
ATOM     36  O   UNL A   1      42.207  18.773  25.865  1.00  0.00    -0.269 OA
BRANCH  34  37
ATOM     37  C   UNL A   1      41.420  20.880  26.533  1.00  0.00     0.039 A 
ATOM     38  C   UNL A   1      41.797  21.933  25.699  1.00  0.00     0.014 A 
ATOM     39  C   UNL A   1      41.206  21.141  27.888  1.00  0.00     0.014 A 
ATOM     40  C   UNL A   1      42.124  23.191  26.241  1.00  0.00     0.010 A 
ATOM     41  C   UNL A   1      41.461  22.418  28.415  1.00  0.00     0.010 A 
ATOM     42  C   UNL A   1      41.984  23.451  27.615  1.00  0.00    -0.014 A 
BRANCH  42  43
ATOM     43  C   UNL A   1      42.411  24.753  28.242  1.00  0.00     0.031 A 
ATOM     44  C   UNL A   1      41.409  25.874  28.445  1.00  0.00     0.074 A 
ATOM     45  C   UNL A   1      43.685  24.978  28.632  1.00  0.00     0.049 A 
ATOM     46  N   UNL A   1      41.606  27.112  28.837  1.00  0.00    -0.248 NA
ATOM     47  C   UNL A   1      39.999  25.562  28.162  1.00  0.00     0.031 C 
ATOM     48  C   UNL A   1      44.778  24.011  28.560  1.00  0.00     0.029 A 
ATOM     49  N   UNL A   1      44.276  26.103  29.171  1.00  0.00    -0.354 N 
ATOM     50  C   UNL A   1      40.359  27.730  28.807  1.00  0.00     0.074 A 
ATOM     51  C   UNL A   1      39.417  26.742  28.328  1.00  0.00     0.031 C 
ATOM     52  C   UNL A   1      45.890  24.565  29.069  1.00  0.00     0.029 A 
ATOM     53  C   UNL A   1      45.620  25.956  29.429  1.00  0.00     0.049 A 
ATOM     54  H   UNL A   1      43.782  26.934  29.354  1.00  0.00     0.167 HD
ATOM     55  C   UNL A   1      40.016  28.994  29.158  1.00  0.00     0.031 A 
ATOM     56  C   UNL A   1      46.549  26.830  29.874  1.00  0.00     0.031 A 
ATOM     57  C   UNL A   1      40.930  29.985  29.669  1.00  0.00     0.049 A 
ATOM     58  C   UNL A   1      46.168  28.254  30.185  1.00  0.00     0.074 A 
ATOM     59  C   UNL A   1      40.648  31.281  30.074  1.00  0.00     0.029 A 
ATOM     60  N   UNL A   1      42.289  29.798  29.854  1.00  0.00    -0.354 N 
ATOM     61  N   UNL A   1      44.988  28.821  30.136  1.00  0.00    -0.248 NA
ATOM     62  C   UNL A   1      47.249  29.161  30.608  1.00  0.00     0.031 C 
ATOM     63  C   UNL A   1      41.846  31.901  30.431  1.00  0.00     0.029 A 
ATOM     64  C   UNL A   1      42.863  30.966  30.335  1.00  0.00     0.049 A 
ATOM     65  H   UNL A   1      42.776  28.962  29.672  1.00  0.00     0.167 HD
ATOM     66  C   UNL A   1      45.178  30.137  30.544  1.00  0.00     0.074 A 
ATOM     67  C   UNL A   1      46.585  30.284  30.853  1.00  0.00     0.031 C 
ATOM     68  C   UNL A   1      44.260  31.129  30.649  1.00  0.00     0.031 A 
BRANCH  55  69
ATOM     69  C   UNL A   1      38.574  29.411  29.000  1.00  0.00    -0.014 A 
ATOM     70  C   UNL A   1      37.694  29.304  30.091  1.00  0.00     0.009 A 
ATOM     71  C   UNL A   1      38.059  29.804  27.756  1.00  0.00     0.009 A 
ATOM     72  C   UNL A   1      36.331  29.567  29.938  1.00  0.00     0.001 A 
ATOM     73  C   UNL A   1      36.701  30.105  27.614  1.00  0.00     0.001 A 
ATOM     74  C   UNL A   1      35.837  29.975  28.701  1.00  0.00     0.000 A 
ENDBRANCH  55  69
BRANCH  56  75
ATOM     75  C   UNL A   1      47.954  26.367  30.056  1.00  0.00    -0.014 A 
ATOM     76  C   UNL A   1      48.875  26.426  28.997  1.00  0.00     0.009 A 
ATOM     77  C   UNL A   1      48.367  25.813  31.278  1.00  0.00     0.009 A 
ATOM     78  C   UNL A   1      50.159  25.897  29.139  1.00  0.00     0.001 A 
ATOM     79  C   UNL A   1      49.666  25.318  31.429  1.00  0.00     0.001 A 
ATOM     80  C   UNL A   1      50.554  25.345  30.356  1.00  0.00     0.000 A 
ENDBRANCH  56  75
BRANCH  68  81
ATOM     81  C   UNL A   1      44.708  32.482  31.141  1.00  0.00    -0.014 A 
ATOM     82  C   UNL A   1      44.636  32.784  32.512  1.00  0.00     0.009 A 
ATOM     83  C   UNL A   1      45.078  33.498  30.247  1.00  0.00     0.009 A 
ATOM     84  C   UNL A   1      44.897  34.076  32.973  1.00  0.00     0.001 A 
ATOM     85  C   UNL A   1      45.372  34.782  30.715  1.00  0.00     0.001 A 
ATOM     86  C   UNL A   1      45.267  35.074  32.075  1.00  0.00     0.000 A 
ENDBRANCH  68  81
ENDBRANCH  42  43
ENDBRANCH  34  37
ENDBRANCH  32  33
ENDBRANCH  31  32
ENDBRANCH  30  31
ENDBRANCH   1  30
TORSDOF 15
ENDMDL
