MODEL 1
REMARK VINA RESULT:     -12.9      0.000      0.000
REMARK SMILES Cc1ccccc1/[NH+]=C1\S[C@@H](CC(=O)Nc2ccc(C(=O)NCCCCCCNC(=O)c3ccc(-c4c5nc(c(-c6ccccc6)c6ccc([nH]6)c(-c6ccccc6)c6nc(c(-c7ccccc7)c7ccc4[nH]7)C=C6)C=C5)cc3)cc2)C(=O)N1C
REMARK SMILES IDX 24 1 23 2 22 3 20 4 21 5 19 7 16 8 17 9 81 10 18 11 80 12
REMARK SMILES IDX 15 13 13 14 14 15 12 17 11 18 8 19 9 20 10 22 84 23 82 24
REMARK SMILES IDX 85 25 83 26 7 27 1 28 2 29 3 30 4 31 6 32 5 33 25 34 26 35
REMARK SMILES IDX 27 36 28 37 29 38 30 39 31 41 32 42 33 43 79 44 34 45 78 46
REMARK SMILES IDX 35 47 36 48 37 49 72 50 38 51 77 52 71 53 73 54 39 55 76 56
REMARK SMILES IDX 70 57 69 58 40 60 62 61 47 62 61 63 48 64 51 65 60 66 74 67
REMARK SMILES IDX 49 68 50 69 59 71 75 72 52 73 41 74 42 75 46 76 43 77 45 78
REMARK SMILES IDX 44 79 63 80 64 81 68 82 65 83 67 84 66 85 53 86 54 87 58 88
REMARK SMILES IDX 55 89 57 90 56 91
REMARK H PARENT 22 6 15 16 8 21 29 40 73 59 51 70
REMARK Flexibility Score: inf
ROOT
ATOM      1  C   UNL A   1      31.069  26.671  26.927  1.00  0.00     0.021 C 
ENDROOT
BRANCH   1   2
ATOM      2  C   UNL A   1      30.710  25.593  25.899  1.00  0.00     0.116 C 
BRANCH   2   3
ATOM      3  N   UNL A   1      29.895  24.536  26.483  1.00  0.00    -0.352 N 
ATOM      4  C   UNL A   1      30.209  23.288  26.970  1.00  0.00     0.251 C 
ATOM      5  O   UNL A   1      29.346  22.663  27.585  1.00  0.00    -0.269 OA
ATOM      6  H   UNL A   1      28.937  24.757  26.540  1.00  0.00     0.163 HD
BRANCH   4   7
ATOM      7  C   UNL A   1      31.555  22.681  26.812  1.00  0.00     0.039 A 
ATOM      8  C   UNL A   1      34.171  21.723  26.528  1.00  0.00     0.041 A 
ATOM      9  C   UNL A   1      33.197  21.436  25.572  1.00  0.00     0.027 A 
ATOM     10  C   UNL A   1      33.802  22.334  27.719  1.00  0.00     0.027 A 
ATOM     11  C   UNL A   1      31.894  21.907  25.708  1.00  0.00     0.016 A 
ATOM     12  C   UNL A   1      32.495  22.827  27.850  1.00  0.00     0.016 A 
BRANCH   8  13
ATOM     13  N   UNL A   1      35.513  21.424  26.264  1.00  0.00    -0.326 N 
ATOM     14  C   UNL A   1      36.413  22.272  25.649  1.00  0.00     0.226 C 
ATOM     15  O   UNL A   1      37.482  21.853  25.209  1.00  0.00    -0.275 OA
ATOM     16  H   UNL A   1      35.842  20.538  26.540  1.00  0.00     0.169 HD
BRANCH  14  17
ATOM     17  C   UNL A   1      36.133  23.767  25.736  1.00  0.00     0.128 C 
BRANCH  17  18
ATOM     18  C   UNL A   1      35.493  24.401  24.521  1.00  0.00     0.183 C 
ATOM     19  N   UNL A   1      32.554  25.582  22.602  1.00  0.00    -0.234 N 
ATOM     20  C   UNL A   1      33.303  24.870  23.361  1.00  0.00     0.319 C 
ATOM     21  H   UNL A   1      32.314  25.166  21.741  1.00  0.00     0.313 HD
ATOM     22  S   UNL A   1      33.863  25.115  24.980  1.00  0.00    -0.022 SA
ATOM     23  N   UNL A   1      33.875  23.727  22.888  1.00  0.00    -0.193 N 
ATOM     24  C   UNL A   1      35.155  23.500  23.347  1.00  0.00     0.324 C 
ATOM     25  C   UNL A   1      33.327  22.948  21.797  1.00  0.00     0.301 C 
ATOM     26  O   UNL A   1      35.960  22.759  22.797  1.00  0.00    -0.245 OA
BRANCH  19  27
ATOM     27  C   UNL A   1      32.025  26.864  22.812  1.00  0.00     0.128 A 
ATOM     28  C   UNL A   1      34.200  28.271  22.700  1.00  0.00     0.049 C 
ATOM     29  C   UNL A   1      32.709  28.099  22.782  1.00  0.00    -0.004 A 
ATOM     30  C   UNL A   1      31.970  29.302  22.807  1.00  0.00     0.008 A 
ATOM     31  C   UNL A   1      30.580  29.302  22.766  1.00  0.00     0.001 A 
ATOM     32  C   UNL A   1      30.618  26.899  22.787  1.00  0.00     0.052 A 
ATOM     33  C   UNL A   1      29.899  28.095  22.747  1.00  0.00     0.004 A 
ENDBRANCH  19  27
ENDBRANCH  17  18
ENDBRANCH  14  17
ENDBRANCH   8  13
ENDBRANCH   4   7
ENDBRANCH   2   3
ENDBRANCH   1   2
BRANCH   1  34
ATOM     34  C   UNL A   1      31.615  27.984  26.338  1.00  0.00     0.002 C 
BRANCH  34  35
ATOM     35  C   UNL A   1      32.873  28.570  27.002  1.00  0.00     0.002 C 
BRANCH  35  36
ATOM     36  C   UNL A   1      33.366  29.904  26.437  1.00  0.00     0.021 C 
BRANCH  36  37
ATOM     37  C   UNL A   1      34.043  30.806  27.462  1.00  0.00     0.116 C 
BRANCH  37  38
ATOM     38  N   UNL A   1      33.403  32.107  27.626  1.00  0.00    -0.352 N 
ATOM     39  C   UNL A   1      33.718  33.171  28.462  1.00  0.00     0.251 C 
ATOM     40  H   UNL A   1      32.619  32.255  27.050  1.00  0.00     0.163 HD
ATOM     41  O   UNL A   1      33.007  34.154  28.484  1.00  0.00    -0.269 OA
BRANCH  39  42
ATOM     42  C   UNL A   1      35.003  33.171  29.212  1.00  0.00     0.039 A 
ATOM     43  C   UNL A   1      36.126  33.725  28.579  1.00  0.00     0.014 A 
ATOM     44  C   UNL A   1      35.158  32.454  30.390  1.00  0.00     0.014 A 
ATOM     45  C   UNL A   1      37.401  33.320  28.966  1.00  0.00     0.010 A 
ATOM     46  C   UNL A   1      36.402  31.956  30.699  1.00  0.00     0.010 A 
ATOM     47  C   UNL A   1      37.512  32.332  29.939  1.00  0.00    -0.014 A 
BRANCH  47  48
ATOM     48  C   UNL A   1      38.715  31.554  30.186  1.00  0.00     0.031 A 
ATOM     49  C   UNL A   1      38.838  30.195  29.616  1.00  0.00     0.074 A 
ATOM     50  C   UNL A   1      39.775  32.138  30.792  1.00  0.00     0.049 A 
ATOM     51  N   UNL A   1      39.676  29.313  30.043  1.00  0.00    -0.248 NA
ATOM     52  C   UNL A   1      37.979  29.693  28.546  1.00  0.00     0.031 C 
ATOM     53  C   UNL A   1      41.153  31.650  30.794  1.00  0.00     0.029 A 
ATOM     54  N   UNL A   1      39.812  33.208  31.691  1.00  0.00    -0.354 N 
ATOM     55  C   UNL A   1      39.713  28.300  29.114  1.00  0.00     0.074 A 
ATOM     56  C   UNL A   1      38.549  28.512  28.287  1.00  0.00     0.031 C 
ATOM     57  C   UNL A   1      41.800  32.189  31.840  1.00  0.00     0.029 A 
ATOM     58  C   UNL A   1      40.801  32.878  32.635  1.00  0.00     0.049 A 
ATOM     59  H   UNL A   1      39.260  34.023  31.669  1.00  0.00     0.167 HD
ATOM     60  C   UNL A   1      40.812  27.497  29.058  1.00  0.00     0.031 A 
ATOM     61  C   UNL A   1      40.555  32.629  33.958  1.00  0.00     0.031 A 
ATOM     62  C   UNL A   1      41.763  27.805  30.128  1.00  0.00     0.049 A 
ATOM     63  C   UNL A   1      41.068  31.280  34.440  1.00  0.00     0.074 A 
ATOM     64  C   UNL A   1      42.998  28.434  30.160  1.00  0.00     0.029 A 
ATOM     65  N   UNL A   1      41.359  27.678  31.448  1.00  0.00    -0.354 N 
ATOM     66  N   UNL A   1      41.449  30.318  33.648  1.00  0.00    -0.248 NA
ATOM     67  C   UNL A   1      41.102  30.873  35.843  1.00  0.00     0.031 C 
ATOM     68  C   UNL A   1      43.342  28.663  31.520  1.00  0.00     0.029 A 
ATOM     69  C   UNL A   1      42.327  28.156  32.309  1.00  0.00     0.049 A 
ATOM     70  H   UNL A   1      40.497  27.298  31.735  1.00  0.00     0.167 HD
ATOM     71  C   UNL A   1      41.749  29.192  34.374  1.00  0.00     0.074 A 
ATOM     72  C   UNL A   1      41.507  29.592  35.749  1.00  0.00     0.031 C 
ATOM     73  C   UNL A   1      42.126  28.034  33.749  1.00  0.00     0.031 A 
BRANCH  60  74
ATOM     74  C   UNL A   1      41.169  26.582  27.904  1.00  0.00    -0.014 A 
ATOM     75  C   UNL A   1      41.454  25.228  28.165  1.00  0.00     0.009 A 
ATOM     76  C   UNL A   1      41.300  26.979  26.563  1.00  0.00     0.009 A 
ATOM     77  C   UNL A   1      41.915  24.352  27.172  1.00  0.00     0.001 A 
ATOM     78  C   UNL A   1      41.769  26.114  25.564  1.00  0.00     0.001 A 
ATOM     79  C   UNL A   1      42.089  24.801  25.871  1.00  0.00     0.000 A 
ENDBRANCH  60  74
BRANCH  61  80
ATOM     80  C   UNL A   1      39.326  33.280  34.485  1.00  0.00    -0.014 A 
ATOM     81  C   UNL A   1      38.073  32.788  34.075  1.00  0.00     0.009 A 
ATOM     82  C   UNL A   1      39.391  34.081  35.635  1.00  0.00     0.009 A 
ATOM     83  C   UNL A   1      36.937  32.988  34.864  1.00  0.00     0.001 A 
ATOM     84  C   UNL A   1      38.247  34.285  36.417  1.00  0.00     0.001 A 
ATOM     85  C   UNL A   1      37.032  33.708  36.053  1.00  0.00     0.000 A 
ENDBRANCH  61  80
BRANCH  73  86
ATOM     86  C   UNL A   1      42.334  26.657  34.359  1.00  0.00    -0.014 A 
ATOM     87  C   UNL A   1      41.462  26.013  35.241  1.00  0.00     0.009 A 
ATOM     88  C   UNL A   1      43.515  25.940  34.036  1.00  0.00     0.009 A 
ATOM     89  C   UNL A   1      41.722  24.714  35.717  1.00  0.00     0.001 A 
ATOM     90  C   UNL A   1      43.782  24.650  34.502  1.00  0.00     0.001 A 
ATOM     91  C   UNL A   1      42.873  24.030  35.339  1.00  0.00     0.000 A 
ENDBRANCH  73  86
ENDBRANCH  47  48
ENDBRANCH  39  42
ENDBRANCH  37  38
ENDBRANCH  36  37
ENDBRANCH  35  36
ENDBRANCH  34  35
ENDBRANCH   1  34
TORSDOF 17
ENDMDL
MODEL 2
REMARK VINA RESULT:     -12.6      2.022      4.651
REMARK SMILES Cc1ccccc1/[NH+]=C1\S[C@@H](CC(=O)Nc2ccc(C(=O)NCCCCCCNC(=O)c3ccc(-c4c5nc(c(-c6ccccc6)c6ccc([nH]6)c(-c6ccccc6)c6nc(c(-c7ccccc7)c7ccc4[nH]7)C=C6)C=C5)cc3)cc2)C(=O)N1C
REMARK SMILES IDX 24 1 23 2 22 3 20 4 21 5 19 7 16 8 17 9 81 10 18 11 80 12
REMARK SMILES IDX 15 13 13 14 14 15 12 17 11 18 8 19 9 20 10 22 84 23 82 24
REMARK SMILES IDX 85 25 83 26 7 27 1 28 2 29 3 30 4 31 6 32 5 33 25 34 26 35
REMARK SMILES IDX 27 36 28 37 29 38 30 39 31 41 32 42 33 43 79 44 34 45 78 46
REMARK SMILES IDX 35 47 36 48 37 49 72 50 38 51 77 52 71 53 73 54 39 55 76 56
REMARK SMILES IDX 70 57 69 58 40 60 62 61 47 62 61 63 48 64 51 65 60 66 74 67
REMARK SMILES IDX 49 68 50 69 59 71 75 72 52 73 41 74 42 75 46 76 43 77 45 78
REMARK SMILES IDX 44 79 63 80 64 81 68 82 65 83 67 84 66 85 53 86 54 87 58 88
REMARK SMILES IDX 55 89 57 90 56 91
REMARK H PARENT 22 6 15 16 8 21 29 40 73 59 51 70
REMARK Flexibility Score: inf
ROOT
ATOM      1  C   UNL A   1      35.062  31.932  27.978  1.00  0.00     0.021 C 
ENDROOT
BRANCH   1   2
ATOM      2  C   UNL A   1      34.782  30.499  27.514  1.00  0.00     0.116 C 
BRANCH   2   3
ATOM      3  N   UNL A   1      33.401  30.109  27.760  1.00  0.00    -0.352 N 
ATOM      4  C   UNL A   1      32.513  29.345  27.039  1.00  0.00     0.251 C 
ATOM      5  O   UNL A   1      31.454  29.014  27.570  1.00  0.00    -0.269 OA
ATOM      6  H   UNL A   1      33.032  30.459  28.603  1.00  0.00     0.163 HD
BRANCH   4   7
ATOM      7  C   UNL A   1      32.795  28.876  25.658  1.00  0.00     0.039 A 
ATOM      8  C   UNL A   1      33.139  27.918  23.050  1.00  0.00     0.041 A 
ATOM      9  C   UNL A   1      34.010  27.540  24.070  1.00  0.00     0.027 A 
ATOM     10  C   UNL A   1      32.203  28.916  23.283  1.00  0.00     0.027 A 
ATOM     11  C   UNL A   1      33.847  28.014  25.369  1.00  0.00     0.016 A 
ATOM     12  C   UNL A   1      32.022  29.382  24.595  1.00  0.00     0.016 A 
BRANCH   8  13
ATOM     13  N   UNL A   1      33.193  27.265  21.811  1.00  0.00    -0.326 N 
ATOM     14  C   UNL A   1      32.772  25.972  21.574  1.00  0.00     0.226 C 
ATOM     15  O   UNL A   1      33.096  25.378  20.546  1.00  0.00    -0.275 OA
ATOM     16  H   UNL A   1      33.560  27.769  21.050  1.00  0.00     0.169 HD
BRANCH  14  17
ATOM     17  C   UNL A   1      31.722  25.396  22.514  1.00  0.00     0.128 C 
BRANCH  17  18
ATOM     18  C   UNL A   1      32.223  24.445  23.578  1.00  0.00     0.183 C 
ATOM     19  N   UNL A   1      32.286  21.147  25.265  1.00  0.00    -0.234 N 
ATOM     20  C   UNL A   1      31.860  22.195  24.660  1.00  0.00     0.319 C 
ATOM     21  H   UNL A   1      31.990  21.055  26.199  1.00  0.00     0.313 HD
ATOM     22  S   UNL A   1      32.002  22.710  23.014  1.00  0.00    -0.022 SA
ATOM     23  N   UNL A   1      31.228  23.182  25.354  1.00  0.00    -0.193 N 
ATOM     24  C   UNL A   1      31.525  24.459  24.925  1.00  0.00     0.324 C 
ATOM     25  C   UNL A   1      30.523  22.961  26.600  1.00  0.00     0.301 C 
ATOM     26  O   UNL A   1      31.363  25.466  25.604  1.00  0.00    -0.245 OA
BRANCH  19  27
ATOM     27  C   UNL A   1      33.112  20.115  24.795  1.00  0.00     0.128 A 
ATOM     28  C   UNL A   1      35.434  21.067  25.444  1.00  0.00     0.049 C 
ATOM     29  C   UNL A   1      34.513  19.998  24.928  1.00  0.00    -0.004 A 
ATOM     30  C   UNL A   1      35.144  18.784  24.577  1.00  0.00     0.008 A 
ATOM     31  C   UNL A   1      34.408  17.668  24.192  1.00  0.00     0.001 A 
ATOM     32  C   UNL A   1      32.398  18.972  24.388  1.00  0.00     0.052 A 
ATOM     33  C   UNL A   1      33.028  17.758  24.106  1.00  0.00     0.004 A 
ENDBRANCH  19  27
ENDBRANCH  17  18
ENDBRANCH  14  17
ENDBRANCH   8  13
ENDBRANCH   4   7
ENDBRANCH   2   3
ENDBRANCH   1   2
BRANCH   1  34
ATOM     34  C   UNL A   1      33.816  32.762  28.336  1.00  0.00     0.002 C 
BRANCH  34  35
ATOM     35  C   UNL A   1      33.897  34.277  28.081  1.00  0.00     0.002 C 
BRANCH  35  36
ATOM     36  C   UNL A   1      32.944  35.145  28.906  1.00  0.00     0.021 C 
BRANCH  36  37
ATOM     37  C   UNL A   1      33.517  35.609  30.240  1.00  0.00     0.116 C 
BRANCH  37  38
ATOM     38  N   UNL A   1      33.037  34.850  31.390  1.00  0.00    -0.352 N 
ATOM     39  C   UNL A   1      33.716  34.020  32.274  1.00  0.00     0.251 C 
ATOM     40  H   UNL A   1      32.073  34.939  31.569  1.00  0.00     0.163 HD
ATOM     41  O   UNL A   1      33.106  33.428  33.139  1.00  0.00    -0.269 OA
BRANCH  39  42
ATOM     42  C   UNL A   1      35.204  33.979  32.258  1.00  0.00     0.039 A 
ATOM     43  C   UNL A   1      35.846  34.109  31.017  1.00  0.00     0.014 A 
ATOM     44  C   UNL A   1      35.933  33.601  33.377  1.00  0.00     0.014 A 
ATOM     45  C   UNL A   1      37.127  33.589  30.851  1.00  0.00     0.010 A 
ATOM     46  C   UNL A   1      37.145  32.977  33.193  1.00  0.00     0.010 A 
ATOM     47  C   UNL A   1      37.705  32.906  31.916  1.00  0.00    -0.014 A 
BRANCH  47  48
ATOM     48  C   UNL A   1      38.844  32.011  31.796  1.00  0.00     0.031 A 
ATOM     49  C   UNL A   1      38.689  30.720  31.092  1.00  0.00     0.074 A 
ATOM     50  C   UNL A   1      40.071  32.435  32.181  1.00  0.00     0.049 A 
ATOM     51  N   UNL A   1      39.505  29.730  31.224  1.00  0.00    -0.248 NA
ATOM     52  C   UNL A   1      37.559  30.413  30.218  1.00  0.00     0.031 C 
ATOM     53  C   UNL A   1      41.353  31.839  31.808  1.00  0.00     0.029 A 
ATOM     54  N   UNL A   1      40.426  33.389  33.139  1.00  0.00    -0.354 N 
ATOM     55  C   UNL A   1      39.220  28.829  30.224  1.00  0.00     0.074 A 
ATOM     56  C   UNL A   1      37.926  29.227  29.724  1.00  0.00     0.031 C 
ATOM     57  C   UNL A   1      42.276  32.201  32.713  1.00  0.00     0.029 A 
ATOM     58  C   UNL A   1      41.565  32.875  33.784  1.00  0.00     0.049 A 
ATOM     59  H   UNL A   1      39.973  34.243  33.323  1.00  0.00     0.167 HD
ATOM     60  C   UNL A   1      40.185  27.951  29.834  1.00  0.00     0.031 A 
ATOM     61  C   UNL A   1      41.605  32.498  35.098  1.00  0.00     0.031 A 
ATOM     62  C   UNL A   1      41.384  28.057  30.668  1.00  0.00     0.049 A 
ATOM     63  C   UNL A   1      42.070  31.066  35.319  1.00  0.00     0.074 A 
ATOM     64  C   UNL A   1      42.652  28.576  30.460  1.00  0.00     0.029 A 
ATOM     65  N   UNL A   1      41.284  27.815  32.030  1.00  0.00    -0.354 N 
ATOM     66  N   UNL A   1      42.155  30.173  34.374  1.00  0.00    -0.248 NA
ATOM     67  C   UNL A   1      42.383  30.502  36.630  1.00  0.00     0.031 C 
ATOM     68  C   UNL A   1      43.322  28.621  31.713  1.00  0.00     0.029 A 
ATOM     69  C   UNL A   1      42.468  28.112  32.673  1.00  0.00     0.049 A 
ATOM     70  H   UNL A   1      40.475  27.477  32.479  1.00  0.00     0.167 HD
ATOM     71  C   UNL A   1      42.493  28.951  34.902  1.00  0.00     0.074 A 
ATOM     72  C   UNL A   1      42.618  29.211  36.325  1.00  0.00     0.031 C 
ATOM     73  C   UNL A   1      42.592  27.844  34.102  1.00  0.00     0.031 A 
BRANCH  60  74
ATOM     74  C   UNL A   1      40.169  27.147  28.550  1.00  0.00    -0.014 A 
ATOM     75  C   UNL A   1      39.469  25.925  28.515  1.00  0.00     0.009 A 
ATOM     76  C   UNL A   1      40.851  27.486  27.370  1.00  0.00     0.009 A 
ATOM     77  C   UNL A   1      39.512  25.066  27.407  1.00  0.00     0.001 A 
ATOM     78  C   UNL A   1      40.909  26.630  26.260  1.00  0.00     0.001 A 
ATOM     79  C   UNL A   1      40.249  25.411  26.284  1.00  0.00     0.000 A 
ENDBRANCH  60  74
BRANCH  61  80
ATOM     80  C   UNL A   1      40.606  33.183  35.962  1.00  0.00    -0.014 A 
ATOM     81  C   UNL A   1      39.346  32.584  36.141  1.00  0.00     0.009 A 
ATOM     82  C   UNL A   1      41.019  34.168  36.873  1.00  0.00     0.009 A 
ATOM     83  C   UNL A   1      38.575  32.871  37.271  1.00  0.00     0.001 A 
ATOM     84  C   UNL A   1      40.238  34.458  37.998  1.00  0.00     0.001 A 
ATOM     85  C   UNL A   1      39.038  33.783  38.217  1.00  0.00     0.000 A 
ENDBRANCH  61  80
BRANCH  73  86
ATOM     86  C   UNL A   1      42.788  26.395  34.517  1.00  0.00    -0.014 A 
ATOM     87  C   UNL A   1      41.938  25.660  35.348  1.00  0.00     0.009 A 
ATOM     88  C   UNL A   1      43.933  25.701  34.046  1.00  0.00     0.009 A 
ATOM     89  C   UNL A   1      42.183  24.305  35.637  1.00  0.00     0.001 A 
ATOM     90  C   UNL A   1      44.184  24.356  34.327  1.00  0.00     0.001 A 
ATOM     91  C   UNL A   1      43.297  23.651  35.119  1.00  0.00     0.000 A 
ENDBRANCH  73  86
ENDBRANCH  47  48
ENDBRANCH  39  42
ENDBRANCH  37  38
ENDBRANCH  36  37
ENDBRANCH  35  36
ENDBRANCH  34  35
ENDBRANCH   1  34
TORSDOF 17
ENDMDL
MODEL 3
REMARK VINA RESULT:     -12.5      4.028      9.169
REMARK SMILES Cc1ccccc1/[NH+]=C1\S[C@@H](CC(=O)Nc2ccc(C(=O)NCCCCCCNC(=O)c3ccc(-c4c5nc(c(-c6ccccc6)c6ccc([nH]6)c(-c6ccccc6)c6nc(c(-c7ccccc7)c7ccc4[nH]7)C=C6)C=C5)cc3)cc2)C(=O)N1C
REMARK SMILES IDX 24 1 23 2 22 3 20 4 21 5 19 7 16 8 17 9 81 10 18 11 80 12
REMARK SMILES IDX 15 13 13 14 14 15 12 17 11 18 8 19 9 20 10 22 84 23 82 24
REMARK SMILES IDX 85 25 83 26 7 27 1 28 2 29 3 30 4 31 6 32 5 33 25 34 26 35
REMARK SMILES IDX 27 36 28 37 29 38 30 39 31 41 32 42 33 43 79 44 34 45 78 46
REMARK SMILES IDX 35 47 36 48 37 49 72 50 38 51 77 52 71 53 73 54 39 55 76 56
REMARK SMILES IDX 70 57 69 58 40 60 62 61 47 62 61 63 48 64 51 65 60 66 74 67
REMARK SMILES IDX 49 68 50 69 59 71 75 72 52 73 41 74 42 75 46 76 43 77 45 78
REMARK SMILES IDX 44 79 63 80 64 81 68 82 65 83 67 84 66 85 53 86 54 87 58 88
REMARK SMILES IDX 55 89 57 90 56 91
REMARK H PARENT 22 6 15 16 8 21 29 40 73 59 51 70
REMARK Flexibility Score: inf
ROOT
ATOM      1  C   UNL A   1      38.793  22.981  26.708  1.00  0.00     0.021 C 
ENDROOT
BRANCH   1   2
ATOM      2  C   UNL A   1      38.499  21.738  25.862  1.00  0.00     0.116 C 
BRANCH   2   3
ATOM      3  N   UNL A   1      37.974  22.087  24.549  1.00  0.00    -0.352 N 
ATOM      4  C   UNL A   1      36.733  22.508  24.131  1.00  0.00     0.251 C 
ATOM      5  O   UNL A   1      36.608  22.918  22.978  1.00  0.00    -0.269 OA
ATOM      6  H   UNL A   1      38.633  22.006  23.822  1.00  0.00     0.163 HD
BRANCH   4   7
ATOM      7  C   UNL A   1      35.547  22.519  25.024  1.00  0.00     0.039 A 
ATOM      8  C   UNL A   1      33.194  22.523  26.543  1.00  0.00     0.041 A 
ATOM      9  C   UNL A   1      34.110  23.568  26.643  1.00  0.00     0.027 A 
ATOM     10  C   UNL A   1      33.530  21.384  25.824  1.00  0.00     0.027 A 
ATOM     11  C   UNL A   1      35.283  23.572  25.893  1.00  0.00     0.016 A 
ATOM     12  C   UNL A   1      34.701  21.393  25.050  1.00  0.00     0.016 A 
BRANCH   8  13
ATOM     13  N   UNL A   1      31.932  22.644  27.139  1.00  0.00    -0.326 N 
ATOM     14  C   UNL A   1      30.853  23.309  26.592  1.00  0.00     0.226 C 
ATOM     15  O   UNL A   1      29.877  23.607  27.278  1.00  0.00    -0.275 OA
ATOM     16  H   UNL A   1      31.805  22.221  28.018  1.00  0.00     0.169 HD
BRANCH  14  17
ATOM     17  C   UNL A   1      30.822  23.459  25.077  1.00  0.00     0.128 C 
BRANCH  17  18
ATOM     18  C   UNL A   1      31.263  24.797  24.525  1.00  0.00     0.183 C 
ATOM     19  N   UNL A   1      30.750  27.820  22.448  1.00  0.00    -0.234 N 
ATOM     20  C   UNL A   1      30.741  26.599  22.839  1.00  0.00     0.319 C 
ATOM     21  H   UNL A   1      31.336  28.008  21.679  1.00  0.00     0.313 HD
ATOM     22  S   UNL A   1      29.792  25.782  24.035  1.00  0.00    -0.022 SA
ATOM     23  N   UNL A   1      31.645  25.709  22.343  1.00  0.00    -0.193 N 
ATOM     24  C   UNL A   1      32.112  24.798  23.267  1.00  0.00     0.324 C 
ATOM     25  C   UNL A   1      32.281  25.850  21.050  1.00  0.00     0.301 C 
ATOM     26  O   UNL A   1      33.153  24.165  23.141  1.00  0.00    -0.245 OA
BRANCH  19  27
ATOM     27  C   UNL A   1      30.051  28.928  22.950  1.00  0.00     0.128 A 
ATOM     28  C   UNL A   1      31.547  29.517  24.984  1.00  0.00     0.049 C 
ATOM     29  C   UNL A   1      30.414  29.765  24.028  1.00  0.00    -0.004 A 
ATOM     30  C   UNL A   1      29.693  30.958  24.253  1.00  0.00     0.008 A 
ATOM     31  C   UNL A   1      28.692  31.377  23.382  1.00  0.00     0.001 A 
ATOM     32  C   UNL A   1      29.024  29.373  22.097  1.00  0.00     0.052 A 
ATOM     33  C   UNL A   1      28.361  30.587  22.294  1.00  0.00     0.004 A 
ENDBRANCH  19  27
ENDBRANCH  17  18
ENDBRANCH  14  17
ENDBRANCH   8  13
ENDBRANCH   4   7
ENDBRANCH   2   3
ENDBRANCH   1   2
BRANCH   1  34
ATOM     34  C   UNL A   1      40.264  23.158  27.126  1.00  0.00     0.002 C 
BRANCH  34  35
ATOM     35  C   UNL A   1      40.917  21.985  27.876  1.00  0.00     0.002 C 
BRANCH  35  36
ATOM     36  C   UNL A   1      42.049  21.268  27.138  1.00  0.00     0.021 C 
BRANCH  36  37
ATOM     37  C   UNL A   1      42.396  21.873  25.784  1.00  0.00     0.116 C 
BRANCH  37  38
ATOM     38  N   UNL A   1      43.466  21.177  25.077  1.00  0.00    -0.352 N 
ATOM     39  C   UNL A   1      44.781  21.552  24.831  1.00  0.00     0.251 C 
ATOM     40  H   UNL A   1      43.215  20.298  24.714  1.00  0.00     0.163 HD
ATOM     41  O   UNL A   1      45.498  20.840  24.159  1.00  0.00    -0.269 OA
BRANCH  39  42
ATOM     42  C   UNL A   1      45.353  22.744  25.515  1.00  0.00     0.039 A 
ATOM     43  C   UNL A   1      45.568  22.659  26.899  1.00  0.00     0.014 A 
ATOM     44  C   UNL A   1      45.462  23.969  24.873  1.00  0.00     0.014 A 
ATOM     45  C   UNL A   1      45.603  23.825  27.660  1.00  0.00     0.010 A 
ATOM     46  C   UNL A   1      45.372  25.117  25.625  1.00  0.00     0.010 A 
ATOM     47  C   UNL A   1      45.368  25.037  27.020  1.00  0.00    -0.014 A 
BRANCH  47  48
ATOM     48  C   UNL A   1      45.012  26.271  27.702  1.00  0.00     0.031 A 
ATOM     49  C   UNL A   1      43.602  26.717  27.719  1.00  0.00     0.074 A 
ATOM     50  C   UNL A   1      45.939  26.911  28.452  1.00  0.00     0.049 A 
ATOM     51  N   UNL A   1      43.237  27.925  27.983  1.00  0.00    -0.248 NA
ATOM     52  C   UNL A   1      42.480  25.843  27.383  1.00  0.00     0.031 C 
ATOM     53  C   UNL A   1      45.682  27.923  29.475  1.00  0.00     0.029 A 
ATOM     54  N   UNL A   1      47.332  26.920  28.333  1.00  0.00    -0.354 N 
ATOM     55  C   UNL A   1      41.878  27.905  28.193  1.00  0.00     0.074 A 
ATOM     56  C   UNL A   1      41.440  26.632  27.671  1.00  0.00     0.031 C 
ATOM     57  C   UNL A   1      46.799  28.647  29.655  1.00  0.00     0.029 A 
ATOM     58  C   UNL A   1      47.729  28.238  28.620  1.00  0.00     0.049 A 
ATOM     59  H   UNL A   1      47.914  26.162  28.098  1.00  0.00     0.167 HD
ATOM     60  C   UNL A   1      41.309  28.902  28.926  1.00  0.00     0.031 A 
ATOM     61  C   UNL A   1      48.303  29.088  27.714  1.00  0.00     0.031 A 
ATOM     62  C   UNL A   1      42.286  29.931  29.290  1.00  0.00     0.049 A 
ATOM     63  C   UNL A   1      47.569  30.412  27.555  1.00  0.00     0.074 A 
ATOM     64  C   UNL A   1      42.920  30.274  30.473  1.00  0.00     0.029 A 
ATOM     65  N   UNL A   1      42.940  30.627  28.284  1.00  0.00    -0.354 N 
ATOM     66  N   UNL A   1      46.365  30.637  28.001  1.00  0.00    -0.248 NA
ATOM     67  C   UNL A   1      48.091  31.550  26.802  1.00  0.00     0.031 C 
ATOM     68  C   UNL A   1      43.951  31.204  30.169  1.00  0.00     0.029 A 
ATOM     69  C   UNL A   1      43.927  31.438  28.806  1.00  0.00     0.049 A 
ATOM     70  H   UNL A   1      42.729  30.552  27.325  1.00  0.00     0.167 HD
ATOM     71  C   UNL A   1      45.935  31.880  27.605  1.00  0.00     0.074 A 
ATOM     72  C   UNL A   1      47.056  32.409  26.849  1.00  0.00     0.031 C 
ATOM     73  C   UNL A   1      44.675  32.318  27.915  1.00  0.00     0.031 A 
BRANCH  60  74
ATOM     74  C   UNL A   1      39.924  28.857  29.538  1.00  0.00    -0.014 A 
ATOM     75  C   UNL A   1      38.989  29.853  29.192  1.00  0.00     0.009 A 
ATOM     76  C   UNL A   1      39.484  27.920  30.487  1.00  0.00     0.009 A 
ATOM     77  C   UNL A   1      37.734  29.953  29.810  1.00  0.00     0.001 A 
ATOM     78  C   UNL A   1      38.235  28.016  31.118  1.00  0.00     0.001 A 
ATOM     79  C   UNL A   1      37.364  29.042  30.788  1.00  0.00     0.000 A 
ENDBRANCH  60  74
BRANCH  61  80
ATOM     80  C   UNL A   1      49.021  28.405  26.604  1.00  0.00    -0.014 A 
ATOM     81  C   UNL A   1      50.319  27.918  26.840  1.00  0.00     0.009 A 
ATOM     82  C   UNL A   1      48.308  27.914  25.500  1.00  0.00     0.009 A 
ATOM     83  C   UNL A   1      50.840  26.876  26.067  1.00  0.00     0.001 A 
ATOM     84  C   UNL A   1      48.838  26.877  24.723  1.00  0.00     0.001 A 
ATOM     85  C   UNL A   1      50.084  26.333  25.030  1.00  0.00     0.000 A 
ENDBRANCH  61  80
BRANCH  73  86
ATOM     86  C   UNL A   1      43.968  33.574  27.432  1.00  0.00    -0.014 A 
ATOM     87  C   UNL A   1      43.882  34.005  26.106  1.00  0.00     0.009 A 
ATOM     88  C   UNL A   1      43.340  34.412  28.390  1.00  0.00     0.009 A 
ATOM     89  C   UNL A   1      43.162  35.162  25.754  1.00  0.00     0.001 A 
ATOM     90  C   UNL A   1      42.623  35.562  28.049  1.00  0.00     0.001 A 
ATOM     91  C   UNL A   1      42.525  35.932  26.721  1.00  0.00     0.000 A 
ENDBRANCH  73  86
ENDBRANCH  47  48
ENDBRANCH  39  42
ENDBRANCH  37  38
ENDBRANCH  36  37
ENDBRANCH  35  36
ENDBRANCH  34  35
ENDBRANCH   1  34
TORSDOF 17
ENDMDL
