MODEL 1
REMARK VINA RESULT:     -10.9      0.000      0.000
REMARK SMILES O=C(NCCCCCCNC(=O)[C@H]1C[C@@H]2N=CN=C2C[NH2+]1)c1ccc(-c2c3nc(c(-c4ccccc4)c4ccc([nH]4)c(-c4ccccc4)c4nc(c(-c5ccccc5)c5ccc2[nH]5)C=C4)C=C3)cc1
REMARK SMILES IDX 5 1 4 2 3 3 1 4 2 5 22 7 23 8 69 9 24 10 68 11 25 12 26 13
REMARK SMILES IDX 27 14 62 15 28 16 67 17 61 18 63 19 29 20 66 21 60 22 59 23
REMARK SMILES IDX 30 25 52 26 37 27 51 28 38 29 41 30 50 31 64 32 39 33 40 34
REMARK SMILES IDX 49 36 65 37 42 38 31 39 32 40 36 41 33 42 35 43 34 44 53 45
REMARK SMILES IDX 54 46 58 47 55 48 57 49 56 50 43 51 44 52 48 53 45 54 47 55
REMARK SMILES IDX 46 56 6 57 7 58 8 59 9 60 10 61 11 62 12 64 13 65 14 66
REMARK SMILES IDX 21 67 15 68 20 69 16 72 19 73 17 74 18 75
REMARK H PARENT 3 6 63 24 41 35 10 63 21 70 21 71
REMARK Flexibility Score: inf
ROOT
ATOM      1  C   UNL A   1      33.703  30.658  27.655  1.00  0.00     0.021 C 
ENDROOT
BRANCH   1   2
ATOM      2  C   UNL A   1      34.513  31.900  28.014  1.00  0.00     0.116 C 
BRANCH   2   3
ATOM      3  N   UNL A   1      34.550  32.203  29.427  1.00  0.00    -0.352 N 
ATOM      4  O   UNL A   1      35.163  32.414  31.544  1.00  0.00    -0.269 OA
ATOM      5  C   UNL A   1      35.438  31.950  30.433  1.00  0.00     0.251 C 
ATOM      6  H   UNL A   1      33.759  32.702  29.733  1.00  0.00     0.163 HD
BRANCH   5   7
ATOM      7  C   UNL A   1      36.670  31.129  30.292  1.00  0.00     0.039 A 
ATOM      8  C   UNL A   1      37.966  31.629  30.160  1.00  0.00     0.014 A 
ATOM      9  C   UNL A   1      36.490  29.735  30.349  1.00  0.00     0.014 A 
ATOM     10  C   UNL A   1      39.050  30.761  30.034  1.00  0.00     0.010 A 
ATOM     11  C   UNL A   1      37.572  28.864  30.253  1.00  0.00     0.010 A 
ATOM     12  C   UNL A   1      38.855  29.378  30.078  1.00  0.00    -0.014 A 
BRANCH  12  13
ATOM     13  C   UNL A   1      40.039  28.518  30.099  1.00  0.00     0.031 A 
ATOM     14  C   UNL A   1      40.715  28.358  31.423  1.00  0.00     0.074 A 
ATOM     15  C   UNL A   1      40.424  27.740  29.069  1.00  0.00     0.049 A 
ATOM     16  N   UNL A   1      41.963  28.532  31.722  1.00  0.00    -0.248 NA
ATOM     17  C   UNL A   1      39.873  27.973  32.569  1.00  0.00     0.031 C 
ATOM     18  C   UNL A   1      39.707  27.489  27.817  1.00  0.00     0.029 A 
ATOM     19  N   UNL A   1      41.498  26.899  28.992  1.00  0.00    -0.354 N 
ATOM     20  C   UNL A   1      42.101  28.149  33.056  1.00  0.00     0.074 A 
ATOM     21  C   UNL A   1      40.771  27.893  33.550  1.00  0.00     0.031 C 
ATOM     22  C   UNL A   1      40.238  26.401  27.217  1.00  0.00     0.029 A 
ATOM     23  C   UNL A   1      41.401  25.964  27.974  1.00  0.00     0.049 A 
ATOM     24  H   UNL A   1      42.268  26.952  29.603  1.00  0.00     0.167 HD
ATOM     25  C   UNL A   1      43.306  27.909  33.642  1.00  0.00     0.031 A 
ATOM     26  C   UNL A   1      42.174  24.867  27.798  1.00  0.00     0.031 A 
ATOM     27  C   UNL A   1      44.405  28.473  32.912  1.00  0.00     0.049 A 
ATOM     28  C   UNL A   1      43.411  25.031  28.592  1.00  0.00     0.074 A 
ATOM     29  C   UNL A   1      44.781  29.747  32.538  1.00  0.00     0.029 A 
ATOM     30  N   UNL A   1      45.194  27.623  32.179  1.00  0.00    -0.354 N 
ATOM     31  N   UNL A   1      44.356  25.876  28.304  1.00  0.00    -0.248 NA
ATOM     32  C   UNL A   1      43.458  24.476  29.935  1.00  0.00     0.031 C 
ATOM     33  C   UNL A   1      45.414  29.589  31.271  1.00  0.00     0.029 A 
ATOM     34  C   UNL A   1      45.399  28.227  30.966  1.00  0.00     0.049 A 
ATOM     35  H   UNL A   1      45.544  26.750  32.469  1.00  0.00     0.167 HD
ATOM     36  C   UNL A   1      44.858  26.279  29.532  1.00  0.00     0.074 A 
ATOM     37  C   UNL A   1      44.365  25.288  30.482  1.00  0.00     0.031 C 
ATOM     38  C   UNL A   1      45.388  27.525  29.703  1.00  0.00     0.031 A 
BRANCH  25  39
ATOM     39  C   UNL A   1      43.517  26.880  34.725  1.00  0.00    -0.014 A 
ATOM     40  C   UNL A   1      44.144  27.260  35.926  1.00  0.00     0.009 A 
ATOM     41  C   UNL A   1      43.368  25.499  34.496  1.00  0.00     0.009 A 
ATOM     42  C   UNL A   1      44.635  26.305  36.825  1.00  0.00     0.001 A 
ATOM     43  C   UNL A   1      43.818  24.544  35.412  1.00  0.00     0.001 A 
ATOM     44  C   UNL A   1      44.474  24.947  36.566  1.00  0.00     0.000 A 
ENDBRANCH  25  39
BRANCH  26  45
ATOM     45  C   UNL A   1      41.817  23.581  27.166  1.00  0.00    -0.014 A 
ATOM     46  C   UNL A   1      42.658  22.992  26.211  1.00  0.00     0.009 A 
ATOM     47  C   UNL A   1      40.764  22.807  27.683  1.00  0.00     0.009 A 
ATOM     48  C   UNL A   1      42.467  21.663  25.811  1.00  0.00     0.001 A 
ATOM     49  C   UNL A   1      40.568  21.483  27.278  1.00  0.00     0.001 A 
ATOM     50  C   UNL A   1      41.429  20.907  26.352  1.00  0.00     0.000 A 
ENDBRANCH  26  45
BRANCH  38  51
ATOM     51  C   UNL A   1      45.671  28.349  28.470  1.00  0.00    -0.014 A 
ATOM     52  C   UNL A   1      44.719  29.214  27.903  1.00  0.00     0.009 A 
ATOM     53  C   UNL A   1      46.974  28.367  27.955  1.00  0.00     0.009 A 
ATOM     54  C   UNL A   1      45.050  30.038  26.824  1.00  0.00     0.001 A 
ATOM     55  C   UNL A   1      47.312  29.209  26.892  1.00  0.00     0.001 A 
ATOM     56  C   UNL A   1      46.348  30.038  26.321  1.00  0.00     0.000 A 
ENDBRANCH  38  51
ENDBRANCH  12  13
ENDBRANCH   5   7
ENDBRANCH   2   3
ENDBRANCH   1   2
BRANCH   1  57
ATOM     57  C   UNL A   1      34.525  29.438  27.224  1.00  0.00     0.002 C 
BRANCH  57  58
ATOM     58  C   UNL A   1      34.070  28.704  25.958  1.00  0.00     0.002 C 
BRANCH  58  59
ATOM     59  C   UNL A   1      33.014  29.400  25.097  1.00  0.00     0.021 C 
BRANCH  59  60
ATOM     60  C   UNL A   1      31.687  28.672  24.955  1.00  0.00     0.116 C 
BRANCH  60  61
ATOM     61  N   UNL A   1      31.617  27.765  23.825  1.00  0.00    -0.351 N 
ATOM     62  C   UNL A   1      30.762  27.855  22.752  1.00  0.00     0.278 C 
ATOM     63  H   UNL A   1      32.246  27.008  23.827  1.00  0.00     0.163 HD
ATOM     64  O   UNL A   1      30.963  27.152  21.761  1.00  0.00    -0.268 OA
BRANCH  62  65
ATOM     65  C   UNL A   1      29.581  28.839  22.844  1.00  0.00     0.275 C 
ATOM     66  C   UNL A   1      29.391  29.629  21.534  1.00  0.00     0.109 C 
ATOM     67  N   UNL A   1      28.329  28.139  23.263  1.00  0.00    -0.331 N 
ATOM     68  C   UNL A   1      28.353  30.726  21.721  1.00  0.00     0.164 C 
ATOM     69  C   UNL A   1      27.093  28.898  22.986  1.00  0.00     0.316 C 
ATOM     70  H   UNL A   1      28.380  27.965  24.267  1.00  0.00     0.347 HD
ATOM     71  H   UNL A   1      28.276  27.280  22.717  1.00  0.00     0.347 HD
ATOM     72  N   UNL A   1      28.918  31.997  22.225  1.00  0.00    -0.264 NA
ATOM     73  C   UNL A   1      27.479  30.338  22.862  1.00  0.00     0.098 C 
ATOM     74  C   UNL A   1      28.250  32.230  23.317  1.00  0.00     0.216 C 
ATOM     75  N   UNL A   1      27.376  31.266  23.753  1.00  0.00    -0.238 NA
ENDBRANCH  62  65
ENDBRANCH  60  61
ENDBRANCH  59  60
ENDBRANCH  58  59
ENDBRANCH  57  58
ENDBRANCH   1  57
TORSDOF 13
ENDMDL
MODEL 2
REMARK VINA RESULT:     -10.6      2.847      4.156
REMARK SMILES O=C(NCCCCCCNC(=O)[C@H]1C[C@@H]2N=CN=C2C[NH2+]1)c1ccc(-c2c3nc(c(-c4ccccc4)c4ccc([nH]4)c(-c4ccccc4)c4nc(c(-c5ccccc5)c5ccc2[nH]5)C=C4)C=C3)cc1
REMARK SMILES IDX 5 1 4 2 3 3 1 4 2 5 22 7 23 8 69 9 24 10 68 11 25 12 26 13
REMARK SMILES IDX 27 14 62 15 28 16 67 17 61 18 63 19 29 20 66 21 60 22 59 23
REMARK SMILES IDX 30 25 52 26 37 27 51 28 38 29 41 30 50 31 64 32 39 33 40 34
REMARK SMILES IDX 49 36 65 37 42 38 31 39 32 40 36 41 33 42 35 43 34 44 53 45
REMARK SMILES IDX 54 46 58 47 55 48 57 49 56 50 43 51 44 52 48 53 45 54 47 55
REMARK SMILES IDX 46 56 6 57 7 58 8 59 9 60 10 61 11 62 12 64 13 65 14 66
REMARK SMILES IDX 21 67 15 68 20 69 16 72 19 73 17 74 18 75
REMARK H PARENT 3 6 63 24 41 35 10 63 21 70 21 71
REMARK Flexibility Score: inf
ROOT
ATOM      1  C   UNL A   1      32.362  30.400  26.924  1.00  0.00     0.021 C 
ENDROOT
BRANCH   1   2
ATOM      2  C   UNL A   1      33.842  30.573  27.251  1.00  0.00     0.116 C 
BRANCH   2   3
ATOM      3  N   UNL A   1      34.109  31.437  28.379  1.00  0.00    -0.352 N 
ATOM      4  O   UNL A   1      35.065  32.481  30.081  1.00  0.00    -0.269 OA
ATOM      5  C   UNL A   1      35.159  31.582  29.240  1.00  0.00     0.251 C 
ATOM      6  H   UNL A   1      33.371  32.058  28.569  1.00  0.00     0.163 HD
BRANCH   5   7
ATOM      7  C   UNL A   1      36.367  30.714  29.262  1.00  0.00     0.039 A 
ATOM      8  C   UNL A   1      37.445  30.805  28.381  1.00  0.00     0.014 A 
ATOM      9  C   UNL A   1      36.423  29.763  30.297  1.00  0.00     0.014 A 
ATOM     10  C   UNL A   1      38.528  29.935  28.496  1.00  0.00     0.010 A 
ATOM     11  C   UNL A   1      37.514  28.911  30.434  1.00  0.00     0.010 A 
ATOM     12  C   UNL A   1      38.564  28.985  29.521  1.00  0.00    -0.014 A 
BRANCH  12  13
ATOM     13  C   UNL A   1      39.790  28.205  29.690  1.00  0.00     0.031 A 
ATOM     14  C   UNL A   1      40.378  28.190  31.066  1.00  0.00     0.074 A 
ATOM     15  C   UNL A   1      40.291  27.373  28.756  1.00  0.00     0.049 A 
ATOM     16  N   UNL A   1      41.590  28.464  31.432  1.00  0.00    -0.248 NA
ATOM     17  C   UNL A   1      39.479  27.844  32.180  1.00  0.00     0.031 C 
ATOM     18  C   UNL A   1      39.681  26.982  27.484  1.00  0.00     0.029 A 
ATOM     19  N   UNL A   1      41.413  26.597  28.820  1.00  0.00    -0.354 N 
ATOM     20  C   UNL A   1      41.653  28.195  32.799  1.00  0.00     0.074 A 
ATOM     21  C   UNL A   1      40.308  27.896  33.222  1.00  0.00     0.031 C 
ATOM     22  C   UNL A   1      40.313  25.885  27.012  1.00  0.00     0.029 A 
ATOM     23  C   UNL A   1      41.442  25.582  27.877  1.00  0.00     0.049 A 
ATOM     24  H   UNL A   1      42.134  26.745  29.475  1.00  0.00     0.167 HD
ATOM     25  C   UNL A   1      42.825  28.077  33.481  1.00  0.00     0.031 A 
ATOM     26  C   UNL A   1      42.286  24.524  27.845  1.00  0.00     0.031 A 
ATOM     27  C   UNL A   1      43.940  28.649  32.782  1.00  0.00     0.049 A 
ATOM     28  C   UNL A   1      43.452  24.825  28.703  1.00  0.00     0.074 A 
ATOM     29  C   UNL A   1      44.269  29.911  32.331  1.00  0.00     0.029 A 
ATOM     30  N   UNL A   1      44.826  27.795  32.176  1.00  0.00    -0.354 N 
ATOM     31  N   UNL A   1      44.366  25.703  28.409  1.00  0.00    -0.248 NA
ATOM     32  C   UNL A   1      43.435  24.381  30.087  1.00  0.00     0.031 C 
ATOM     33  C   UNL A   1      44.999  29.694  31.126  1.00  0.00     0.029 A 
ATOM     34  C   UNL A   1      45.083  28.314  30.934  1.00  0.00     0.049 A 
ATOM     35  H   UNL A   1      45.204  26.971  32.559  1.00  0.00     0.167 HD
ATOM     36  C   UNL A   1      44.756  26.230  29.631  1.00  0.00     0.074 A 
ATOM     37  C   UNL A   1      44.253  25.287  30.625  1.00  0.00     0.031 C 
ATOM     38  C   UNL A   1      45.201  27.517  29.734  1.00  0.00     0.031 A 
BRANCH  25  39
ATOM     39  C   UNL A   1      43.017  27.151  34.656  1.00  0.00    -0.014 A 
ATOM     40  C   UNL A   1      43.074  25.762  34.439  1.00  0.00     0.009 A 
ATOM     41  C   UNL A   1      42.870  27.579  35.990  1.00  0.00     0.009 A 
ATOM     42  C   UNL A   1      42.943  24.853  35.498  1.00  0.00     0.001 A 
ATOM     43  C   UNL A   1      42.784  26.675  37.052  1.00  0.00     0.001 A 
ATOM     44  C   UNL A   1      42.796  25.311  36.804  1.00  0.00     0.000 A 
ENDBRANCH  25  39
BRANCH  26  45
ATOM     45  C   UNL A   1      42.048  23.174  27.297  1.00  0.00    -0.014 A 
ATOM     46  C   UNL A   1      42.841  22.670  26.256  1.00  0.00     0.009 A 
ATOM     47  C   UNL A   1      41.196  22.279  27.968  1.00  0.00     0.009 A 
ATOM     48  C   UNL A   1      42.802  21.311  25.919  1.00  0.00     0.001 A 
ATOM     49  C   UNL A   1      41.150  20.924  27.626  1.00  0.00     0.001 A 
ATOM     50  C   UNL A   1      41.964  20.438  26.609  1.00  0.00     0.000 A 
ENDBRANCH  26  45
BRANCH  38  51
ATOM     51  C   UNL A   1      45.524  28.258  28.460  1.00  0.00    -0.014 A 
ATOM     52  C   UNL A   1      44.566  29.009  27.757  1.00  0.00     0.009 A 
ATOM     53  C   UNL A   1      46.859  28.323  28.037  1.00  0.00     0.009 A 
ATOM     54  C   UNL A   1      44.925  29.766  26.639  1.00  0.00     0.001 A 
ATOM     55  C   UNL A   1      47.223  29.099  26.934  1.00  0.00     0.001 A 
ATOM     56  C   UNL A   1      46.256  29.814  26.230  1.00  0.00     0.000 A 
ENDBRANCH  38  51
ENDBRANCH  12  13
ENDBRANCH   5   7
ENDBRANCH   2   3
ENDBRANCH   1   2
BRANCH   1  57
ATOM     57  C   UNL A   1      31.780  29.012  27.213  1.00  0.00     0.002 C 
BRANCH  57  58
ATOM     58  C   UNL A   1      31.849  27.979  26.083  1.00  0.00     0.002 C 
BRANCH  58  59
ATOM     59  C   UNL A   1      31.849  26.505  26.492  1.00  0.00     0.021 C 
BRANCH  59  60
ATOM     60  C   UNL A   1      31.023  25.573  25.619  1.00  0.00     0.116 C 
BRANCH  60  61
ATOM     61  N   UNL A   1      30.128  24.700  26.353  1.00  0.00    -0.351 N 
ATOM     62  C   UNL A   1      30.416  23.444  26.833  1.00  0.00     0.278 C 
ATOM     63  H   UNL A   1      29.220  25.041  26.524  1.00  0.00     0.163 HD
ATOM     64  O   UNL A   1      29.641  22.910  27.629  1.00  0.00    -0.268 OA
BRANCH  62  65
ATOM     65  C   UNL A   1      31.706  22.758  26.345  1.00  0.00     0.275 C 
ATOM     66  C   UNL A   1      32.727  22.582  27.487  1.00  0.00     0.109 C 
ATOM     67  N   UNL A   1      31.402  21.465  25.661  1.00  0.00    -0.331 N 
ATOM     68  C   UNL A   1      34.058  22.088  26.937  1.00  0.00     0.164 C 
ATOM     69  C   UNL A   1      32.565  20.565  25.531  1.00  0.00     0.316 C 
ATOM     70  H   UNL A   1      31.050  21.673  24.726  1.00  0.00     0.347 HD
ATOM     71  H   UNL A   1      30.716  20.980  26.240  1.00  0.00     0.347 HD
ATOM     72  N   UNL A   1      34.960  23.177  26.504  1.00  0.00    -0.264 NA
ATOM     73  C   UNL A   1      33.792  21.412  25.637  1.00  0.00     0.098 C 
ATOM     74  C   UNL A   1      35.211  22.903  25.257  1.00  0.00     0.216 C 
ATOM     75  N   UNL A   1      34.533  21.858  24.679  1.00  0.00    -0.238 NA
ENDBRANCH  62  65
ENDBRANCH  60  61
ENDBRANCH  59  60
ENDBRANCH  58  59
ENDBRANCH  57  58
ENDBRANCH   1  57
TORSDOF 13
ENDMDL
MODEL 3
REMARK VINA RESULT:     -10.5      2.984      4.348
REMARK SMILES O=C(NCCCCCCNC(=O)[C@H]1C[C@@H]2N=CN=C2C[NH2+]1)c1ccc(-c2c3nc(c(-c4ccccc4)c4ccc([nH]4)c(-c4ccccc4)c4nc(c(-c5ccccc5)c5ccc2[nH]5)C=C4)C=C3)cc1
REMARK SMILES IDX 5 1 4 2 3 3 1 4 2 5 22 7 23 8 69 9 24 10 68 11 25 12 26 13
REMARK SMILES IDX 27 14 62 15 28 16 67 17 61 18 63 19 29 20 66 21 60 22 59 23
REMARK SMILES IDX 30 25 52 26 37 27 51 28 38 29 41 30 50 31 64 32 39 33 40 34
REMARK SMILES IDX 49 36 65 37 42 38 31 39 32 40 36 41 33 42 35 43 34 44 53 45
REMARK SMILES IDX 54 46 58 47 55 48 57 49 56 50 43 51 44 52 48 53 45 54 47 55
REMARK SMILES IDX 46 56 6 57 7 58 8 59 9 60 10 61 11 62 12 64 13 65 14 66
REMARK SMILES IDX 21 67 15 68 20 69 16 72 19 73 17 74 18 75
REMARK H PARENT 3 6 63 24 41 35 10 63 21 70 21 71
REMARK Flexibility Score: inf
ROOT
ATOM      1  C   UNL A   1      33.772  28.988  25.756  1.00  0.00     0.021 C 
ENDROOT
BRANCH   1   2
ATOM      2  C   UNL A   1      33.345  29.627  27.073  1.00  0.00     0.116 C 
BRANCH   2   3
ATOM      3  N   UNL A   1      33.794  30.989  27.251  1.00  0.00    -0.352 N 
ATOM      4  O   UNL A   1      35.018  32.796  27.626  1.00  0.00    -0.269 OA
ATOM      5  C   UNL A   1      34.974  31.563  27.630  1.00  0.00     0.251 C 
ATOM      6  H   UNL A   1      33.093  31.652  27.057  1.00  0.00     0.163 HD
BRANCH   5   7
ATOM      7  C   UNL A   1      36.176  30.812  28.084  1.00  0.00     0.039 A 
ATOM      8  C   UNL A   1      36.406  29.451  27.878  1.00  0.00     0.014 A 
ATOM      9  C   UNL A   1      37.169  31.572  28.728  1.00  0.00     0.014 A 
ATOM     10  C   UNL A   1      37.573  28.852  28.351  1.00  0.00     0.010 A 
ATOM     11  C   UNL A   1      38.349  30.985  29.176  1.00  0.00     0.010 A 
ATOM     12  C   UNL A   1      38.545  29.617  29.001  1.00  0.00    -0.014 A 
BRANCH  12  13
ATOM     13  C   UNL A   1      39.815  28.972  29.336  1.00  0.00     0.031 A 
ATOM     14  C   UNL A   1      40.050  28.690  30.786  1.00  0.00     0.074 A 
ATOM     15  C   UNL A   1      40.667  28.463  28.424  1.00  0.00     0.049 A 
ATOM     16  N   UNL A   1      41.070  29.009  31.519  1.00  0.00    -0.248 NA
ATOM     17  C   UNL A   1      38.989  27.975  31.515  1.00  0.00     0.031 C 
ATOM     18  C   UNL A   1      40.459  28.327  26.981  1.00  0.00     0.029 A 
ATOM     19  N   UNL A   1      41.862  27.835  28.632  1.00  0.00    -0.354 N 
ATOM     20  C   UNL A   1      40.852  28.421  32.766  1.00  0.00     0.074 A 
ATOM     21  C   UNL A   1      39.521  27.868  32.732  1.00  0.00     0.031 C 
ATOM     22  C   UNL A   1      41.373  27.464  26.485  1.00  0.00     0.029 A 
ATOM     23  C   UNL A   1      42.298  27.095  27.545  1.00  0.00     0.049 A 
ATOM     24  H   UNL A   1      42.367  27.903  29.476  1.00  0.00     0.167 HD
ATOM     25  C   UNL A   1      41.828  28.280  33.704  1.00  0.00     0.031 A 
ATOM     26  C   UNL A   1      43.303  26.187  27.528  1.00  0.00     0.031 A 
ATOM     27  C   UNL A   1      42.955  29.136  33.470  1.00  0.00     0.049 A 
ATOM     28  C   UNL A   1      44.155  26.406  28.716  1.00  0.00     0.074 A 
ATOM     29  C   UNL A   1      43.149  30.500  33.398  1.00  0.00     0.029 A 
ATOM     30  N   UNL A   1      44.100  28.571  32.968  1.00  0.00    -0.354 N 
ATOM     31  N   UNL A   1      44.940  27.432  28.873  1.00  0.00    -0.248 NA
ATOM     32  C   UNL A   1      43.889  25.635  29.920  1.00  0.00     0.031 C 
ATOM     33  C   UNL A   1      44.173  30.677  32.421  1.00  0.00     0.029 A 
ATOM     34  C   UNL A   1      44.549  29.407  31.979  1.00  0.00     0.049 A 
ATOM     35  H   UNL A   1      44.517  27.729  33.261  1.00  0.00     0.167 HD
ATOM     36  C   UNL A   1      44.924  27.685  30.236  1.00  0.00     0.074 A 
ATOM     37  C   UNL A   1      44.377  26.473  30.837  1.00  0.00     0.031 C 
ATOM     38  C   UNL A   1      45.092  28.950  30.720  1.00  0.00     0.031 A 
BRANCH  25  39
ATOM     39  C   UNL A   1      41.897  27.122  34.668  1.00  0.00    -0.014 A 
ATOM     40  C   UNL A   1      41.560  27.328  36.019  1.00  0.00     0.009 A 
ATOM     41  C   UNL A   1      42.539  25.910  34.352  1.00  0.00     0.009 A 
ATOM     42  C   UNL A   1      41.893  26.389  37.004  1.00  0.00     0.001 A 
ATOM     43  C   UNL A   1      42.833  24.952  35.326  1.00  0.00     0.001 A 
ATOM     44  C   UNL A   1      42.531  25.202  36.657  1.00  0.00     0.000 A 
ENDBRANCH  25  39
BRANCH  26  45
ATOM     45  C   UNL A   1      43.450  24.995  26.670  1.00  0.00    -0.014 A 
ATOM     46  C   UNL A   1      42.523  23.944  26.735  1.00  0.00     0.009 A 
ATOM     47  C   UNL A   1      44.369  24.998  25.606  1.00  0.00     0.009 A 
ATOM     48  C   UNL A   1      42.500  22.948  25.750  1.00  0.00     0.001 A 
ATOM     49  C   UNL A   1      44.350  24.000  24.627  1.00  0.00     0.001 A 
ATOM     50  C   UNL A   1      43.407  22.981  24.693  1.00  0.00     0.000 A 
ENDBRANCH  26  45
BRANCH  38  51
ATOM     51  C   UNL A   1      45.571  30.016  29.765  1.00  0.00    -0.014 A 
ATOM     52  C   UNL A   1      46.931  30.333  29.603  1.00  0.00     0.009 A 
ATOM     53  C   UNL A   1      44.642  30.613  28.900  1.00  0.00     0.009 A 
ATOM     54  C   UNL A   1      47.344  31.252  28.636  1.00  0.00     0.001 A 
ATOM     55  C   UNL A   1      45.058  31.513  27.916  1.00  0.00     0.001 A 
ATOM     56  C   UNL A   1      46.407  31.839  27.789  1.00  0.00     0.000 A 
ENDBRANCH  38  51
ENDBRANCH  12  13
ENDBRANCH   5   7
ENDBRANCH   2   3
ENDBRANCH   1   2
BRANCH   1  57
ATOM     57  C   UNL A   1      33.488  27.486  25.629  1.00  0.00     0.002 C 
BRANCH  57  58
ATOM     58  C   UNL A   1      32.365  26.914  26.501  1.00  0.00     0.002 C 
BRANCH  58  59
ATOM     59  C   UNL A   1      30.957  26.916  25.905  1.00  0.00     0.021 C 
BRANCH  59  60
ATOM     60  C   UNL A   1      30.502  25.611  25.269  1.00  0.00     0.116 C 
BRANCH  60  61
ATOM     61  N   UNL A   1      29.869  24.685  26.188  1.00  0.00    -0.351 N 
ATOM     62  C   UNL A   1      30.411  23.523  26.686  1.00  0.00     0.278 C 
ATOM     63  H   UNL A   1      28.959  24.911  26.486  1.00  0.00     0.163 HD
ATOM     64  O   UNL A   1      29.855  22.953  27.626  1.00  0.00    -0.268 OA
BRANCH  62  65
ATOM     65  C   UNL A   1      31.698  22.983  26.033  1.00  0.00     0.275 C 
ATOM     66  C   UNL A   1      32.947  23.314  26.873  1.00  0.00     0.109 C 
ATOM     67  N   UNL A   1      31.584  21.520  25.750  1.00  0.00    -0.331 N 
ATOM     68  C   UNL A   1      34.212  22.947  26.111  1.00  0.00     0.164 C 
ATOM     69  C   UNL A   1      32.879  20.851  25.513  1.00  0.00     0.316 C 
ATOM     70  H   UNL A   1      31.004  21.399  24.919  1.00  0.00     0.347 HD
ATOM     71  H   UNL A   1      31.177  21.091  26.580  1.00  0.00     0.347 HD
ATOM     72  N   UNL A   1      34.707  24.027  25.230  1.00  0.00    -0.264 NA
ATOM     73  C   UNL A   1      33.854  21.909  25.105  1.00  0.00     0.098 C 
ATOM     74  C   UNL A   1      34.749  23.480  24.050  1.00  0.00     0.216 C 
ATOM     75  N   UNL A   1      34.244  22.211  23.912  1.00  0.00    -0.238 NA
ENDBRANCH  62  65
ENDBRANCH  60  61
ENDBRANCH  59  60
ENDBRANCH  58  59
ENDBRANCH  57  58
ENDBRANCH   1  57
TORSDOF 13
ENDMDL
