MODEL 1
REMARK VINA RESULT:     -10.8      0.000      0.000
REMARK SMILES O=C(NCCCCCCNC(=O)[C@H](CO)NC(=O)[C@H](Cc1ccc(O)cc1)NC(=O)c1ccc(F)cc1)c1ccc(-c2c3nc(c(-c4ccccc4)c4ccc([nH]4)c(-c4ccccc4)c4nc(c(-c5ccccc5)c5ccc2[nH]5)C=C4)C=C3)cc1
REMARK SMILES IDX 8 1 7 2 6 3 5 4 4 5 3 6 1 7 2 8 38 10 39 11 85 12 40 13
REMARK SMILES IDX 84 14 41 15 42 16 43 17 78 18 44 19 83 20 77 21 79 22 45 23
REMARK SMILES IDX 82 24 76 25 75 26 46 28 68 29 53 30 67 31 54 32 57 33 66 34
REMARK SMILES IDX 80 35 55 36 56 37 65 39 81 40 58 41 47 42 48 43 52 44 49 45
REMARK SMILES IDX 51 46 50 47 69 48 70 49 74 50 71 51 73 52 72 53 59 54 60 55
REMARK SMILES IDX 64 56 61 57 63 58 62 59 9 60 10 61 11 62 12 64 13 65 16 66
REMARK SMILES IDX 17 67 18 69 19 70 28 71 29 72 30 74 31 75 32 76 37 77 33 78
REMARK SMILES IDX 36 79 34 80 35 81 20 82 21 83 22 84 27 85 23 86 26 87 24 88
REMARK SMILES IDX 25 89 14 91 15 92
REMARK H PARENT 3 9 79 27 57 38 10 63 16 68 28 73 25 90 15 93
REMARK Flexibility Score: inf
ROOT
ATOM      1  C   UNL A   1      36.528  23.238  25.254  1.00  0.00     0.021 C 
ENDROOT
BRANCH   1   2
ATOM      2  C   UNL A   1      37.224  22.148  24.444  1.00  0.00     0.002 C 
BRANCH   2   3
ATOM      3  C   UNL A   1      36.920  20.698  24.826  1.00  0.00     0.002 C 
BRANCH   3   4
ATOM      4  C   UNL A   1      38.097  19.721  24.892  1.00  0.00     0.021 C 
BRANCH   4   5
ATOM      5  C   UNL A   1      39.116  19.950  26.002  1.00  0.00     0.116 C 
BRANCH   5   6
ATOM      6  N   UNL A   1      40.345  19.206  25.813  1.00  0.00    -0.352 N 
ATOM      7  O   UNL A   1      42.562  18.847  25.664  1.00  0.00    -0.269 OA
ATOM      8  C   UNL A   1      41.647  19.605  25.977  1.00  0.00     0.251 C 
ATOM      9  H   UNL A   1      40.227  18.272  25.522  1.00  0.00     0.163 HD
BRANCH   8  10
ATOM     10  C   UNL A   1      41.963  20.953  26.502  1.00  0.00     0.039 A 
ATOM     11  C   UNL A   1      42.232  22.027  25.649  1.00  0.00     0.014 A 
ATOM     12  C   UNL A   1      41.946  21.147  27.887  1.00  0.00     0.014 A 
ATOM     13  C   UNL A   1      42.595  23.262  26.183  1.00  0.00     0.010 A 
ATOM     14  C   UNL A   1      42.243  22.405  28.419  1.00  0.00     0.010 A 
ATOM     15  C   UNL A   1      42.591  23.467  27.572  1.00  0.00    -0.014 A 
BRANCH  15  16
ATOM     16  C   UNL A   1      42.878  24.816  28.119  1.00  0.00     0.031 A 
ATOM     17  C   UNL A   1      44.274  25.228  28.488  1.00  0.00     0.074 A 
ATOM     18  C   UNL A   1      41.855  25.678  28.280  1.00  0.00     0.049 A 
ATOM     19  N   UNL A   1      44.693  26.373  28.969  1.00  0.00    -0.248 NA
ATOM     20  C   UNL A   1      45.338  24.229  28.302  1.00  0.00     0.031 C 
ATOM     21  C   UNL A   1      40.453  25.389  27.976  1.00  0.00     0.029 A 
ATOM     22  N   UNL A   1      41.840  26.974  28.729  1.00  0.00    -0.354 N 
ATOM     23  C   UNL A   1      46.060  26.226  29.162  1.00  0.00     0.074 A 
ATOM     24  C   UNL A   1      46.401  24.876  28.761  1.00  0.00     0.031 C 
ATOM     25  C   UNL A   1      39.718  26.488  28.209  1.00  0.00     0.029 A 
ATOM     26  C   UNL A   1      40.588  27.538  28.724  1.00  0.00     0.049 A 
ATOM     27  H   UNL A   1      42.646  27.452  29.026  1.00  0.00     0.167 HD
ATOM     28  C   UNL A   1      46.951  27.134  29.628  1.00  0.00     0.031 A 
ATOM     29  C   UNL A   1      40.179  28.763  29.101  1.00  0.00     0.031 A 
ATOM     30  C   UNL A   1      46.616  28.479  30.020  1.00  0.00     0.049 A 
ATOM     31  C   UNL A   1      41.185  29.745  29.620  1.00  0.00     0.074 A 
ATOM     32  C   UNL A   1      47.459  29.483  30.465  1.00  0.00     0.029 A 
ATOM     33  N   UNL A   1      45.333  29.005  30.019  1.00  0.00    -0.354 N 
ATOM     34  N   UNL A   1      42.480  29.602  29.759  1.00  0.00    -0.248 NA
ATOM     35  C   UNL A   1      40.672  31.058  30.034  1.00  0.00     0.031 C 
ATOM     36  C   UNL A   1      46.681  30.605  30.771  1.00  0.00     0.029 A 
ATOM     37  C   UNL A   1      45.359  30.312  30.476  1.00  0.00     0.049 A 
ATOM     38  H   UNL A   1      44.524  28.521  29.734  1.00  0.00     0.167 HD
ATOM     39  C   UNL A   1      42.940  30.807  30.269  1.00  0.00     0.074 A 
ATOM     40  C   UNL A   1      41.788  31.678  30.394  1.00  0.00     0.031 C 
ATOM     41  C   UNL A   1      44.204  31.159  30.606  1.00  0.00     0.031 A 
BRANCH  28  42
ATOM     42  C   UNL A   1      48.382  26.697  29.761  1.00  0.00    -0.014 A 
ATOM     43  C   UNL A   1      49.312  26.929  28.737  1.00  0.00     0.009 A 
ATOM     44  C   UNL A   1      48.816  26.090  30.951  1.00  0.00     0.009 A 
ATOM     45  C   UNL A   1      50.645  26.537  28.892  1.00  0.00     0.001 A 
ATOM     46  C   UNL A   1      50.152  25.719  31.112  1.00  0.00     0.001 A 
ATOM     47  C   UNL A   1      51.064  25.937  30.080  1.00  0.00     0.000 A 
ENDBRANCH  28  42
BRANCH  29  48
ATOM     48  C   UNL A   1      38.743  29.118  29.000  1.00  0.00    -0.014 A 
ATOM     49  C   UNL A   1      37.909  29.034  30.125  1.00  0.00     0.009 A 
ATOM     50  C   UNL A   1      38.206  29.573  27.785  1.00  0.00     0.009 A 
ATOM     51  C   UNL A   1      36.561  29.387  30.031  1.00  0.00     0.001 A 
ATOM     52  C   UNL A   1      36.864  29.946  27.702  1.00  0.00     0.001 A 
ATOM     53  C   UNL A   1      36.042  29.848  28.823  1.00  0.00     0.000 A 
ENDBRANCH  29  48
BRANCH  41  54
ATOM     54  C   UNL A   1      44.401  32.550  31.132  1.00  0.00    -0.014 A 
ATOM     55  C   UNL A   1      44.656  33.622  30.261  1.00  0.00     0.009 A 
ATOM     56  C   UNL A   1      44.308  32.795  32.510  1.00  0.00     0.009 A 
ATOM     57  C   UNL A   1      44.843  34.909  30.767  1.00  0.00     0.001 A 
ATOM     58  C   UNL A   1      44.475  34.088  33.009  1.00  0.00     0.001 A 
ATOM     59  C   UNL A   1      44.750  35.141  32.138  1.00  0.00     0.000 A 
ENDBRANCH  41  54
ENDBRANCH  15  16
ENDBRANCH   8  10
ENDBRANCH   5   6
ENDBRANCH   4   5
ENDBRANCH   3   4
ENDBRANCH   2   3
ENDBRANCH   1   2
BRANCH   1  60
ATOM     60  C   UNL A   1      35.290  23.855  24.625  1.00  0.00     0.116 C 
BRANCH  60  61
ATOM     61  N   UNL A   1      34.470  22.949  23.868  1.00  0.00    -0.354 N 
ATOM     62  C   UNL A   1      33.390  22.238  24.321  1.00  0.00     0.244 C 
ATOM     63  H   UNL A   1      34.712  22.826  22.921  1.00  0.00     0.163 HD
ATOM     64  O   UNL A   1      32.781  21.560  23.487  1.00  0.00    -0.273 OA
BRANCH  62  65
ATOM     65  C   UNL A   1      33.082  22.119  25.845  1.00  0.00     0.197 C 
BRANCH  65  66
ATOM     66  N   UNL A   1      31.651  22.114  26.200  1.00  0.00    -0.340 N 
ATOM     67  C   UNL A   1      30.681  23.067  26.261  1.00  0.00     0.243 C 
ATOM     68  H   UNL A   1      31.322  21.220  26.447  1.00  0.00     0.164 HD
ATOM     69  O   UNL A   1      29.536  22.655  26.489  1.00  0.00    -0.273 OA
BRANCH  67  70
ATOM     70  C   UNL A   1      30.879  24.564  25.898  1.00  0.00     0.176 C 
BRANCH  70  71
ATOM     71  N   UNL A   1      29.701  25.222  25.341  1.00  0.00    -0.340 N 
ATOM     72  C   UNL A   1      29.582  26.035  24.247  1.00  0.00     0.251 C 
ATOM     73  H   UNL A   1      28.861  25.054  25.828  1.00  0.00     0.164 HD
ATOM     74  O   UNL A   1      28.480  26.446  23.909  1.00  0.00    -0.269 OA
BRANCH  72  75
ATOM     75  C   UNL A   1      30.791  26.508  23.549  1.00  0.00     0.040 A 
ATOM     76  C   UNL A   1      31.759  25.624  23.059  1.00  0.00     0.017 A 
ATOM     77  C   UNL A   1      30.951  27.893  23.411  1.00  0.00     0.017 A 
ATOM     78  C   UNL A   1      32.920  26.139  22.479  1.00  0.00     0.040 A 
ATOM     79  C   UNL A   1      32.108  28.398  22.822  1.00  0.00     0.040 A 
ATOM     80  C   UNL A   1      33.085  27.518  22.371  1.00  0.00     0.123 A 
ATOM     81  F   UNL A   1      34.206  28.005  21.825  1.00  0.00    -0.207 F 
ENDBRANCH  72  75
ENDBRANCH  70  71
BRANCH  70  82
ATOM     82  C   UNL A   1      31.571  25.318  27.065  1.00  0.00     0.070 C 
BRANCH  82  83
ATOM     83  C   UNL A   1      32.154  26.678  26.756  1.00  0.00    -0.045 A 
ATOM     84  C   UNL A   1      33.423  26.810  26.170  1.00  0.00     0.007 A 
ATOM     85  C   UNL A   1      31.431  27.838  27.067  1.00  0.00     0.007 A 
ATOM     86  C   UNL A   1      33.975  28.070  25.936  1.00  0.00     0.046 A 
ATOM     87  C   UNL A   1      31.976  29.099  26.819  1.00  0.00     0.046 A 
ATOM     88  C   UNL A   1      33.248  29.206  26.270  1.00  0.00     0.115 A 
BRANCH  88  89
ATOM     89  O   UNL A   1      33.755  30.455  26.077  1.00  0.00    -0.508 OA
ATOM     90  H   UNL A   1      33.806  31.056  26.794  1.00  0.00     0.293 HD
ENDBRANCH  88  89
ENDBRANCH  82  83
ENDBRANCH  70  82
ENDBRANCH  67  70
ENDBRANCH  65  66
BRANCH  65  91
ATOM     91  C   UNL A   1      33.740  20.837  26.388  1.00  0.00     0.191 C 
BRANCH  91  92
ATOM     92  O   UNL A   1      32.951  19.689  26.054  1.00  0.00    -0.394 OA
ATOM     93  H   UNL A   1      32.574  19.801  25.167  1.00  0.00     0.210 HD
ENDBRANCH  91  92
ENDBRANCH  65  91
ENDBRANCH  62  65
ENDBRANCH  60  61
ENDBRANCH   1  60
TORSDOF 22
ENDMDL
MODEL 2
REMARK VINA RESULT:     -10.7      0.336      5.594
REMARK SMILES O=C(NCCCCCCNC(=O)[C@H](CO)NC(=O)[C@H](Cc1ccc(O)cc1)NC(=O)c1ccc(F)cc1)c1ccc(-c2c3nc(c(-c4ccccc4)c4ccc([nH]4)c(-c4ccccc4)c4nc(c(-c5ccccc5)c5ccc2[nH]5)C=C4)C=C3)cc1
REMARK SMILES IDX 8 1 7 2 6 3 5 4 4 5 3 6 1 7 2 8 38 10 39 11 85 12 40 13
REMARK SMILES IDX 84 14 41 15 42 16 43 17 78 18 44 19 83 20 77 21 79 22 45 23
REMARK SMILES IDX 82 24 76 25 75 26 46 28 68 29 53 30 67 31 54 32 57 33 66 34
REMARK SMILES IDX 80 35 55 36 56 37 65 39 81 40 58 41 47 42 48 43 52 44 49 45
REMARK SMILES IDX 51 46 50 47 69 48 70 49 74 50 71 51 73 52 72 53 59 54 60 55
REMARK SMILES IDX 64 56 61 57 63 58 62 59 9 60 10 61 11 62 12 64 13 65 16 66
REMARK SMILES IDX 17 67 18 69 19 70 28 71 29 72 30 74 31 75 32 76 37 77 33 78
REMARK SMILES IDX 36 79 34 80 35 81 20 82 21 83 22 84 27 85 23 86 26 87 24 88
REMARK SMILES IDX 25 89 14 91 15 92
REMARK H PARENT 3 9 79 27 57 38 10 63 16 68 28 73 25 90 15 93
REMARK Flexibility Score: inf
ROOT
ATOM      1  C   UNL A   1      36.620  23.290  25.386  1.00  0.00     0.021 C 
ENDROOT
BRANCH   1   2
ATOM      2  C   UNL A   1      37.326  22.238  24.537  1.00  0.00     0.002 C 
BRANCH   2   3
ATOM      3  C   UNL A   1      37.006  20.772  24.838  1.00  0.00     0.002 C 
BRANCH   3   4
ATOM      4  C   UNL A   1      38.177  19.789  24.895  1.00  0.00     0.021 C 
BRANCH   4   5
ATOM      5  C   UNL A   1      39.175  19.976  26.031  1.00  0.00     0.116 C 
BRANCH   5   6
ATOM      6  N   UNL A   1      40.386  19.199  25.864  1.00  0.00    -0.352 N 
ATOM      7  O   UNL A   1      42.594  18.783  25.729  1.00  0.00    -0.269 OA
ATOM      8  C   UNL A   1      41.697  19.570  26.020  1.00  0.00     0.251 C 
ATOM      9  H   UNL A   1      40.246  18.260  25.598  1.00  0.00     0.163 HD
BRANCH   8  10
ATOM     10  C   UNL A   1      42.044  20.923  26.510  1.00  0.00     0.039 A 
ATOM     11  C   UNL A   1      42.305  21.977  25.629  1.00  0.00     0.014 A 
ATOM     12  C   UNL A   1      42.067  21.145  27.891  1.00  0.00     0.014 A 
ATOM     13  C   UNL A   1      42.699  23.217  26.128  1.00  0.00     0.010 A 
ATOM     14  C   UNL A   1      42.395  22.409  28.389  1.00  0.00     0.010 A 
ATOM     15  C   UNL A   1      42.735  23.449  27.513  1.00  0.00    -0.014 A 
BRANCH  15  16
ATOM     16  C   UNL A   1      43.054  24.804  28.025  1.00  0.00     0.031 A 
ATOM     17  C   UNL A   1      41.974  25.818  28.274  1.00  0.00     0.074 A 
ATOM     18  C   UNL A   1      44.342  25.117  28.268  1.00  0.00     0.049 A 
ATOM     19  N   UNL A   1      42.086  27.042  28.729  1.00  0.00    -0.248 NA
ATOM     20  C   UNL A   1      40.593  25.414  27.969  1.00  0.00     0.031 C 
ATOM     21  C   UNL A   1      45.481  24.224  28.048  1.00  0.00     0.029 A 
ATOM     22  N   UNL A   1      44.906  26.264  28.763  1.00  0.00    -0.354 N 
ATOM     23  C   UNL A   1      40.798  27.560  28.745  1.00  0.00     0.074 A 
ATOM     24  C   UNL A   1      39.920  26.524  28.240  1.00  0.00     0.031 C 
ATOM     25  C   UNL A   1      46.605  24.843  28.443  1.00  0.00     0.029 A 
ATOM     26  C   UNL A   1      46.270  26.188  28.895  1.00  0.00     0.049 A 
ATOM     27  H   UNL A   1      44.385  27.064  28.998  1.00  0.00     0.167 HD
ATOM     28  C   UNL A   1      40.384  28.786  29.147  1.00  0.00     0.031 A 
ATOM     29  C   UNL A   1      47.160  27.101  29.325  1.00  0.00     0.031 A 
ATOM     30  C   UNL A   1      41.254  29.814  29.656  1.00  0.00     0.049 A 
ATOM     31  C   UNL A   1      46.675  28.452  29.756  1.00  0.00     0.074 A 
ATOM     32  C   UNL A   1      40.919  31.073  30.126  1.00  0.00     0.029 A 
ATOM     33  N   UNL A   1      42.632  29.705  29.755  1.00  0.00    -0.354 N 
ATOM     34  N   UNL A   1      45.449  28.910  29.801  1.00  0.00    -0.248 NA
ATOM     35  C   UNL A   1      47.698  29.410  30.195  1.00  0.00     0.031 C 
ATOM     36  C   UNL A   1      42.099  31.740  30.474  1.00  0.00     0.029 A 
ATOM     37  C   UNL A   1      43.164  30.880  30.259  1.00  0.00     0.049 A 
ATOM     38  H   UNL A   1      43.155  28.908  29.506  1.00  0.00     0.167 HD
ATOM     39  C   UNL A   1      45.549  30.208  30.281  1.00  0.00     0.074 A 
ATOM     40  C   UNL A   1      46.955  30.456  30.533  1.00  0.00     0.031 C 
ATOM     41  C   UNL A   1      44.564  31.114  30.491  1.00  0.00     0.031 A 
BRANCH  28  42
ATOM     42  C   UNL A   1      38.918  29.096  29.033  1.00  0.00    -0.014 A 
ATOM     43  C   UNL A   1      38.055  28.942  30.128  1.00  0.00     0.009 A 
ATOM     44  C   UNL A   1      38.405  29.596  27.826  1.00  0.00     0.009 A 
ATOM     45  C   UNL A   1      36.699  29.260  30.008  1.00  0.00     0.001 A 
ATOM     46  C   UNL A   1      37.055  29.933  27.715  1.00  0.00     0.001 A 
ATOM     47  C   UNL A   1      36.202  29.759  28.804  1.00  0.00     0.000 A 
ENDBRANCH  28  42
BRANCH  29  48
ATOM     48  C   UNL A   1      48.602  26.757  29.360  1.00  0.00    -0.014 A 
ATOM     49  C   UNL A   1      49.423  27.021  28.255  1.00  0.00     0.009 A 
ATOM     50  C   UNL A   1      49.170  26.193  30.513  1.00  0.00     0.009 A 
ATOM     51  C   UNL A   1      50.785  26.712  28.298  1.00  0.00     0.001 A 
ATOM     52  C   UNL A   1      50.536  25.908  30.561  1.00  0.00     0.001 A 
ATOM     53  C   UNL A   1      51.340  26.163  29.453  1.00  0.00     0.000 A 
ENDBRANCH  29  48
BRANCH  41  54
ATOM     54  C   UNL A   1      44.979  32.452  31.029  1.00  0.00    -0.014 A 
ATOM     55  C   UNL A   1      45.074  32.676  32.412  1.00  0.00     0.009 A 
ATOM     56  C   UNL A   1      45.301  33.491  30.144  1.00  0.00     0.009 A 
ATOM     57  C   UNL A   1      45.455  33.928  32.897  1.00  0.00     0.001 A 
ATOM     58  C   UNL A   1      45.702  34.735  30.633  1.00  0.00     0.001 A 
ATOM     59  C   UNL A   1      45.771  34.954  32.008  1.00  0.00     0.000 A 
ENDBRANCH  41  54
ENDBRANCH  15  16
ENDBRANCH   8  10
ENDBRANCH   5   6
ENDBRANCH   4   5
ENDBRANCH   3   4
ENDBRANCH   2   3
ENDBRANCH   1   2
BRANCH   1  60
ATOM     60  C   UNL A   1      35.388  23.934  24.772  1.00  0.00     0.116 C 
BRANCH  60  61
ATOM     61  N   UNL A   1      34.544  23.048  24.017  1.00  0.00    -0.354 N 
ATOM     62  C   UNL A   1      33.428  22.392  24.465  1.00  0.00     0.244 C 
ATOM     63  H   UNL A   1      34.796  22.895  23.078  1.00  0.00     0.163 HD
ATOM     64  O   UNL A   1      32.805  21.723  23.635  1.00  0.00    -0.273 OA
BRANCH  62  65
ATOM     65  C   UNL A   1      33.089  22.317  25.986  1.00  0.00     0.197 C 
BRANCH  65  66
ATOM     66  N   UNL A   1      31.651  22.267  26.309  1.00  0.00    -0.340 N 
ATOM     67  C   UNL A   1      30.647  23.186  26.338  1.00  0.00     0.243 C 
ATOM     68  H   UNL A   1      31.348  21.365  26.559  1.00  0.00     0.164 HD
ATOM     69  O   UNL A   1      29.512  22.738  26.546  1.00  0.00    -0.273 OA
BRANCH  67  70
ATOM     70  C   UNL A   1      30.803  24.686  25.963  1.00  0.00     0.176 C 
BRANCH  70  71
ATOM     71  N   UNL A   1      29.627  25.287  25.341  1.00  0.00    -0.340 N 
ATOM     72  C   UNL A   1      29.525  26.057  24.214  1.00  0.00     0.251 C 
ATOM     73  H   UNL A   1      28.775  25.112  25.804  1.00  0.00     0.164 HD
ATOM     74  O   UNL A   1      28.424  26.422  23.822  1.00  0.00    -0.269 OA
BRANCH  72  75
ATOM     75  C   UNL A   1      30.745  26.540  23.543  1.00  0.00     0.040 A 
ATOM     76  C   UNL A   1      31.714  25.663  23.043  1.00  0.00     0.017 A 
ATOM     77  C   UNL A   1      30.912  27.928  23.441  1.00  0.00     0.017 A 
ATOM     78  C   UNL A   1      32.884  26.186  22.489  1.00  0.00     0.040 A 
ATOM     79  C   UNL A   1      32.079  28.441  22.878  1.00  0.00     0.040 A 
ATOM     80  C   UNL A   1      33.057  27.567  22.417  1.00  0.00     0.123 A 
ATOM     81  F   UNL A   1      34.186  28.062  21.896  1.00  0.00    -0.207 F 
ENDBRANCH  72  75
ENDBRANCH  70  71
BRANCH  70  82
ATOM     82  C   UNL A   1      31.406  25.482  27.151  1.00  0.00     0.070 C 
BRANCH  82  83
ATOM     83  C   UNL A   1      32.089  26.791  26.826  1.00  0.00    -0.045 A 
ATOM     84  C   UNL A   1      33.341  26.821  26.191  1.00  0.00     0.007 A 
ATOM     85  C   UNL A   1      31.477  28.005  27.169  1.00  0.00     0.007 A 
ATOM     86  C   UNL A   1      33.986  28.033  25.941  1.00  0.00     0.046 A 
ATOM     87  C   UNL A   1      32.116  29.219  26.905  1.00  0.00     0.046 A 
ATOM     88  C   UNL A   1      33.370  29.223  26.308  1.00  0.00     0.115 A 
BRANCH  88  89
ATOM     89  O   UNL A   1      33.972  30.427  26.101  1.00  0.00    -0.508 OA
ATOM     90  H   UNL A   1      34.263  30.664  25.242  1.00  0.00     0.293 HD
ENDBRANCH  88  89
ENDBRANCH  82  83
ENDBRANCH  70  82
ENDBRANCH  67  70
ENDBRANCH  65  66
BRANCH  65  91
ATOM     91  C   UNL A   1      33.785  21.085  26.592  1.00  0.00     0.191 C 
BRANCH  91  92
ATOM     92  O   UNL A   1      33.178  19.880  26.111  1.00  0.00    -0.394 OA
ATOM     93  H   UNL A   1      32.232  20.030  25.963  1.00  0.00     0.210 HD
ENDBRANCH  91  92
ENDBRANCH  65  91
ENDBRANCH  62  65
ENDBRANCH  60  61
ENDBRANCH   1  60
TORSDOF 22
ENDMDL
MODEL 3
REMARK VINA RESULT:     -10.2      3.166      8.678
REMARK SMILES O=C(NCCCCCCNC(=O)[C@H](CO)NC(=O)[C@H](Cc1ccc(O)cc1)NC(=O)c1ccc(F)cc1)c1ccc(-c2c3nc(c(-c4ccccc4)c4ccc([nH]4)c(-c4ccccc4)c4nc(c(-c5ccccc5)c5ccc2[nH]5)C=C4)C=C3)cc1
REMARK SMILES IDX 8 1 7 2 6 3 5 4 4 5 3 6 1 7 2 8 38 10 39 11 85 12 40 13
REMARK SMILES IDX 84 14 41 15 42 16 43 17 78 18 44 19 83 20 77 21 79 22 45 23
REMARK SMILES IDX 82 24 76 25 75 26 46 28 68 29 53 30 67 31 54 32 57 33 66 34
REMARK SMILES IDX 80 35 55 36 56 37 65 39 81 40 58 41 47 42 48 43 52 44 49 45
REMARK SMILES IDX 51 46 50 47 69 48 70 49 74 50 71 51 73 52 72 53 59 54 60 55
REMARK SMILES IDX 64 56 61 57 63 58 62 59 9 60 10 61 11 62 12 64 13 65 16 66
REMARK SMILES IDX 17 67 18 69 19 70 28 71 29 72 30 74 31 75 32 76 37 77 33 78
REMARK SMILES IDX 36 79 34 80 35 81 20 82 21 83 22 84 27 85 23 86 26 87 24 88
REMARK SMILES IDX 25 89 14 91 15 92
REMARK H PARENT 3 9 79 27 57 38 10 63 16 68 28 73 25 90 15 93
REMARK Flexibility Score: inf
ROOT
ATOM      1  C   UNL A   1      31.332  28.896  24.331  1.00  0.00     0.021 C 
ENDROOT
BRANCH   1   2
ATOM      2  C   UNL A   1      30.956  30.212  25.005  1.00  0.00     0.002 C 
BRANCH   2   3
ATOM      3  C   UNL A   1      31.733  30.593  26.267  1.00  0.00     0.002 C 
BRANCH   3   4
ATOM      4  C   UNL A   1      31.496  31.989  26.850  1.00  0.00     0.021 C 
BRANCH   4   5
ATOM      5  C   UNL A   1      32.718  32.885  27.002  1.00  0.00     0.116 C 
BRANCH   5   6
ATOM      6  N   UNL A   1      32.469  34.061  27.812  1.00  0.00    -0.352 N 
ATOM      7  O   UNL A   1      32.754  35.536  29.487  1.00  0.00    -0.269 OA
ATOM      8  C   UNL A   1      33.191  34.576  28.858  1.00  0.00     0.251 C 
ATOM      9  H   UNL A   1      31.658  34.567  27.574  1.00  0.00     0.163 HD
BRANCH   8  10
ATOM     10  C   UNL A   1      34.482  33.969  29.255  1.00  0.00     0.039 A 
ATOM     11  C   UNL A   1      35.677  34.299  28.609  1.00  0.00     0.014 A 
ATOM     12  C   UNL A   1      34.493  33.076  30.332  1.00  0.00     0.014 A 
ATOM     13  C   UNL A   1      36.859  33.652  28.963  1.00  0.00     0.010 A 
ATOM     14  C   UNL A   1      35.692  32.480  30.731  1.00  0.00     0.010 A 
ATOM     15  C   UNL A   1      36.881  32.746  30.036  1.00  0.00    -0.014 A 
BRANCH  15  16
ATOM     16  C   UNL A   1      38.167  32.147  30.468  1.00  0.00     0.031 A 
ATOM     17  C   UNL A   1      38.666  30.860  29.877  1.00  0.00     0.074 A 
ATOM     18  C   UNL A   1      38.893  32.782  31.409  1.00  0.00     0.049 A 
ATOM     19  N   UNL A   1      39.773  30.210  30.139  1.00  0.00    -0.248 NA
ATOM     20  C   UNL A   1      37.813  30.212  28.868  1.00  0.00     0.031 C 
ATOM     21  C   UNL A   1      38.506  34.029  32.073  1.00  0.00     0.029 A 
ATOM     22  N   UNL A   1      40.109  32.473  31.962  1.00  0.00    -0.354 N 
ATOM     23  C   UNL A   1      39.740  29.070  29.346  1.00  0.00     0.074 A 
ATOM     24  C   UNL A   1      38.498  29.107  28.603  1.00  0.00     0.031 C 
ATOM     25  C   UNL A   1      39.484  34.400  32.913  1.00  0.00     0.029 A 
ATOM     26  C   UNL A   1      40.539  33.394  32.885  1.00  0.00     0.049 A 
ATOM     27  H   UNL A   1      40.622  31.669  31.721  1.00  0.00     0.167 HD
ATOM     28  C   UNL A   1      40.665  28.085  29.243  1.00  0.00     0.031 A 
ATOM     29  C   UNL A   1      41.656  33.425  33.634  1.00  0.00     0.031 A 
ATOM     30  C   UNL A   1      41.904  28.049  29.975  1.00  0.00     0.049 A 
ATOM     31  C   UNL A   1      42.657  32.318  33.507  1.00  0.00     0.074 A 
ATOM     32  C   UNL A   1      42.920  27.111  29.905  1.00  0.00     0.029 A 
ATOM     33  N   UNL A   1      42.293  28.990  30.915  1.00  0.00    -0.354 N 
ATOM     34  N   UNL A   1      42.627  31.268  32.723  1.00  0.00    -0.248 NA
ATOM     35  C   UNL A   1      43.844  32.399  34.367  1.00  0.00     0.031 C 
ATOM     36  C   UNL A   1      43.908  27.464  30.832  1.00  0.00     0.029 A 
ATOM     37  C   UNL A   1      43.524  28.645  31.449  1.00  0.00     0.049 A 
ATOM     38  H   UNL A   1      41.772  29.788  31.166  1.00  0.00     0.167 HD
ATOM     39  C   UNL A   1      43.795  30.566  32.989  1.00  0.00     0.074 A 
ATOM     40  C   UNL A   1      44.520  31.322  33.990  1.00  0.00     0.031 C 
ATOM     41  C   UNL A   1      44.225  29.399  32.452  1.00  0.00     0.031 A 
BRANCH  28  42
ATOM     42  C   UNL A   1      40.360  26.942  28.316  1.00  0.00    -0.014 A 
ATOM     43  C   UNL A   1      39.552  25.870  28.723  1.00  0.00     0.009 A 
ATOM     44  C   UNL A   1      40.850  26.965  27.000  1.00  0.00     0.009 A 
ATOM     45  C   UNL A   1      39.260  24.830  27.837  1.00  0.00     0.001 A 
ATOM     46  C   UNL A   1      40.540  25.935  26.111  1.00  0.00     0.001 A 
ATOM     47  C   UNL A   1      39.750  24.865  26.531  1.00  0.00     0.000 A 
ENDBRANCH  28  42
BRANCH  29  48
ATOM     48  C   UNL A   1      41.873  34.550  34.576  1.00  0.00    -0.014 A 
ATOM     49  C   UNL A   1      41.448  34.455  35.909  1.00  0.00     0.009 A 
ATOM     50  C   UNL A   1      42.537  35.713  34.153  1.00  0.00     0.009 A 
ATOM     51  C   UNL A   1      41.672  35.509  36.797  1.00  0.00     0.001 A 
ATOM     52  C   UNL A   1      42.779  36.754  35.050  1.00  0.00     0.001 A 
ATOM     53  C   UNL A   1      42.342  36.653  36.369  1.00  0.00     0.000 A 
ENDBRANCH  29  48
BRANCH  41  54
ATOM     54  C   UNL A   1      45.547  28.879  32.935  1.00  0.00    -0.014 A 
ATOM     55  C   UNL A   1      46.745  29.258  32.307  1.00  0.00     0.009 A 
ATOM     56  C   UNL A   1      45.596  28.022  34.043  1.00  0.00     0.009 A 
ATOM     57  C   UNL A   1      47.966  28.760  32.765  1.00  0.00     0.001 A 
ATOM     58  C   UNL A   1      46.822  27.543  34.511  1.00  0.00     0.001 A 
ATOM     59  C   UNL A   1      48.003  27.906  33.866  1.00  0.00     0.000 A 
ENDBRANCH  41  54
ENDBRANCH  15  16
ENDBRANCH   8  10
ENDBRANCH   5   6
ENDBRANCH   4   5
ENDBRANCH   3   4
ENDBRANCH   2   3
ENDBRANCH   1   2
BRANCH   1  60
ATOM     60  C   UNL A   1      30.589  28.561  23.049  1.00  0.00     0.116 C 
BRANCH  60  61
ATOM     61  N   UNL A   1      29.267  28.025  23.228  1.00  0.00    -0.354 N 
ATOM     62  C   UNL A   1      28.931  26.844  23.836  1.00  0.00     0.244 C 
ATOM     63  H   UNL A   1      28.523  28.565  22.874  1.00  0.00     0.163 HD
ATOM     64  O   UNL A   1      27.725  26.597  23.942  1.00  0.00    -0.273 OA
BRANCH  62  65
ATOM     65  C   UNL A   1      30.012  25.773  24.177  1.00  0.00     0.197 C 
BRANCH  65  66
ATOM     66  N   UNL A   1      29.756  24.985  25.397  1.00  0.00    -0.340 N 
ATOM     67  C   UNL A   1      30.537  24.267  26.249  1.00  0.00     0.243 C 
ATOM     68  H   UNL A   1      28.806  24.979  25.654  1.00  0.00     0.164 HD
ATOM     69  O   UNL A   1      29.970  23.831  27.260  1.00  0.00    -0.273 OA
BRANCH  67  70
ATOM     70  C   UNL A   1      32.078  24.114  26.130  1.00  0.00     0.176 C 
BRANCH  70  71
ATOM     71  N   UNL A   1      32.834  25.347  26.332  1.00  0.00    -0.340 N 
ATOM     72  C   UNL A   1      34.023  25.749  25.788  1.00  0.00     0.251 C 
ATOM     73  H   UNL A   1      32.424  25.988  26.958  1.00  0.00     0.164 HD
ATOM     74  O   UNL A   1      34.468  26.860  26.047  1.00  0.00    -0.269 OA
BRANCH  72  75
ATOM     75  C   UNL A   1      34.820  24.804  24.987  1.00  0.00     0.040 A 
ATOM     76  C   UNL A   1      34.367  24.304  23.761  1.00  0.00     0.017 A 
ATOM     77  C   UNL A   1      36.055  24.401  25.513  1.00  0.00     0.017 A 
ATOM     78  C   UNL A   1      35.135  23.349  23.089  1.00  0.00     0.040 A 
ATOM     79  C   UNL A   1      36.819  23.456  24.832  1.00  0.00     0.040 A 
ATOM     80  C   UNL A   1      36.348  22.932  23.633  1.00  0.00     0.123 A 
ATOM     81  F   UNL A   1      37.073  22.008  22.991  1.00  0.00    -0.207 F 
ENDBRANCH  72  75
ENDBRANCH  70  71
BRANCH  70  82
ATOM     82  C   UNL A   1      32.568  22.892  26.953  1.00  0.00     0.070 C 
BRANCH  82  83
ATOM     83  C   UNL A   1      32.991  21.666  26.177  1.00  0.00    -0.045 A 
ATOM     84  C   UNL A   1      34.324  21.226  26.183  1.00  0.00     0.007 A 
ATOM     85  C   UNL A   1      32.048  20.952  25.424  1.00  0.00     0.007 A 
ATOM     86  C   UNL A   1      34.716  20.122  25.423  1.00  0.00     0.046 A 
ATOM     87  C   UNL A   1      32.436  19.839  24.676  1.00  0.00     0.046 A 
ATOM     88  C   UNL A   1      33.767  19.442  24.669  1.00  0.00     0.115 A 
BRANCH  88  89
ATOM     89  O   UNL A   1      34.109  18.372  23.898  1.00  0.00    -0.508 OA
ATOM     90  H   UNL A   1      33.448  17.775  23.606  1.00  0.00     0.293 HD
ENDBRANCH  88  89
ENDBRANCH  82  83
ENDBRANCH  70  82
ENDBRANCH  67  70
ENDBRANCH  65  66
BRANCH  65  91
ATOM     91  C   UNL A   1      30.160  24.816  22.981  1.00  0.00     0.191 C 
BRANCH  91  92
ATOM     92  O   UNL A   1      31.288  25.185  22.180  1.00  0.00    -0.394 OA
ATOM     93  H   UNL A   1      32.068  24.686  22.469  1.00  0.00     0.210 HD
ENDBRANCH  91  92
ENDBRANCH  65  91
ENDBRANCH  62  65
ENDBRANCH  60  61
ENDBRANCH   1  60
TORSDOF 22
ENDMDL
