MODEL 1
REMARK VINA RESULT:     -10.0      0.000      0.000
REMARK SMILES C[NH2+]C[C@@H](C)C(=O)Nc1ccc(Cl)cc1C(=O)NCCCCCCNC(=O)c1ccc(-c2c3nc(c(-c4ccccc4)c4ccc([nH]4)c(-c4ccccc4)c4nc(c(-c5ccccc5)c5ccc2[nH]5)C=C4)C=C3)cc1
REMARK SMILES IDX 20 1 19 2 18 3 16 4 17 5 15 7 9 8 10 9 11 10 14 11 12 12
REMARK SMILES IDX 13 13 8 14 6 15 7 16 4 18 5 19 3 20 2 21 1 22 21 25 22 26
REMARK SMILES IDX 23 27 24 28 25 29 26 30 27 32 28 33 29 34 75 35 30 36 74 37
REMARK SMILES IDX 31 38 32 39 33 40 68 41 34 42 73 43 67 44 69 45 35 46 72 47
REMARK SMILES IDX 66 48 65 49 36 51 58 52 43 53 57 54 44 55 47 56 56 57 70 58
REMARK SMILES IDX 45 59 46 60 55 62 71 63 48 64 37 65 38 66 42 67 39 68 41 69
REMARK SMILES IDX 40 70 59 71 60 72 64 73 61 74 63 75 62 76 49 77 50 78 54 79
REMARK SMILES IDX 51 80 53 81 52 82
REMARK H PARENT 18 6 8 17 2 23 2 24 25 31 69 50 47 61
REMARK Flexibility Score: inf
ROOT
ATOM      1  C   UNL A   1      34.325  28.932  27.084  1.00  0.00     0.021 C 
ENDROOT
BRANCH   1   2
ATOM      2  C   UNL A   1      33.648  27.975  26.114  1.00  0.00     0.116 C 
BRANCH   2   3
ATOM      3  N   UNL A   1      32.652  27.105  26.673  1.00  0.00    -0.352 N 
ATOM      4  C   UNL A   1      32.075  25.963  26.180  1.00  0.00     0.253 C 
ATOM      5  O   UNL A   1      31.247  25.418  26.917  1.00  0.00    -0.269 OA
ATOM      6  H   UNL A   1      32.329  27.374  27.563  1.00  0.00     0.163 HD
BRANCH   4   7
ATOM      7  C   UNL A   1      32.320  25.336  24.835  1.00  0.00     0.064 A 
ATOM      8  C   UNL A   1      31.514  25.340  23.679  1.00  0.00     0.054 A 
ATOM      9  C   UNL A   1      32.061  24.926  22.453  1.00  0.00     0.028 A 
ATOM     10  C   UNL A   1      33.318  24.338  22.376  1.00  0.00     0.023 A 
ATOM     11  C   UNL A   1      33.588  24.716  24.738  1.00  0.00     0.036 A 
ATOM     12  C   UNL A   1      34.066  24.200  23.532  1.00  0.00     0.041 A 
ATOM     13  Cl  UNL A   1      35.598  23.427  23.466  1.00  0.00    -0.084 Cl
BRANCH   8  14
ATOM     14  N   UNL A   1      30.212  25.845  23.617  1.00  0.00    -0.325 N 
ATOM     15  C   UNL A   1      29.793  27.149  23.515  1.00  0.00     0.232 C 
ATOM     16  O   UNL A   1      28.567  27.330  23.504  1.00  0.00    -0.274 OA
ATOM     17  H   UNL A   1      29.496  25.170  23.651  1.00  0.00     0.169 HD
BRANCH  15  18
ATOM     18  C   UNL A   1      30.727  28.363  23.282  1.00  0.00     0.130 C 
ATOM     19  C   UNL A   1      30.727  29.396  24.410  1.00  0.00     0.024 C 
BRANCH  18  20
ATOM     20  C   UNL A   1      30.585  28.990  21.889  1.00  0.00     0.273 C 
BRANCH  20  21
ATOM     21  N   UNL A   1      30.060  30.359  21.822  1.00  0.00    -0.348 N 
ATOM     22  C   UNL A   1      28.623  30.426  21.627  1.00  0.00     0.330 C 
ATOM     23  H   UNL A   1      30.290  30.833  22.695  1.00  0.00     0.346 HD
ATOM     24  H   UNL A   1      30.492  30.803  21.011  1.00  0.00     0.346 HD
ENDBRANCH  20  21
ENDBRANCH  18  20
ENDBRANCH  15  18
ENDBRANCH   8  14
ENDBRANCH   4   7
ENDBRANCH   2   3
ENDBRANCH   1   2
BRANCH   1  25
ATOM     25  C   UNL A   1      33.730  30.336  27.180  1.00  0.00     0.002 C 
BRANCH  25  26
ATOM     26  C   UNL A   1      32.214  30.465  27.009  1.00  0.00     0.002 C 
BRANCH  26  27
ATOM     27  C   UNL A   1      31.613  31.871  27.097  1.00  0.00     0.021 C 
BRANCH  27  28
ATOM     28  C   UNL A   1      32.548  33.033  26.779  1.00  0.00     0.116 C 
BRANCH  28  29
ATOM     29  N   UNL A   1      32.362  34.172  27.659  1.00  0.00    -0.352 N 
ATOM     30  C   UNL A   1      33.098  34.578  28.741  1.00  0.00     0.251 C 
ATOM     31  H   UNL A   1      31.588  34.741  27.446  1.00  0.00     0.163 HD
ATOM     32  O   UNL A   1      32.694  35.516  29.432  1.00  0.00    -0.269 OA
BRANCH  30  33
ATOM     33  C   UNL A   1      34.356  33.893  29.111  1.00  0.00     0.039 A 
ATOM     34  C   UNL A   1      35.504  34.155  28.357  1.00  0.00     0.014 A 
ATOM     35  C   UNL A   1      34.411  32.973  30.162  1.00  0.00     0.014 A 
ATOM     36  C   UNL A   1      36.711  33.534  28.683  1.00  0.00     0.010 A 
ATOM     37  C   UNL A   1      35.633  32.408  30.531  1.00  0.00     0.010 A 
ATOM     38  C   UNL A   1      36.793  32.674  29.791  1.00  0.00    -0.014 A 
BRANCH  38  39
ATOM     39  C   UNL A   1      38.086  32.048  30.174  1.00  0.00     0.031 A 
ATOM     40  C   UNL A   1      39.030  32.758  31.108  1.00  0.00     0.074 A 
ATOM     41  C   UNL A   1      38.434  30.859  29.645  1.00  0.00     0.049 A 
ATOM     42  N   UNL A   1      40.209  32.379  31.535  1.00  0.00    -0.248 NA
ATOM     43  C   UNL A   1      38.609  34.077  31.609  1.00  0.00     0.031 C 
ATOM     44  C   UNL A   1      37.633  30.089  28.690  1.00  0.00     0.029 A 
ATOM     45  N   UNL A   1      39.556  30.091  29.831  1.00  0.00    -0.354 N 
ATOM     46  C   UNL A   1      40.676  33.417  32.333  1.00  0.00     0.074 A 
ATOM     47  C   UNL A   1      39.674  34.459  32.299  1.00  0.00     0.031 C 
ATOM     48  C   UNL A   1      38.280  28.950  28.392  1.00  0.00     0.029 A 
ATOM     49  C   UNL A   1      39.553  28.925  29.103  1.00  0.00     0.049 A 
ATOM     50  H   UNL A   1      40.294  30.350  30.429  1.00  0.00     0.167 HD
ATOM     51  C   UNL A   1      41.827  33.490  33.043  1.00  0.00     0.031 A 
ATOM     52  C   UNL A   1      40.475  27.947  29.012  1.00  0.00     0.031 A 
ATOM     53  C   UNL A   1      42.815  32.445  33.095  1.00  0.00     0.049 A 
ATOM     54  C   UNL A   1      41.736  28.048  29.824  1.00  0.00     0.074 A 
ATOM     55  C   UNL A   1      43.977  32.396  33.847  1.00  0.00     0.029 A 
ATOM     56  N   UNL A   1      42.760  31.268  32.367  1.00  0.00    -0.354 N 
ATOM     57  N   UNL A   1      42.119  28.997  30.643  1.00  0.00    -0.248 NA
ATOM     58  C   UNL A   1      42.685  26.930  29.713  1.00  0.00     0.031 C 
ATOM     59  C   UNL A   1      44.654  31.216  33.528  1.00  0.00     0.029 A 
ATOM     60  C   UNL A   1      43.882  30.499  32.629  1.00  0.00     0.049 A 
ATOM     61  H   UNL A   1      42.032  31.016  31.753  1.00  0.00     0.167 HD
ATOM     62  C   UNL A   1      43.335  28.577  31.168  1.00  0.00     0.074 A 
ATOM     63  C   UNL A   1      43.614  27.278  30.592  1.00  0.00     0.031 C 
ATOM     64  C   UNL A   1      44.147  29.207  32.050  1.00  0.00     0.031 A 
BRANCH  51  65
ATOM     65  C   UNL A   1      42.093  34.751  33.818  1.00  0.00    -0.014 A 
ATOM     66  C   UNL A   1      41.719  34.874  35.166  1.00  0.00     0.009 A 
ATOM     67  C   UNL A   1      42.786  35.808  33.208  1.00  0.00     0.009 A 
ATOM     68  C   UNL A   1      42.008  36.041  35.876  1.00  0.00     0.001 A 
ATOM     69  C   UNL A   1      43.099  36.962  33.929  1.00  0.00     0.001 A 
ATOM     70  C   UNL A   1      42.703  37.081  35.260  1.00  0.00     0.000 A 
ENDBRANCH  51  65
BRANCH  52  71
ATOM     71  C   UNL A   1      40.243  26.779  28.120  1.00  0.00    -0.014 A 
ATOM     72  C   UNL A   1      39.508  25.670  28.567  1.00  0.00     0.009 A 
ATOM     73  C   UNL A   1      40.785  26.755  26.826  1.00  0.00     0.009 A 
ATOM     74  C   UNL A   1      39.353  24.546  27.750  1.00  0.00     0.001 A 
ATOM     75  C   UNL A   1      40.600  25.645  25.999  1.00  0.00     0.001 A 
ATOM     76  C   UNL A   1      39.896  24.537  26.466  1.00  0.00     0.000 A 
ENDBRANCH  52  71
BRANCH  64  77
ATOM     77  C   UNL A   1      45.392  28.483  32.480  1.00  0.00    -0.014 A 
ATOM     78  C   UNL A   1      45.390  27.607  33.577  1.00  0.00     0.009 A 
ATOM     79  C   UNL A   1      46.581  28.662  31.756  1.00  0.00     0.009 A 
ATOM     80  C   UNL A   1      46.565  26.961  33.966  1.00  0.00     0.001 A 
ATOM     81  C   UNL A   1      47.746  27.989  32.126  1.00  0.00     0.001 A 
ATOM     82  C   UNL A   1      47.740  27.149  33.237  1.00  0.00     0.000 A 
ENDBRANCH  64  77
ENDBRANCH  38  39
ENDBRANCH  30  33
ENDBRANCH  28  29
ENDBRANCH  27  28
ENDBRANCH  26  27
ENDBRANCH  25  26
ENDBRANCH   1  25
TORSDOF 17
ENDMDL
MODEL 2
REMARK VINA RESULT:     -10.0      4.193      8.901
REMARK SMILES C[NH2+]C[C@@H](C)C(=O)Nc1ccc(Cl)cc1C(=O)NCCCCCCNC(=O)c1ccc(-c2c3nc(c(-c4ccccc4)c4ccc([nH]4)c(-c4ccccc4)c4nc(c(-c5ccccc5)c5ccc2[nH]5)C=C4)C=C3)cc1
REMARK SMILES IDX 20 1 19 2 18 3 16 4 17 5 15 7 9 8 10 9 11 10 14 11 12 12
REMARK SMILES IDX 13 13 8 14 6 15 7 16 4 18 5 19 3 20 2 21 1 22 21 25 22 26
REMARK SMILES IDX 23 27 24 28 25 29 26 30 27 32 28 33 29 34 75 35 30 36 74 37
REMARK SMILES IDX 31 38 32 39 33 40 68 41 34 42 73 43 67 44 69 45 35 46 72 47
REMARK SMILES IDX 66 48 65 49 36 51 58 52 43 53 57 54 44 55 47 56 56 57 70 58
REMARK SMILES IDX 45 59 46 60 55 62 71 63 48 64 37 65 38 66 42 67 39 68 41 69
REMARK SMILES IDX 40 70 59 71 60 72 64 73 61 74 63 75 62 76 49 77 50 78 54 79
REMARK SMILES IDX 51 80 53 81 52 82
REMARK H PARENT 18 6 8 17 2 23 2 24 25 31 69 50 47 61
REMARK Flexibility Score: inf
ROOT
ATOM      1  C   UNL A   1      37.347  23.008  25.188  1.00  0.00     0.021 C 
ENDROOT
BRANCH   1   2
ATOM      2  C   UNL A   1      36.186  23.878  25.649  1.00  0.00     0.116 C 
BRANCH   2   3
ATOM      3  N   UNL A   1      35.277  23.279  26.584  1.00  0.00    -0.352 N 
ATOM      4  C   UNL A   1      34.074  22.649  26.393  1.00  0.00     0.253 C 
ATOM      5  O   UNL A   1      33.527  22.215  27.412  1.00  0.00    -0.269 OA
ATOM      6  H   UNL A   1      35.567  23.328  27.524  1.00  0.00     0.163 HD
BRANCH   4   7
ATOM      7  C   UNL A   1      33.347  22.468  25.090  1.00  0.00     0.064 A 
ATOM      8  C   UNL A   1      32.932  23.431  24.147  1.00  0.00     0.054 A 
ATOM      9  C   UNL A   1      32.514  23.015  22.873  1.00  0.00     0.028 A 
ATOM     10  C   UNL A   1      32.320  21.673  22.569  1.00  0.00     0.023 A 
ATOM     11  C   UNL A   1      33.122  21.109  24.767  1.00  0.00     0.036 A 
ATOM     12  C   UNL A   1      32.590  20.721  23.537  1.00  0.00     0.041 A 
ATOM     13  Cl  UNL A   1      32.305  19.061  23.199  1.00  0.00    -0.084 Cl
BRANCH   8  14
ATOM     14  N   UNL A   1      33.013  24.814  24.333  1.00  0.00    -0.325 N 
ATOM     15  C   UNL A   1      31.998  25.726  24.498  1.00  0.00     0.232 C 
ATOM     16  O   UNL A   1      32.342  26.910  24.621  1.00  0.00    -0.274 OA
ATOM     17  H   UNL A   1      33.924  25.186  24.349  1.00  0.00     0.169 HD
BRANCH  15  18
ATOM     18  C   UNL A   1      30.502  25.363  24.672  1.00  0.00     0.130 C 
ATOM     19  C   UNL A   1      29.536  26.230  23.863  1.00  0.00     0.024 C 
BRANCH  18  20
ATOM     20  C   UNL A   1      30.077  25.189  26.136  1.00  0.00     0.273 C 
BRANCH  20  21
ATOM     21  N   UNL A   1      30.755  24.143  26.909  1.00  0.00    -0.348 N 
ATOM     22  C   UNL A   1      30.052  22.872  26.919  1.00  0.00     0.330 C 
ATOM     23  H   UNL A   1      31.680  23.996  26.507  1.00  0.00     0.346 HD
ATOM     24  H   UNL A   1      30.796  24.468  27.876  1.00  0.00     0.346 HD
ENDBRANCH  20  21
ENDBRANCH  18  20
ENDBRANCH  15  18
ENDBRANCH   8  14
ENDBRANCH   4   7
ENDBRANCH   2   3
ENDBRANCH   1   2
BRANCH   1  25
ATOM     25  C   UNL A   1      36.999  21.844  24.261  1.00  0.00     0.002 C 
BRANCH  25  26
ATOM     26  C   UNL A   1      36.910  20.452  24.893  1.00  0.00     0.002 C 
BRANCH  26  27
ATOM     27  C   UNL A   1      38.175  19.590  24.875  1.00  0.00     0.021 C 
BRANCH  27  28
ATOM     28  C   UNL A   1      39.204  19.867  25.966  1.00  0.00     0.116 C 
BRANCH  28  29
ATOM     29  N   UNL A   1      40.338  18.961  25.923  1.00  0.00    -0.352 N 
ATOM     30  C   UNL A   1      41.671  19.210  26.117  1.00  0.00     0.251 C 
ATOM     31  H   UNL A   1      40.114  18.024  25.725  1.00  0.00     0.163 HD
ATOM     32  O   UNL A   1      42.491  18.312  25.914  1.00  0.00    -0.269 OA
BRANCH  30  33
ATOM     33  C   UNL A   1      42.146  20.546  26.539  1.00  0.00     0.039 A 
ATOM     34  C   UNL A   1      42.709  21.388  25.574  1.00  0.00     0.014 A 
ATOM     35  C   UNL A   1      42.081  20.964  27.871  1.00  0.00     0.014 A 
ATOM     36  C   UNL A   1      43.160  22.660  25.934  1.00  0.00     0.010 A 
ATOM     37  C   UNL A   1      42.466  22.260  28.216  1.00  0.00     0.010 A 
ATOM     38  C   UNL A   1      43.018  23.118  27.254  1.00  0.00    -0.014 A 
BRANCH  38  39
ATOM     39  C   UNL A   1      43.451  24.489  27.634  1.00  0.00     0.031 A 
ATOM     40  C   UNL A   1      42.431  25.544  27.973  1.00  0.00     0.074 A 
ATOM     41  C   UNL A   1      44.762  24.800  27.631  1.00  0.00     0.049 A 
ATOM     42  N   UNL A   1      42.619  26.797  28.304  1.00  0.00    -0.248 NA
ATOM     43  C   UNL A   1      41.015  25.149  27.909  1.00  0.00     0.031 C 
ATOM     44  C   UNL A   1      45.850  23.885  27.273  1.00  0.00     0.029 A 
ATOM     45  N   UNL A   1      45.404  25.976  27.930  1.00  0.00    -0.354 N 
ATOM     46  C   UNL A   1      41.352  27.342  28.464  1.00  0.00     0.074 A 
ATOM     47  C   UNL A   1      40.401  26.298  28.156  1.00  0.00     0.031 C 
ATOM     48  C   UNL A   1      47.022  24.527  27.396  1.00  0.00     0.029 A 
ATOM     49  C   UNL A   1      46.770  25.905  27.804  1.00  0.00     0.049 A 
ATOM     50  H   UNL A   1      44.930  26.793  28.209  1.00  0.00     0.167 HD
ATOM     51  C   UNL A   1      41.008  28.595  28.849  1.00  0.00     0.031 A 
ATOM     52  C   UNL A   1      47.716  26.846  27.988  1.00  0.00     0.031 A 
ATOM     53  C   UNL A   1      41.953  29.630  29.178  1.00  0.00     0.049 A 
ATOM     54  C   UNL A   1      47.307  28.223  28.431  1.00  0.00     0.074 A 
ATOM     55  C   UNL A   1      41.701  30.906  29.651  1.00  0.00     0.029 A 
ATOM     56  N   UNL A   1      43.329  29.509  29.065  1.00  0.00    -0.354 N 
ATOM     57  N   UNL A   1      46.106  28.694  28.665  1.00  0.00    -0.248 NA
ATOM     58  C   UNL A   1      48.388  29.194  28.655  1.00  0.00     0.031 C 
ATOM     59  C   UNL A   1      42.922  31.577  29.769  1.00  0.00     0.029 A 
ATOM     60  C   UNL A   1      43.937  30.698  29.432  1.00  0.00     0.049 A 
ATOM     61  H   UNL A   1      43.803  28.699  28.767  1.00  0.00     0.167 HD
ATOM     62  C   UNL A   1      46.289  30.003  29.093  1.00  0.00     0.074 A 
ATOM     63  C   UNL A   1      47.717  30.244  29.107  1.00  0.00     0.031 C 
ATOM     64  C   UNL A   1      45.359  30.924  29.444  1.00  0.00     0.031 A 
BRANCH  51  65
ATOM     65  C   UNL A   1      39.543  28.928  28.928  1.00  0.00    -0.014 A 
ATOM     66  C   UNL A   1      38.845  29.425  27.816  1.00  0.00     0.009 A 
ATOM     67  C   UNL A   1      38.838  28.679  30.116  1.00  0.00     0.009 A 
ATOM     68  C   UNL A   1      37.477  29.694  27.902  1.00  0.00     0.001 A 
ATOM     69  C   UNL A   1      37.465  28.922  30.191  1.00  0.00     0.001 A 
ATOM     70  C   UNL A   1      36.787  29.436  29.086  1.00  0.00     0.000 A 
ENDBRANCH  51  65
BRANCH  52  71
ATOM     71  C   UNL A   1      49.150  26.522  27.760  1.00  0.00    -0.014 A 
ATOM     72  C   UNL A   1      49.949  26.026  28.802  1.00  0.00     0.009 A 
ATOM     73  C   UNL A   1      49.736  26.739  26.503  1.00  0.00     0.009 A 
ATOM     74  C   UNL A   1      51.312  25.791  28.601  1.00  0.00     0.001 A 
ATOM     75  C   UNL A   1      51.091  26.470  26.295  1.00  0.00     0.001 A 
ATOM     76  C   UNL A   1      51.880  26.010  27.347  1.00  0.00     0.000 A 
ENDBRANCH  52  71
BRANCH  64  77
ATOM     77  C   UNL A   1      45.858  32.260  29.917  1.00  0.00    -0.014 A 
ATOM     78  C   UNL A   1      46.041  32.535  31.281  1.00  0.00     0.009 A 
ATOM     79  C   UNL A   1      46.175  33.253  28.976  1.00  0.00     0.009 A 
ATOM     80  C   UNL A   1      46.489  33.792  31.694  1.00  0.00     0.001 A 
ATOM     81  C   UNL A   1      46.653  34.497  29.389  1.00  0.00     0.001 A 
ATOM     82  C   UNL A   1      46.798  34.769  30.748  1.00  0.00     0.000 A 
ENDBRANCH  64  77
ENDBRANCH  38  39
ENDBRANCH  30  33
ENDBRANCH  28  29
ENDBRANCH  27  28
ENDBRANCH  26  27
ENDBRANCH  25  26
ENDBRANCH   1  25
TORSDOF 17
ENDMDL
MODEL 3
REMARK VINA RESULT:      -9.6      2.267      3.225
REMARK SMILES C[NH2+]C[C@@H](C)C(=O)Nc1ccc(Cl)cc1C(=O)NCCCCCCNC(=O)c1ccc(-c2c3nc(c(-c4ccccc4)c4ccc([nH]4)c(-c4ccccc4)c4nc(c(-c5ccccc5)c5ccc2[nH]5)C=C4)C=C3)cc1
REMARK SMILES IDX 20 1 19 2 18 3 16 4 17 5 15 7 9 8 10 9 11 10 14 11 12 12
REMARK SMILES IDX 13 13 8 14 6 15 7 16 4 18 5 19 3 20 2 21 1 22 21 25 22 26
REMARK SMILES IDX 23 27 24 28 25 29 26 30 27 32 28 33 29 34 75 35 30 36 74 37
REMARK SMILES IDX 31 38 32 39 33 40 68 41 34 42 73 43 67 44 69 45 35 46 72 47
REMARK SMILES IDX 66 48 65 49 36 51 58 52 43 53 57 54 44 55 47 56 56 57 70 58
REMARK SMILES IDX 45 59 46 60 55 62 71 63 48 64 37 65 38 66 42 67 39 68 41 69
REMARK SMILES IDX 40 70 59 71 60 72 64 73 61 74 63 75 62 76 49 77 50 78 54 79
REMARK SMILES IDX 51 80 53 81 52 82
REMARK H PARENT 18 6 8 17 2 23 2 24 25 31 69 50 47 61
REMARK Flexibility Score: inf
ROOT
ATOM      1  C   UNL A   1      34.996  30.068  27.219  1.00  0.00     0.021 C 
ENDROOT
BRANCH   1   2
ATOM      2  C   UNL A   1      34.164  28.856  26.827  1.00  0.00     0.116 C 
BRANCH   2   3
ATOM      3  N   UNL A   1      33.008  28.591  27.636  1.00  0.00    -0.352 N 
ATOM      4  C   UNL A   1      31.805  28.009  27.325  1.00  0.00     0.253 C 
ATOM      5  O   UNL A   1      31.002  27.903  28.258  1.00  0.00    -0.269 OA
ATOM      6  H   UNL A   1      33.093  28.876  28.574  1.00  0.00     0.163 HD
BRANCH   4   7
ATOM      7  C   UNL A   1      31.359  27.527  25.973  1.00  0.00     0.064 A 
ATOM      8  C   UNL A   1      30.641  26.365  25.622  1.00  0.00     0.054 A 
ATOM      9  C   UNL A   1      30.095  26.253  24.333  1.00  0.00     0.028 A 
ATOM     10  C   UNL A   1      30.394  27.169  23.330  1.00  0.00     0.023 A 
ATOM     11  C   UNL A   1      31.667  28.436  24.933  1.00  0.00     0.036 A 
ATOM     12  C   UNL A   1      31.215  28.243  23.627  1.00  0.00     0.041 A 
ATOM     13  Cl  UNL A   1      31.640  29.355  22.389  1.00  0.00    -0.084 Cl
BRANCH   8  14
ATOM     14  N   UNL A   1      30.316  25.333  26.506  1.00  0.00    -0.325 N 
ATOM     15  C   UNL A   1      30.787  24.043  26.542  1.00  0.00     0.232 C 
ATOM     16  O   UNL A   1      30.313  23.312  27.423  1.00  0.00    -0.274 OA
ATOM     17  H   UNL A   1      29.656  25.563  27.199  1.00  0.00     0.169 HD
BRANCH  15  18
ATOM     18  C   UNL A   1      31.943  23.499  25.664  1.00  0.00     0.130 C 
ATOM     19  C   UNL A   1      31.989  21.975  25.542  1.00  0.00     0.024 C 
BRANCH  18  20
ATOM     20  C   UNL A   1      33.307  24.120  25.989  1.00  0.00     0.273 C 
BRANCH  20  21
ATOM     21  N   UNL A   1      34.257  24.264  24.880  1.00  0.00    -0.348 N 
ATOM     22  C   UNL A   1      33.890  25.292  23.923  1.00  0.00     0.330 C 
ATOM     23  H   UNL A   1      35.171  24.497  25.268  1.00  0.00     0.346 HD
ATOM     24  H   UNL A   1      34.262  23.377  24.376  1.00  0.00     0.346 HD
ENDBRANCH  20  21
ENDBRANCH  18  20
ENDBRANCH  15  18
ENDBRANCH   8  14
ENDBRANCH   4   7
ENDBRANCH   2   3
ENDBRANCH   1   2
BRANCH   1  25
ATOM     25  C   UNL A   1      34.323  31.087  28.137  1.00  0.00     0.002 C 
BRANCH  25  26
ATOM     26  C   UNL A   1      34.757  32.549  27.993  1.00  0.00     0.002 C 
BRANCH  26  27
ATOM     27  C   UNL A   1      33.659  33.615  28.035  1.00  0.00     0.021 C 
BRANCH  27  28
ATOM     28  C   UNL A   1      34.037  34.959  28.648  1.00  0.00     0.116 C 
BRANCH  28  29
ATOM     29  N   UNL A   1      33.427  35.185  29.946  1.00  0.00    -0.352 N 
ATOM     30  C   UNL A   1      33.763  34.681  31.175  1.00  0.00     0.251 C 
ATOM     31  H   UNL A   1      32.655  35.795  29.942  1.00  0.00     0.163 HD
ATOM     32  O   UNL A   1      33.032  34.908  32.143  1.00  0.00    -0.269 OA
BRANCH  30  33
ATOM     33  C   UNL A   1      34.971  33.847  31.357  1.00  0.00     0.039 A 
ATOM     34  C   UNL A   1      36.208  34.377  30.980  1.00  0.00     0.014 A 
ATOM     35  C   UNL A   1      34.897  32.544  31.856  1.00  0.00     0.014 A 
ATOM     36  C   UNL A   1      37.372  33.622  31.146  1.00  0.00     0.010 A 
ATOM     37  C   UNL A   1      36.066  31.818  32.089  1.00  0.00     0.010 A 
ATOM     38  C   UNL A   1      37.315  32.345  31.727  1.00  0.00    -0.014 A 
BRANCH  38  39
ATOM     39  C   UNL A   1      38.554  31.556  31.953  1.00  0.00     0.031 A 
ATOM     40  C   UNL A   1      39.435  31.841  33.140  1.00  0.00     0.074 A 
ATOM     41  C   UNL A   1      38.913  30.609  31.064  1.00  0.00     0.049 A 
ATOM     42  N   UNL A   1      40.563  31.274  33.486  1.00  0.00    -0.248 NA
ATOM     43  C   UNL A   1      39.008  32.922  34.044  1.00  0.00     0.031 C 
ATOM     44  C   UNL A   1      38.175  30.267  29.845  1.00  0.00     0.029 A 
ATOM     45  N   UNL A   1      39.996  29.765  31.043  1.00  0.00    -0.354 N 
ATOM     46  C   UNL A   1      40.989  31.940  34.629  1.00  0.00     0.074 A 
ATOM     47  C   UNL A   1      40.021  32.980  34.897  1.00  0.00     0.031 C 
ATOM     48  C   UNL A   1      38.814  29.271  29.210  1.00  0.00     0.029 A 
ATOM     49  C   UNL A   1      40.022  28.930  29.952  1.00  0.00     0.049 A 
ATOM     50  H   UNL A   1      40.688  29.759  31.744  1.00  0.00     0.167 HD
ATOM     51  C   UNL A   1      42.078  31.698  35.397  1.00  0.00     0.031 A 
ATOM     52  C   UNL A   1      40.922  27.997  29.585  1.00  0.00     0.031 A 
ATOM     53  C   UNL A   1      43.031  30.648  35.145  1.00  0.00     0.049 A 
ATOM     54  C   UNL A   1      42.114  27.740  30.465  1.00  0.00     0.074 A 
ATOM     55  C   UNL A   1      44.124  30.277  35.909  1.00  0.00     0.029 A 
ATOM     56  N   UNL A   1      43.006  29.805  34.046  1.00  0.00    -0.354 N 
ATOM     57  N   UNL A   1      42.452  28.319  31.591  1.00  0.00    -0.248 NA
ATOM     58  C   UNL A   1      43.039  26.681  30.033  1.00  0.00     0.031 C 
ATOM     59  C   UNL A   1      44.794  29.248  35.241  1.00  0.00     0.029 A 
ATOM     60  C   UNL A   1      44.082  28.934  34.096  1.00  0.00     0.049 A 
ATOM     61  H   UNL A   1      42.326  29.824  33.334  1.00  0.00     0.167 HD
ATOM     62  C   UNL A   1      43.608  27.677  32.017  1.00  0.00     0.074 A 
ATOM     63  C   UNL A   1      43.900  26.649  31.040  1.00  0.00     0.031 C 
ATOM     64  C   UNL A   1      44.360  27.914  33.119  1.00  0.00     0.031 A 
BRANCH  51  65
ATOM     65  C   UNL A   1      42.312  32.591  36.584  1.00  0.00    -0.014 A 
ATOM     66  C   UNL A   1      41.877  32.228  37.869  1.00  0.00     0.009 A 
ATOM     67  C   UNL A   1      43.034  33.784  36.424  1.00  0.00     0.009 A 
ATOM     68  C   UNL A   1      42.136  33.058  38.963  1.00  0.00     0.001 A 
ATOM     69  C   UNL A   1      43.317  34.596  37.524  1.00  0.00     0.001 A 
ATOM     70  C   UNL A   1      42.861  34.237  38.791  1.00  0.00     0.000 A 
ENDBRANCH  51  65
BRANCH  52  71
ATOM     71  C   UNL A   1      40.735  27.230  28.325  1.00  0.00    -0.014 A 
ATOM     72  C   UNL A   1      39.960  26.060  28.306  1.00  0.00     0.009 A 
ATOM     73  C   UNL A   1      41.360  27.648  27.139  1.00  0.00     0.009 A 
ATOM     74  C   UNL A   1      39.846  25.304  27.135  1.00  0.00     0.001 A 
ATOM     75  C   UNL A   1      41.216  26.909  25.963  1.00  0.00     0.001 A 
ATOM     76  C   UNL A   1      40.471  25.732  25.965  1.00  0.00     0.000 A 
ENDBRANCH  52  71
BRANCH  64  77
ATOM     77  C   UNL A   1      45.545  27.019  33.349  1.00  0.00    -0.014 A 
ATOM     78  C   UNL A   1      45.427  25.812  34.056  1.00  0.00     0.009 A 
ATOM     79  C   UNL A   1      46.796  27.380  32.826  1.00  0.00     0.009 A 
ATOM     80  C   UNL A   1      46.547  25.008  34.272  1.00  0.00     0.001 A 
ATOM     81  C   UNL A   1      47.908  26.558  33.014  1.00  0.00     0.001 A 
ATOM     82  C   UNL A   1      47.786  25.379  33.747  1.00  0.00     0.000 A 
ENDBRANCH  64  77
ENDBRANCH  38  39
ENDBRANCH  30  33
ENDBRANCH  28  29
ENDBRANCH  27  28
ENDBRANCH  26  27
ENDBRANCH  25  26
ENDBRANCH   1  25
TORSDOF 17
ENDMDL
