MODEL 1
REMARK VINA RESULT:     -10.6      0.000      0.000
REMARK SMILES O=C(C[C@H]1CCCCO1)N[C@@H](C(=O)NCCCCCCNC(=O)c1ccc(-c2c3nc(c(-c4ccccc4)c4ccc([nH]4)c(-c4ccccc4)c4nc(c(-c5ccccc5)c5ccc2[nH]5)C=C4)C=C3)cc1)C1CCCCC1
REMARK SMILES IDX 17 1 16 2 15 3 14 4 12 5 13 6 11 8 10 9 1 10 2 11 3 13 4 14
REMARK SMILES IDX 5 15 9 16 6 17 8 18 7 19 72 20 73 21 77 22 74 23 76 24 75 25
REMARK SMILES IDX 18 26 19 27 20 28 21 29 22 30 23 32 24 33 25 34 71 35 26 36
REMARK SMILES IDX 70 37 27 38 28 39 29 40 64 41 30 42 69 43 63 44 65 45 31 46
REMARK SMILES IDX 68 47 62 48 61 49 32 51 54 52 39 53 53 54 40 55 43 56 52 57
REMARK SMILES IDX 66 58 41 59 42 60 51 62 67 63 44 64 33 65 34 66 38 67 35 68
REMARK SMILES IDX 37 69 36 70 55 71 56 72 60 73 57 74 59 75 58 76 45 77 46 78
REMARK SMILES IDX 50 79 47 80 49 81 48 82
REMARK H PARENT 14 7 10 12 21 31 65 50 43 61
REMARK Flexibility Score: inf
ROOT
ATOM      1  C   UNL A   1      33.839  22.867  23.919  1.00  0.00     0.002 C 
ENDROOT
BRANCH   1   2
ATOM      2  C   UNL A   1      33.733  24.350  24.298  1.00  0.00     0.021 C 
BRANCH   2   3
ATOM      3  C   UNL A   1      32.712  25.113  23.454  1.00  0.00     0.116 C 
BRANCH   3   4
ATOM      4  N   UNL A   1      33.340  26.246  22.809  1.00  0.00    -0.354 N 
ATOM      5  C   UNL A   1      33.042  27.571  22.934  1.00  0.00     0.242 C 
ATOM      6  O   UNL A   1      33.580  28.351  22.146  1.00  0.00    -0.273 OA
ATOM      7  H   UNL A   1      34.082  26.032  22.198  1.00  0.00     0.163 HD
BRANCH   5   8
ATOM      8  C   UNL A   1      32.050  28.035  24.031  1.00  0.00     0.174 C 
BRANCH   8   9
ATOM      9  N   UNL A   1      30.801  28.464  23.392  1.00  0.00    -0.344 N 
ATOM     10  O   UNL A   1      29.624  26.568  23.934  1.00  0.00    -0.275 OA
ATOM     11  C   UNL A   1      29.657  27.691  23.440  1.00  0.00     0.223 C 
ATOM     12  H   UNL A   1      30.779  29.325  22.915  1.00  0.00     0.164 HD
BRANCH  11  13
ATOM     13  C   UNL A   1      28.421  28.371  22.899  1.00  0.00     0.132 C 
BRANCH  13  14
ATOM     14  C   UNL A   1      28.811  29.812  22.594  1.00  0.00     0.127 C 
ATOM     15  C   UNL A   1      28.053  30.401  21.410  1.00  0.00     0.033 C 
ATOM     16  O   UNL A   1      28.547  30.621  23.747  1.00  0.00    -0.378 OA
ATOM     17  C   UNL A   1      28.578  31.813  21.151  1.00  0.00     0.005 C 
ATOM     18  C   UNL A   1      29.127  31.918  23.618  1.00  0.00     0.160 C 
ATOM     19  C   UNL A   1      28.536  32.658  22.423  1.00  0.00     0.029 C 
ENDBRANCH  13  14
ENDBRANCH  11  13
ENDBRANCH   8   9
BRANCH   8  20
ATOM     20  C   UNL A   1      32.672  29.172  24.894  1.00  0.00     0.021 C 
ATOM     21  C   UNL A   1      31.623  29.984  25.675  1.00  0.00     0.006 C 
ATOM     22  C   UNL A   1      33.713  28.576  25.867  1.00  0.00     0.006 C 
ATOM     23  C   UNL A   1      32.254  31.027  26.592  1.00  0.00     0.000 C 
ATOM     24  C   UNL A   1      34.333  29.632  26.775  1.00  0.00     0.000 C 
ATOM     25  C   UNL A   1      33.266  30.404  27.542  1.00  0.00     0.000 C 
ENDBRANCH   8  20
ENDBRANCH   5   8
ENDBRANCH   3   4
ENDBRANCH   2   3
ENDBRANCH   1   2
BRANCH   1  26
ATOM     26  C   UNL A   1      35.193  22.225  24.240  1.00  0.00     0.002 C 
BRANCH  26  27
ATOM     27  C   UNL A   1      36.406  23.071  23.846  1.00  0.00     0.021 C 
BRANCH  27  28
ATOM     28  C   UNL A   1      37.209  23.592  25.032  1.00  0.00     0.116 C 
BRANCH  28  29
ATOM     29  N   UNL A   1      38.253  22.658  25.426  1.00  0.00    -0.352 N 
ATOM     30  C   UNL A   1      39.415  22.898  26.110  1.00  0.00     0.251 C 
ATOM     31  H   UNL A   1      38.103  21.721  25.163  1.00  0.00     0.163 HD
ATOM     32  O   UNL A   1      40.295  22.040  26.163  1.00  0.00    -0.269 OA
BRANCH  30  33
ATOM     33  C   UNL A   1      39.614  24.200  26.775  1.00  0.00     0.039 A 
ATOM     34  C   UNL A   1      39.084  24.400  28.052  1.00  0.00     0.014 A 
ATOM     35  C   UNL A   1      40.324  25.222  26.136  1.00  0.00     0.014 A 
ATOM     36  C   UNL A   1      39.316  25.606  28.712  1.00  0.00     0.010 A 
ATOM     37  C   UNL A   1      40.616  26.394  26.825  1.00  0.00     0.010 A 
ATOM     38  C   UNL A   1      40.110  26.600  28.118  1.00  0.00    -0.014 A 
BRANCH  38  39
ATOM     39  C   UNL A   1      40.428  27.861  28.832  1.00  0.00     0.031 A 
ATOM     40  C   UNL A   1      41.746  28.017  29.540  1.00  0.00     0.074 A 
ATOM     41  C   UNL A   1      39.506  28.840  28.896  1.00  0.00     0.049 A 
ATOM     42  N   UNL A   1      42.179  29.016  30.267  1.00  0.00    -0.248 NA
ATOM     43  C   UNL A   1      42.691  26.892  29.440  1.00  0.00     0.031 C 
ATOM     44  C   UNL A   1      38.177  28.796  28.281  1.00  0.00     0.029 A 
ATOM     45  N   UNL A   1      39.545  30.064  29.516  1.00  0.00    -0.354 N 
ATOM     46  C   UNL A   1      43.436  28.636  30.719  1.00  0.00     0.074 A 
ATOM     47  C   UNL A   1      43.676  27.296  30.230  1.00  0.00     0.031 C 
ATOM     48  C   UNL A   1      37.540  29.951  28.531  1.00  0.00     0.029 A 
ATOM     49  C   UNL A   1      38.392  30.796  29.360  1.00  0.00     0.049 A 
ATOM     50  H   UNL A   1      40.324  30.386  30.024  1.00  0.00     0.167 HD
ATOM     51  C   UNL A   1      44.320  29.346  31.458  1.00  0.00     0.031 A 
ATOM     52  C   UNL A   1      38.056  32.008  29.839  1.00  0.00     0.031 A 
ATOM     53  C   UNL A   1      44.083  30.680  31.941  1.00  0.00     0.049 A 
ATOM     54  C   UNL A   1      39.045  32.763  30.684  1.00  0.00     0.074 A 
ATOM     55  C   UNL A   1      44.938  31.502  32.655  1.00  0.00     0.029 A 
ATOM     56  N   UNL A   1      42.903  31.385  31.764  1.00  0.00    -0.354 N 
ATOM     57  N   UNL A   1      40.257  32.417  31.046  1.00  0.00    -0.248 NA
ATOM     58  C   UNL A   1      38.621  34.079  31.179  1.00  0.00     0.031 C 
ATOM     59  C   UNL A   1      44.253  32.683  32.959  1.00  0.00     0.029 A 
ATOM     60  C   UNL A   1      42.997  32.622  32.379  1.00  0.00     0.049 A 
ATOM     61  H   UNL A   1      42.116  31.055  31.273  1.00  0.00     0.167 HD
ATOM     62  C   UNL A   1      40.751  33.486  31.783  1.00  0.00     0.074 A 
ATOM     63  C   UNL A   1      39.714  34.497  31.803  1.00  0.00     0.031 C 
ATOM     64  C   UNL A   1      41.956  33.618  32.390  1.00  0.00     0.031 A 
BRANCH  51  65
ATOM     65  C   UNL A   1      45.628  28.685  31.800  1.00  0.00    -0.014 A 
ATOM     66  C   UNL A   1      46.681  28.629  30.871  1.00  0.00     0.009 A 
ATOM     67  C   UNL A   1      45.826  28.145  33.080  1.00  0.00     0.009 A 
ATOM     68  C   UNL A   1      47.888  28.012  31.205  1.00  0.00     0.001 A 
ATOM     69  C   UNL A   1      47.045  27.557  33.422  1.00  0.00     0.001 A 
ATOM     70  C   UNL A   1      48.071  27.483  32.482  1.00  0.00     0.000 A 
ENDBRANCH  51  65
BRANCH  52  71
ATOM     71  C   UNL A   1      36.725  32.592  29.527  1.00  0.00    -0.014 A 
ATOM     72  C   UNL A   1      36.511  33.270  28.318  1.00  0.00     0.009 A 
ATOM     73  C   UNL A   1      35.665  32.486  30.442  1.00  0.00     0.009 A 
ATOM     74  C   UNL A   1      35.272  33.856  28.044  1.00  0.00     0.001 A 
ATOM     75  C   UNL A   1      34.419  33.045  30.151  1.00  0.00     0.001 A 
ATOM     76  C   UNL A   1      34.227  33.739  28.958  1.00  0.00     0.000 A 
ENDBRANCH  52  71
BRANCH  64  77
ATOM     77  C   UNL A   1      42.234  34.917  33.092  1.00  0.00    -0.014 A 
ATOM     78  C   UNL A   1      41.715  35.186  34.368  1.00  0.00     0.009 A 
ATOM     79  C   UNL A   1      43.067  35.870  32.483  1.00  0.00     0.009 A 
ATOM     80  C   UNL A   1      41.997  36.396  35.004  1.00  0.00     0.001 A 
ATOM     81  C   UNL A   1      43.374  37.065  33.135  1.00  0.00     0.001 A 
ATOM     82  C   UNL A   1      42.830  37.331  34.391  1.00  0.00     0.000 A 
ENDBRANCH  64  77
ENDBRANCH  38  39
ENDBRANCH  30  33
ENDBRANCH  28  29
ENDBRANCH  27  28
ENDBRANCH  26  27
ENDBRANCH   1  26
TORSDOF 17
ENDMDL
MODEL 2
REMARK VINA RESULT:     -10.5      0.846      5.895
REMARK SMILES O=C(C[C@H]1CCCCO1)N[C@@H](C(=O)NCCCCCCNC(=O)c1ccc(-c2c3nc(c(-c4ccccc4)c4ccc([nH]4)c(-c4ccccc4)c4nc(c(-c5ccccc5)c5ccc2[nH]5)C=C4)C=C3)cc1)C1CCCCC1
REMARK SMILES IDX 17 1 16 2 15 3 14 4 12 5 13 6 11 8 10 9 1 10 2 11 3 13 4 14
REMARK SMILES IDX 5 15 9 16 6 17 8 18 7 19 72 20 73 21 77 22 74 23 76 24 75 25
REMARK SMILES IDX 18 26 19 27 20 28 21 29 22 30 23 32 24 33 25 34 71 35 26 36
REMARK SMILES IDX 70 37 27 38 28 39 29 40 64 41 30 42 69 43 63 44 65 45 31 46
REMARK SMILES IDX 68 47 62 48 61 49 32 51 54 52 39 53 53 54 40 55 43 56 52 57
REMARK SMILES IDX 66 58 41 59 42 60 51 62 67 63 44 64 33 65 34 66 38 67 35 68
REMARK SMILES IDX 37 69 36 70 55 71 56 72 60 73 57 74 59 75 58 76 45 77 46 78
REMARK SMILES IDX 50 79 47 80 49 81 48 82
REMARK H PARENT 14 7 10 12 21 31 65 50 43 61
REMARK Flexibility Score: inf
ROOT
ATOM      1  C   UNL A   1      33.698  22.794  23.626  1.00  0.00     0.002 C 
ENDROOT
BRANCH   1   2
ATOM      2  C   UNL A   1      33.415  24.265  23.958  1.00  0.00     0.021 C 
BRANCH   2   3
ATOM      3  C   UNL A   1      32.639  24.989  22.858  1.00  0.00     0.116 C 
BRANCH   3   4
ATOM      4  N   UNL A   1      33.362  26.165  22.424  1.00  0.00    -0.354 N 
ATOM      5  C   UNL A   1      33.156  27.468  22.769  1.00  0.00     0.242 C 
ATOM      6  O   UNL A   1      33.768  28.328  22.133  1.00  0.00    -0.273 OA
ATOM      7  H   UNL A   1      34.103  26.002  21.796  1.00  0.00     0.163 HD
BRANCH   5   8
ATOM      8  C   UNL A   1      32.171  27.813  23.915  1.00  0.00     0.174 C 
BRANCH   8   9
ATOM      9  N   UNL A   1      30.892  28.234  23.333  1.00  0.00    -0.344 N 
ATOM     10  O   UNL A   1      29.718  26.395  24.046  1.00  0.00    -0.275 OA
ATOM     11  C   UNL A   1      29.740  27.490  23.492  1.00  0.00     0.223 C 
ATOM     12  H   UNL A   1      30.855  29.070  22.814  1.00  0.00     0.164 HD
BRANCH  11  13
ATOM     13  C   UNL A   1      28.485  28.167  22.994  1.00  0.00     0.132 C 
BRANCH  13  14
ATOM     14  C   UNL A   1      28.864  29.604  22.660  1.00  0.00     0.127 C 
ATOM     15  C   UNL A   1      28.108  30.161  21.460  1.00  0.00     0.033 C 
ATOM     16  O   UNL A   1      28.588  30.436  23.795  1.00  0.00    -0.378 OA
ATOM     17  C   UNL A   1      28.623  31.572  21.173  1.00  0.00     0.005 C 
ATOM     18  C   UNL A   1      29.158  31.734  23.641  1.00  0.00     0.160 C 
ATOM     19  C   UNL A   1      28.568  32.443  22.428  1.00  0.00     0.029 C 
ENDBRANCH  13  14
ENDBRANCH  11  13
ENDBRANCH   8   9
BRANCH   8  20
ATOM     20  C   UNL A   1      32.767  28.910  24.845  1.00  0.00     0.021 C 
ATOM     21  C   UNL A   1      31.692  29.735  25.577  1.00  0.00     0.006 C 
ATOM     22  C   UNL A   1      33.725  28.261  25.867  1.00  0.00     0.006 C 
ATOM     23  C   UNL A   1      32.291  30.737  26.560  1.00  0.00     0.000 C 
ATOM     24  C   UNL A   1      34.314  29.277  26.840  1.00  0.00     0.000 C 
ATOM     25  C   UNL A   1      33.222  30.061  27.556  1.00  0.00     0.000 C 
ENDBRANCH   8  20
ENDBRANCH   5   8
ENDBRANCH   3   4
ENDBRANCH   2   3
ENDBRANCH   1   2
BRANCH   1  26
ATOM     26  C   UNL A   1      35.101  22.313  24.014  1.00  0.00     0.002 C 
BRANCH  26  27
ATOM     27  C   UNL A   1      36.076  23.434  24.383  1.00  0.00     0.021 C 
BRANCH  27  28
ATOM     28  C   UNL A   1      36.601  23.351  25.812  1.00  0.00     0.116 C 
BRANCH  28  29
ATOM     29  N   UNL A   1      37.751  22.464  25.911  1.00  0.00    -0.352 N 
ATOM     30  C   UNL A   1      39.046  22.761  26.242  1.00  0.00     0.251 C 
ATOM     31  H   UNL A   1      37.572  21.517  25.712  1.00  0.00     0.163 HD
ATOM     32  O   UNL A   1      39.940  21.936  26.058  1.00  0.00    -0.269 OA
BRANCH  30  33
ATOM     33  C   UNL A   1      39.369  24.084  26.810  1.00  0.00     0.039 A 
ATOM     34  C   UNL A   1      39.001  24.367  28.127  1.00  0.00     0.014 A 
ATOM     35  C   UNL A   1      40.034  25.043  26.040  1.00  0.00     0.014 A 
ATOM     36  C   UNL A   1      39.352  25.593  28.691  1.00  0.00     0.010 A 
ATOM     37  C   UNL A   1      40.448  26.234  26.626  1.00  0.00     0.010 A 
ATOM     38  C   UNL A   1      40.106  26.523  27.956  1.00  0.00    -0.014 A 
BRANCH  38  39
ATOM     39  C   UNL A   1      40.551  27.802  28.561  1.00  0.00     0.031 A 
ATOM     40  C   UNL A   1      39.572  28.927  28.758  1.00  0.00     0.074 A 
ATOM     41  C   UNL A   1      41.850  27.973  28.876  1.00  0.00     0.049 A 
ATOM     42  N   UNL A   1      39.785  30.136  29.212  1.00  0.00    -0.248 NA
ATOM     43  C   UNL A   1      38.176  28.667  28.370  1.00  0.00     0.031 C 
ATOM     44  C   UNL A   1      42.905  26.972  28.701  1.00  0.00     0.029 A 
ATOM     45  N   UNL A   1      42.505  29.058  29.404  1.00  0.00    -0.354 N 
ATOM     46  C   UNL A   1      38.557  30.782  29.152  1.00  0.00     0.074 A 
ATOM     47  C   UNL A   1      37.616  29.851  28.569  1.00  0.00     0.031 C 
ATOM     48  C   UNL A   1      44.068  27.479  29.139  1.00  0.00     0.029 A 
ATOM     49  C   UNL A   1      43.853  28.852  29.583  1.00  0.00     0.049 A 
ATOM     50  H   UNL A   1      42.054  29.902  29.632  1.00  0.00     0.167 HD
ATOM     51  C   UNL A   1      38.237  32.032  29.563  1.00  0.00     0.031 A 
ATOM     52  C   UNL A   1      44.809  29.680  30.042  1.00  0.00     0.031 A 
ATOM     53  C   UNL A   1      39.172  32.956  30.146  1.00  0.00     0.049 A 
ATOM     54  C   UNL A   1      44.431  31.074  30.463  1.00  0.00     0.074 A 
ATOM     55  C   UNL A   1      38.933  34.226  30.640  1.00  0.00     0.029 A 
ATOM     56  N   UNL A   1      40.527  32.711  30.307  1.00  0.00    -0.354 N 
ATOM     57  N   UNL A   1      43.252  31.647  30.464  1.00  0.00    -0.248 NA
ATOM     58  C   UNL A   1      45.518  31.932  30.955  1.00  0.00     0.031 C 
ATOM     59  C   UNL A   1      40.155  34.772  31.048  1.00  0.00     0.029 A 
ATOM     60  C   UNL A   1      41.142  33.817  30.868  1.00  0.00     0.049 A 
ATOM     61  H   UNL A   1      40.983  31.874  30.059  1.00  0.00     0.167 HD
ATOM     62  C   UNL A   1      43.450  32.920  30.984  1.00  0.00     0.074 A 
ATOM     63  C   UNL A   1      44.858  33.028  31.303  1.00  0.00     0.031 C 
ATOM     64  C   UNL A   1      42.545  33.910  31.180  1.00  0.00     0.031 A 
BRANCH  51  65
ATOM     65  C   UNL A   1      36.810  32.477  29.385  1.00  0.00    -0.014 A 
ATOM     66  C   UNL A   1      35.866  32.323  30.414  1.00  0.00     0.009 A 
ATOM     67  C   UNL A   1      36.413  33.092  28.188  1.00  0.00     0.009 A 
ATOM     68  C   UNL A   1      34.546  32.743  30.232  1.00  0.00     0.001 A 
ATOM     69  C   UNL A   1      35.101  33.539  28.020  1.00  0.00     0.001 A 
ATOM     70  C   UNL A   1      34.167  33.355  29.039  1.00  0.00     0.000 A 
ENDBRANCH  51  65
BRANCH  52  71
ATOM     71  C   UNL A   1      46.217  29.215  30.139  1.00  0.00    -0.014 A 
ATOM     72  C   UNL A   1      46.701  28.654  31.330  1.00  0.00     0.009 A 
ATOM     73  C   UNL A   1      47.089  29.341  29.046  1.00  0.00     0.009 A 
ATOM     74  C   UNL A   1      48.037  28.257  31.434  1.00  0.00     0.001 A 
ATOM     75  C   UNL A   1      48.414  28.914  29.142  1.00  0.00     0.001 A 
ATOM     76  C   UNL A   1      48.890  28.382  30.339  1.00  0.00     0.000 A 
ENDBRANCH  52  71
BRANCH  64  77
ATOM     77  C   UNL A   1      43.043  35.183  31.806  1.00  0.00    -0.014 A 
ATOM     78  C   UNL A   1      42.999  35.382  33.194  1.00  0.00     0.009 A 
ATOM     79  C   UNL A   1      43.608  36.179  30.993  1.00  0.00     0.009 A 
ATOM     80  C   UNL A   1      43.478  36.569  33.752  1.00  0.00     0.001 A 
ATOM     81  C   UNL A   1      44.116  37.350  31.556  1.00  0.00     0.001 A 
ATOM     82  C   UNL A   1      44.042  37.549  32.934  1.00  0.00     0.000 A 
ENDBRANCH  64  77
ENDBRANCH  38  39
ENDBRANCH  30  33
ENDBRANCH  28  29
ENDBRANCH  27  28
ENDBRANCH  26  27
ENDBRANCH   1  26
TORSDOF 17
ENDMDL
MODEL 3
REMARK VINA RESULT:     -10.5      3.078      5.075
REMARK SMILES O=C(C[C@H]1CCCCO1)N[C@@H](C(=O)NCCCCCCNC(=O)c1ccc(-c2c3nc(c(-c4ccccc4)c4ccc([nH]4)c(-c4ccccc4)c4nc(c(-c5ccccc5)c5ccc2[nH]5)C=C4)C=C3)cc1)C1CCCCC1
REMARK SMILES IDX 17 1 16 2 15 3 14 4 12 5 13 6 11 8 10 9 1 10 2 11 3 13 4 14
REMARK SMILES IDX 5 15 9 16 6 17 8 18 7 19 72 20 73 21 77 22 74 23 76 24 75 25
REMARK SMILES IDX 18 26 19 27 20 28 21 29 22 30 23 32 24 33 25 34 71 35 26 36
REMARK SMILES IDX 70 37 27 38 28 39 29 40 64 41 30 42 69 43 63 44 65 45 31 46
REMARK SMILES IDX 68 47 62 48 61 49 32 51 54 52 39 53 53 54 40 55 43 56 52 57
REMARK SMILES IDX 66 58 41 59 42 60 51 62 67 63 44 64 33 65 34 66 38 67 35 68
REMARK SMILES IDX 37 69 36 70 55 71 56 72 60 73 57 74 59 75 58 76 45 77 46 78
REMARK SMILES IDX 50 79 47 80 49 81 48 82
REMARK H PARENT 14 7 10 12 21 31 65 50 43 61
REMARK Flexibility Score: inf
ROOT
ATOM      1  C   UNL A   1      36.931  22.088  24.009  1.00  0.00     0.002 C 
ENDROOT
BRANCH   1   2
ATOM      2  C   UNL A   1      36.613  23.376  24.780  1.00  0.00     0.021 C 
BRANCH   2   3
ATOM      3  C   UNL A   1      35.141  23.782  24.687  1.00  0.00     0.116 C 
BRANCH   3   4
ATOM      4  N   UNL A   1      34.756  23.958  23.303  1.00  0.00    -0.354 N 
ATOM      5  C   UNL A   1      33.669  23.455  22.651  1.00  0.00     0.242 C 
ATOM      6  O   UNL A   1      33.637  23.573  21.424  1.00  0.00    -0.273 OA
ATOM      7  H   UNL A   1      35.360  24.515  22.759  1.00  0.00     0.163 HD
BRANCH   5   8
ATOM      8  C   UNL A   1      32.543  22.759  23.457  1.00  0.00     0.174 C 
BRANCH   8   9
ATOM      9  N   UNL A   1      32.165  23.616  24.585  1.00  0.00    -0.344 N 
ATOM     10  O   UNL A   1      30.366  24.576  23.530  1.00  0.00    -0.275 OA
ATOM     11  C   UNL A   1      31.056  24.437  24.536  1.00  0.00     0.223 C 
ATOM     12  H   UNL A   1      32.719  23.607  25.399  1.00  0.00     0.164 HD
BRANCH  11  13
ATOM     13  C   UNL A   1      30.710  25.100  25.848  1.00  0.00     0.132 C 
BRANCH  13  14
ATOM     14  C   UNL A   1      31.542  26.374  25.928  1.00  0.00     0.127 C 
ATOM     15  C   UNL A   1      31.121  27.294  27.069  1.00  0.00     0.033 C 
ATOM     16  O   UNL A   1      32.918  26.023  26.114  1.00  0.00    -0.378 OA
ATOM     17  C   UNL A   1      31.968  28.566  27.004  1.00  0.00     0.005 C 
ATOM     18  C   UNL A   1      33.774  27.150  25.938  1.00  0.00     0.160 C 
ATOM     19  C   UNL A   1      33.459  28.233  26.963  1.00  0.00     0.029 C 
ENDBRANCH  13  14
ENDBRANCH  11  13
ENDBRANCH   8   9
BRANCH   8  20
ATOM     20  C   UNL A   1      32.997  21.348  23.935  1.00  0.00     0.021 C 
ATOM     21  C   UNL A   1      32.745  21.106  25.435  1.00  0.00     0.006 C 
ATOM     22  C   UNL A   1      32.289  20.262  23.097  1.00  0.00     0.006 C 
ATOM     23  C   UNL A   1      33.102  19.687  25.867  1.00  0.00     0.000 C 
ATOM     24  C   UNL A   1      32.657  18.851  23.542  1.00  0.00     0.000 C 
ATOM     25  C   UNL A   1      32.380  18.644  25.026  1.00  0.00     0.000 C 
ENDBRANCH   8  20
ENDBRANCH   5   8
ENDBRANCH   3   4
ENDBRANCH   2   3
ENDBRANCH   1   2
BRANCH   1  26
ATOM     26  C   UNL A   1      36.532  20.799  24.735  1.00  0.00     0.002 C 
BRANCH  26  27
ATOM     27  C   UNL A   1      37.676  19.800  24.931  1.00  0.00     0.021 C 
BRANCH  27  28
ATOM     28  C   UNL A   1      38.862  20.363  25.705  1.00  0.00     0.116 C 
BRANCH  28  29
ATOM     29  N   UNL A   1      39.960  19.408  25.773  1.00  0.00    -0.352 N 
ATOM     30  C   UNL A   1      41.283  19.631  26.048  1.00  0.00     0.251 C 
ATOM     31  H   UNL A   1      39.716  18.471  25.596  1.00  0.00     0.163 HD
ATOM     32  O   UNL A   1      42.117  18.752  25.841  1.00  0.00    -0.269 OA
BRANCH  30  33
ATOM     33  C   UNL A   1      41.708  20.940  26.580  1.00  0.00     0.039 A 
ATOM     34  C   UNL A   1      42.207  21.903  25.700  1.00  0.00     0.014 A 
ATOM     35  C   UNL A   1      41.613  21.214  27.948  1.00  0.00     0.014 A 
ATOM     36  C   UNL A   1      42.558  23.162  26.185  1.00  0.00     0.010 A 
ATOM     37  C   UNL A   1      41.893  22.493  28.417  1.00  0.00     0.010 A 
ATOM     38  C   UNL A   1      42.373  23.478  27.541  1.00  0.00    -0.014 A 
BRANCH  38  39
ATOM     39  C   UNL A   1      42.672  24.834  28.063  1.00  0.00     0.031 A 
ATOM     40  C   UNL A   1      44.070  25.189  28.488  1.00  0.00     0.074 A 
ATOM     41  C   UNL A   1      41.673  25.725  28.212  1.00  0.00     0.049 A 
ATOM     42  N   UNL A   1      44.513  26.298  29.024  1.00  0.00    -0.248 NA
ATOM     43  C   UNL A   1      45.101  24.153  28.312  1.00  0.00     0.031 C 
ATOM     44  C   UNL A   1      40.268  25.490  27.870  1.00  0.00     0.029 A 
ATOM     45  N   UNL A   1      41.686  27.008  28.699  1.00  0.00    -0.354 N 
ATOM     46  C   UNL A   1      45.866  26.089  29.259  1.00  0.00     0.074 A 
ATOM     47  C   UNL A   1      46.161  24.730  28.858  1.00  0.00     0.031 C 
ATOM     48  C   UNL A   1      39.561  26.601  28.131  1.00  0.00     0.029 A 
ATOM     49  C   UNL A   1      40.450  27.608  28.701  1.00  0.00     0.049 A 
ATOM     50  H   UNL A   1      42.504  27.456  29.017  1.00  0.00     0.167 HD
ATOM     51  C   UNL A   1      46.785  26.955  29.747  1.00  0.00     0.031 A 
ATOM     52  C   UNL A   1      40.073  28.830  29.123  1.00  0.00     0.031 A 
ATOM     53  C   UNL A   1      46.491  28.307  30.142  1.00  0.00     0.049 A 
ATOM     54  C   UNL A   1      41.108  29.761  29.689  1.00  0.00     0.074 A 
ATOM     55  C   UNL A   1      47.364  29.278  30.601  1.00  0.00     0.029 A 
ATOM     56  N   UNL A   1      45.228  28.875  30.131  1.00  0.00    -0.354 N 
ATOM     57  N   UNL A   1      42.397  29.572  29.842  1.00  0.00    -0.248 NA
ATOM     58  C   UNL A   1      40.636  31.080  30.135  1.00  0.00     0.031 C 
ATOM     59  C   UNL A   1      46.618  30.417  30.922  1.00  0.00     0.029 A 
ATOM     60  C   UNL A   1      45.292  30.176  30.601  1.00  0.00     0.049 A 
ATOM     61  H   UNL A   1      44.406  28.422  29.833  1.00  0.00     0.167 HD
ATOM     62  C   UNL A   1      42.894  30.757  30.371  1.00  0.00     0.074 A 
ATOM     63  C   UNL A   1      41.771  31.663  30.496  1.00  0.00     0.031 C 
ATOM     64  C   UNL A   1      44.166  31.066  30.720  1.00  0.00     0.031 A 
BRANCH  51  65
ATOM     65  C   UNL A   1      48.199  26.460  29.891  1.00  0.00    -0.014 A 
ATOM     66  C   UNL A   1      48.631  25.823  31.066  1.00  0.00     0.009 A 
ATOM     67  C   UNL A   1      49.099  26.596  28.824  1.00  0.00     0.009 A 
ATOM     68  C   UNL A   1      49.946  25.368  31.182  1.00  0.00     0.001 A 
ATOM     69  C   UNL A   1      50.404  26.112  28.930  1.00  0.00     0.001 A 
ATOM     70  C   UNL A   1      50.829  25.508  30.112  1.00  0.00     0.000 A 
ENDBRANCH  51  65
BRANCH  52  71
ATOM     71  C   UNL A   1      38.651  29.250  29.019  1.00  0.00    -0.014 A 
ATOM     72  C   UNL A   1      37.792  29.135  30.123  1.00  0.00     0.009 A 
ATOM     73  C   UNL A   1      38.141  29.756  27.814  1.00  0.00     0.009 A 
ATOM     74  C   UNL A   1      36.446  29.490  30.012  1.00  0.00     0.001 A 
ATOM     75  C   UNL A   1      36.802  30.140  27.715  1.00  0.00     0.001 A 
ATOM     76  C   UNL A   1      35.953  29.997  28.811  1.00  0.00     0.000 A 
ENDBRANCH  52  71
BRANCH  64  77
ATOM     77  C   UNL A   1      44.420  32.456  31.234  1.00  0.00    -0.014 A 
ATOM     78  C   UNL A   1      44.711  33.517  30.362  1.00  0.00     0.009 A 
ATOM     79  C   UNL A   1      44.320  32.715  32.610  1.00  0.00     0.009 A 
ATOM     80  C   UNL A   1      44.932  34.801  30.863  1.00  0.00     0.001 A 
ATOM     81  C   UNL A   1      44.509  34.006  33.105  1.00  0.00     0.001 A 
ATOM     82  C   UNL A   1      44.824  35.046  32.232  1.00  0.00     0.000 A 
ENDBRANCH  64  77
ENDBRANCH  38  39
ENDBRANCH  30  33
ENDBRANCH  28  29
ENDBRANCH  27  28
ENDBRANCH  26  27
ENDBRANCH   1  26
TORSDOF 17
ENDMDL
