MODEL 1
REMARK VINA RESULT:     -11.5      0.000      0.000
REMARK SMILES C[N@H+]1CCO[C@H](c2noc(-c3ccccc3C(=O)NCCCCCCNC(=O)c3ccc(-c4c5nc(c(-c6ccccc6)c6ccc([nH]6)c(-c6ccccc6)c6nc(c(-c7ccccc7)c7ccc4[nH]7)C=C6)C=C5)cc3)n2)C1
REMARK SMILES IDX 22 1 21 2 20 3 19 4 17 5 18 6 16 8 11 9 12 10 13 11 15 12
REMARK SMILES IDX 14 13 10 14 7 15 8 16 77 17 9 18 6 19 1 20 2 21 3 22 78 23
REMARK SMILES IDX 4 25 5 26 23 27 24 28 25 29 26 30 27 31 28 33 29 34 30 35
REMARK SMILES IDX 76 36 31 37 75 38 32 39 33 40 34 41 69 42 35 43 74 44 68 45
REMARK SMILES IDX 70 46 36 47 73 48 67 49 66 50 37 52 59 53 44 54 58 55 45 56
REMARK SMILES IDX 48 57 57 58 71 59 46 60 47 61 56 63 72 64 49 65 38 66 39 67
REMARK SMILES IDX 43 68 40 69 42 70 41 71 60 72 61 73 65 74 62 75 64 76 63 77
REMARK SMILES IDX 50 78 51 79 55 80 52 81 54 82 53 83
REMARK H PARENT 19 7 2 24 26 32 70 51 48 62
REMARK Flexibility Score: inf
ROOT
ATOM      1  C   UNL A   1      37.409  23.533  25.438  1.00  0.00     0.002 C 
ENDROOT
BRANCH   1   2
ATOM      2  C   UNL A   1      35.973  23.622  25.966  1.00  0.00     0.021 C 
BRANCH   2   3
ATOM      3  C   UNL A   1      35.255  22.303  26.216  1.00  0.00     0.116 C 
BRANCH   3   4
ATOM      4  N   UNL A   1      34.206  22.338  27.212  1.00  0.00    -0.352 N 
ATOM      5  C   UNL A   1      32.925  22.832  27.090  1.00  0.00     0.252 C 
ATOM      6  O   UNL A   1      32.128  22.692  28.016  1.00  0.00    -0.269 OA
ATOM      7  H   UNL A   1      34.438  21.962  28.093  1.00  0.00     0.163 HD
BRANCH   5   8
ATOM      8  C   UNL A   1      32.528  23.674  25.930  1.00  0.00     0.052 A 
ATOM      9  C   UNL A   1      32.227  23.208  24.636  1.00  0.00     0.053 A 
ATOM     10  C   UNL A   1      32.011  24.171  23.623  1.00  0.00     0.015 A 
ATOM     11  C   UNL A   1      32.042  25.542  23.893  1.00  0.00     0.001 A 
ATOM     12  C   UNL A   1      32.509  25.059  26.200  1.00  0.00     0.014 A 
ATOM     13  C   UNL A   1      32.270  25.987  25.187  1.00  0.00     0.001 A 
BRANCH   9  14
ATOM     14  C   UNL A   1      32.167  21.795  24.274  1.00  0.00     0.258 A 
ATOM     15  C   UNL A   1      32.325  19.711  24.004  1.00  0.00     0.206 A 
ATOM     16  N   UNL A   1      32.148  20.172  22.755  1.00  0.00    -0.059 NA
ATOM     17  N   UNL A   1      32.327  20.694  24.976  1.00  0.00    -0.189 NA
ATOM     18  O   UNL A   1      32.041  21.547  22.931  1.00  0.00    -0.334 OA
BRANCH  15  19
ATOM     19  C   UNL A   1      32.654  18.263  24.257  1.00  0.00     0.245 C 
ATOM     20  C   UNL A   1      32.228  15.605  25.816  1.00  0.00     0.332 C 
ATOM     21  N   UNL A   1      33.320  16.556  26.028  1.00  0.00    -0.333 N 
ATOM     22  C   UNL A   1      34.476  16.239  25.161  1.00  0.00     0.290 C 
ATOM     23  C   UNL A   1      32.899  17.956  25.751  1.00  0.00     0.303 C 
ATOM     24  H   UNL A   1      33.584  16.472  27.009  1.00  0.00     0.348 HD
ATOM     25  C   UNL A   1      34.205  16.522  23.680  1.00  0.00     0.222 C 
ATOM     26  O   UNL A   1      33.812  17.882  23.490  1.00  0.00    -0.358 OA
ENDBRANCH  15  19
ENDBRANCH   9  14
ENDBRANCH   5   8
ENDBRANCH   3   4
ENDBRANCH   2   3
ENDBRANCH   1   2
BRANCH   1  27
ATOM     27  C   UNL A   1      38.282  22.405  25.989  1.00  0.00     0.002 C 
BRANCH  27  28
ATOM     28  C   UNL A   1      38.464  21.198  25.063  1.00  0.00     0.021 C 
BRANCH  28  29
ATOM     29  C   UNL A   1      38.536  19.828  25.731  1.00  0.00     0.116 C 
BRANCH  29  30
ATOM     30  N   UNL A   1      39.828  19.166  25.656  1.00  0.00    -0.352 N 
ATOM     31  C   UNL A   1      41.106  19.531  26.002  1.00  0.00     0.251 C 
ATOM     32  H   UNL A   1      39.776  18.259  25.276  1.00  0.00     0.163 HD
ATOM     33  O   UNL A   1      42.007  18.733  25.757  1.00  0.00    -0.269 OA
BRANCH  31  34
ATOM     34  C   UNL A   1      41.449  20.841  26.616  1.00  0.00     0.039 A 
ATOM     35  C   UNL A   1      41.983  21.833  25.781  1.00  0.00     0.014 A 
ATOM     36  C   UNL A   1      41.307  21.122  27.972  1.00  0.00     0.014 A 
ATOM     37  C   UNL A   1      42.325  23.087  26.297  1.00  0.00     0.010 A 
ATOM     38  C   UNL A   1      41.504  22.413  28.455  1.00  0.00     0.010 A 
ATOM     39  C   UNL A   1      42.051  23.404  27.635  1.00  0.00    -0.014 A 
BRANCH  39  40
ATOM     40  C   UNL A   1      42.375  24.740  28.202  1.00  0.00     0.031 A 
ATOM     41  C   UNL A   1      43.787  25.061  28.633  1.00  0.00     0.074 A 
ATOM     42  C   UNL A   1      41.395  25.651  28.361  1.00  0.00     0.049 A 
ATOM     43  N   UNL A   1      44.255  26.156  29.181  1.00  0.00    -0.248 NA
ATOM     44  C   UNL A   1      44.802  24.005  28.464  1.00  0.00     0.031 C 
ATOM     45  C   UNL A   1      39.980  25.444  28.041  1.00  0.00     0.029 A 
ATOM     46  N   UNL A   1      41.441  26.941  28.825  1.00  0.00    -0.354 N 
ATOM     47  C   UNL A   1      45.602  25.910  29.430  1.00  0.00     0.074 A 
ATOM     48  C   UNL A   1      45.860  24.542  29.050  1.00  0.00     0.031 C 
ATOM     49  C   UNL A   1      39.305  26.584  28.263  1.00  0.00     0.029 A 
ATOM     50  C   UNL A   1      40.226  27.585  28.786  1.00  0.00     0.049 A 
ATOM     51  H   UNL A   1      42.265  27.367  29.154  1.00  0.00     0.167 HD
ATOM     52  C   UNL A   1      46.550  26.757  29.895  1.00  0.00     0.031 A 
ATOM     53  C   UNL A   1      39.895  28.842  29.131  1.00  0.00     0.031 A 
ATOM     54  C   UNL A   1      46.300  28.128  30.246  1.00  0.00     0.049 A 
ATOM     55  C   UNL A   1      40.972  29.761  29.640  1.00  0.00     0.074 A 
ATOM     56  C   UNL A   1      47.198  29.085  30.689  1.00  0.00     0.029 A 
ATOM     57  N   UNL A   1      45.059  28.742  30.178  1.00  0.00    -0.354 N 
ATOM     58  N   UNL A   1      42.251  29.526  29.809  1.00  0.00    -0.248 NA
ATOM     59  C   UNL A   1      40.558  31.127  29.986  1.00  0.00     0.031 C 
ATOM     60  C   UNL A   1      46.490  30.266  30.930  1.00  0.00     0.029 A 
ATOM     61  C   UNL A   1      45.166  30.062  30.581  1.00  0.00     0.049 A 
ATOM     62  H   UNL A   1      44.227  28.304  29.888  1.00  0.00     0.167 HD
ATOM     63  C   UNL A   1      42.798  30.722  30.254  1.00  0.00     0.074 A 
ATOM     64  C   UNL A   1      41.718  31.687  30.291  1.00  0.00     0.031 C 
ATOM     65  C   UNL A   1      44.076  31.002  30.609  1.00  0.00     0.031 A 
BRANCH  52  66
ATOM     66  C   UNL A   1      47.954  26.229  30.024  1.00  0.00    -0.014 A 
ATOM     67  C   UNL A   1      48.852  26.293  28.945  1.00  0.00     0.009 A 
ATOM     68  C   UNL A   1      48.405  25.714  31.249  1.00  0.00     0.009 A 
ATOM     69  C   UNL A   1      50.161  25.827  29.082  1.00  0.00     0.001 A 
ATOM     70  C   UNL A   1      49.724  25.277  31.392  1.00  0.00     0.001 A 
ATOM     71  C   UNL A   1      50.598  25.327  30.307  1.00  0.00     0.000 A 
ENDBRANCH  52  66
BRANCH  53  72
ATOM     72  C   UNL A   1      38.493  29.323  28.996  1.00  0.00    -0.014 A 
ATOM     73  C   UNL A   1      37.623  29.309  30.098  1.00  0.00     0.009 A 
ATOM     74  C   UNL A   1      38.001  29.756  27.755  1.00  0.00     0.009 A 
ATOM     75  C   UNL A   1      36.281  29.666  29.949  1.00  0.00     0.001 A 
ATOM     76  C   UNL A   1      36.668  30.150  27.617  1.00  0.00     0.001 A 
ATOM     77  C   UNL A   1      35.805  30.088  28.710  1.00  0.00     0.000 A 
ENDBRANCH  53  72
BRANCH  65  78
ATOM     78  C   UNL A   1      44.369  32.415  31.026  1.00  0.00    -0.014 A 
ATOM     79  C   UNL A   1      44.717  33.397  30.085  1.00  0.00     0.009 A 
ATOM     80  C   UNL A   1      44.301  32.766  32.383  1.00  0.00     0.009 A 
ATOM     81  C   UNL A   1      45.049  34.687  30.502  1.00  0.00     0.001 A 
ATOM     82  C   UNL A   1      44.596  34.065  32.793  1.00  0.00     0.001 A 
ATOM     83  C   UNL A   1      44.986  35.020  31.855  1.00  0.00     0.000 A 
ENDBRANCH  65  78
ENDBRANCH  39  40
ENDBRANCH  31  34
ENDBRANCH  29  30
ENDBRANCH  28  29
ENDBRANCH  27  28
ENDBRANCH   1  27
TORSDOF 15
ENDMDL
MODEL 2
REMARK VINA RESULT:     -11.4      0.513      5.819
REMARK SMILES C[N@H+]1CCO[C@H](c2noc(-c3ccccc3C(=O)NCCCCCCNC(=O)c3ccc(-c4c5nc(c(-c6ccccc6)c6ccc([nH]6)c(-c6ccccc6)c6nc(c(-c7ccccc7)c7ccc4[nH]7)C=C6)C=C5)cc3)n2)C1
REMARK SMILES IDX 22 1 21 2 20 3 19 4 17 5 18 6 16 8 11 9 12 10 13 11 15 12
REMARK SMILES IDX 14 13 10 14 7 15 8 16 77 17 9 18 6 19 1 20 2 21 3 22 78 23
REMARK SMILES IDX 4 25 5 26 23 27 24 28 25 29 26 30 27 31 28 33 29 34 30 35
REMARK SMILES IDX 76 36 31 37 75 38 32 39 33 40 34 41 69 42 35 43 74 44 68 45
REMARK SMILES IDX 70 46 36 47 73 48 67 49 66 50 37 52 59 53 44 54 58 55 45 56
REMARK SMILES IDX 48 57 57 58 71 59 46 60 47 61 56 63 72 64 49 65 38 66 39 67
REMARK SMILES IDX 43 68 40 69 42 70 41 71 60 72 61 73 65 74 62 75 64 76 63 77
REMARK SMILES IDX 50 78 51 79 55 80 52 81 54 82 53 83
REMARK H PARENT 19 7 2 24 26 32 70 51 48 62
REMARK Flexibility Score: inf
ROOT
ATOM      1  C   UNL A   1      37.506  23.842  25.693  1.00  0.00     0.002 C 
ENDROOT
BRANCH   1   2
ATOM      2  C   UNL A   1      36.009  24.131  25.536  1.00  0.00     0.021 C 
BRANCH   2   3
ATOM      3  C   UNL A   1      35.077  22.927  25.547  1.00  0.00     0.116 C 
BRANCH   3   4
ATOM      4  N   UNL A   1      34.420  22.653  26.806  1.00  0.00    -0.352 N 
ATOM      5  C   UNL A   1      33.086  22.796  27.126  1.00  0.00     0.252 C 
ATOM      6  O   UNL A   1      32.680  22.422  28.225  1.00  0.00    -0.269 OA
ATOM      7  H   UNL A   1      35.000  22.323  27.530  1.00  0.00     0.163 HD
BRANCH   5   8
ATOM      8  C   UNL A   1      32.154  23.540  26.238  1.00  0.00     0.052 A 
ATOM      9  C   UNL A   1      31.603  23.064  25.033  1.00  0.00     0.053 A 
ATOM     10  C   UNL A   1      30.850  23.968  24.250  1.00  0.00     0.015 A 
ATOM     11  C   UNL A   1      30.609  25.280  24.668  1.00  0.00     0.001 A 
ATOM     12  C   UNL A   1      31.863  24.851  26.673  1.00  0.00     0.014 A 
ATOM     13  C   UNL A   1      31.098  25.716  25.891  1.00  0.00     0.001 A 
BRANCH   9  14
ATOM     14  C   UNL A   1      31.800  21.707  24.530  1.00  0.00     0.258 A 
ATOM     15  C   UNL A   1      32.236  19.687  24.117  1.00  0.00     0.206 A 
ATOM     16  N   UNL A   1      32.434  20.294  22.935  1.00  0.00    -0.059 NA
ATOM     17  N   UNL A   1      31.825  20.536  25.128  1.00  0.00    -0.189 NA
ATOM     18  O   UNL A   1      32.145  21.627  23.204  1.00  0.00    -0.334 OA
BRANCH  15  19
ATOM     19  C   UNL A   1      32.600  18.239  24.317  1.00  0.00     0.245 C 
ATOM     20  C   UNL A   1      32.319  15.545  25.846  1.00  0.00     0.332 C 
ATOM     21  N   UNL A   1      33.410  16.507  26.001  1.00  0.00    -0.333 N 
ATOM     22  C   UNL A   1      34.506  16.225  25.049  1.00  0.00     0.290 C 
ATOM     23  C   UNL A   1      32.953  17.907  25.783  1.00  0.00     0.303 C 
ATOM     24  H   UNL A   1      33.744  16.408  26.960  1.00  0.00     0.348 HD
ATOM     25  C   UNL A   1      34.129  16.533  23.597  1.00  0.00     0.222 C 
ATOM     26  O   UNL A   1      33.707  17.890  23.463  1.00  0.00    -0.358 OA
ENDBRANCH  15  19
ENDBRANCH   9  14
ENDBRANCH   5   8
ENDBRANCH   3   4
ENDBRANCH   2   3
ENDBRANCH   1   2
BRANCH   1  27
ATOM     27  C   UNL A   1      37.891  22.492  26.297  1.00  0.00     0.002 C 
BRANCH  27  28
ATOM     28  C   UNL A   1      38.579  21.512  25.341  1.00  0.00     0.021 C 
BRANCH  28  29
ATOM     29  C   UNL A   1      38.444  20.027  25.669  1.00  0.00     0.116 C 
BRANCH  29  30
ATOM     30  N   UNL A   1      39.686  19.271  25.652  1.00  0.00    -0.352 N 
ATOM     31  C   UNL A   1      40.977  19.553  26.020  1.00  0.00     0.251 C 
ATOM     32  H   UNL A   1      39.576  18.357  25.301  1.00  0.00     0.163 HD
ATOM     33  O   UNL A   1      41.823  18.684  25.827  1.00  0.00    -0.269 OA
BRANCH  31  34
ATOM     34  C   UNL A   1      41.401  20.856  26.600  1.00  0.00     0.039 A 
ATOM     35  C   UNL A   1      42.010  21.784  25.744  1.00  0.00     0.014 A 
ATOM     36  C   UNL A   1      41.263  21.186  27.945  1.00  0.00     0.014 A 
ATOM     37  C   UNL A   1      42.430  23.027  26.227  1.00  0.00     0.010 A 
ATOM     38  C   UNL A   1      41.540  22.476  28.392  1.00  0.00     0.010 A 
ATOM     39  C   UNL A   1      42.162  23.403  27.551  1.00  0.00    -0.014 A 
BRANCH  39  40
ATOM     40  C   UNL A   1      42.569  24.730  28.083  1.00  0.00     0.031 A 
ATOM     41  C   UNL A   1      41.542  25.821  28.276  1.00  0.00     0.074 A 
ATOM     42  C   UNL A   1      43.867  24.966  28.358  1.00  0.00     0.049 A 
ATOM     43  N   UNL A   1      41.712  27.051  28.694  1.00  0.00    -0.248 NA
ATOM     44  C   UNL A   1      40.147  25.505  27.921  1.00  0.00     0.031 C 
ATOM     45  C   UNL A   1      44.967  24.017  28.158  1.00  0.00     0.029 A 
ATOM     46  N   UNL A   1      44.483  26.077  28.877  1.00  0.00    -0.354 N 
ATOM     47  C   UNL A   1      40.456  27.648  28.635  1.00  0.00     0.074 A 
ATOM     48  C   UNL A   1      39.551  26.677  28.069  1.00  0.00     0.031 C 
ATOM     49  C   UNL A   1      46.109  24.565  28.602  1.00  0.00     0.029 A 
ATOM     50  C   UNL A   1      45.835  25.918  29.071  1.00  0.00     0.049 A 
ATOM     51  H   UNL A   1      44.003  26.910  29.090  1.00  0.00     0.167 HD
ATOM     52  C   UNL A   1      40.079  28.880  29.051  1.00  0.00     0.031 A 
ATOM     53  C   UNL A   1      46.749  26.767  29.575  1.00  0.00     0.031 A 
ATOM     54  C   UNL A   1      40.974  29.837  29.642  1.00  0.00     0.049 A 
ATOM     55  C   UNL A   1      46.298  28.127  30.033  1.00  0.00     0.074 A 
ATOM     56  C   UNL A   1      40.688  31.099  30.135  1.00  0.00     0.029 A 
ATOM     57  N   UNL A   1      42.331  29.629  29.832  1.00  0.00    -0.354 N 
ATOM     58  N   UNL A   1      45.095  28.648  30.025  1.00  0.00    -0.248 NA
ATOM     59  C   UNL A   1      47.334  29.008  30.590  1.00  0.00     0.031 C 
ATOM     60  C   UNL A   1      41.881  31.671  30.585  1.00  0.00     0.029 A 
ATOM     61  C   UNL A   1      42.897  30.744  30.427  1.00  0.00     0.049 A 
ATOM     62  H   UNL A   1      42.818  28.812  29.582  1.00  0.00     0.167 HD
ATOM     63  C   UNL A   1      45.225  29.905  30.600  1.00  0.00     0.074 A 
ATOM     64  C   UNL A   1      46.616  30.050  30.978  1.00  0.00     0.031 C 
ATOM     65  C   UNL A   1      44.284  30.862  30.794  1.00  0.00     0.031 A 
BRANCH  52  66
ATOM     66  C   UNL A   1      38.627  29.251  28.907  1.00  0.00    -0.014 A 
ATOM     67  C   UNL A   1      38.121  29.729  27.687  1.00  0.00     0.009 A 
ATOM     68  C   UNL A   1      37.742  29.070  29.981  1.00  0.00     0.009 A 
ATOM     69  C   UNL A   1      36.767  30.044  27.554  1.00  0.00     0.001 A 
ATOM     70  C   UNL A   1      36.383  29.357  29.836  1.00  0.00     0.001 A 
ATOM     71  C   UNL A   1      35.898  29.850  28.626  1.00  0.00     0.000 A 
ENDBRANCH  52  66
BRANCH  53  72
ATOM     72  C   UNL A   1      48.176  26.365  29.694  1.00  0.00    -0.014 A 
ATOM     73  C   UNL A   1      48.651  25.745  30.862  1.00  0.00     0.009 A 
ATOM     74  C   UNL A   1      49.085  26.638  28.660  1.00  0.00     0.009 A 
ATOM     75  C   UNL A   1      50.009  25.458  31.013  1.00  0.00     0.001 A 
ATOM     76  C   UNL A   1      50.438  26.314  28.798  1.00  0.00     0.001 A 
ATOM     77  C   UNL A   1      50.900  25.741  29.981  1.00  0.00     0.000 A 
ENDBRANCH  53  72
BRANCH  65  78
ATOM     78  C   UNL A   1      44.732  32.122  31.479  1.00  0.00    -0.014 A 
ATOM     79  C   UNL A   1      44.691  32.249  32.876  1.00  0.00     0.009 A 
ATOM     80  C   UNL A   1      45.196  33.202  30.710  1.00  0.00     0.009 A 
ATOM     81  C   UNL A   1      45.049  33.453  33.486  1.00  0.00     0.001 A 
ATOM     82  C   UNL A   1      45.590  34.389  31.325  1.00  0.00     0.001 A 
ATOM     83  C   UNL A   1      45.500  34.520  32.710  1.00  0.00     0.000 A 
ENDBRANCH  65  78
ENDBRANCH  39  40
ENDBRANCH  31  34
ENDBRANCH  29  30
ENDBRANCH  28  29
ENDBRANCH  27  28
ENDBRANCH   1  27
TORSDOF 15
ENDMDL
MODEL 3
REMARK VINA RESULT:     -11.4      1.659      4.013
REMARK SMILES C[N@H+]1CCO[C@H](c2noc(-c3ccccc3C(=O)NCCCCCCNC(=O)c3ccc(-c4c5nc(c(-c6ccccc6)c6ccc([nH]6)c(-c6ccccc6)c6nc(c(-c7ccccc7)c7ccc4[nH]7)C=C6)C=C5)cc3)n2)C1
REMARK SMILES IDX 22 1 21 2 20 3 19 4 17 5 18 6 16 8 11 9 12 10 13 11 15 12
REMARK SMILES IDX 14 13 10 14 7 15 8 16 77 17 9 18 6 19 1 20 2 21 3 22 78 23
REMARK SMILES IDX 4 25 5 26 23 27 24 28 25 29 26 30 27 31 28 33 29 34 30 35
REMARK SMILES IDX 76 36 31 37 75 38 32 39 33 40 34 41 69 42 35 43 74 44 68 45
REMARK SMILES IDX 70 46 36 47 73 48 67 49 66 50 37 52 59 53 44 54 58 55 45 56
REMARK SMILES IDX 48 57 57 58 71 59 46 60 47 61 56 63 72 64 49 65 38 66 39 67
REMARK SMILES IDX 43 68 40 69 42 70 41 71 60 72 61 73 65 74 62 75 64 76 63 77
REMARK SMILES IDX 50 78 51 79 55 80 52 81 54 82 53 83
REMARK H PARENT 19 7 2 24 26 32 70 51 48 62
REMARK Flexibility Score: inf
ROOT
ATOM      1  C   UNL A   1      38.058  22.352  25.679  1.00  0.00     0.002 C 
ENDROOT
BRANCH   1   2
ATOM      2  C   UNL A   1      37.314  23.686  25.803  1.00  0.00     0.021 C 
BRANCH   2   3
ATOM      3  C   UNL A   1      35.793  23.624  25.771  1.00  0.00     0.116 C 
BRANCH   3   4
ATOM      4  N   UNL A   1      35.164  23.022  26.926  1.00  0.00    -0.352 N 
ATOM      5  C   UNL A   1      34.299  21.949  26.969  1.00  0.00     0.252 C 
ATOM      6  O   UNL A   1      33.933  21.506  28.056  1.00  0.00    -0.269 OA
ATOM      7  H   UNL A   1      35.381  23.432  27.795  1.00  0.00     0.163 HD
BRANCH   5   8
ATOM      8  C   UNL A   1      33.667  21.415  25.733  1.00  0.00     0.052 A 
ATOM      9  C   UNL A   1      32.585  21.994  25.043  1.00  0.00     0.053 A 
ATOM     10  C   UNL A   1      32.024  21.268  23.968  1.00  0.00     0.015 A 
ATOM     11  C   UNL A   1      32.547  20.037  23.560  1.00  0.00     0.001 A 
ATOM     12  C   UNL A   1      34.216  20.196  25.282  1.00  0.00     0.014 A 
ATOM     13  C   UNL A   1      33.657  19.511  24.203  1.00  0.00     0.001 A 
BRANCH   9  14
ATOM     14  C   UNL A   1      31.986  23.278  25.400  1.00  0.00     0.258 A 
ATOM     15  C   UNL A   1      31.450  25.259  25.880  1.00  0.00     0.206 A 
ATOM     16  N   UNL A   1      30.669  24.522  26.687  1.00  0.00    -0.059 NA
ATOM     17  N   UNL A   1      32.272  24.514  25.054  1.00  0.00    -0.189 NA
ATOM     18  O   UNL A   1      31.019  23.214  26.370  1.00  0.00    -0.334 OA
BRANCH  15  19
ATOM     19  C   UNL A   1      31.511  26.758  26.015  1.00  0.00     0.245 C 
ATOM     20  C   UNL A   1      31.937  29.588  24.796  1.00  0.00     0.332 C 
ATOM     21  N   UNL A   1      32.921  28.834  25.575  1.00  0.00    -0.333 N 
ATOM     22  C   UNL A   1      32.788  29.122  27.019  1.00  0.00     0.290 C 
ATOM     23  C   UNL A   1      32.780  27.366  25.377  1.00  0.00     0.303 C 
ATOM     24  H   UNL A   1      33.837  29.132  25.240  1.00  0.00     0.348 HD
ATOM     25  C   UNL A   1      31.511  28.536  27.629  1.00  0.00     0.222 C 
ATOM     26  O   UNL A   1      31.446  27.127  27.406  1.00  0.00    -0.358 OA
ENDBRANCH  15  19
ENDBRANCH   9  14
ENDBRANCH   5   8
ENDBRANCH   3   4
ENDBRANCH   2   3
ENDBRANCH   1   2
BRANCH   1  27
ATOM     27  C   UNL A   1      37.521  21.351  24.656  1.00  0.00     0.002 C 
BRANCH  27  28
ATOM     28  C   UNL A   1      38.183  19.969  24.674  1.00  0.00     0.021 C 
BRANCH  28  29
ATOM     29  C   UNL A   1      38.938  19.588  25.945  1.00  0.00     0.116 C 
BRANCH  29  30
ATOM     30  N   UNL A   1      40.261  19.023  25.737  1.00  0.00    -0.352 N 
ATOM     31  C   UNL A   1      41.537  19.476  25.961  1.00  0.00     0.251 C 
ATOM     32  H   UNL A   1      40.237  18.117  25.351  1.00  0.00     0.163 HD
ATOM     33  O   UNL A   1      42.464  18.748  25.619  1.00  0.00    -0.269 OA
BRANCH  31  34
ATOM     34  C   UNL A   1      41.843  20.804  26.557  1.00  0.00     0.039 A 
ATOM     35  C   UNL A   1      42.131  21.861  25.682  1.00  0.00     0.014 A 
ATOM     36  C   UNL A   1      41.900  21.044  27.927  1.00  0.00     0.014 A 
ATOM     37  C   UNL A   1      42.426  23.135  26.179  1.00  0.00     0.010 A 
ATOM     38  C   UNL A   1      42.043  22.340  28.417  1.00  0.00     0.010 A 
ATOM     39  C   UNL A   1      42.346  23.397  27.555  1.00  0.00    -0.014 A 
BRANCH  39  40
ATOM     40  C   UNL A   1      42.624  24.749  28.108  1.00  0.00     0.031 A 
ATOM     41  C   UNL A   1      44.031  25.137  28.497  1.00  0.00     0.074 A 
ATOM     42  C   UNL A   1      41.608  25.614  28.293  1.00  0.00     0.049 A 
ATOM     43  N   UNL A   1      44.463  26.255  29.027  1.00  0.00    -0.248 NA
ATOM     44  C   UNL A   1      45.088  24.129  28.302  1.00  0.00     0.031 C 
ATOM     45  C   UNL A   1      40.195  25.341  28.014  1.00  0.00     0.029 A 
ATOM     46  N   UNL A   1      41.607  26.907  28.751  1.00  0.00    -0.354 N 
ATOM     47  C   UNL A   1      45.827  26.073  29.239  1.00  0.00     0.074 A 
ATOM     48  C   UNL A   1      46.138  24.716  28.856  1.00  0.00     0.031 C 
ATOM     49  C   UNL A   1      39.475  26.449  28.251  1.00  0.00     0.029 A 
ATOM     50  C   UNL A   1      40.363  27.494  28.745  1.00  0.00     0.049 A 
ATOM     51  H   UNL A   1      42.420  27.373  29.054  1.00  0.00     0.167 HD
ATOM     52  C   UNL A   1      46.748  26.965  29.673  1.00  0.00     0.031 A 
ATOM     53  C   UNL A   1      39.984  28.736  29.095  1.00  0.00     0.031 A 
ATOM     54  C   UNL A   1      46.445  28.324  30.027  1.00  0.00     0.049 A 
ATOM     55  C   UNL A   1      41.031  29.706  29.571  1.00  0.00     0.074 A 
ATOM     56  C   UNL A   1      47.309  29.323  30.441  1.00  0.00     0.029 A 
ATOM     57  N   UNL A   1      45.175  28.879  29.994  1.00  0.00    -0.354 N 
ATOM     58  N   UNL A   1      42.324  29.531  29.703  1.00  0.00    -0.248 NA
ATOM     59  C   UNL A   1      40.564  31.053  29.924  1.00  0.00     0.031 C 
ATOM     60  C   UNL A   1      46.555  30.472  30.699  1.00  0.00     0.029 A 
ATOM     61  C   UNL A   1      45.232  30.205  30.389  1.00  0.00     0.049 A 
ATOM     62  H   UNL A   1      44.356  28.402  29.728  1.00  0.00     0.167 HD
ATOM     63  C   UNL A   1      42.827  30.753  30.128  1.00  0.00     0.074 A 
ATOM     64  C   UNL A   1      41.706  31.667  30.194  1.00  0.00     0.031 C 
ATOM     65  C   UNL A   1      44.101  31.093  30.446  1.00  0.00     0.031 A 
BRANCH  52  66
ATOM     66  C   UNL A   1      48.178  26.503  29.763  1.00  0.00    -0.014 A 
ATOM     67  C   UNL A   1      49.073  26.714  28.701  1.00  0.00     0.009 A 
ATOM     68  C   UNL A   1      48.653  25.903  30.939  1.00  0.00     0.009 A 
ATOM     69  C   UNL A   1      50.405  26.307  28.804  1.00  0.00     0.001 A 
ATOM     70  C   UNL A   1      49.994  25.526  31.051  1.00  0.00     0.001 A 
ATOM     71  C   UNL A   1      50.866  25.721  29.982  1.00  0.00     0.000 A 
ENDBRANCH  52  66
BRANCH  53  72
ATOM     72  C   UNL A   1      38.558  29.151  29.000  1.00  0.00    -0.014 A 
ATOM     73  C   UNL A   1      38.044  29.676  27.802  1.00  0.00     0.009 A 
ATOM     74  C   UNL A   1      37.712  29.070  30.117  1.00  0.00     0.009 A 
ATOM     75  C   UNL A   1      36.734  30.157  27.741  1.00  0.00     0.001 A 
ATOM     76  C   UNL A   1      36.390  29.516  30.042  1.00  0.00     0.001 A 
ATOM     77  C   UNL A   1      35.909  30.075  28.860  1.00  0.00     0.000 A 
ENDBRANCH  53  72
BRANCH  65  78
ATOM     78  C   UNL A   1      44.340  32.521  30.849  1.00  0.00    -0.014 A 
ATOM     79  C   UNL A   1      44.264  32.923  32.192  1.00  0.00     0.009 A 
ATOM     80  C   UNL A   1      44.640  33.478  29.867  1.00  0.00     0.009 A 
ATOM     81  C   UNL A   1      44.424  34.266  32.536  1.00  0.00     0.001 A 
ATOM     82  C   UNL A   1      44.837  34.812  30.218  1.00  0.00     0.001 A 
ATOM     83  C   UNL A   1      44.713  35.209  31.549  1.00  0.00     0.000 A 
ENDBRANCH  65  78
ENDBRANCH  39  40
ENDBRANCH  31  34
ENDBRANCH  29  30
ENDBRANCH  28  29
ENDBRANCH  27  28
ENDBRANCH   1  27
TORSDOF 15
ENDMDL
