MODEL 1
REMARK VINA RESULT:     -11.2      0.000      0.000
REMARK SMILES Cc1n[nH]c(C(=O)Nc2cc(C(=O)NCCCCCCNC(=O)c3ccc(-c4c5nc(c(-c6ccccc6)c6ccc([nH]6)c(-c6ccccc6)c6nc(c(-c7ccccc7)c7ccc4[nH]7)C=C6)C=C5)cc3)[nH]n2)n1
REMARK SMILES IDX 17 1 16 2 15 3 14 4 12 5 13 6 11 8 9 9 10 10 73 11 72 12
REMARK SMILES IDX 8 14 6 15 7 16 5 18 1 19 2 20 3 21 74 22 4 23 18 25 19 26
REMARK SMILES IDX 20 27 21 28 22 29 23 31 24 32 25 33 71 34 26 35 70 36 27 37
REMARK SMILES IDX 28 38 29 39 64 40 30 41 69 42 63 43 65 44 31 45 68 46 62 47
REMARK SMILES IDX 61 48 32 50 54 51 39 52 53 53 40 54 43 55 52 56 66 57 41 58
REMARK SMILES IDX 42 59 51 61 67 62 44 63 33 64 34 65 38 66 35 67 37 68 36 69
REMARK SMILES IDX 55 70 56 71 60 72 57 73 59 74 58 75 45 76 46 77 50 78 47 79
REMARK SMILES IDX 49 80 48 81
REMARK H PARENT 14 7 72 13 8 17 4 24 21 30 65 49 43 60
REMARK Flexibility Score: inf
ROOT
ATOM      1  C   UNL A   1      37.386  30.311  32.958  1.00  0.00     0.002 C 
ENDROOT
BRANCH   1   2
ATOM      2  C   UNL A   1      38.235  30.814  34.131  1.00  0.00     0.021 C 
BRANCH   2   3
ATOM      3  C   UNL A   1      37.557  31.930  34.924  1.00  0.00     0.116 C 
BRANCH   3   4
ATOM      4  N   UNL A   1      38.301  33.170  34.808  1.00  0.00    -0.351 N 
ATOM      5  C   UNL A   1      37.972  34.394  34.283  1.00  0.00     0.269 C 
ATOM      6  O   UNL A   1      38.795  35.294  34.373  1.00  0.00    -0.268 OA
ATOM      7  H   UNL A   1      39.213  33.125  35.175  1.00  0.00     0.163 HD
BRANCH   5   8
ATOM      8  C   UNL A   1      36.664  34.633  33.730  1.00  0.00     0.125 A 
ATOM      9  C   UNL A   1      34.575  35.204  33.280  1.00  0.00     0.155 A 
ATOM     10  C   UNL A   1      35.368  34.435  34.153  1.00  0.00     0.082 A 
ATOM     11  N   UNL A   1      35.260  35.570  32.202  1.00  0.00    -0.157 NA
ATOM     12  N   UNL A   1      36.524  35.198  32.485  1.00  0.00    -0.271 N 
ATOM     13  H   UNL A   1      37.274  35.317  31.860  1.00  0.00     0.190 HD
BRANCH   9  14
ATOM     14  N   UNL A   1      33.284  35.612  33.468  1.00  0.00    -0.302 N 
ATOM     15  C   UNL A   1      32.510  36.374  32.612  1.00  0.00     0.294 C 
ATOM     16  O   UNL A   1      31.551  36.974  33.101  1.00  0.00    -0.265 OA
ATOM     17  H   UNL A   1      32.855  35.331  34.309  1.00  0.00     0.172 HD
BRANCH  15  18
ATOM     18  C   UNL A   1      32.761  36.328  31.172  1.00  0.00     0.214 A 
ATOM     19  C   UNL A   1      33.282  34.687  28.069  1.00  0.00     0.092 C 
ATOM     20  C   UNL A   1      33.114  35.632  29.193  1.00  0.00     0.148 A 
ATOM     21  N   UNL A   1      33.502  36.908  29.126  1.00  0.00    -0.159 NA
ATOM     22  N   UNL A   1      32.606  35.255  30.410  1.00  0.00    -0.207 NA
ATOM     23  N   UNL A   1      33.344  37.298  30.400  1.00  0.00    -0.255 N 
ATOM     24  H   UNL A   1      33.614  38.181  30.741  1.00  0.00     0.192 HD
ENDBRANCH  15  18
ENDBRANCH   9  14
ENDBRANCH   5   8
ENDBRANCH   3   4
ENDBRANCH   2   3
ENDBRANCH   1   2
BRANCH   1  25
ATOM     25  C   UNL A   1      36.975  31.385  31.936  1.00  0.00     0.002 C 
BRANCH  25  26
ATOM     26  C   UNL A   1      35.466  31.554  31.701  1.00  0.00     0.021 C 
BRANCH  26  27
ATOM     27  C   UNL A   1      35.131  32.547  30.599  1.00  0.00     0.116 C 
BRANCH  27  28
ATOM     28  N   UNL A   1      34.404  31.917  29.498  1.00  0.00    -0.352 N 
ATOM     29  C   UNL A   1      34.909  31.303  28.372  1.00  0.00     0.251 C 
ATOM     30  H   UNL A   1      33.422  31.932  29.573  1.00  0.00     0.163 HD
ATOM     31  O   UNL A   1      34.216  31.152  27.374  1.00  0.00    -0.269 OA
BRANCH  29  32
ATOM     32  C   UNL A   1      36.300  30.824  28.386  1.00  0.00     0.039 A 
ATOM     33  C   UNL A   1      37.366  31.708  28.574  1.00  0.00     0.014 A 
ATOM     34  C   UNL A   1      36.526  29.460  28.213  1.00  0.00     0.014 A 
ATOM     35  C   UNL A   1      38.656  31.194  28.664  1.00  0.00     0.010 A 
ATOM     36  C   UNL A   1      37.773  28.941  28.447  1.00  0.00     0.010 A 
ATOM     37  C   UNL A   1      38.848  29.804  28.619  1.00  0.00    -0.014 A 
BRANCH  37  38
ATOM     38  C   UNL A   1      40.159  29.223  28.880  1.00  0.00     0.031 A 
ATOM     39  C   UNL A   1      40.420  28.912  30.310  1.00  0.00     0.074 A 
ATOM     40  C   UNL A   1      40.975  28.783  27.898  1.00  0.00     0.049 A 
ATOM     41  N   UNL A   1      41.297  29.463  31.079  1.00  0.00    -0.248 NA
ATOM     42  C   UNL A   1      39.521  27.977  31.005  1.00  0.00     0.031 C 
ATOM     43  C   UNL A   1      40.715  28.738  26.454  1.00  0.00     0.029 A 
ATOM     44  N   UNL A   1      42.172  28.146  28.001  1.00  0.00    -0.354 N 
ATOM     45  C   UNL A   1      41.206  28.806  32.303  1.00  0.00     0.074 A 
ATOM     46  C   UNL A   1      39.986  28.039  32.255  1.00  0.00     0.031 C 
ATOM     47  C   UNL A   1      41.587  27.891  25.864  1.00  0.00     0.029 A 
ATOM     48  C   UNL A   1      42.561  27.466  26.853  1.00  0.00     0.049 A 
ATOM     49  H   UNL A   1      42.717  28.165  28.821  1.00  0.00     0.167 HD
ATOM     50  C   UNL A   1      42.274  28.742  33.146  1.00  0.00     0.031 A 
ATOM     51  C   UNL A   1      43.587  26.587  26.733  1.00  0.00     0.031 A 
ATOM     52  C   UNL A   1      43.301  29.682  32.770  1.00  0.00     0.049 A 
ATOM     53  C   UNL A   1      44.502  26.818  27.874  1.00  0.00     0.074 A 
ATOM     54  C   UNL A   1      43.347  31.051  32.591  1.00  0.00     0.029 A 
ATOM     55  N   UNL A   1      44.396  29.176  32.106  1.00  0.00    -0.354 N 
ATOM     56  N   UNL A   1      45.219  27.898  28.004  1.00  0.00    -0.248 NA
ATOM     57  C   UNL A   1      44.269  26.073  29.102  1.00  0.00     0.031 C 
ATOM     58  C   UNL A   1      44.157  31.237  31.431  1.00  0.00     0.029 A 
ATOM     59  C   UNL A   1      44.631  29.988  31.028  1.00  0.00     0.049 A 
ATOM     60  H   UNL A   1      44.914  28.380  32.359  1.00  0.00     0.167 HD
ATOM     61  C   UNL A   1      45.122  28.219  29.350  1.00  0.00     0.074 A 
ATOM     62  C   UNL A   1      44.621  27.004  29.994  1.00  0.00     0.031 C 
ATOM     63  C   UNL A   1      45.166  29.518  29.770  1.00  0.00     0.031 A 
BRANCH  50  64
ATOM     64  C   UNL A   1      42.584  27.548  34.017  1.00  0.00    -0.014 A 
ATOM     65  C   UNL A   1      43.519  26.604  33.549  1.00  0.00     0.009 A 
ATOM     66  C   UNL A   1      41.791  27.158  35.112  1.00  0.00     0.009 A 
ATOM     67  C   UNL A   1      43.577  25.310  34.078  1.00  0.00     0.001 A 
ATOM     68  C   UNL A   1      41.877  25.881  35.672  1.00  0.00     0.001 A 
ATOM     69  C   UNL A   1      42.746  24.945  35.131  1.00  0.00     0.000 A 
ENDBRANCH  50  64
BRANCH  51  70
ATOM     70  C   UNL A   1      43.728  25.421  25.833  1.00  0.00    -0.014 A 
ATOM     71  C   UNL A   1      44.970  25.099  25.261  1.00  0.00     0.009 A 
ATOM     72  C   UNL A   1      42.703  24.463  25.743  1.00  0.00     0.009 A 
ATOM     73  C   UNL A   1      45.189  23.849  24.663  1.00  0.00     0.001 A 
ATOM     74  C   UNL A   1      42.918  23.216  25.142  1.00  0.00     0.001 A 
ATOM     75  C   UNL A   1      44.167  22.904  24.617  1.00  0.00     0.000 A 
ENDBRANCH  51  70
BRANCH  63  76
ATOM     76  C   UNL A   1      45.557  30.581  28.771  1.00  0.00    -0.014 A 
ATOM     77  C   UNL A   1      46.879  31.025  28.587  1.00  0.00     0.009 A 
ATOM     78  C   UNL A   1      44.578  31.029  27.871  1.00  0.00     0.009 A 
ATOM     79  C   UNL A   1      47.201  31.914  27.556  1.00  0.00     0.001 A 
ATOM     80  C   UNL A   1      44.903  31.897  26.828  1.00  0.00     0.001 A 
ATOM     81  C   UNL A   1      46.213  32.345  26.673  1.00  0.00     0.000 A 
ENDBRANCH  63  76
ENDBRANCH  37  38
ENDBRANCH  29  32
ENDBRANCH  27  28
ENDBRANCH  26  27
ENDBRANCH  25  26
ENDBRANCH   1  25
TORSDOF 15
ENDMDL
MODEL 2
REMARK VINA RESULT:     -10.9      2.499      4.336
REMARK SMILES Cc1n[nH]c(C(=O)Nc2cc(C(=O)NCCCCCCNC(=O)c3ccc(-c4c5nc(c(-c6ccccc6)c6ccc([nH]6)c(-c6ccccc6)c6nc(c(-c7ccccc7)c7ccc4[nH]7)C=C6)C=C5)cc3)[nH]n2)n1
REMARK SMILES IDX 17 1 16 2 15 3 14 4 12 5 13 6 11 8 9 9 10 10 73 11 72 12
REMARK SMILES IDX 8 14 6 15 7 16 5 18 1 19 2 20 3 21 74 22 4 23 18 25 19 26
REMARK SMILES IDX 20 27 21 28 22 29 23 31 24 32 25 33 71 34 26 35 70 36 27 37
REMARK SMILES IDX 28 38 29 39 64 40 30 41 69 42 63 43 65 44 31 45 68 46 62 47
REMARK SMILES IDX 61 48 32 50 54 51 39 52 53 53 40 54 43 55 52 56 66 57 41 58
REMARK SMILES IDX 42 59 51 61 67 62 44 63 33 64 34 65 38 66 35 67 37 68 36 69
REMARK SMILES IDX 55 70 56 71 60 72 57 73 59 74 58 75 45 76 46 77 50 78 47 79
REMARK SMILES IDX 49 80 48 81
REMARK H PARENT 14 7 72 13 8 17 4 24 21 30 65 49 43 60
REMARK Flexibility Score: inf
ROOT
ATOM      1  C   UNL A   1      36.915  33.520  35.406  1.00  0.00     0.002 C 
ENDROOT
BRANCH   1   2
ATOM      2  C   UNL A   1      35.727  34.223  34.739  1.00  0.00     0.021 C 
BRANCH   2   3
ATOM      3  C   UNL A   1      35.121  33.414  33.594  1.00  0.00     0.116 C 
BRANCH   3   4
ATOM      4  N   UNL A   1      35.893  32.210  33.348  1.00  0.00    -0.351 N 
ATOM      5  C   UNL A   1      36.311  31.606  32.189  1.00  0.00     0.269 C 
ATOM      6  O   UNL A   1      37.010  30.608  32.286  1.00  0.00    -0.268 OA
ATOM      7  H   UNL A   1      36.166  31.737  34.166  1.00  0.00     0.163 HD
BRANCH   5   8
ATOM      8  C   UNL A   1      36.015  32.187  30.906  1.00  0.00     0.125 A 
ATOM      9  C   UNL A   1      35.131  33.077  29.084  1.00  0.00     0.155 A 
ATOM     10  C   UNL A   1      35.120  31.924  29.891  1.00  0.00     0.082 A 
ATOM     11  N   UNL A   1      36.178  33.847  29.356  1.00  0.00    -0.157 NA
ATOM     12  N   UNL A   1      36.716  33.280  30.454  1.00  0.00    -0.271 N 
ATOM     13  H   UNL A   1      37.532  33.614  30.889  1.00  0.00     0.190 HD
BRANCH   9  14
ATOM     14  N   UNL A   1      34.197  33.457  28.161  1.00  0.00    -0.302 N 
ATOM     15  C   UNL A   1      33.081  34.247  28.369  1.00  0.00     0.294 C 
ATOM     16  O   UNL A   1      32.162  34.153  27.554  1.00  0.00    -0.265 OA
ATOM     17  H   UNL A   1      34.335  33.133  27.241  1.00  0.00     0.172 HD
BRANCH  15  18
ATOM     18  C   UNL A   1      33.090  35.247  29.437  1.00  0.00     0.214 A 
ATOM     19  C   UNL A   1      32.720  36.345  32.791  1.00  0.00     0.092 C 
ATOM     20  C   UNL A   1      32.928  36.192  31.336  1.00  0.00     0.148 A 
ATOM     21  N   UNL A   1      32.910  37.228  30.493  1.00  0.00    -0.159 NA
ATOM     22  N   UNL A   1      33.090  34.972  30.733  1.00  0.00    -0.207 NA
ATOM     23  N   UNL A   1      32.935  36.602  29.306  1.00  0.00    -0.255 N 
ATOM     24  H   UNL A   1      32.851  37.063  28.441  1.00  0.00     0.192 HD
ENDBRANCH  15  18
ENDBRANCH   9  14
ENDBRANCH   5   8
ENDBRANCH   3   4
ENDBRANCH   2   3
ENDBRANCH   1   2
BRANCH   1  25
ATOM     25  C   UNL A   1      38.301  33.919  34.870  1.00  0.00     0.002 C 
BRANCH  25  26
ATOM     26  C   UNL A   1      39.172  32.775  34.329  1.00  0.00     0.021 C 
BRANCH  26  27
ATOM     27  C   UNL A   1      40.282  33.245  33.400  1.00  0.00     0.116 C 
BRANCH  27  28
ATOM     28  N   UNL A   1      39.756  33.952  32.234  1.00  0.00    -0.352 N 
ATOM     29  C   UNL A   1      40.036  33.742  30.901  1.00  0.00     0.251 C 
ATOM     30  H   UNL A   1      39.114  34.674  32.427  1.00  0.00     0.163 HD
ATOM     31  O   UNL A   1      39.828  34.616  30.070  1.00  0.00    -0.269 OA
BRANCH  29  32
ATOM     32  C   UNL A   1      40.587  32.442  30.487  1.00  0.00     0.039 A 
ATOM     33  C   UNL A   1      41.962  32.268  30.301  1.00  0.00     0.014 A 
ATOM     34  C   UNL A   1      39.702  31.386  30.289  1.00  0.00     0.014 A 
ATOM     35  C   UNL A   1      42.441  30.998  29.991  1.00  0.00     0.010 A 
ATOM     36  C   UNL A   1      40.183  30.112  30.129  1.00  0.00     0.010 A 
ATOM     37  C   UNL A   1      41.545  29.920  29.927  1.00  0.00    -0.014 A 
BRANCH  37  38
ATOM     38  C   UNL A   1      42.029  28.554  29.774  1.00  0.00     0.031 A 
ATOM     39  C   UNL A   1      42.736  28.017  30.965  1.00  0.00     0.074 A 
ATOM     40  C   UNL A   1      41.668  27.759  28.743  1.00  0.00     0.049 A 
ATOM     41  N   UNL A   1      43.983  27.695  31.052  1.00  0.00    -0.248 NA
ATOM     42  C   UNL A   1      42.013  27.949  32.246  1.00  0.00     0.031 C 
ATOM     43  C   UNL A   1      40.725  28.053  27.658  1.00  0.00     0.029 A 
ATOM     44  N   UNL A   1      41.970  26.451  28.526  1.00  0.00    -0.354 N 
ATOM     45  C   UNL A   1      44.164  27.190  32.336  1.00  0.00     0.074 A 
ATOM     46  C   UNL A   1      42.977  27.539  33.075  1.00  0.00     0.031 C 
ATOM     47  C   UNL A   1      40.343  26.898  27.068  1.00  0.00     0.029 A 
ATOM     48  C   UNL A   1      41.132  25.812  27.619  1.00  0.00     0.049 A 
ATOM     49  H   UNL A   1      42.720  25.995  28.973  1.00  0.00     0.167 HD
ATOM     50  C   UNL A   1      45.160  26.300  32.606  1.00  0.00     0.031 A 
ATOM     51  C   UNL A   1      41.065  24.481  27.368  1.00  0.00     0.031 A 
ATOM     52  C   UNL A   1      46.126  26.248  31.536  1.00  0.00     0.049 A 
ATOM     53  C   UNL A   1      42.326  23.876  27.856  1.00  0.00     0.074 A 
ATOM     54  C   UNL A   1      46.936  27.177  30.913  1.00  0.00     0.029 A 
ATOM     55  N   UNL A   1      46.046  25.177  30.675  1.00  0.00    -0.354 N 
ATOM     56  N   UNL A   1      43.483  24.095  27.299  1.00  0.00    -0.248 NA
ATOM     57  C   UNL A   1      42.375  23.411  29.234  1.00  0.00     0.031 C 
ATOM     58  C   UNL A   1      46.880  26.836  29.529  1.00  0.00     0.029 A 
ATOM     59  C   UNL A   1      46.121  25.672  29.399  1.00  0.00     0.049 A 
ATOM     60  H   UNL A   1      45.953  24.232  30.928  1.00  0.00     0.167 HD
ATOM     61  C   UNL A   1      44.355  24.258  28.365  1.00  0.00     0.074 A 
ATOM     62  C   UNL A   1      43.644  23.717  29.524  1.00  0.00     0.031 C 
ATOM     63  C   UNL A   1      45.440  25.083  28.268  1.00  0.00     0.031 A 
BRANCH  50  64
ATOM     64  C   UNL A   1      45.027  25.170  33.598  1.00  0.00    -0.014 A 
ATOM     65  C   UNL A   1      44.157  24.106  33.289  1.00  0.00     0.009 A 
ATOM     66  C   UNL A   1      45.473  25.250  34.931  1.00  0.00     0.009 A 
ATOM     67  C   UNL A   1      43.679  23.242  34.280  1.00  0.00     0.001 A 
ATOM     68  C   UNL A   1      45.031  24.362  35.915  1.00  0.00     0.001 A 
ATOM     69  C   UNL A   1      44.107  23.379  35.596  1.00  0.00     0.000 A 
ENDBRANCH  50  64
BRANCH  51  70
ATOM     70  C   UNL A   1      39.912  23.661  26.937  1.00  0.00    -0.014 A 
ATOM     71  C   UNL A   1      38.683  24.259  26.613  1.00  0.00     0.009 A 
ATOM     72  C   UNL A   1      40.091  22.311  26.584  1.00  0.00     0.009 A 
ATOM     73  C   UNL A   1      37.691  23.547  25.923  1.00  0.00     0.001 A 
ATOM     74  C   UNL A   1      39.100  21.597  25.900  1.00  0.00     0.001 A 
ATOM     75  C   UNL A   1      37.906  22.221  25.555  1.00  0.00     0.000 A 
ENDBRANCH  51  70
BRANCH  63  76
ATOM     76  C   UNL A   1      45.804  25.633  26.909  1.00  0.00    -0.014 A 
ATOM     77  C   UNL A   1      45.192  26.765  26.341  1.00  0.00     0.009 A 
ATOM     78  C   UNL A   1      46.917  25.084  26.256  1.00  0.00     0.009 A 
ATOM     79  C   UNL A   1      45.662  27.307  25.140  1.00  0.00     0.001 A 
ATOM     80  C   UNL A   1      47.401  25.639  25.070  1.00  0.00     0.001 A 
ATOM     81  C   UNL A   1      46.770  26.747  24.509  1.00  0.00     0.000 A 
ENDBRANCH  63  76
ENDBRANCH  37  38
ENDBRANCH  29  32
ENDBRANCH  27  28
ENDBRANCH  26  27
ENDBRANCH  25  26
ENDBRANCH   1  25
TORSDOF 15
ENDMDL
MODEL 3
REMARK VINA RESULT:     -10.8      4.961      9.423
REMARK SMILES Cc1n[nH]c(C(=O)Nc2cc(C(=O)NCCCCCCNC(=O)c3ccc(-c4c5nc(c(-c6ccccc6)c6ccc([nH]6)c(-c6ccccc6)c6nc(c(-c7ccccc7)c7ccc4[nH]7)C=C6)C=C5)cc3)[nH]n2)n1
REMARK SMILES IDX 17 1 16 2 15 3 14 4 12 5 13 6 11 8 9 9 10 10 73 11 72 12
REMARK SMILES IDX 8 14 6 15 7 16 5 18 1 19 2 20 3 21 74 22 4 23 18 25 19 26
REMARK SMILES IDX 20 27 21 28 22 29 23 31 24 32 25 33 71 34 26 35 70 36 27 37
REMARK SMILES IDX 28 38 29 39 64 40 30 41 69 42 63 43 65 44 31 45 68 46 62 47
REMARK SMILES IDX 61 48 32 50 54 51 39 52 53 53 40 54 43 55 52 56 66 57 41 58
REMARK SMILES IDX 42 59 51 61 67 62 44 63 33 64 34 65 38 66 35 67 37 68 36 69
REMARK SMILES IDX 55 70 56 71 60 72 57 73 59 74 58 75 45 76 46 77 50 78 47 79
REMARK SMILES IDX 49 80 48 81
REMARK H PARENT 14 7 72 13 8 17 4 24 21 30 65 49 43 60
REMARK Flexibility Score: inf
ROOT
ATOM      1  C   UNL A   1      34.739  20.148  24.999  1.00  0.00     0.002 C 
ENDROOT
BRANCH   1   2
ATOM      2  C   UNL A   1      33.658  20.999  24.322  1.00  0.00     0.021 C 
BRANCH   2   3
ATOM      3  C   UNL A   1      32.367  21.081  25.134  1.00  0.00     0.116 C 
BRANCH   3   4
ATOM      4  N   UNL A   1      32.649  21.403  26.520  1.00  0.00    -0.351 N 
ATOM      5  C   UNL A   1      32.480  22.553  27.249  1.00  0.00     0.269 C 
ATOM      6  O   UNL A   1      32.760  22.521  28.439  1.00  0.00    -0.268 OA
ATOM      7  H   UNL A   1      33.033  20.657  27.034  1.00  0.00     0.163 HD
BRANCH   5   8
ATOM      8  C   UNL A   1      31.904  23.729  26.651  1.00  0.00     0.125 A 
ATOM      9  C   UNL A   1      31.144  25.340  25.340  1.00  0.00     0.155 A 
ATOM     10  C   UNL A   1      32.316  24.662  25.724  1.00  0.00     0.082 A 
ATOM     11  N   UNL A   1      30.150  25.105  26.190  1.00  0.00    -0.157 NA
ATOM     12  N   UNL A   1      30.637  24.138  26.992  1.00  0.00    -0.271 N 
ATOM     13  H   UNL A   1      30.135  23.761  27.749  1.00  0.00     0.190 HD
BRANCH   9  14
ATOM     14  N   UNL A   1      30.953  26.111  24.228  1.00  0.00    -0.302 N 
ATOM     15  C   UNL A   1      31.127  27.478  24.110  1.00  0.00     0.294 C 
ATOM     16  O   UNL A   1      30.536  28.045  23.189  1.00  0.00    -0.265 OA
ATOM     17  H   UNL A   1      30.658  25.639  23.415  1.00  0.00     0.172 HD
BRANCH  15  18
ATOM     18  C   UNL A   1      32.094  28.162  24.969  1.00  0.00     0.214 A 
ATOM     19  C   UNL A   1      33.110  30.634  27.302  1.00  0.00     0.092 C 
ATOM     20  C   UNL A   1      32.990  29.522  26.337  1.00  0.00     0.148 A 
ATOM     21  N   UNL A   1      34.050  28.965  25.743  1.00  0.00    -0.159 NA
ATOM     22  N   UNL A   1      31.782  29.019  25.929  1.00  0.00    -0.207 NA
ATOM     23  N   UNL A   1      33.457  28.174  24.836  1.00  0.00    -0.255 N 
ATOM     24  H   UNL A   1      33.946  27.661  24.153  1.00  0.00     0.192 HD
ENDBRANCH  15  18
ENDBRANCH   9  14
ENDBRANCH   5   8
ENDBRANCH   3   4
ENDBRANCH   2   3
ENDBRANCH   1   2
BRANCH   1  25
ATOM     25  C   UNL A   1      36.142  20.778  25.041  1.00  0.00     0.002 C 
BRANCH  25  26
ATOM     26  C   UNL A   1      37.324  19.810  24.884  1.00  0.00     0.021 C 
BRANCH  26  27
ATOM     27  C   UNL A   1      38.635  20.361  25.424  1.00  0.00     0.116 C 
BRANCH  27  28
ATOM     28  N   UNL A   1      39.628  19.308  25.626  1.00  0.00    -0.352 N 
ATOM     29  C   UNL A   1      40.965  19.434  25.938  1.00  0.00     0.251 C 
ATOM     30  H   UNL A   1      39.298  18.386  25.529  1.00  0.00     0.163 HD
ATOM     31  O   UNL A   1      41.750  18.521  25.719  1.00  0.00    -0.269 OA
BRANCH  29  32
ATOM     32  C   UNL A   1      41.438  20.686  26.548  1.00  0.00     0.039 A 
ATOM     33  C   UNL A   1      42.012  21.696  25.770  1.00  0.00     0.014 A 
ATOM     34  C   UNL A   1      41.294  20.843  27.924  1.00  0.00     0.014 A 
ATOM     35  C   UNL A   1      42.367  22.895  26.381  1.00  0.00     0.010 A 
ATOM     36  C   UNL A   1      41.505  22.070  28.498  1.00  0.00     0.010 A 
ATOM     37  C   UNL A   1      42.091  23.081  27.744  1.00  0.00    -0.014 A 
BRANCH  37  38
ATOM     38  C   UNL A   1      42.290  24.378  28.377  1.00  0.00     0.031 A 
ATOM     39  C   UNL A   1      41.217  25.368  28.100  1.00  0.00     0.074 A 
ATOM     40  C   UNL A   1      43.233  24.598  29.319  1.00  0.00     0.049 A 
ATOM     41  N   UNL A   1      41.324  26.469  27.436  1.00  0.00    -0.248 NA
ATOM     42  C   UNL A   1      39.835  25.041  28.492  1.00  0.00     0.031 C 
ATOM     43  C   UNL A   1      44.160  23.631  29.918  1.00  0.00     0.029 A 
ATOM     44  N   UNL A   1      43.468  25.722  30.047  1.00  0.00    -0.354 N 
ATOM     45  C   UNL A   1      40.075  27.080  27.495  1.00  0.00     0.074 A 
ATOM     46  C   UNL A   1      39.163  26.081  27.992  1.00  0.00     0.031 C 
ATOM     47  C   UNL A   1      44.657  24.135  31.069  1.00  0.00     0.029 A 
ATOM     48  C   UNL A   1      44.216  25.512  31.200  1.00  0.00     0.049 A 
ATOM     49  H   UNL A   1      43.137  26.610  29.780  1.00  0.00     0.167 HD
ATOM     50  C   UNL A   1      39.949  28.432  27.381  1.00  0.00     0.031 A 
ATOM     51  C   UNL A   1      44.426  26.394  32.209  1.00  0.00     0.031 A 
ATOM     52  C   UNL A   1      41.158  29.034  26.874  1.00  0.00     0.049 A 
ATOM     53  C   UNL A   1      44.133  27.747  31.681  1.00  0.00     0.074 A 
ATOM     54  C   UNL A   1      41.922  28.869  25.736  1.00  0.00     0.029 A 
ATOM     55  N   UNL A   1      41.973  29.661  27.788  1.00  0.00    -0.354 N 
ATOM     56  N   UNL A   1      44.872  28.336  30.785  1.00  0.00    -0.248 NA
ATOM     57  C   UNL A   1      42.772  28.247  31.793  1.00  0.00     0.031 C 
ATOM     58  C   UNL A   1      43.272  28.940  26.191  1.00  0.00     0.029 A 
ATOM     59  C   UNL A   1      43.254  29.236  27.555  1.00  0.00     0.049 A 
ATOM     60  H   UNL A   1      41.688  30.298  28.482  1.00  0.00     0.167 HD
ATOM     61  C   UNL A   1      43.963  28.926  29.919  1.00  0.00     0.074 A 
ATOM     62  C   UNL A   1      42.695  28.934  30.648  1.00  0.00     0.031 C 
ATOM     63  C   UNL A   1      44.249  29.076  28.592  1.00  0.00     0.031 A 
BRANCH  50  64
ATOM     64  C   UNL A   1      38.925  29.245  28.135  1.00  0.00    -0.014 A 
ATOM     65  C   UNL A   1      39.002  29.281  29.541  1.00  0.00     0.009 A 
ATOM     66  C   UNL A   1      37.731  29.718  27.559  1.00  0.00     0.009 A 
ATOM     67  C   UNL A   1      37.907  29.664  30.323  1.00  0.00     0.001 A 
ATOM     68  C   UNL A   1      36.651  30.143  28.336  1.00  0.00     0.001 A 
ATOM     69  C   UNL A   1      36.727  30.083  29.719  1.00  0.00     0.000 A 
ENDBRANCH  50  64
BRANCH  51  70
ATOM     70  C   UNL A   1      44.650  26.142  33.649  1.00  0.00    -0.014 A 
ATOM     71  C   UNL A   1      43.589  25.759  34.487  1.00  0.00     0.009 A 
ATOM     72  C   UNL A   1      45.956  26.015  34.155  1.00  0.00     0.009 A 
ATOM     73  C   UNL A   1      43.830  25.229  35.763  1.00  0.00     0.001 A 
ATOM     74  C   UNL A   1      46.198  25.491  35.431  1.00  0.00     0.001 A 
ATOM     75  C   UNL A   1      45.134  25.082  36.228  1.00  0.00     0.000 A 
ENDBRANCH  51  70
BRANCH  63  76
ATOM     76  C   UNL A   1      45.660  28.803  28.127  1.00  0.00    -0.014 A 
ATOM     77  C   UNL A   1      46.652  29.796  28.034  1.00  0.00     0.009 A 
ATOM     78  C   UNL A   1      46.041  27.466  27.935  1.00  0.00     0.009 A 
ATOM     79  C   UNL A   1      47.976  29.461  27.726  1.00  0.00     0.001 A 
ATOM     80  C   UNL A   1      47.366  27.130  27.652  1.00  0.00     0.001 A 
ATOM     81  C   UNL A   1      48.332  28.127  27.541  1.00  0.00     0.000 A 
ENDBRANCH  63  76
ENDBRANCH  37  38
ENDBRANCH  29  32
ENDBRANCH  27  28
ENDBRANCH  26  27
ENDBRANCH  25  26
ENDBRANCH   1  25
TORSDOF 15
ENDMDL
