MODEL 1
REMARK VINA RESULT:     -11.2      0.000      0.000
REMARK SMILES CC(C)CSc1cc2c(cc1Cl)C=C(C(=O)NCCCCCCNC(=O)c1ccc(-c3c4nc(c(-c5ccccc5)c5ccc([nH]5)c(-c5ccccc5)c5nc(c(-c6ccccc6)c6ccc3[nH]6)C=C5)C=C4)cc1)[C@@H](C(F)(F)F)O2
REMARK SMILES IDX 20 1 19 2 18 3 17 4 15 5 16 6 14 8 6 9 7 10 11 11 8 12 10 13
REMARK SMILES IDX 12 14 9 15 80 16 13 17 75 18 5 19 4 20 2 21 1 22 3 23 76 24
REMARK SMILES IDX 77 25 78 26 79 27 21 28 22 29 23 30 24 31 25 32 26 34 27 35
REMARK SMILES IDX 28 36 74 37 29 38 73 39 30 40 31 41 32 42 67 43 33 44 72 45
REMARK SMILES IDX 66 46 68 47 34 48 71 49 65 50 64 51 35 53 57 54 42 55 56 56
REMARK SMILES IDX 43 57 46 58 55 59 69 60 44 61 45 62 54 64 70 65 47 66 36 67
REMARK SMILES IDX 37 68 41 69 38 70 40 71 39 72 58 73 59 74 63 75 60 76 62 77
REMARK SMILES IDX 61 78 48 79 49 80 53 81 50 82 52 83 51 84
REMARK H PARENT 17 7 24 33 68 52 46 63
REMARK Flexibility Score: inf
ROOT
ATOM      1  C   UNL A   1      37.108  22.496  25.334  1.00  0.00     0.002 C 
ENDROOT
BRANCH   1   2
ATOM      2  C   UNL A   1      35.640  22.922  25.440  1.00  0.00     0.021 C 
BRANCH   2   3
ATOM      3  C   UNL A   1      34.682  21.799  25.830  1.00  0.00     0.116 C 
BRANCH   3   4
ATOM      4  N   UNL A   1      33.893  21.335  24.704  1.00  0.00    -0.352 N 
ATOM      5  C   UNL A   1      32.912  21.826  23.910  1.00  0.00     0.251 C 
ATOM      6  O   UNL A   1      32.544  21.068  23.007  1.00  0.00    -0.270 OA
ATOM      7  H   UNL A   1      34.135  20.416  24.449  1.00  0.00     0.163 HD
BRANCH   5   8
ATOM      8  C   UNL A   1      32.267  23.167  24.053  1.00  0.00     0.067 C 
ATOM      9  C   UNL A   1      31.323  28.136  23.802  1.00  0.00     0.030 A 
ATOM     10  C   UNL A   1      30.574  27.002  24.147  1.00  0.00     0.063 A 
ATOM     11  C   UNL A   1      32.637  27.950  23.343  1.00  0.00     0.055 A 
ATOM     12  C   UNL A   1      31.138  25.729  24.101  1.00  0.00     0.129 A 
ATOM     13  C   UNL A   1      33.199  26.665  23.298  1.00  0.00     0.033 A 
ATOM     14  Cl  UNL A   1      33.619  29.245  22.752  1.00  0.00    -0.083 Cl
ATOM     15  C   UNL A   1      32.450  25.549  23.681  1.00  0.00     0.019 A 
ATOM     16  O   UNL A   1      30.317  24.700  24.449  1.00  0.00    -0.475 OA
ATOM     17  C   UNL A   1      32.994  24.203  23.591  1.00  0.00     0.025 C 
ATOM     18  C   UNL A   1      30.925  23.401  24.688  1.00  0.00     0.314 C 
BRANCH   9  19
ATOM     19  S   UNL A   1      30.463  29.696  23.952  1.00  0.00    -0.124 SA
BRANCH  19  20
ATOM     20  C   UNL A   1      29.516  29.795  22.387  1.00  0.00     0.078 C 
BRANCH  20  21
ATOM     21  C   UNL A   1      27.992  29.976  22.511  1.00  0.00    -0.007 C 
ATOM     22  C   UNL A   1      27.274  28.773  23.125  1.00  0.00     0.008 C 
ATOM     23  C   UNL A   1      27.716  31.209  23.384  1.00  0.00     0.008 C 
ENDBRANCH  20  21
ENDBRANCH  19  20
ENDBRANCH   9  19
BRANCH  18  24
ATOM     24  C   UNL A   1      30.926  23.139  26.204  1.00  0.00     0.429 C 
ATOM     25  F   UNL A   1      32.024  23.691  26.780  1.00  0.00    -0.167 F 
ATOM     26  F   UNL A   1      29.857  23.680  26.831  1.00  0.00    -0.167 F 
ATOM     27  F   UNL A   1      30.933  21.819  26.499  1.00  0.00    -0.167 F 
ENDBRANCH  18  24
ENDBRANCH   5   8
ENDBRANCH   3   4
ENDBRANCH   2   3
ENDBRANCH   1   2
BRANCH   1  28
ATOM     28  C   UNL A   1      37.401  21.350  24.357  1.00  0.00     0.002 C 
BRANCH  28  29
ATOM     29  C   UNL A   1      37.921  20.054  24.984  1.00  0.00     0.021 C 
BRANCH  29  30
ATOM     30  C   UNL A   1      39.044  20.230  26.000  1.00  0.00     0.116 C 
BRANCH  30  31
ATOM     31  N   UNL A   1      40.044  19.179  25.921  1.00  0.00    -0.352 N 
ATOM     32  C   UNL A   1      41.410  19.269  26.033  1.00  0.00     0.251 C 
ATOM     33  H   UNL A   1      39.691  18.272  25.766  1.00  0.00     0.163 HD
ATOM     34  O   UNL A   1      42.117  18.292  25.802  1.00  0.00    -0.269 OA
BRANCH  32  35
ATOM     35  C   UNL A   1      42.032  20.561  26.391  1.00  0.00     0.039 A 
ATOM     36  C   UNL A   1      42.227  20.914  27.729  1.00  0.00     0.014 A 
ATOM     37  C   UNL A   1      42.396  21.442  25.371  1.00  0.00     0.014 A 
ATOM     38  C   UNL A   1      42.634  22.207  28.048  1.00  0.00     0.010 A 
ATOM     39  C   UNL A   1      42.874  22.714  25.693  1.00  0.00     0.010 A 
ATOM     40  C   UNL A   1      42.949  23.124  27.033  1.00  0.00    -0.014 A 
BRANCH  40  41
ATOM     41  C   UNL A   1      43.324  24.518  27.382  1.00  0.00     0.031 A 
ATOM     42  C   UNL A   1      44.759  24.964  27.285  1.00  0.00     0.074 A 
ATOM     43  C   UNL A   1      42.369  25.396  27.744  1.00  0.00     0.049 A 
ATOM     44  N   UNL A   1      45.280  26.129  27.578  1.00  0.00    -0.248 NA
ATOM     45  C   UNL A   1      45.736  23.978  26.795  1.00  0.00     0.031 C 
ATOM     46  C   UNL A   1      40.939  25.097  27.831  1.00  0.00     0.029 A 
ATOM     47  N   UNL A   1      42.455  26.722  28.087  1.00  0.00    -0.354 N 
ATOM     48  C   UNL A   1      46.641  26.010  27.327  1.00  0.00     0.074 A 
ATOM     49  C   UNL A   1      46.874  24.655  26.881  1.00  0.00     0.031 C 
ATOM     50  C   UNL A   1      40.277  26.216  28.159  1.00  0.00     0.029 A 
ATOM     51  C   UNL A   1      41.239  27.294  28.372  1.00  0.00     0.049 A 
ATOM     52  H   UNL A   1      43.305  27.215  28.124  1.00  0.00     0.167 HD
ATOM     53  C   UNL A   1      47.607  26.950  27.449  1.00  0.00     0.031 A 
ATOM     54  C   UNL A   1      40.930  28.540  28.780  1.00  0.00     0.031 A 
ATOM     55  C   UNL A   1      47.372  28.301  27.882  1.00  0.00     0.049 A 
ATOM     56  C   UNL A   1      42.031  29.543  28.978  1.00  0.00     0.074 A 
ATOM     57  C   UNL A   1      48.292  29.325  28.032  1.00  0.00     0.029 A 
ATOM     58  N   UNL A   1      46.135  28.818  28.226  1.00  0.00    -0.354 N 
ATOM     59  N   UNL A   1      43.314  29.409  28.750  1.00  0.00    -0.248 NA
ATOM     60  C   UNL A   1      41.644  30.865  29.493  1.00  0.00     0.031 C 
ATOM     61  C   UNL A   1      47.618  30.447  28.517  1.00  0.00     0.029 A 
ATOM     62  C   UNL A   1      46.270  30.141  28.609  1.00  0.00     0.049 A 
ATOM     63  H   UNL A   1      45.286  28.320  28.201  1.00  0.00     0.167 HD
ATOM     64  C   UNL A   1      43.886  30.631  29.077  1.00  0.00     0.074 A 
ATOM     65  C   UNL A   1      42.810  31.500  29.505  1.00  0.00     0.031 C 
ATOM     66  C   UNL A   1      45.190  30.997  29.026  1.00  0.00     0.031 A 
BRANCH  53  67
ATOM     67  C   UNL A   1      49.022  26.559  27.123  1.00  0.00    -0.014 A 
ATOM     68  C   UNL A   1      49.480  26.643  25.798  1.00  0.00     0.009 A 
ATOM     69  C   UNL A   1      49.869  26.016  28.101  1.00  0.00     0.009 A 
ATOM     70  C   UNL A   1      50.750  26.177  25.455  1.00  0.00     0.001 A 
ATOM     71  C   UNL A   1      51.150  25.574  27.759  1.00  0.00     0.001 A 
ATOM     72  C   UNL A   1      51.584  25.646  26.436  1.00  0.00     0.000 A 
ENDBRANCH  53  67
BRANCH  54  73
ATOM     73  C   UNL A   1      39.509  28.896  29.030  1.00  0.00    -0.014 A 
ATOM     74  C   UNL A   1      38.928  28.682  30.291  1.00  0.00     0.009 A 
ATOM     75  C   UNL A   1      38.711  29.407  27.996  1.00  0.00     0.009 A 
ATOM     76  C   UNL A   1      37.575  28.945  30.504  1.00  0.00     0.001 A 
ATOM     77  C   UNL A   1      37.363  29.698  28.220  1.00  0.00     0.001 A 
ATOM     78  C   UNL A   1      36.794  29.458  29.471  1.00  0.00     0.000 A 
ENDBRANCH  54  73
BRANCH  66  79
ATOM     79  C   UNL A   1      45.544  32.402  29.418  1.00  0.00    -0.014 A 
ATOM     80  C   UNL A   1      45.811  32.701  30.764  1.00  0.00     0.009 A 
ATOM     81  C   UNL A   1      45.492  33.447  28.484  1.00  0.00     0.009 A 
ATOM     82  C   UNL A   1      45.999  34.022  31.172  1.00  0.00     0.001 A 
ATOM     83  C   UNL A   1      45.705  34.765  28.892  1.00  0.00     0.001 A 
ATOM     84  C   UNL A   1      45.947  35.053  30.236  1.00  0.00     0.000 A 
ENDBRANCH  66  79
ENDBRANCH  40  41
ENDBRANCH  32  35
ENDBRANCH  30  31
ENDBRANCH  29  30
ENDBRANCH  28  29
ENDBRANCH   1  28
TORSDOF 17
ENDMDL
MODEL 2
REMARK VINA RESULT:     -10.8      1.184      5.818
REMARK SMILES CC(C)CSc1cc2c(cc1Cl)C=C(C(=O)NCCCCCCNC(=O)c1ccc(-c3c4nc(c(-c5ccccc5)c5ccc([nH]5)c(-c5ccccc5)c5nc(c(-c6ccccc6)c6ccc3[nH]6)C=C5)C=C4)cc1)[C@@H](C(F)(F)F)O2
REMARK SMILES IDX 20 1 19 2 18 3 17 4 15 5 16 6 14 8 6 9 7 10 11 11 8 12 10 13
REMARK SMILES IDX 12 14 9 15 80 16 13 17 75 18 5 19 4 20 2 21 1 22 3 23 76 24
REMARK SMILES IDX 77 25 78 26 79 27 21 28 22 29 23 30 24 31 25 32 26 34 27 35
REMARK SMILES IDX 28 36 74 37 29 38 73 39 30 40 31 41 32 42 67 43 33 44 72 45
REMARK SMILES IDX 66 46 68 47 34 48 71 49 65 50 64 51 35 53 57 54 42 55 56 56
REMARK SMILES IDX 43 57 46 58 55 59 69 60 44 61 45 62 54 64 70 65 47 66 36 67
REMARK SMILES IDX 37 68 41 69 38 70 40 71 39 72 58 73 59 74 63 75 60 76 62 77
REMARK SMILES IDX 61 78 48 79 49 80 53 81 50 82 52 83 51 84
REMARK H PARENT 17 7 24 33 68 52 46 63
REMARK Flexibility Score: inf
ROOT
ATOM      1  C   UNL A   1      35.735  21.873  25.300  1.00  0.00     0.002 C 
ENDROOT
BRANCH   1   2
ATOM      2  C   UNL A   1      34.939  22.115  26.587  1.00  0.00     0.021 C 
BRANCH   2   3
ATOM      3  C   UNL A   1      33.690  21.250  26.731  1.00  0.00     0.116 C 
BRANCH   3   4
ATOM      4  N   UNL A   1      33.139  20.864  25.445  1.00  0.00    -0.352 N 
ATOM      5  C   UNL A   1      32.464  21.460  24.434  1.00  0.00     0.251 C 
ATOM      6  O   UNL A   1      32.220  20.731  23.467  1.00  0.00    -0.270 OA
ATOM      7  H   UNL A   1      33.301  19.911  25.256  1.00  0.00     0.163 HD
BRANCH   5   8
ATOM      8  C   UNL A   1      32.006  22.883  24.415  1.00  0.00     0.067 C 
ATOM      9  C   UNL A   1      31.822  27.901  23.762  1.00  0.00     0.030 A 
ATOM     10  C   UNL A   1      30.882  26.908  24.069  1.00  0.00     0.063 A 
ATOM     11  C   UNL A   1      33.141  27.505  23.489  1.00  0.00     0.055 A 
ATOM     12  C   UNL A   1      31.258  25.570  24.170  1.00  0.00     0.129 A 
ATOM     13  C   UNL A   1      33.514  26.156  23.590  1.00  0.00     0.033 A 
ATOM     14  Cl  UNL A   1      34.363  28.608  22.958  1.00  0.00    -0.083 Cl
ATOM     15  C   UNL A   1      32.572  25.184  23.935  1.00  0.00     0.019 A 
ATOM     16  O   UNL A   1      30.263  24.691  24.466  1.00  0.00    -0.475 OA
ATOM     17  C   UNL A   1      32.924  23.773  23.994  1.00  0.00     0.025 C 
ATOM     18  C   UNL A   1      30.644  23.343  24.856  1.00  0.00     0.314 C 
BRANCH   9  19
ATOM     19  S   UNL A   1      31.183  29.571  23.709  1.00  0.00    -0.124 SA
BRANCH  19  20
ATOM     20  C   UNL A   1      30.098  29.548  22.234  1.00  0.00     0.078 C 
BRANCH  20  21
ATOM     21  C   UNL A   1      28.658  30.059  22.426  1.00  0.00    -0.007 C 
ATOM     22  C   UNL A   1      28.061  30.708  21.176  1.00  0.00     0.008 C 
ATOM     23  C   UNL A   1      27.770  28.876  22.835  1.00  0.00     0.008 C 
ENDBRANCH  20  21
ENDBRANCH  19  20
ENDBRANCH   9  19
BRANCH  18  24
ATOM     24  C   UNL A   1      30.424  23.197  26.372  1.00  0.00     0.429 C 
ATOM     25  F   UNL A   1      29.906  21.976  26.660  1.00  0.00    -0.167 F 
ATOM     26  F   UNL A   1      31.570  23.300  27.081  1.00  0.00    -0.167 F 
ATOM     27  F   UNL A   1      29.570  24.125  26.860  1.00  0.00    -0.167 F 
ENDBRANCH  18  24
ENDBRANCH   5   8
ENDBRANCH   3   4
ENDBRANCH   2   3
ENDBRANCH   1   2
BRANCH   1  28
ATOM     28  C   UNL A   1      36.419  20.505  25.187  1.00  0.00     0.002 C 
BRANCH  28  29
ATOM     29  C   UNL A   1      37.858  20.519  24.666  1.00  0.00     0.021 C 
BRANCH  29  30
ATOM     30  C   UNL A   1      38.932  20.717  25.730  1.00  0.00     0.116 C 
BRANCH  30  31
ATOM     31  N   UNL A   1      39.921  19.653  25.735  1.00  0.00    -0.352 N 
ATOM     32  C   UNL A   1      41.254  19.707  26.063  1.00  0.00     0.251 C 
ATOM     33  H   UNL A   1      39.588  18.766  25.465  1.00  0.00     0.163 HD
ATOM     34  O   UNL A   1      41.979  18.733  25.879  1.00  0.00    -0.269 OA
BRANCH  32  35
ATOM     35  C   UNL A   1      41.825  20.959  26.603  1.00  0.00     0.039 A 
ATOM     36  C   UNL A   1      41.838  21.205  27.979  1.00  0.00     0.014 A 
ATOM     37  C   UNL A   1      42.326  21.911  25.713  1.00  0.00     0.014 A 
ATOM     38  C   UNL A   1      42.201  22.464  28.450  1.00  0.00     0.010 A 
ATOM     39  C   UNL A   1      42.760  23.148  26.195  1.00  0.00     0.010 A 
ATOM     40  C   UNL A   1      42.653  23.452  27.561  1.00  0.00    -0.014 A 
BRANCH  40  41
ATOM     41  C   UNL A   1      42.981  24.810  28.066  1.00  0.00     0.031 A 
ATOM     42  C   UNL A   1      41.888  25.821  28.290  1.00  0.00     0.074 A 
ATOM     43  C   UNL A   1      44.256  25.122  28.363  1.00  0.00     0.049 A 
ATOM     44  N   UNL A   1      41.985  27.062  28.693  1.00  0.00    -0.248 NA
ATOM     45  C   UNL A   1      40.506  25.383  28.030  1.00  0.00     0.031 C 
ATOM     46  C   UNL A   1      45.399  24.215  28.232  1.00  0.00     0.029 A 
ATOM     47  N   UNL A   1      44.805  26.280  28.855  1.00  0.00    -0.354 N 
ATOM     48  C   UNL A   1      40.687  27.557  28.716  1.00  0.00     0.074 A 
ATOM     49  C   UNL A   1      39.819  26.493  28.265  1.00  0.00     0.031 C 
ATOM     50  C   UNL A   1      46.502  24.834  28.676  1.00  0.00     0.029 A 
ATOM     51  C   UNL A   1      46.161  26.202  29.057  1.00  0.00     0.049 A 
ATOM     52  H   UNL A   1      44.277  27.087  29.046  1.00  0.00     0.167 HD
ATOM     53  C   UNL A   1      40.258  28.785  29.091  1.00  0.00     0.031 A 
ATOM     54  C   UNL A   1      47.039  27.130  29.482  1.00  0.00     0.031 A 
ATOM     55  C   UNL A   1      41.122  29.839  29.551  1.00  0.00     0.049 A 
ATOM     56  C   UNL A   1      46.547  28.508  29.821  1.00  0.00     0.074 A 
ATOM     57  C   UNL A   1      40.774  31.117  29.955  1.00  0.00     0.029 A 
ATOM     58  N   UNL A   1      42.497  29.738  29.675  1.00  0.00    -0.354 N 
ATOM     59  N   UNL A   1      45.318  28.963  29.823  1.00  0.00    -0.248 NA
ATOM     60  C   UNL A   1      47.558  29.502  30.209  1.00  0.00     0.031 C 
ATOM     61  C   UNL A   1      41.945  31.806  30.274  1.00  0.00     0.029 A 
ATOM     62  C   UNL A   1      43.016  30.937  30.129  1.00  0.00     0.049 A 
ATOM     63  H   UNL A   1      43.026  28.933  29.471  1.00  0.00     0.167 HD
ATOM     64  C   UNL A   1      45.405  30.288  30.229  1.00  0.00     0.074 A 
ATOM     65  C   UNL A   1      46.805  30.561  30.478  1.00  0.00     0.031 C 
ATOM     66  C   UNL A   1      44.410  31.195  30.379  1.00  0.00     0.031 A 
BRANCH  53  67
ATOM     67  C   UNL A   1      38.785  29.076  29.012  1.00  0.00    -0.014 A 
ATOM     68  C   UNL A   1      38.234  29.564  27.816  1.00  0.00     0.009 A 
ATOM     69  C   UNL A   1      37.962  28.965  30.144  1.00  0.00     0.009 A 
ATOM     70  C   UNL A   1      36.894  29.950  27.758  1.00  0.00     0.001 A 
ATOM     71  C   UNL A   1      36.615  29.328  30.074  1.00  0.00     0.001 A 
ATOM     72  C   UNL A   1      36.085  29.829  28.886  1.00  0.00     0.000 A 
ENDBRANCH  53  67
BRANCH  54  73
ATOM     73  C   UNL A   1      48.478  26.775  29.602  1.00  0.00    -0.014 A 
ATOM     74  C   UNL A   1      49.342  26.905  28.502  1.00  0.00     0.009 A 
ATOM     75  C   UNL A   1      48.985  26.258  30.804  1.00  0.00     0.009 A 
ATOM     76  C   UNL A   1      50.674  26.500  28.593  1.00  0.00     0.001 A 
ATOM     77  C   UNL A   1      50.327  25.882  30.901  1.00  0.00     0.001 A 
ATOM     78  C   UNL A   1      51.168  25.994  29.793  1.00  0.00     0.000 A 
ENDBRANCH  54  73
BRANCH  66  79
ATOM     79  C   UNL A   1      44.776  32.571  30.857  1.00  0.00    -0.014 A 
ATOM     80  C   UNL A   1      44.745  32.859  32.231  1.00  0.00     0.009 A 
ATOM     81  C   UNL A   1      45.025  33.608  29.947  1.00  0.00     0.009 A 
ATOM     82  C   UNL A   1      44.938  34.164  32.685  1.00  0.00     0.001 A 
ATOM     83  C   UNL A   1      45.242  34.909  30.406  1.00  0.00     0.001 A 
ATOM     84  C   UNL A   1      45.187  35.188  31.772  1.00  0.00     0.000 A 
ENDBRANCH  66  79
ENDBRANCH  40  41
ENDBRANCH  32  35
ENDBRANCH  30  31
ENDBRANCH  29  30
ENDBRANCH  28  29
ENDBRANCH   1  28
TORSDOF 17
ENDMDL
MODEL 3
REMARK VINA RESULT:     -10.7      6.036     10.543
REMARK SMILES CC(C)CSc1cc2c(cc1Cl)C=C(C(=O)NCCCCCCNC(=O)c1ccc(-c3c4nc(c(-c5ccccc5)c5ccc([nH]5)c(-c5ccccc5)c5nc(c(-c6ccccc6)c6ccc3[nH]6)C=C5)C=C4)cc1)[C@@H](C(F)(F)F)O2
REMARK SMILES IDX 20 1 19 2 18 3 17 4 15 5 16 6 14 8 6 9 7 10 11 11 8 12 10 13
REMARK SMILES IDX 12 14 9 15 80 16 13 17 75 18 5 19 4 20 2 21 1 22 3 23 76 24
REMARK SMILES IDX 77 25 78 26 79 27 21 28 22 29 23 30 24 31 25 32 26 34 27 35
REMARK SMILES IDX 28 36 74 37 29 38 73 39 30 40 31 41 32 42 67 43 33 44 72 45
REMARK SMILES IDX 66 46 68 47 34 48 71 49 65 50 64 51 35 53 57 54 42 55 56 56
REMARK SMILES IDX 43 57 46 58 55 59 69 60 44 61 45 62 54 64 70 65 47 66 36 67
REMARK SMILES IDX 37 68 41 69 38 70 40 71 39 72 58 73 59 74 63 75 60 76 62 77
REMARK SMILES IDX 61 78 48 79 49 80 53 81 50 82 52 83 51 84
REMARK H PARENT 17 7 24 33 68 52 46 63
REMARK Flexibility Score: inf
ROOT
ATOM      1  C   UNL A   1      34.568  32.030  28.908  1.00  0.00     0.002 C 
ENDROOT
BRANCH   1   2
ATOM      2  C   UNL A   1      34.774  31.015  27.779  1.00  0.00     0.021 C 
BRANCH   2   3
ATOM      3  C   UNL A   1      33.511  30.266  27.362  1.00  0.00     0.116 C 
BRANCH   3   4
ATOM      4  N   UNL A   1      33.404  30.132  25.922  1.00  0.00    -0.352 N 
ATOM      5  C   UNL A   1      33.166  29.140  25.032  1.00  0.00     0.251 C 
ATOM      6  O   UNL A   1      33.120  29.498  23.850  1.00  0.00    -0.270 OA
ATOM      7  H   UNL A   1      33.540  30.995  25.468  1.00  0.00     0.163 HD
BRANCH   5   8
ATOM      8  C   UNL A   1      32.970  27.697  25.370  1.00  0.00     0.067 C 
ATOM      9  C   UNL A   1      33.794  22.786  26.291  1.00  0.00     0.030 A 
ATOM     10  C   UNL A   1      32.716  23.661  26.482  1.00  0.00     0.063 A 
ATOM     11  C   UNL A   1      34.996  23.311  25.791  1.00  0.00     0.055 A 
ATOM     12  C   UNL A   1      32.811  25.005  26.123  1.00  0.00     0.129 A 
ATOM     13  C   UNL A   1      35.086  24.665  25.433  1.00  0.00     0.033 A 
ATOM     14  Cl  UNL A   1      36.442  22.374  25.642  1.00  0.00    -0.083 Cl
ATOM     15  C   UNL A   1      33.990  25.516  25.595  1.00  0.00     0.019 A 
ATOM     16  O   UNL A   1      31.707  25.765  26.360  1.00  0.00    -0.475 OA
ATOM     17  C   UNL A   1      34.076  26.934  25.281  1.00  0.00     0.025 C 
ATOM     18  C   UNL A   1      31.652  27.085  25.755  1.00  0.00     0.314 C 
BRANCH   9  19
ATOM     19  S   UNL A   1      33.495  21.088  26.768  1.00  0.00    -0.124 SA
BRANCH  19  20
ATOM     20  C   UNL A   1      32.138  20.580  25.647  1.00  0.00     0.078 C 
BRANCH  20  21
ATOM     21  C   UNL A   1      32.545  20.124  24.233  1.00  0.00    -0.007 C 
ATOM     22  C   UNL A   1      32.551  21.251  23.198  1.00  0.00     0.008 C 
ATOM     23  C   UNL A   1      33.952  19.514  24.302  1.00  0.00     0.008 C 
ENDBRANCH  20  21
ENDBRANCH  19  20
ENDBRANCH   9  19
BRANCH  18  24
ATOM     24  C   UNL A   1      30.649  27.041  24.588  1.00  0.00     0.429 C 
ATOM     25  F   UNL A   1      31.255  26.593  23.459  1.00  0.00    -0.167 F 
ATOM     26  F   UNL A   1      29.612  26.206  24.819  1.00  0.00    -0.167 F 
ATOM     27  F   UNL A   1      30.127  28.258  24.312  1.00  0.00    -0.167 F 
ENDBRANCH  18  24
ENDBRANCH   5   8
ENDBRANCH   3   4
ENDBRANCH   2   3
ENDBRANCH   1   2
BRANCH   1  28
ATOM     28  C   UNL A   1      34.666  33.506  28.504  1.00  0.00     0.002 C 
BRANCH  28  29
ATOM     29  C   UNL A   1      33.422  34.356  28.774  1.00  0.00     0.021 C 
BRANCH  29  30
ATOM     30  C   UNL A   1      33.667  35.625  29.583  1.00  0.00     0.116 C 
BRANCH  30  31
ATOM     31  N   UNL A   1      32.663  35.838  30.612  1.00  0.00    -0.352 N 
ATOM     32  C   UNL A   1      32.678  35.458  31.932  1.00  0.00     0.251 C 
ATOM     33  H   UNL A   1      31.858  36.325  30.322  1.00  0.00     0.163 HD
ATOM     34  O   UNL A   1      31.679  35.601  32.631  1.00  0.00    -0.269 OA
BRANCH  32  35
ATOM     35  C   UNL A   1      33.892  34.834  32.501  1.00  0.00     0.039 A 
ATOM     36  C   UNL A   1      35.084  35.555  32.608  1.00  0.00     0.014 A 
ATOM     37  C   UNL A   1      33.839  33.498  32.905  1.00  0.00     0.014 A 
ATOM     38  C   UNL A   1      36.258  34.896  32.964  1.00  0.00     0.010 A 
ATOM     39  C   UNL A   1      35.004  32.858  33.333  1.00  0.00     0.010 A 
ATOM     40  C   UNL A   1      36.232  33.538  33.317  1.00  0.00    -0.014 A 
BRANCH  40  41
ATOM     41  C   UNL A   1      37.497  32.830  33.638  1.00  0.00     0.031 A 
ATOM     42  C   UNL A   1      38.094  31.860  32.652  1.00  0.00     0.074 A 
ATOM     43  C   UNL A   1      38.133  33.089  34.796  1.00  0.00     0.049 A 
ATOM     44  N   UNL A   1      39.172  31.126  32.770  1.00  0.00    -0.248 NA
ATOM     45  C   UNL A   1      37.395  31.693  31.368  1.00  0.00     0.031 C 
ATOM     46  C   UNL A   1      37.679  34.040  35.812  1.00  0.00     0.029 A 
ATOM     47  N   UNL A   1      39.306  32.591  35.306  1.00  0.00    -0.354 N 
ATOM     48  C   UNL A   1      39.268  30.400  31.590  1.00  0.00     0.074 A 
ATOM     49  C   UNL A   1      38.129  30.761  30.775  1.00  0.00     0.031 C 
ATOM     50  C   UNL A   1      38.584  34.091  36.800  1.00  0.00     0.029 A 
ATOM     51  C   UNL A   1      39.646  33.128  36.523  1.00  0.00     0.049 A 
ATOM     52  H   UNL A   1      39.851  31.915  34.842  1.00  0.00     0.167 HD
ATOM     53  C   UNL A   1      40.226  29.519  31.215  1.00  0.00     0.031 A 
ATOM     54  C   UNL A   1      40.684  32.862  37.339  1.00  0.00     0.031 A 
ATOM     55  C   UNL A   1      41.365  29.171  32.022  1.00  0.00     0.049 A 
ATOM     56  C   UNL A   1      41.694  31.827  36.932  1.00  0.00     0.074 A 
ATOM     57  C   UNL A   1      42.389  28.289  31.721  1.00  0.00     0.029 A 
ATOM     58  N   UNL A   1      41.633  29.688  33.277  1.00  0.00    -0.354 N 
ATOM     59  N   UNL A   1      41.761  31.139  35.819  1.00  0.00    -0.248 NA
ATOM     60  C   UNL A   1      42.766  31.526  37.892  1.00  0.00     0.031 C 
ATOM     61  C   UNL A   1      43.251  28.234  32.819  1.00  0.00     0.029 A 
ATOM     62  C   UNL A   1      42.797  29.128  33.776  1.00  0.00     0.049 A 
ATOM     63  H   UNL A   1      41.080  30.355  33.746  1.00  0.00     0.167 HD
ATOM     64  C   UNL A   1      42.889  30.338  35.936  1.00  0.00     0.074 A 
ATOM     65  C   UNL A   1      43.485  30.634  37.222  1.00  0.00     0.031 C 
ATOM     66  C   UNL A   1      43.383  29.436  35.054  1.00  0.00     0.031 A 
BRANCH  53  67
ATOM     67  C   UNL A   1      40.090  28.851  29.876  1.00  0.00    -0.014 A 
ATOM     68  C   UNL A   1      40.484  29.534  28.713  1.00  0.00     0.009 A 
ATOM     69  C   UNL A   1      39.483  27.592  29.751  1.00  0.00     0.009 A 
ATOM     70  C   UNL A   1      40.259  28.978  27.453  1.00  0.00     0.001 A 
ATOM     71  C   UNL A   1      39.283  27.027  28.488  1.00  0.00     0.001 A 
ATOM     72  C   UNL A   1      39.663  27.724  27.342  1.00  0.00     0.000 A 
ENDBRANCH  53  67
BRANCH  54  73
ATOM     73  C   UNL A   1      40.809  33.595  38.626  1.00  0.00    -0.014 A 
ATOM     74  C   UNL A   1      40.093  33.177  39.760  1.00  0.00     0.009 A 
ATOM     75  C   UNL A   1      41.605  34.747  38.716  1.00  0.00     0.009 A 
ATOM     76  C   UNL A   1      40.151  33.908  40.947  1.00  0.00     0.001 A 
ATOM     77  C   UNL A   1      41.684  35.461  39.914  1.00  0.00     0.001 A 
ATOM     78  C   UNL A   1      40.950  35.047  41.026  1.00  0.00     0.000 A 
ENDBRANCH  54  73
BRANCH  66  79
ATOM     79  C   UNL A   1      44.644  28.709  35.420  1.00  0.00    -0.014 A 
ATOM     80  C   UNL A   1      45.882  29.197  34.969  1.00  0.00     0.009 A 
ATOM     81  C   UNL A   1      44.600  27.483  36.098  1.00  0.00     0.009 A 
ATOM     82  C   UNL A   1      47.049  28.460  35.172  1.00  0.00     0.001 A 
ATOM     83  C   UNL A   1      45.774  26.760  36.322  1.00  0.00     0.001 A 
ATOM     84  C   UNL A   1      46.995  27.243  35.849  1.00  0.00     0.000 A 
ENDBRANCH  66  79
ENDBRANCH  40  41
ENDBRANCH  32  35
ENDBRANCH  30  31
ENDBRANCH  29  30
ENDBRANCH  28  29
ENDBRANCH   1  28
TORSDOF 17
ENDMDL
