MODEL 1
REMARK VINA RESULT:     -11.8      0.000      0.000
REMARK SMILES CCCC(=O)Nc1cccc(C(=O)N[C@@H](C(=O)NCCCCCCNC(=O)c2ccc(-c3c4nc(c(-c5ccccc5)c5ccc([nH]5)c(-c5ccccc5)c5nc(c(-c6ccccc6)c6ccc3[nH]6)C=C5)C=C4)cc2)C2=C(C)N=N[C@@H]2C)c1
REMARK SMILES IDX 20 1 19 2 18 3 16 4 17 5 15 7 14 8 12 9 13 10 11 12 7 13
REMARK SMILES IDX 8 14 83 15 9 16 10 17 6 18 4 19 5 20 3 22 2 23 1 24 76 25
REMARK SMILES IDX 77 26 81 27 78 28 79 29 80 30 82 31 21 32 22 33 23 34 24 35
REMARK SMILES IDX 25 36 26 37 27 39 28 40 29 41 75 42 30 43 74 44 31 45 32 46
REMARK SMILES IDX 33 47 68 48 34 49 73 50 67 51 69 52 35 53 72 54 66 55 65 56
REMARK SMILES IDX 36 58 58 59 43 60 57 61 44 62 47 63 56 64 70 65 45 66 46 67
REMARK SMILES IDX 55 69 71 70 48 71 37 72 38 73 42 74 39 75 41 76 40 77 59 78
REMARK SMILES IDX 60 79 64 80 61 81 63 82 62 83 49 84 50 85 54 86 51 87 53 88
REMARK SMILES IDX 52 89
REMARK H PARENT 18 6 14 11 6 21 25 38 69 57 47 68
REMARK Flexibility Score: inf
ROOT
ATOM      1  C   UNL A   1      33.075  28.587  27.185  1.00  0.00     0.021 C 
ENDROOT
BRANCH   1   2
ATOM      2  C   UNL A   1      34.057  28.163  26.101  1.00  0.00     0.116 C 
BRANCH   2   3
ATOM      3  N   UNL A   1      33.461  28.271  24.795  1.00  0.00    -0.354 N 
ATOM      4  C   UNL A   1      33.189  27.317  23.863  1.00  0.00     0.247 C 
ATOM      5  O   UNL A   1      32.643  27.729  22.834  1.00  0.00    -0.272 OA
ATOM      6  H   UNL A   1      33.209  29.185  24.531  1.00  0.00     0.163 HD
BRANCH   4   7
ATOM      7  C   UNL A   1      33.374  25.789  24.164  1.00  0.00     0.202 C 
BRANCH   7   8
ATOM      8  N   UNL A   1      33.289  24.899  22.999  1.00  0.00    -0.337 N 
ATOM      9  C   UNL A   1      33.670  23.628  22.647  1.00  0.00     0.252 C 
ATOM     10  O   UNL A   1      33.460  23.330  21.466  1.00  0.00    -0.269 OA
ATOM     11  H   UNL A   1      32.823  25.343  22.253  1.00  0.00     0.165 HD
BRANCH   9  12
ATOM     12  C   UNL A   1      34.323  22.589  23.513  1.00  0.00     0.041 A 
ATOM     13  C   UNL A   1      34.378  20.631  24.964  1.00  0.00     0.041 A 
ATOM     14  C   UNL A   1      35.746  20.758  25.156  1.00  0.00     0.026 A 
ATOM     15  C   UNL A   1      33.670  21.567  24.199  1.00  0.00     0.040 A 
ATOM     16  C   UNL A   1      36.424  21.774  24.490  1.00  0.00     0.003 A 
ATOM     17  C   UNL A   1      35.721  22.670  23.672  1.00  0.00     0.014 A 
BRANCH  13  18
ATOM     18  N   UNL A   1      33.677  19.598  25.594  1.00  0.00    -0.326 N 
ATOM     19  C   UNL A   1      33.081  18.540  24.952  1.00  0.00     0.224 C 
ATOM     20  O   UNL A   1      32.056  18.035  25.404  1.00  0.00    -0.275 OA
ATOM     21  H   UNL A   1      33.606  19.631  26.576  1.00  0.00     0.169 HD
BRANCH  19  22
ATOM     22  C   UNL A   1      33.819  17.939  23.759  1.00  0.00     0.100 C 
BRANCH  22  23
ATOM     23  C   UNL A   1      34.084  16.442  23.831  1.00  0.00     0.006 C 
ATOM     24  C   UNL A   1      34.882  16.010  25.061  1.00  0.00     0.004 C 
ENDBRANCH  22  23
ENDBRANCH  19  22
ENDBRANCH  13  18
ENDBRANCH   9  12
ENDBRANCH   7   8
BRANCH   7  25
ATOM     25  C   UNL A   1      32.362  25.387  25.194  1.00  0.00     0.011 C 
ATOM     26  C   UNL A   1      32.404  24.581  26.263  1.00  0.00     0.064 C 
ATOM     27  C   UNL A   1      30.916  25.757  25.063  1.00  0.00     0.156 C 
ATOM     28  C   UNL A   1      33.540  23.796  26.819  1.00  0.00     0.069 C 
ATOM     29  N   UNL A   1      31.172  24.416  26.847  1.00  0.00    -0.160 NA
ATOM     30  N   UNL A   1      30.287  25.032  26.196  1.00  0.00    -0.181 NA
ATOM     31  C   UNL A   1      30.242  25.339  23.763  1.00  0.00     0.040 C 
ENDBRANCH   7  25
ENDBRANCH   4   7
ENDBRANCH   2   3
ENDBRANCH   1   2
BRANCH   1  32
ATOM     32  C   UNL A   1      32.929  30.108  27.284  1.00  0.00     0.002 C 
BRANCH  32  33
ATOM     33  C   UNL A   1      31.569  30.643  26.818  1.00  0.00     0.002 C 
BRANCH  33  34
ATOM     34  C   UNL A   1      31.418  32.165  26.895  1.00  0.00     0.021 C 
BRANCH  34  35
ATOM     35  C   UNL A   1      32.731  32.916  27.093  1.00  0.00     0.116 C 
BRANCH  35  36
ATOM     36  N   UNL A   1      32.526  34.189  27.766  1.00  0.00    -0.352 N 
ATOM     37  C   UNL A   1      33.188  34.730  28.836  1.00  0.00     0.251 C 
ATOM     38  H   UNL A   1      31.801  34.745  27.397  1.00  0.00     0.163 HD
ATOM     39  O   UNL A   1      32.733  35.710  29.413  1.00  0.00    -0.269 OA
BRANCH  37  40
ATOM     40  C   UNL A   1      34.452  34.122  29.296  1.00  0.00     0.039 A 
ATOM     41  C   UNL A   1      34.432  33.308  30.430  1.00  0.00     0.014 A 
ATOM     42  C   UNL A   1      35.654  34.379  28.629  1.00  0.00     0.014 A 
ATOM     43  C   UNL A   1      35.614  32.715  30.872  1.00  0.00     0.010 A 
ATOM     44  C   UNL A   1      36.819  33.733  29.029  1.00  0.00     0.010 A 
ATOM     45  C   UNL A   1      36.811  32.904  30.159  1.00  0.00    -0.014 A 
BRANCH  45  46
ATOM     46  C   UNL A   1      38.061  32.236  30.589  1.00  0.00     0.031 A 
ATOM     47  C   UNL A   1      38.914  32.842  31.668  1.00  0.00     0.074 A 
ATOM     48  C   UNL A   1      38.451  31.107  29.970  1.00  0.00     0.049 A 
ATOM     49  N   UNL A   1      40.040  32.403  32.170  1.00  0.00    -0.248 NA
ATOM     50  C   UNL A   1      38.457  34.119  32.239  1.00  0.00     0.031 C 
ATOM     51  C   UNL A   1      37.729  30.446  28.880  1.00  0.00     0.029 A 
ATOM     52  N   UNL A   1      39.549  30.312  30.173  1.00  0.00    -0.354 N 
ATOM     53  C   UNL A   1      40.433  33.357  33.101  1.00  0.00     0.074 A 
ATOM     54  C   UNL A   1      39.452  34.419  33.061  1.00  0.00     0.031 C 
ATOM     55  C   UNL A   1      38.384  29.324  28.538  1.00  0.00     0.029 A 
ATOM     56  C   UNL A   1      39.585  29.206  29.358  1.00  0.00     0.049 A 
ATOM     57  H   UNL A   1      40.245  30.513  30.839  1.00  0.00     0.167 HD
ATOM     58  C   UNL A   1      41.507  33.342  33.927  1.00  0.00     0.031 A 
ATOM     59  C   UNL A   1      40.483  28.207  29.285  1.00  0.00     0.031 A 
ATOM     60  C   UNL A   1      42.474  32.279  33.975  1.00  0.00     0.049 A 
ATOM     61  C   UNL A   1      41.665  28.215  30.210  1.00  0.00     0.074 A 
ATOM     62  C   UNL A   1      43.554  32.132  34.828  1.00  0.00     0.029 A 
ATOM     63  N   UNL A   1      42.481  31.181  33.128  1.00  0.00    -0.354 N 
ATOM     64  N   UNL A   1      41.979  29.082  31.143  1.00  0.00    -0.248 NA
ATOM     65  C   UNL A   1      42.610  27.098  30.080  1.00  0.00     0.031 C 
ATOM     66  C   UNL A   1      44.244  30.971  34.462  1.00  0.00     0.029 A 
ATOM     67  C   UNL A   1      43.563  30.368  33.418  1.00  0.00     0.049 A 
ATOM     68  H   UNL A   1      41.813  31.005  32.426  1.00  0.00     0.167 HD
ATOM     69  C   UNL A   1      43.144  28.603  31.726  1.00  0.00     0.074 A 
ATOM     70  C   UNL A   1      43.470  27.362  31.054  1.00  0.00     0.031 C 
ATOM     71  C   UNL A   1      43.878  29.143  32.731  1.00  0.00     0.031 A 
BRANCH  58  72
ATOM     72  C   UNL A   1      41.696  34.525  34.836  1.00  0.00    -0.014 A 
ATOM     73  C   UNL A   1      41.214  34.516  36.155  1.00  0.00     0.009 A 
ATOM     74  C   UNL A   1      42.385  35.656  34.373  1.00  0.00     0.009 A 
ATOM     75  C   UNL A   1      41.385  35.632  36.979  1.00  0.00     0.001 A 
ATOM     76  C   UNL A   1      42.579  36.759  35.207  1.00  0.00     0.001 A 
ATOM     77  C   UNL A   1      42.070  36.750  36.505  1.00  0.00     0.000 A 
ENDBRANCH  58  72
BRANCH  59  78
ATOM     78  C   UNL A   1      40.279  27.096  28.321  1.00  0.00    -0.014 A 
ATOM     79  C   UNL A   1      40.833  27.168  27.033  1.00  0.00     0.009 A 
ATOM     80  C   UNL A   1      39.538  25.960  28.681  1.00  0.00     0.009 A 
ATOM     81  C   UNL A   1      40.626  26.136  26.116  1.00  0.00     0.001 A 
ATOM     82  C   UNL A   1      39.355  24.917  27.770  1.00  0.00     0.001 A 
ATOM     83  C   UNL A   1      39.891  25.010  26.486  1.00  0.00     0.000 A 
ENDBRANCH  59  78
BRANCH  71  84
ATOM     84  C   UNL A   1      45.092  28.375  33.172  1.00  0.00    -0.014 A 
ATOM     85  C   UNL A   1      46.353  28.620  32.609  1.00  0.00     0.009 A 
ATOM     86  C   UNL A   1      44.973  27.409  34.183  1.00  0.00     0.009 A 
ATOM     87  C   UNL A   1      47.466  27.885  33.022  1.00  0.00     0.001 A 
ATOM     88  C   UNL A   1      46.092  26.696  34.615  1.00  0.00     0.001 A 
ATOM     89  C   UNL A   1      47.334  26.927  34.027  1.00  0.00     0.000 A 
ENDBRANCH  71  84
ENDBRANCH  45  46
ENDBRANCH  37  40
ENDBRANCH  35  36
ENDBRANCH  34  35
ENDBRANCH  33  34
ENDBRANCH  32  33
ENDBRANCH   1  32
TORSDOF 19
ENDMDL
MODEL 2
REMARK VINA RESULT:     -11.5      1.277      5.800
REMARK SMILES CCCC(=O)Nc1cccc(C(=O)N[C@@H](C(=O)NCCCCCCNC(=O)c2ccc(-c3c4nc(c(-c5ccccc5)c5ccc([nH]5)c(-c5ccccc5)c5nc(c(-c6ccccc6)c6ccc3[nH]6)C=C5)C=C4)cc2)C2=C(C)N=N[C@@H]2C)c1
REMARK SMILES IDX 20 1 19 2 18 3 16 4 17 5 15 7 14 8 12 9 13 10 11 12 7 13
REMARK SMILES IDX 8 14 83 15 9 16 10 17 6 18 4 19 5 20 3 22 2 23 1 24 76 25
REMARK SMILES IDX 77 26 81 27 78 28 79 29 80 30 82 31 21 32 22 33 23 34 24 35
REMARK SMILES IDX 25 36 26 37 27 39 28 40 29 41 75 42 30 43 74 44 31 45 32 46
REMARK SMILES IDX 33 47 68 48 34 49 73 50 67 51 69 52 35 53 72 54 66 55 65 56
REMARK SMILES IDX 36 58 58 59 43 60 57 61 44 62 47 63 56 64 70 65 45 66 46 67
REMARK SMILES IDX 55 69 71 70 48 71 37 72 38 73 42 74 39 75 41 76 40 77 59 78
REMARK SMILES IDX 60 79 64 80 61 81 63 82 62 83 49 84 50 85 54 86 51 87 53 88
REMARK SMILES IDX 52 89
REMARK H PARENT 18 6 14 11 6 21 25 38 69 57 47 68
REMARK Flexibility Score: inf
ROOT
ATOM      1  C   UNL A   1      33.055  28.660  27.232  1.00  0.00     0.021 C 
ENDROOT
BRANCH   1   2
ATOM      2  C   UNL A   1      34.056  28.134  26.213  1.00  0.00     0.116 C 
BRANCH   2   3
ATOM      3  N   UNL A   1      33.552  28.277  24.871  1.00  0.00    -0.354 N 
ATOM      4  C   UNL A   1      33.297  27.343  23.916  1.00  0.00     0.247 C 
ATOM      5  O   UNL A   1      32.838  27.786  22.857  1.00  0.00    -0.272 OA
ATOM      6  H   UNL A   1      33.360  29.204  24.601  1.00  0.00     0.163 HD
BRANCH   4   7
ATOM      7  C   UNL A   1      33.391  25.806  24.214  1.00  0.00     0.202 C 
BRANCH   7   8
ATOM      8  N   UNL A   1      33.285  24.926  23.043  1.00  0.00    -0.337 N 
ATOM      9  C   UNL A   1      33.659  23.657  22.674  1.00  0.00     0.252 C 
ATOM     10  O   UNL A   1      33.428  23.369  21.495  1.00  0.00    -0.269 OA
ATOM     11  H   UNL A   1      32.806  25.376  22.310  1.00  0.00     0.165 HD
BRANCH   9  12
ATOM     12  C   UNL A   1      34.327  22.611  23.520  1.00  0.00     0.041 A 
ATOM     13  C   UNL A   1      34.406  20.646  24.960  1.00  0.00     0.041 A 
ATOM     14  C   UNL A   1      35.779  20.766  25.121  1.00  0.00     0.026 A 
ATOM     15  C   UNL A   1      33.685  21.589  24.216  1.00  0.00     0.040 A 
ATOM     16  C   UNL A   1      36.446  21.783  24.446  1.00  0.00     0.003 A 
ATOM     17  C   UNL A   1      35.729  22.686  23.648  1.00  0.00     0.014 A 
BRANCH  13  18
ATOM     18  N   UNL A   1      33.716  19.612  25.600  1.00  0.00    -0.326 N 
ATOM     19  C   UNL A   1      33.110  18.554  24.966  1.00  0.00     0.224 C 
ATOM     20  O   UNL A   1      32.092  18.049  25.434  1.00  0.00    -0.275 OA
ATOM     21  H   UNL A   1      33.659  19.645  26.582  1.00  0.00     0.169 HD
BRANCH  19  22
ATOM     22  C   UNL A   1      33.829  17.954  23.762  1.00  0.00     0.100 C 
BRANCH  22  23
ATOM     23  C   UNL A   1      34.097  16.457  23.830  1.00  0.00     0.006 C 
ATOM     24  C   UNL A   1      34.924  16.027  25.041  1.00  0.00     0.004 C 
ENDBRANCH  22  23
ENDBRANCH  19  22
ENDBRANCH  13  18
ENDBRANCH   9  12
ENDBRANCH   7   8
BRANCH   7  25
ATOM     25  C   UNL A   1      32.334  25.457  25.218  1.00  0.00     0.011 C 
ATOM     26  C   UNL A   1      32.309  24.651  26.288  1.00  0.00     0.064 C 
ATOM     27  C   UNL A   1      30.912  25.899  25.052  1.00  0.00     0.156 C 
ATOM     28  C   UNL A   1      33.389  23.809  26.871  1.00  0.00     0.069 C 
ATOM     29  N   UNL A   1      31.055  24.548  26.840  1.00  0.00    -0.160 NA
ATOM     30  N   UNL A   1      30.220  25.208  26.168  1.00  0.00    -0.181 NA
ATOM     31  C   UNL A   1      30.251  25.515  23.735  1.00  0.00     0.040 C 
ENDBRANCH   7  25
ENDBRANCH   4   7
ENDBRANCH   2   3
ENDBRANCH   1   2
BRANCH   1  32
ATOM     32  C   UNL A   1      32.953  30.188  27.221  1.00  0.00     0.002 C 
BRANCH  32  33
ATOM     33  C   UNL A   1      31.600  30.727  26.737  1.00  0.00     0.002 C 
BRANCH  33  34
ATOM     34  C   UNL A   1      31.468  32.252  26.771  1.00  0.00     0.021 C 
BRANCH  34  35
ATOM     35  C   UNL A   1      32.775  32.988  27.048  1.00  0.00     0.116 C 
BRANCH  35  36
ATOM     36  N   UNL A   1      32.540  34.298  27.635  1.00  0.00    -0.352 N 
ATOM     37  C   UNL A   1      33.060  34.851  28.775  1.00  0.00     0.251 C 
ATOM     38  H   UNL A   1      31.913  34.873  27.138  1.00  0.00     0.163 HD
ATOM     39  O   UNL A   1      32.577  35.877  29.239  1.00  0.00    -0.269 OA
BRANCH  37  40
ATOM     40  C   UNL A   1      34.202  34.202  29.447  1.00  0.00     0.039 A 
ATOM     41  C   UNL A   1      35.493  34.473  28.990  1.00  0.00     0.014 A 
ATOM     42  C   UNL A   1      33.997  33.309  30.504  1.00  0.00     0.014 A 
ATOM     43  C   UNL A   1      36.585  33.879  29.622  1.00  0.00     0.010 A 
ATOM     44  C   UNL A   1      35.089  32.771  31.176  1.00  0.00     0.010 A 
ATOM     45  C   UNL A   1      36.392  33.044  30.735  1.00  0.00    -0.014 A 
BRANCH  45  46
ATOM     46  C   UNL A   1      37.547  32.450  31.446  1.00  0.00     0.031 A 
ATOM     47  C   UNL A   1      38.269  31.266  30.866  1.00  0.00     0.074 A 
ATOM     48  C   UNL A   1      37.913  32.951  32.641  1.00  0.00     0.049 A 
ATOM     49  N   UNL A   1      39.297  30.613  31.348  1.00  0.00    -0.248 NA
ATOM     50  C   UNL A   1      37.757  30.731  29.596  1.00  0.00     0.031 C 
ATOM     51  C   UNL A   1      37.263  34.070  33.325  1.00  0.00     0.029 A 
ATOM     52  N   UNL A   1      38.927  32.586  33.487  1.00  0.00    -0.354 N 
ATOM     53  C   UNL A   1      39.541  29.583  30.449  1.00  0.00     0.074 A 
ATOM     54  C   UNL A   1      38.527  29.667  29.420  1.00  0.00     0.031 C 
ATOM     55  C   UNL A   1      37.919  34.325  34.469  1.00  0.00     0.029 A 
ATOM     56  C   UNL A   1      39.011  33.368  34.613  1.00  0.00     0.049 A 
ATOM     57  H   UNL A   1      39.537  31.834  33.307  1.00  0.00     0.167 HD
ATOM     58  C   UNL A   1      40.530  28.657  30.469  1.00  0.00     0.031 A 
ATOM     59  C   UNL A   1      39.875  33.323  35.643  1.00  0.00     0.031 A 
ATOM     60  C   UNL A   1      41.544  28.582  31.486  1.00  0.00     0.049 A 
ATOM     61  C   UNL A   1      40.961  32.286  35.643  1.00  0.00     0.074 A 
ATOM     62  C   UNL A   1      42.633  27.731  31.558  1.00  0.00     0.029 A 
ATOM     63  N   UNL A   1      41.590  29.387  32.614  1.00  0.00    -0.354 N 
ATOM     64  N   UNL A   1      41.230  31.370  34.745  1.00  0.00    -0.248 NA
ATOM     65  C   UNL A   1      41.871  32.287  36.796  1.00  0.00     0.031 C 
ATOM     66  C   UNL A   1      43.309  27.987  32.756  1.00  0.00     0.029 A 
ATOM     67  C   UNL A   1      42.671  29.033  33.403  1.00  0.00     0.049 A 
ATOM     68  H   UNL A   1      40.949  30.106  32.822  1.00  0.00     0.167 HD
ATOM     69  C   UNL A   1      42.353  30.701  35.211  1.00  0.00     0.074 A 
ATOM     70  C   UNL A   1      42.724  31.328  36.463  1.00  0.00     0.031 C 
ATOM     71  C   UNL A   1      43.019  29.660  34.652  1.00  0.00     0.031 A 
BRANCH  58  72
ATOM     72  C   UNL A   1      40.548  27.641  29.361  1.00  0.00    -0.014 A 
ATOM     73  C   UNL A   1      41.494  27.707  28.326  1.00  0.00     0.009 A 
ATOM     74  C   UNL A   1      39.620  26.588  29.366  1.00  0.00     0.009 A 
ATOM     75  C   UNL A   1      41.484  26.762  27.297  1.00  0.00     0.001 A 
ATOM     76  C   UNL A   1      39.631  25.629  28.351  1.00  0.00     0.001 A 
ATOM     77  C   UNL A   1      40.555  25.723  27.312  1.00  0.00     0.000 A 
ENDBRANCH  58  72
BRANCH  59  78
ATOM     78  C   UNL A   1      39.770  34.313  36.745  1.00  0.00    -0.014 A 
ATOM     79  C   UNL A   1      39.063  33.994  37.916  1.00  0.00     0.009 A 
ATOM     80  C   UNL A   1      40.373  35.575  36.637  1.00  0.00     0.009 A 
ATOM     81  C   UNL A   1      38.943  34.930  38.945  1.00  0.00     0.001 A 
ATOM     82  C   UNL A   1      40.272  36.499  37.679  1.00  0.00     0.001 A 
ATOM     83  C   UNL A   1      39.550  36.179  38.828  1.00  0.00     0.000 A 
ENDBRANCH  59  78
BRANCH  71  84
ATOM     84  C   UNL A   1      44.229  29.156  35.385  1.00  0.00    -0.014 A 
ATOM     85  C   UNL A   1      44.131  28.121  36.327  1.00  0.00     0.009 A 
ATOM     86  C   UNL A   1      45.489  29.711  35.110  1.00  0.00     0.009 A 
ATOM     87  C   UNL A   1      45.266  27.678  37.009  1.00  0.00     0.001 A 
ATOM     88  C   UNL A   1      46.626  29.246  35.772  1.00  0.00     0.001 A 
ATOM     89  C   UNL A   1      46.512  28.238  36.728  1.00  0.00     0.000 A 
ENDBRANCH  71  84
ENDBRANCH  45  46
ENDBRANCH  37  40
ENDBRANCH  35  36
ENDBRANCH  34  35
ENDBRANCH  33  34
ENDBRANCH  32  33
ENDBRANCH   1  32
TORSDOF 19
ENDMDL
MODEL 3
REMARK VINA RESULT:     -11.1      3.258      8.281
REMARK SMILES CCCC(=O)Nc1cccc(C(=O)N[C@@H](C(=O)NCCCCCCNC(=O)c2ccc(-c3c4nc(c(-c5ccccc5)c5ccc([nH]5)c(-c5ccccc5)c5nc(c(-c6ccccc6)c6ccc3[nH]6)C=C5)C=C4)cc2)C2=C(C)N=N[C@@H]2C)c1
REMARK SMILES IDX 20 1 19 2 18 3 16 4 17 5 15 7 14 8 12 9 13 10 11 12 7 13
REMARK SMILES IDX 8 14 83 15 9 16 10 17 6 18 4 19 5 20 3 22 2 23 1 24 76 25
REMARK SMILES IDX 77 26 81 27 78 28 79 29 80 30 82 31 21 32 22 33 23 34 24 35
REMARK SMILES IDX 25 36 26 37 27 39 28 40 29 41 75 42 30 43 74 44 31 45 32 46
REMARK SMILES IDX 33 47 68 48 34 49 73 50 67 51 69 52 35 53 72 54 66 55 65 56
REMARK SMILES IDX 36 58 58 59 43 60 57 61 44 62 47 63 56 64 70 65 45 66 46 67
REMARK SMILES IDX 55 69 71 70 48 71 37 72 38 73 42 74 39 75 41 76 40 77 59 78
REMARK SMILES IDX 60 79 64 80 61 81 63 82 62 83 49 84 50 85 54 86 51 87 53 88
REMARK SMILES IDX 52 89
REMARK H PARENT 18 6 14 11 6 21 25 38 69 57 47 68
REMARK Flexibility Score: inf
ROOT
ATOM      1  C   UNL A   1      36.575  23.712  24.314  1.00  0.00     0.021 C 
ENDROOT
BRANCH   1   2
ATOM      2  C   UNL A   1      35.235  24.078  24.935  1.00  0.00     0.116 C 
BRANCH   2   3
ATOM      3  N   UNL A   1      34.238  24.302  23.920  1.00  0.00    -0.354 N 
ATOM      4  C   UNL A   1      33.033  24.929  23.984  1.00  0.00     0.247 C 
ATOM      5  O   UNL A   1      32.410  24.979  22.917  1.00  0.00    -0.272 OA
ATOM      6  H   UNL A   1      34.467  23.941  23.033  1.00  0.00     0.163 HD
BRANCH   4   7
ATOM      7  C   UNL A   1      32.568  25.702  25.267  1.00  0.00     0.202 C 
BRANCH   7   8
ATOM      8  N   UNL A   1      31.645  24.973  26.146  1.00  0.00    -0.337 N 
ATOM      9  C   UNL A   1      31.398  23.678  26.530  1.00  0.00     0.252 C 
ATOM     10  O   UNL A   1      30.405  23.529  27.251  1.00  0.00    -0.269 OA
ATOM     11  H   UNL A   1      31.022  25.594  26.590  1.00  0.00     0.165 HD
BRANCH   9  12
ATOM     12  C   UNL A   1      32.169  22.444  26.158  1.00  0.00     0.041 A 
ATOM     13  C   UNL A   1      32.687  20.476  24.815  1.00  0.00     0.041 A 
ATOM     14  C   UNL A   1      33.722  20.115  25.665  1.00  0.00     0.026 A 
ATOM     15  C   UNL A   1      31.887  21.593  25.091  1.00  0.00     0.040 A 
ATOM     16  C   UNL A   1      34.021  20.941  26.744  1.00  0.00     0.003 A 
ATOM     17  C   UNL A   1      33.260  22.095  26.980  1.00  0.00     0.014 A 
BRANCH  13  18
ATOM     18  N   UNL A   1      32.387  19.683  23.704  1.00  0.00    -0.326 N 
ATOM     19  C   UNL A   1      32.525  18.317  23.646  1.00  0.00     0.224 C 
ATOM     20  O   UNL A   1      32.821  17.766  22.587  1.00  0.00    -0.275 OA
ATOM     21  H   UNL A   1      32.050  20.139  22.899  1.00  0.00     0.169 HD
BRANCH  19  22
ATOM     22  C   UNL A   1      32.156  17.523  24.895  1.00  0.00     0.100 C 
BRANCH  22  23
ATOM     23  C   UNL A   1      33.210  16.541  25.389  1.00  0.00     0.006 C 
ATOM     24  C   UNL A   1      32.745  15.085  25.406  1.00  0.00     0.004 C 
ENDBRANCH  22  23
ENDBRANCH  19  22
ENDBRANCH  13  18
ENDBRANCH   9  12
ENDBRANCH   7   8
BRANCH   7  25
ATOM     25  C   UNL A   1      31.953  27.000  24.836  1.00  0.00     0.011 C 
ATOM     26  C   UNL A   1      30.748  27.334  24.356  1.00  0.00     0.064 C 
ATOM     27  C   UNL A   1      32.764  28.253  24.714  1.00  0.00     0.156 C 
ATOM     28  C   UNL A   1      29.555  26.482  24.101  1.00  0.00     0.069 C 
ATOM     29  N   UNL A   1      30.682  28.652  23.973  1.00  0.00    -0.160 NA
ATOM     30  N   UNL A   1      31.799  29.214  24.125  1.00  0.00    -0.181 NA
ATOM     31  C   UNL A   1      33.993  28.161  23.820  1.00  0.00     0.040 C 
ENDBRANCH   7  25
ENDBRANCH   4   7
ENDBRANCH   2   3
ENDBRANCH   1   2
BRANCH   1  32
ATOM     32  C   UNL A   1      37.216  22.488  24.977  1.00  0.00     0.002 C 
BRANCH  32  33
ATOM     33  C   UNL A   1      36.805  21.146  24.356  1.00  0.00     0.002 C 
BRANCH  33  34
ATOM     34  C   UNL A   1      37.777  19.993  24.622  1.00  0.00     0.021 C 
BRANCH  34  35
ATOM     35  C   UNL A   1      38.618  20.161  25.884  1.00  0.00     0.116 C 
BRANCH  35  36
ATOM     36  N   UNL A   1      39.778  19.284  25.876  1.00  0.00    -0.352 N 
ATOM     37  C   UNL A   1      41.101  19.582  26.071  1.00  0.00     0.251 C 
ATOM     38  H   UNL A   1      39.583  18.334  25.705  1.00  0.00     0.163 HD
ATOM     39  O   UNL A   1      41.965  18.756  25.804  1.00  0.00    -0.269 OA
BRANCH  37  40
ATOM     40  C   UNL A   1      41.482  20.906  26.598  1.00  0.00     0.039 A 
ATOM     41  C   UNL A   1      41.916  21.886  25.703  1.00  0.00     0.014 A 
ATOM     42  C   UNL A   1      41.439  21.169  27.971  1.00  0.00     0.014 A 
ATOM     43  C   UNL A   1      42.268  23.147  26.182  1.00  0.00     0.010 A 
ATOM     44  C   UNL A   1      41.724  22.447  28.439  1.00  0.00     0.010 A 
ATOM     45  C   UNL A   1      42.150  23.444  27.550  1.00  0.00    -0.014 A 
BRANCH  45  46
ATOM     46  C   UNL A   1      42.471  24.797  28.062  1.00  0.00     0.031 A 
ATOM     47  C   UNL A   1      43.883  25.155  28.429  1.00  0.00     0.074 A 
ATOM     48  C   UNL A   1      41.476  25.686  28.240  1.00  0.00     0.049 A 
ATOM     49  N   UNL A   1      44.351  26.286  28.896  1.00  0.00    -0.248 NA
ATOM     50  C   UNL A   1      44.898  24.101  28.278  1.00  0.00     0.031 C 
ATOM     51  C   UNL A   1      40.060  25.440  27.960  1.00  0.00     0.029 A 
ATOM     52  N   UNL A   1      41.507  26.978  28.695  1.00  0.00    -0.354 N 
ATOM     53  C   UNL A   1      45.706  26.072  29.109  1.00  0.00     0.074 A 
ATOM     54  C   UNL A   1      45.978  24.693  28.767  1.00  0.00     0.031 C 
ATOM     55  C   UNL A   1      39.363  26.560  28.212  1.00  0.00     0.029 A 
ATOM     56  C   UNL A   1      40.275  27.587  28.703  1.00  0.00     0.049 A 
ATOM     57  H   UNL A   1      42.332  27.428  28.989  1.00  0.00     0.167 HD
ATOM     58  C   UNL A   1      46.645  26.950  29.537  1.00  0.00     0.031 A 
ATOM     59  C   UNL A   1      39.923  28.836  29.059  1.00  0.00     0.031 A 
ATOM     60  C   UNL A   1      46.376  28.324  29.864  1.00  0.00     0.049 A 
ATOM     61  C   UNL A   1      40.983  29.789  29.532  1.00  0.00     0.074 A 
ATOM     62  C   UNL A   1      47.269  29.314  30.233  1.00  0.00     0.029 A 
ATOM     63  N   UNL A   1      45.115  28.901  29.867  1.00  0.00    -0.354 N 
ATOM     64  N   UNL A   1      42.274  29.597  29.650  1.00  0.00    -0.248 NA
ATOM     65  C   UNL A   1      40.534  31.136  29.909  1.00  0.00     0.031 C 
ATOM     66  C   UNL A   1      46.541  30.478  30.510  1.00  0.00     0.029 A 
ATOM     67  C   UNL A   1      45.202  30.225  30.261  1.00  0.00     0.049 A 
ATOM     68  H   UNL A   1      44.281  28.437  29.623  1.00  0.00     0.167 HD
ATOM     69  C   UNL A   1      42.797  30.805  30.091  1.00  0.00     0.074 A 
ATOM     70  C   UNL A   1      41.684  31.727  30.203  1.00  0.00     0.031 C 
ATOM     71  C   UNL A   1      44.083  31.124  30.377  1.00  0.00     0.031 A 
BRANCH  58  72
ATOM     72  C   UNL A   1      48.051  26.439  29.689  1.00  0.00    -0.014 A 
ATOM     73  C   UNL A   1      48.966  26.491  28.624  1.00  0.00     0.009 A 
ATOM     74  C   UNL A   1      48.473  25.918  30.921  1.00  0.00     0.009 A 
ATOM     75  C   UNL A   1      50.263  25.996  28.781  1.00  0.00     0.001 A 
ATOM     76  C   UNL A   1      49.779  25.450  31.083  1.00  0.00     0.001 A 
ATOM     77  C   UNL A   1      50.669  25.479  30.010  1.00  0.00     0.000 A 
ENDBRANCH  58  72
BRANCH  59  78
ATOM     78  C   UNL A   1      38.506  29.267  28.950  1.00  0.00    -0.014 A 
ATOM     79  C   UNL A   1      37.664  29.214  30.072  1.00  0.00     0.009 A 
ATOM     80  C   UNL A   1      37.990  29.735  27.733  1.00  0.00     0.009 A 
ATOM     81  C   UNL A   1      36.326  29.598  29.969  1.00  0.00     0.001 A 
ATOM     82  C   UNL A   1      36.657  30.142  27.639  1.00  0.00     0.001 A 
ATOM     83  C   UNL A   1      35.824  30.065  28.755  1.00  0.00     0.000 A 
ENDBRANCH  59  78
BRANCH  71  84
ATOM     84  C   UNL A   1      44.351  32.535  30.816  1.00  0.00    -0.014 A 
ATOM     85  C   UNL A   1      44.616  33.550  29.883  1.00  0.00     0.009 A 
ATOM     86  C   UNL A   1      44.315  32.857  32.181  1.00  0.00     0.009 A 
ATOM     87  C   UNL A   1      44.878  34.852  30.313  1.00  0.00     0.001 A 
ATOM     88  C   UNL A   1      44.550  34.166  32.606  1.00  0.00     0.001 A 
ATOM     89  C   UNL A   1      44.841  35.159  31.672  1.00  0.00     0.000 A 
ENDBRANCH  71  84
ENDBRANCH  45  46
ENDBRANCH  37  40
ENDBRANCH  35  36
ENDBRANCH  34  35
ENDBRANCH  33  34
ENDBRANCH  32  33
ENDBRANCH   1  32
TORSDOF 19
ENDMDL
