MODEL 1
REMARK VINA RESULT:     -10.1      0.000      0.000
REMARK SMILES CC[C@@H]1CCCC[C@@H]1OCC[C@@H]1CCC[C@]1([NH2+]C)C(=O)NCCCCCCNC(=O)c1ccc(-c2c3nc(c(-c4ccccc4)c4ccc([nH]4)c(-c4ccccc4)c4nc(c(-c5ccccc5)c5ccc2[nH]5)C=C4)C=C3)cc1
REMARK SMILES IDX 23 1 22 2 21 3 19 4 20 5 16 7 12 8 13 9 14 10 15 11 11 12
REMARK SMILES IDX 10 13 9 14 8 15 3 16 4 17 5 18 7 19 6 20 2 21 1 22 17 23
REMARK SMILES IDX 18 24 24 27 25 28 26 29 27 30 28 31 29 32 30 34 31 35 32 36
REMARK SMILES IDX 78 37 33 38 77 39 34 40 35 41 36 42 71 43 37 44 76 45 70 46
REMARK SMILES IDX 72 47 38 48 75 49 69 50 68 51 39 53 61 54 46 55 60 56 47 57
REMARK SMILES IDX 50 58 59 59 73 60 48 61 49 62 58 64 74 65 51 66 40 67 41 68
REMARK SMILES IDX 45 69 42 70 44 71 43 72 62 73 63 74 67 75 64 76 66 77 65 78
REMARK SMILES IDX 52 79 53 80 57 81 54 82 56 83 55 84
REMARK H PARENT 21 6 17 25 17 26 28 33 72 52 50 63
REMARK Flexibility Score: inf
ROOT
ATOM      1  C   UNL A   1      36.084  23.542  25.054  1.00  0.00     0.021 C 
ENDROOT
BRANCH   1   2
ATOM      2  C   UNL A   1      34.847  24.343  25.461  1.00  0.00     0.116 C 
BRANCH   2   3
ATOM      3  N   UNL A   1      34.343  25.103  24.339  1.00  0.00    -0.351 N 
ATOM      4  C   UNL A   1      33.330  26.005  24.233  1.00  0.00     0.281 C 
ATOM      5  O   UNL A   1      33.183  26.487  23.102  1.00  0.00    -0.268 OA
ATOM      6  H   UNL A   1      34.822  24.937  23.495  1.00  0.00     0.163 HD
BRANCH   4   7
ATOM      7  C   UNL A   1      32.396  26.440  25.432  1.00  0.00     0.178 C 
ATOM      8  C   UNL A   1      31.373  25.358  25.928  1.00  0.00     0.063 C 
ATOM      9  C   UNL A   1      30.413  25.281  24.725  1.00  0.00     0.011 C 
ATOM     10  C   UNL A   1      30.227  26.724  24.278  1.00  0.00     0.008 C 
ATOM     11  C   UNL A   1      31.388  27.505  24.892  1.00  0.00     0.079 C 
BRANCH   8  12
ATOM     12  C   UNL A   1      31.756  23.930  26.369  1.00  0.00     0.039 C 
BRANCH  12  13
ATOM     13  C   UNL A   1      30.744  22.772  26.312  1.00  0.00     0.161 C 
BRANCH  13  14
ATOM     14  O   UNL A   1      31.146  21.575  25.648  1.00  0.00    -0.378 OA
BRANCH  14  15
ATOM     15  C   UNL A   1      32.531  21.469  25.328  1.00  0.00     0.121 C 
ATOM     16  C   UNL A   1      32.824  21.369  23.801  1.00  0.00     0.018 C 
ATOM     17  C   UNL A   1      32.464  19.997  23.203  1.00  0.00     0.006 C 
ATOM     18  C   UNL A   1      33.028  18.837  24.008  1.00  0.00     0.000 C 
ATOM     19  C   UNL A   1      33.028  20.227  26.089  1.00  0.00     0.032 C 
ATOM     20  C   UNL A   1      32.557  18.919  25.450  1.00  0.00     0.003 C 
BRANCH  16  21
ATOM     21  C   UNL A   1      32.161  22.441  22.909  1.00  0.00     0.003 C 
ATOM     22  C   UNL A   1      33.084  23.079  21.891  1.00  0.00     0.004 C 
ENDBRANCH  16  21
ENDBRANCH  14  15
ENDBRANCH  13  14
ENDBRANCH  12  13
ENDBRANCH   8  12
BRANCH   7  23
ATOM     23  N   UNL A   1      33.173  27.038  26.539  1.00  0.00    -0.336 N 
ATOM     24  C   UNL A   1      33.994  28.188  26.166  1.00  0.00     0.331 C 
ATOM     25  H   UNL A   1      33.789  26.318  26.918  1.00  0.00     0.346 HD
ATOM     26  H   UNL A   1      32.489  27.381  27.214  1.00  0.00     0.346 HD
ENDBRANCH   7  23
ENDBRANCH   4   7
ENDBRANCH   2   3
ENDBRANCH   1   2
BRANCH   1  27
ATOM     27  C   UNL A   1      36.178  22.174  25.733  1.00  0.00     0.002 C 
BRANCH  27  28
ATOM     28  C   UNL A   1      36.211  20.991  24.759  1.00  0.00     0.002 C 
BRANCH  28  29
ATOM     29  C   UNL A   1      37.355  19.992  24.970  1.00  0.00     0.021 C 
BRANCH  29  30
ATOM     30  C   UNL A   1      38.689  20.604  25.397  1.00  0.00     0.116 C 
BRANCH  30  31
ATOM     31  N   UNL A   1      39.716  19.596  25.600  1.00  0.00    -0.352 N 
ATOM     32  C   UNL A   1      41.008  19.729  26.044  1.00  0.00     0.251 C 
ATOM     33  H   UNL A   1      39.444  18.675  25.386  1.00  0.00     0.163 HD
ATOM     34  O   UNL A   1      41.787  18.785  25.956  1.00  0.00    -0.269 OA
BRANCH  32  35
ATOM     35  C   UNL A   1      41.473  21.010  26.617  1.00  0.00     0.039 A 
ATOM     36  C   UNL A   1      41.993  21.982  25.757  1.00  0.00     0.014 A 
ATOM     37  C   UNL A   1      41.435  21.242  27.995  1.00  0.00     0.014 A 
ATOM     38  C   UNL A   1      42.419  23.208  26.272  1.00  0.00     0.010 A 
ATOM     39  C   UNL A   1      41.801  22.488  28.500  1.00  0.00     0.010 A 
ATOM     40  C   UNL A   1      42.299  23.482  27.643  1.00  0.00    -0.014 A 
BRANCH  40  41
ATOM     41  C   UNL A   1      42.679  24.807  28.196  1.00  0.00     0.031 A 
ATOM     42  C   UNL A   1      41.640  25.875  28.399  1.00  0.00     0.074 A 
ATOM     43  C   UNL A   1      43.973  25.071  28.459  1.00  0.00     0.049 A 
ATOM     44  N   UNL A   1      41.792  27.105  28.821  1.00  0.00    -0.248 NA
ATOM     45  C   UNL A   1      40.251  25.521  28.065  1.00  0.00     0.031 C 
ATOM     46  C   UNL A   1      45.085  24.134  28.272  1.00  0.00     0.029 A 
ATOM     47  N   UNL A   1      44.575  26.209  28.934  1.00  0.00    -0.354 N 
ATOM     48  C   UNL A   1      40.526  27.674  28.788  1.00  0.00     0.074 A 
ATOM     49  C   UNL A   1      39.624  26.671  28.263  1.00  0.00     0.031 C 
ATOM     50  C   UNL A   1      46.228  24.728  28.651  1.00  0.00     0.029 A 
ATOM     51  C   UNL A   1      45.937  26.096  29.069  1.00  0.00     0.049 A 
ATOM     52  H   UNL A   1      44.077  27.029  29.157  1.00  0.00     0.167 HD
ATOM     53  C   UNL A   1      40.143  28.915  29.173  1.00  0.00     0.031 A 
ATOM     54  C   UNL A   1      46.853  26.994  29.477  1.00  0.00     0.031 A 
ATOM     55  C   UNL A   1      41.037  29.912  29.701  1.00  0.00     0.049 A 
ATOM     56  C   UNL A   1      46.405  28.370  29.882  1.00  0.00     0.074 A 
ATOM     57  C   UNL A   1      40.734  31.179  30.171  1.00  0.00     0.029 A 
ATOM     58  N   UNL A   1      42.408  29.758  29.823  1.00  0.00    -0.354 N 
ATOM     59  N   UNL A   1      45.195  28.871  29.908  1.00  0.00    -0.248 NA
ATOM     60  C   UNL A   1      47.454  29.302  30.325  1.00  0.00     0.031 C 
ATOM     61  C   UNL A   1      41.930  31.809  30.532  1.00  0.00     0.029 A 
ATOM     62  C   UNL A   1      42.970  30.914  30.338  1.00  0.00     0.049 A 
ATOM     63  H   UNL A   1      42.909  28.946  29.580  1.00  0.00     0.167 HD
ATOM     64  C   UNL A   1      45.331  30.165  30.394  1.00  0.00     0.074 A 
ATOM     65  C   UNL A   1      46.739  30.366  30.665  1.00  0.00     0.031 C 
ATOM     66  C   UNL A   1      44.373  31.102  30.599  1.00  0.00     0.031 A 
BRANCH  53  67
ATOM     67  C   UNL A   1      38.688  29.267  29.028  1.00  0.00    -0.014 A 
ATOM     68  C   UNL A   1      37.796  29.134  30.105  1.00  0.00     0.009 A 
ATOM     69  C   UNL A   1      38.209  29.772  27.809  1.00  0.00     0.009 A 
ATOM     70  C   UNL A   1      36.447  29.465  29.952  1.00  0.00     0.001 A 
ATOM     71  C   UNL A   1      36.867  30.128  27.667  1.00  0.00     0.001 A 
ATOM     72  C   UNL A   1      35.985  29.964  28.735  1.00  0.00     0.000 A 
ENDBRANCH  53  67
BRANCH  54  73
ATOM     73  C   UNL A   1      48.289  26.617  29.534  1.00  0.00    -0.014 A 
ATOM     74  C   UNL A   1      49.134  26.866  28.442  1.00  0.00     0.009 A 
ATOM     75  C   UNL A   1      48.822  26.005  30.678  1.00  0.00     0.009 A 
ATOM     76  C   UNL A   1      50.477  26.486  28.484  1.00  0.00     0.001 A 
ATOM     77  C   UNL A   1      50.173  25.652  30.729  1.00  0.00     0.001 A 
ATOM     78  C   UNL A   1      50.996  25.884  29.629  1.00  0.00     0.000 A 
ENDBRANCH  54  73
BRANCH  66  79
ATOM     79  C   UNL A   1      44.814  32.419  31.173  1.00  0.00    -0.014 A 
ATOM     80  C   UNL A   1      44.880  32.624  32.560  1.00  0.00     0.009 A 
ATOM     81  C   UNL A   1      45.204  33.457  30.311  1.00  0.00     0.009 A 
ATOM     82  C   UNL A   1      45.298  33.855  33.072  1.00  0.00     0.001 A 
ATOM     83  C   UNL A   1      45.648  34.675  30.826  1.00  0.00     0.001 A 
ATOM     84  C   UNL A   1      45.685  34.876  32.204  1.00  0.00     0.000 A 
ENDBRANCH  66  79
ENDBRANCH  40  41
ENDBRANCH  32  35
ENDBRANCH  30  31
ENDBRANCH  29  30
ENDBRANCH  28  29
ENDBRANCH  27  28
ENDBRANCH   1  27
TORSDOF 19
ENDMDL
MODEL 2
REMARK VINA RESULT:      -9.9      1.085      6.515
REMARK SMILES CC[C@@H]1CCCC[C@@H]1OCC[C@@H]1CCC[C@]1([NH2+]C)C(=O)NCCCCCCNC(=O)c1ccc(-c2c3nc(c(-c4ccccc4)c4ccc([nH]4)c(-c4ccccc4)c4nc(c(-c5ccccc5)c5ccc2[nH]5)C=C4)C=C3)cc1
REMARK SMILES IDX 23 1 22 2 21 3 19 4 20 5 16 7 12 8 13 9 14 10 15 11 11 12
REMARK SMILES IDX 10 13 9 14 8 15 3 16 4 17 5 18 7 19 6 20 2 21 1 22 17 23
REMARK SMILES IDX 18 24 24 27 25 28 26 29 27 30 28 31 29 32 30 34 31 35 32 36
REMARK SMILES IDX 78 37 33 38 77 39 34 40 35 41 36 42 71 43 37 44 76 45 70 46
REMARK SMILES IDX 72 47 38 48 75 49 69 50 68 51 39 53 61 54 46 55 60 56 47 57
REMARK SMILES IDX 50 58 59 59 73 60 48 61 49 62 58 64 74 65 51 66 40 67 41 68
REMARK SMILES IDX 45 69 42 70 44 71 43 72 62 73 63 74 67 75 64 76 66 77 65 78
REMARK SMILES IDX 52 79 53 80 57 81 54 82 56 83 55 84
REMARK H PARENT 21 6 17 25 17 26 28 33 72 52 50 63
REMARK Flexibility Score: inf
ROOT
ATOM      1  C   UNL A   1      37.449  23.024  25.149  1.00  0.00     0.021 C 
ENDROOT
BRANCH   1   2
ATOM      2  C   UNL A   1      36.346  24.063  25.358  1.00  0.00     0.116 C 
BRANCH   2   3
ATOM      3  N   UNL A   1      35.366  23.580  26.303  1.00  0.00    -0.351 N 
ATOM      4  C   UNL A   1      34.031  23.341  26.188  1.00  0.00     0.281 C 
ATOM      5  O   UNL A   1      33.494  22.903  27.214  1.00  0.00    -0.268 OA
ATOM      6  H   UNL A   1      35.732  23.388  27.197  1.00  0.00     0.163 HD
BRANCH   4   7
ATOM      7  C   UNL A   1      33.195  23.580  24.867  1.00  0.00     0.178 C 
ATOM      8  C   UNL A   1      31.675  23.198  24.943  1.00  0.00     0.063 C 
ATOM      9  C   UNL A   1      31.758  21.663  25.051  1.00  0.00     0.011 C 
ATOM     10  C   UNL A   1      32.859  21.259  24.080  1.00  0.00     0.008 C 
ATOM     11  C   UNL A   1      33.663  22.530  23.808  1.00  0.00     0.079 C 
BRANCH   8  12
ATOM     12  C   UNL A   1      30.691  23.734  26.002  1.00  0.00     0.039 C 
BRANCH  12  13
ATOM     13  C   UNL A   1      30.337  25.229  26.089  1.00  0.00     0.161 C 
BRANCH  13  14
ATOM     14  O   UNL A   1      31.413  26.166  26.074  1.00  0.00    -0.378 OA
BRANCH  14  15
ATOM     15  C   UNL A   1      31.048  27.543  26.127  1.00  0.00     0.121 C 
ATOM     16  C   UNL A   1      31.441  28.353  24.856  1.00  0.00     0.018 C 
ATOM     17  C   UNL A   1      32.951  28.639  24.760  1.00  0.00     0.006 C 
ATOM     18  C   UNL A   1      33.524  29.210  26.047  1.00  0.00     0.000 C 
ATOM     19  C   UNL A   1      31.733  28.093  27.391  1.00  0.00     0.032 C 
ATOM     20  C   UNL A   1      33.241  28.276  27.211  1.00  0.00     0.003 C 
BRANCH  16  21
ATOM     21  C   UNL A   1      31.009  27.748  23.502  1.00  0.00     0.003 C 
ATOM     22  C   UNL A   1      29.516  27.768  23.246  1.00  0.00     0.004 C 
ENDBRANCH  16  21
ENDBRANCH  14  15
ENDBRANCH  13  14
ENDBRANCH  12  13
ENDBRANCH   8  12
BRANCH   7  23
ATOM     23  N   UNL A   1      33.415  24.937  24.321  1.00  0.00    -0.336 N 
ATOM     24  C   UNL A   1      33.550  25.002  22.867  1.00  0.00     0.331 C 
ATOM     25  H   UNL A   1      34.269  25.310  24.737  1.00  0.00     0.346 HD
ATOM     26  H   UNL A   1      32.582  25.476  24.556  1.00  0.00     0.346 HD
ENDBRANCH   7  23
ENDBRANCH   4   7
ENDBRANCH   2   3
ENDBRANCH   1   2
BRANCH   1  27
ATOM     27  C   UNL A   1      37.069  21.918  24.163  1.00  0.00     0.002 C 
BRANCH  27  28
ATOM     28  C   UNL A   1      36.849  20.547  24.812  1.00  0.00     0.002 C 
BRANCH  28  29
ATOM     29  C   UNL A   1      38.086  19.644  24.887  1.00  0.00     0.021 C 
BRANCH  29  30
ATOM     30  C   UNL A   1      39.123  20.039  25.938  1.00  0.00     0.116 C 
BRANCH  30  31
ATOM     31  N   UNL A   1      40.323  19.223  25.860  1.00  0.00    -0.352 N 
ATOM     32  C   UNL A   1      41.640  19.572  26.021  1.00  0.00     0.251 C 
ATOM     33  H   UNL A   1      40.168  18.272  25.659  1.00  0.00     0.163 HD
ATOM     34  O   UNL A   1      42.527  18.781  25.716  1.00  0.00    -0.269 OA
BRANCH  32  35
ATOM     35  C   UNL A   1      42.000  20.904  26.551  1.00  0.00     0.039 A 
ATOM     36  C   UNL A   1      42.383  21.904  25.651  1.00  0.00     0.014 A 
ATOM     37  C   UNL A   1      42.000  21.161  27.925  1.00  0.00     0.014 A 
ATOM     38  C   UNL A   1      42.707  23.177  26.125  1.00  0.00     0.010 A 
ATOM     39  C   UNL A   1      42.263  22.448  28.391  1.00  0.00     0.010 A 
ATOM     40  C   UNL A   1      42.621  23.468  27.496  1.00  0.00    -0.014 A 
BRANCH  40  41
ATOM     41  C   UNL A   1      42.891  24.835  28.007  1.00  0.00     0.031 A 
ATOM     42  C   UNL A   1      44.281  25.237  28.413  1.00  0.00     0.074 A 
ATOM     43  C   UNL A   1      41.869  25.699  28.164  1.00  0.00     0.049 A 
ATOM     44  N   UNL A   1      44.697  26.367  28.927  1.00  0.00    -0.248 NA
ATOM     45  C   UNL A   1      45.341  24.231  28.237  1.00  0.00     0.031 C 
ATOM     46  C   UNL A   1      40.467  25.421  27.842  1.00  0.00     0.029 A 
ATOM     47  N   UNL A   1      41.852  26.986  28.641  1.00  0.00    -0.354 N 
ATOM     48  C   UNL A   1      46.058  26.203  29.150  1.00  0.00     0.074 A 
ATOM     49  C   UNL A   1      46.391  24.850  28.757  1.00  0.00     0.031 C 
ATOM     50  C   UNL A   1      39.731  26.513  28.109  1.00  0.00     0.029 A 
ATOM     51  C   UNL A   1      40.600  27.551  28.656  1.00  0.00     0.049 A 
ATOM     52  H   UNL A   1      42.660  27.459  28.944  1.00  0.00     0.167 HD
ATOM     53  C   UNL A   1      46.955  27.100  29.625  1.00  0.00     0.031 A 
ATOM     54  C   UNL A   1      40.193  28.765  29.069  1.00  0.00     0.031 A 
ATOM     55  C   UNL A   1      46.628  28.448  30.011  1.00  0.00     0.049 A 
ATOM     56  C   UNL A   1      41.205  29.737  29.608  1.00  0.00     0.074 A 
ATOM     57  C   UNL A   1      47.477  29.449  30.450  1.00  0.00     0.029 A 
ATOM     58  N   UNL A   1      45.350  28.981  30.008  1.00  0.00    -0.354 N 
ATOM     59  N   UNL A   1      42.499  29.588  29.750  1.00  0.00    -0.248 NA
ATOM     60  C   UNL A   1      40.698  31.049  30.035  1.00  0.00     0.031 C 
ATOM     61  C   UNL A   1      46.705  30.573  30.762  1.00  0.00     0.029 A 
ATOM     62  C   UNL A   1      45.382  30.289  30.462  1.00  0.00     0.049 A 
ATOM     63  H   UNL A   1      44.537  28.501  29.725  1.00  0.00     0.167 HD
ATOM     64  C   UNL A   1      42.965  30.794  30.256  1.00  0.00     0.074 A 
ATOM     65  C   UNL A   1      41.817  31.668  30.382  1.00  0.00     0.031 C 
ATOM     66  C   UNL A   1      44.232  31.146  30.586  1.00  0.00     0.031 A 
BRANCH  53  67
ATOM     67  C   UNL A   1      48.382  26.646  29.762  1.00  0.00    -0.014 A 
ATOM     68  C   UNL A   1      48.859  26.096  30.963  1.00  0.00     0.009 A 
ATOM     69  C   UNL A   1      49.253  26.735  28.665  1.00  0.00     0.009 A 
ATOM     70  C   UNL A   1      50.188  25.680  31.073  1.00  0.00     0.001 A 
ATOM     71  C   UNL A   1      50.573  26.293  28.769  1.00  0.00     0.001 A 
ATOM     72  C   UNL A   1      51.042  25.776  29.976  1.00  0.00     0.000 A 
ENDBRANCH  53  67
BRANCH  54  73
ATOM     73  C   UNL A   1      38.758  29.139  28.977  1.00  0.00    -0.014 A 
ATOM     74  C   UNL A   1      38.240  29.684  27.793  1.00  0.00     0.009 A 
ATOM     75  C   UNL A   1      37.900  28.955  30.072  1.00  0.00     0.009 A 
ATOM     76  C   UNL A   1      36.897  30.062  27.715  1.00  0.00     0.001 A 
ATOM     77  C   UNL A   1      36.551  29.307  29.982  1.00  0.00     0.001 A 
ATOM     78  C   UNL A   1      36.053  29.868  28.808  1.00  0.00     0.000 A 
ENDBRANCH  54  73
BRANCH  66  79
ATOM     79  C   UNL A   1      44.447  32.547  31.085  1.00  0.00    -0.014 A 
ATOM     80  C   UNL A   1      44.328  32.862  32.448  1.00  0.00     0.009 A 
ATOM     81  C   UNL A   1      44.811  33.558  30.181  1.00  0.00     0.009 A 
ATOM     82  C   UNL A   1      44.538  34.171  32.889  1.00  0.00     0.001 A 
ATOM     83  C   UNL A   1      45.047  34.858  30.629  1.00  0.00     0.001 A 
ATOM     84  C   UNL A   1      44.901  35.165  31.981  1.00  0.00     0.000 A 
ENDBRANCH  66  79
ENDBRANCH  40  41
ENDBRANCH  32  35
ENDBRANCH  30  31
ENDBRANCH  29  30
ENDBRANCH  28  29
ENDBRANCH  27  28
ENDBRANCH   1  27
TORSDOF 19
ENDMDL
MODEL 3
REMARK VINA RESULT:      -9.7      1.058      3.098
REMARK SMILES CC[C@@H]1CCCC[C@@H]1OCC[C@@H]1CCC[C@]1([NH2+]C)C(=O)NCCCCCCNC(=O)c1ccc(-c2c3nc(c(-c4ccccc4)c4ccc([nH]4)c(-c4ccccc4)c4nc(c(-c5ccccc5)c5ccc2[nH]5)C=C4)C=C3)cc1
REMARK SMILES IDX 23 1 22 2 21 3 19 4 20 5 16 7 12 8 13 9 14 10 15 11 11 12
REMARK SMILES IDX 10 13 9 14 8 15 3 16 4 17 5 18 7 19 6 20 2 21 1 22 17 23
REMARK SMILES IDX 18 24 24 27 25 28 26 29 27 30 28 31 29 32 30 34 31 35 32 36
REMARK SMILES IDX 78 37 33 38 77 39 34 40 35 41 36 42 71 43 37 44 76 45 70 46
REMARK SMILES IDX 72 47 38 48 75 49 69 50 68 51 39 53 61 54 46 55 60 56 47 57
REMARK SMILES IDX 50 58 59 59 73 60 48 61 49 62 58 64 74 65 51 66 40 67 41 68
REMARK SMILES IDX 45 69 42 70 44 71 43 72 62 73 63 74 67 75 64 76 66 77 65 78
REMARK SMILES IDX 52 79 53 80 57 81 54 82 56 83 55 84
REMARK H PARENT 21 6 17 25 17 26 28 33 72 52 50 63
REMARK Flexibility Score: inf
ROOT
ATOM      1  C   UNL A   1      37.561  22.730  25.500  1.00  0.00     0.021 C 
ENDROOT
BRANCH   1   2
ATOM      2  C   UNL A   1      36.445  23.741  25.769  1.00  0.00     0.116 C 
BRANCH   2   3
ATOM      3  N   UNL A   1      35.447  23.172  26.646  1.00  0.00    -0.351 N 
ATOM      4  C   UNL A   1      34.129  22.887  26.461  1.00  0.00     0.281 C 
ATOM      5  O   UNL A   1      33.568  22.379  27.440  1.00  0.00    -0.268 OA
ATOM      6  H   UNL A   1      35.782  22.951  27.545  1.00  0.00     0.163 HD
BRANCH   4   7
ATOM      7  C   UNL A   1      33.340  23.158  25.117  1.00  0.00     0.178 C 
ATOM      8  C   UNL A   1      31.832  22.726  25.113  1.00  0.00     0.063 C 
ATOM      9  C   UNL A   1      31.961  21.191  25.158  1.00  0.00     0.011 C 
ATOM     10  C   UNL A   1      33.113  20.865  24.218  1.00  0.00     0.008 C 
ATOM     11  C   UNL A   1      33.885  22.171  24.035  1.00  0.00     0.079 C 
BRANCH   8  12
ATOM     12  C   UNL A   1      30.788  23.184  26.151  1.00  0.00     0.039 C 
BRANCH  12  13
ATOM     13  C   UNL A   1      30.381  24.662  26.287  1.00  0.00     0.161 C 
BRANCH  13  14
ATOM     14  O   UNL A   1      31.398  25.646  26.113  1.00  0.00    -0.378 OA
BRANCH  14  15
ATOM     15  C   UNL A   1      30.960  27.003  26.083  1.00  0.00     0.121 C 
ATOM     16  C   UNL A   1      31.072  27.676  24.683  1.00  0.00     0.018 C 
ATOM     17  C   UNL A   1      32.521  28.016  24.286  1.00  0.00     0.006 C 
ATOM     18  C   UNL A   1      33.271  28.758  25.380  1.00  0.00     0.000 C 
ATOM     19  C   UNL A   1      31.817  27.727  27.136  1.00  0.00     0.032 C 
ATOM     20  C   UNL A   1      33.256  27.954  26.669  1.00  0.00     0.003 C 
BRANCH  16  21
ATOM     21  C   UNL A   1      30.450  26.899  23.502  1.00  0.00     0.003 C 
ATOM     22  C   UNL A   1      31.186  27.048  22.186  1.00  0.00     0.004 C 
ENDBRANCH  16  21
ENDBRANCH  14  15
ENDBRANCH  13  14
ENDBRANCH  12  13
ENDBRANCH   8  12
BRANCH   7  23
ATOM     23  N   UNL A   1      33.537  24.544  24.640  1.00  0.00    -0.336 N 
ATOM     24  C   UNL A   1      33.852  24.668  23.218  1.00  0.00     0.331 C 
ATOM     25  H   UNL A   1      34.305  24.955  25.172  1.00  0.00     0.346 HD
ATOM     26  H   UNL A   1      32.647  25.022  24.779  1.00  0.00     0.346 HD
ENDBRANCH   7  23
ENDBRANCH   4   7
ENDBRANCH   2   3
ENDBRANCH   1   2
BRANCH   1  27
ATOM     27  C   UNL A   1      37.237  21.747  24.373  1.00  0.00     0.002 C 
BRANCH  27  28
ATOM     28  C   UNL A   1      36.932  20.323  24.851  1.00  0.00     0.002 C 
BRANCH  28  29
ATOM     29  C   UNL A   1      38.147  19.399  24.997  1.00  0.00     0.021 C 
BRANCH  29  30
ATOM     30  C   UNL A   1      39.179  19.833  26.036  1.00  0.00     0.116 C 
BRANCH  30  31
ATOM     31  N   UNL A   1      40.440  19.126  25.887  1.00  0.00    -0.352 N 
ATOM     32  C   UNL A   1      41.728  19.590  25.977  1.00  0.00     0.251 C 
ATOM     33  H   UNL A   1      40.359  18.166  25.688  1.00  0.00     0.163 HD
ATOM     34  O   UNL A   1      42.663  18.881  25.618  1.00  0.00    -0.269 OA
BRANCH  32  35
ATOM     35  C   UNL A   1      41.998  20.948  26.495  1.00  0.00     0.039 A 
ATOM     36  C   UNL A   1      41.849  21.187  27.865  1.00  0.00     0.014 A 
ATOM     37  C   UNL A   1      42.358  21.992  25.638  1.00  0.00     0.014 A 
ATOM     38  C   UNL A   1      42.118  22.456  28.382  1.00  0.00     0.010 A 
ATOM     39  C   UNL A   1      42.688  23.240  26.163  1.00  0.00     0.010 A 
ATOM     40  C   UNL A   1      42.568  23.485  27.539  1.00  0.00    -0.014 A 
BRANCH  40  41
ATOM     41  C   UNL A   1      42.930  24.818  28.084  1.00  0.00     0.031 A 
ATOM     42  C   UNL A   1      41.871  25.861  28.314  1.00  0.00     0.074 A 
ATOM     43  C   UNL A   1      44.224  25.112  28.316  1.00  0.00     0.049 A 
ATOM     44  N   UNL A   1      42.005  27.093  28.734  1.00  0.00    -0.248 NA
ATOM     45  C   UNL A   1      40.483  25.474  28.014  1.00  0.00     0.031 C 
ATOM     46  C   UNL A   1      45.352  24.202  28.100  1.00  0.00     0.029 A 
ATOM     47  N   UNL A   1      44.810  26.264  28.777  1.00  0.00    -0.354 N 
ATOM     48  C   UNL A   1      40.725  27.633  28.733  1.00  0.00     0.074 A 
ATOM     49  C   UNL A   1      39.834  26.609  28.229  1.00  0.00     0.031 C 
ATOM     50  C   UNL A   1      46.490  24.824  28.452  1.00  0.00     0.029 A 
ATOM     51  C   UNL A   1      46.177  26.184  28.878  1.00  0.00     0.049 A 
ATOM     52  H   UNL A   1      44.298  27.072  29.013  1.00  0.00     0.167 HD
ATOM     53  C   UNL A   1      40.322  28.864  29.129  1.00  0.00     0.031 A 
ATOM     54  C   UNL A   1      47.081  27.103  29.264  1.00  0.00     0.031 A 
ATOM     55  C   UNL A   1      41.204  29.882  29.636  1.00  0.00     0.049 A 
ATOM     56  C   UNL A   1      46.611  28.468  29.682  1.00  0.00     0.074 A 
ATOM     57  C   UNL A   1      40.883  31.141  30.115  1.00  0.00     0.029 A 
ATOM     58  N   UNL A   1      42.581  29.760  29.724  1.00  0.00    -0.354 N 
ATOM     59  N   UNL A   1      45.390  28.940  29.739  1.00  0.00    -0.248 NA
ATOM     60  C   UNL A   1      47.648  29.424  30.100  1.00  0.00     0.031 C 
ATOM     61  C   UNL A   1      42.072  31.799  30.447  1.00  0.00     0.029 A 
ATOM     62  C   UNL A   1      43.128  30.929  30.227  1.00  0.00     0.049 A 
ATOM     63  H   UNL A   1      43.096  28.960  29.468  1.00  0.00     0.167 HD
ATOM     64  C   UNL A   1      45.507  30.236  30.223  1.00  0.00     0.074 A 
ATOM     65  C   UNL A   1      46.917  30.470  30.459  1.00  0.00     0.031 C 
ATOM     66  C   UNL A   1      44.532  31.150  30.453  1.00  0.00     0.031 A 
BRANCH  53  67
ATOM     67  C   UNL A   1      38.856  29.181  29.021  1.00  0.00    -0.014 A 
ATOM     68  C   UNL A   1      38.291  29.608  27.807  1.00  0.00     0.009 A 
ATOM     69  C   UNL A   1      38.020  29.017  30.136  1.00  0.00     0.009 A 
ATOM     70  C   UNL A   1      36.927  29.899  27.725  1.00  0.00     0.001 A 
ATOM     71  C   UNL A   1      36.653  29.282  30.044  1.00  0.00     0.001 A 
ATOM     72  C   UNL A   1      36.110  29.733  28.841  1.00  0.00     0.000 A 
ENDBRANCH  53  67
BRANCH  54  73
ATOM     73  C   UNL A   1      48.527  26.760  29.286  1.00  0.00    -0.014 A 
ATOM     74  C   UNL A   1      49.343  27.054  28.183  1.00  0.00     0.009 A 
ATOM     75  C   UNL A   1      49.097  26.136  30.405  1.00  0.00     0.009 A 
ATOM     76  C   UNL A   1      50.697  26.707  28.191  1.00  0.00     0.001 A 
ATOM     77  C   UNL A   1      50.457  25.816  30.422  1.00  0.00     0.001 A 
ATOM     78  C   UNL A   1      51.252  26.093  29.312  1.00  0.00     0.000 A 
ENDBRANCH  54  73
BRANCH  66  79
ATOM     79  C   UNL A   1      44.956  32.477  31.018  1.00  0.00    -0.014 A 
ATOM     80  C   UNL A   1      45.236  33.569  30.181  1.00  0.00     0.009 A 
ATOM     81  C   UNL A   1      45.039  32.645  32.409  1.00  0.00     0.009 A 
ATOM     82  C   UNL A   1      45.623  34.795  30.729  1.00  0.00     0.001 A 
ATOM     83  C   UNL A   1      45.398  33.878  32.953  1.00  0.00     0.001 A 
ATOM     84  C   UNL A   1      45.699  34.949  32.113  1.00  0.00     0.000 A 
ENDBRANCH  66  79
ENDBRANCH  40  41
ENDBRANCH  32  35
ENDBRANCH  30  31
ENDBRANCH  29  30
ENDBRANCH  28  29
ENDBRANCH  27  28
ENDBRANCH   1  27
TORSDOF 19
ENDMDL
