MODEL 1
REMARK VINA RESULT:     -10.6      0.000      0.000
REMARK SMILES NNS(=O)(=O)c1ccc(O)c(C(=O)NCCCCCCNC(=O)c2ccc(-c3c4nc(c(-c5ccccc5)c5ccc([nH]5)c(-c5ccccc5)c5nc(c(-c6ccccc6)c6ccc3[nH]6)C=C5)C=C4)cc2)c1
REMARK SMILES IDX 17 1 16 2 15 3 14 4 12 5 13 6 11 8 6 9 7 10 72 11 8 12 9 13
REMARK SMILES IDX 3 14 4 15 5 16 2 17 1 19 10 22 18 24 19 25 20 26 21 27 22 28
REMARK SMILES IDX 23 30 24 31 25 32 71 33 26 34 70 35 27 36 28 37 29 38 64 39
REMARK SMILES IDX 30 40 69 41 63 42 65 43 31 44 68 45 62 46 61 47 32 49 54 50
REMARK SMILES IDX 39 51 53 52 40 53 43 54 52 55 66 56 41 57 42 58 51 60 67 61
REMARK SMILES IDX 44 62 33 63 34 64 38 65 35 66 37 67 36 68 55 69 56 70 60 71
REMARK SMILES IDX 57 72 59 73 58 74 45 75 46 76 50 77 47 78 49 79 48 80
REMARK H PARENT 14 7 2 18 1 20 1 21 10 23 21 29 65 48 43 59
REMARK Flexibility Score: inf
ROOT
ATOM      1  C   UNL A   1      35.530  21.054  25.407  1.00  0.00     0.002 C 
ENDROOT
BRANCH   1   2
ATOM      2  C   UNL A   1      35.096  22.113  26.428  1.00  0.00     0.021 C 
BRANCH   2   3
ATOM      3  C   UNL A   1      34.244  21.539  27.565  1.00  0.00     0.116 C 
BRANCH   3   4
ATOM      4  N   UNL A   1      33.040  22.323  27.708  1.00  0.00    -0.352 N 
ATOM      5  C   UNL A   1      32.169  22.865  26.806  1.00  0.00     0.255 C 
ATOM      6  O   UNL A   1      31.292  23.593  27.282  1.00  0.00    -0.269 OA
ATOM      7  H   UNL A   1      32.797  22.503  28.645  1.00  0.00     0.163 HD
BRANCH   5   8
ATOM      8  C   UNL A   1      32.134  22.586  25.334  1.00  0.00     0.082 A 
ATOM      9  C   UNL A   1      32.325  23.647  23.137  1.00  0.00     0.084 A 
ATOM     10  C   UNL A   1      32.145  22.420  22.503  1.00  0.00     0.025 A 
ATOM     11  C   UNL A   1      32.308  23.735  24.531  1.00  0.00     0.039 A 
ATOM     12  C   UNL A   1      31.980  21.275  23.273  1.00  0.00     0.048 A 
ATOM     13  C   UNL A   1      32.015  21.350  24.675  1.00  0.00     0.128 A 
BRANCH   9  14
ATOM     14  S   UNL A   1      32.718  25.074  22.153  1.00  0.00     0.253 S 
ATOM     15  O   UNL A   1      34.024  25.556  22.562  1.00  0.00    -0.206 OA
ATOM     16  O   UNL A   1      31.570  25.950  22.145  1.00  0.00    -0.206 OA
BRANCH  14  17
ATOM     17  N   UNL A   1      32.832  24.405  20.556  1.00  0.00    -0.150 NA
ATOM     18  H   UNL A   1      33.699  23.871  20.484  1.00  0.00     0.160 HD
BRANCH  17  19
ATOM     19  N   UNL A   1      32.830  25.409  19.560  1.00  0.00    -0.257 NA
ATOM     20  H   UNL A   1      33.453  26.166  19.841  1.00  0.00     0.138 HD
ATOM     21  H   UNL A   1      31.884  25.770  19.444  1.00  0.00     0.138 HD
ENDBRANCH  17  19
ENDBRANCH  14  17
ENDBRANCH   9  14
BRANCH  13  22
ATOM     22  O   UNL A   1      32.012  20.158  25.339  1.00  0.00    -0.507 OA
ATOM     23  H   UNL A   1      31.209  19.689  25.455  1.00  0.00     0.293 HD
ENDBRANCH  13  22
ENDBRANCH   5   8
ENDBRANCH   3   4
ENDBRANCH   2   3
ENDBRANCH   1   2
BRANCH   1  24
ATOM     24  C   UNL A   1      36.877  21.341  24.736  1.00  0.00     0.002 C 
BRANCH  24  25
ATOM     25  C   UNL A   1      37.904  20.213  24.859  1.00  0.00     0.021 C 
BRANCH  25  26
ATOM     26  C   UNL A   1      38.859  20.375  26.037  1.00  0.00     0.116 C 
BRANCH  26  27
ATOM     27  N   UNL A   1      39.990  19.466  25.929  1.00  0.00    -0.352 N 
ATOM     28  C   UNL A   1      41.331  19.738  26.000  1.00  0.00     0.251 C 
ATOM     29  H   UNL A   1      39.758  18.520  25.786  1.00  0.00     0.163 HD
ATOM     30  O   UNL A   1      42.154  18.914  25.614  1.00  0.00    -0.269 OA
BRANCH  28  31
ATOM     31  C   UNL A   1      41.785  21.034  26.544  1.00  0.00     0.039 A 
ATOM     32  C   UNL A   1      42.179  22.040  25.659  1.00  0.00     0.014 A 
ATOM     33  C   UNL A   1      41.840  21.245  27.924  1.00  0.00     0.014 A 
ATOM     34  C   UNL A   1      42.581  23.278  26.162  1.00  0.00     0.010 A 
ATOM     35  C   UNL A   1      42.163  22.504  28.420  1.00  0.00     0.010 A 
ATOM     36  C   UNL A   1      42.548  23.529  27.545  1.00  0.00    -0.014 A 
BRANCH  36  37
ATOM     37  C   UNL A   1      42.919  24.858  28.089  1.00  0.00     0.031 A 
ATOM     38  C   UNL A   1      41.863  25.901  28.329  1.00  0.00     0.074 A 
ATOM     39  C   UNL A   1      44.216  25.141  28.320  1.00  0.00     0.049 A 
ATOM     40  N   UNL A   1      41.998  27.125  28.773  1.00  0.00    -0.248 NA
ATOM     41  C   UNL A   1      40.475  25.531  28.005  1.00  0.00     0.031 C 
ATOM     42  C   UNL A   1      45.338  24.228  28.090  1.00  0.00     0.029 A 
ATOM     43  N   UNL A   1      44.809  26.281  28.802  1.00  0.00    -0.354 N 
ATOM     44  C   UNL A   1      40.721  27.671  28.770  1.00  0.00     0.074 A 
ATOM     45  C   UNL A   1      39.833  26.668  28.226  1.00  0.00     0.031 C 
ATOM     46  C   UNL A   1      46.477  24.830  28.464  1.00  0.00     0.029 A 
ATOM     47  C   UNL A   1      46.174  26.183  28.918  1.00  0.00     0.049 A 
ATOM     48  H   UNL A   1      44.304  27.091  29.042  1.00  0.00     0.167 HD
ATOM     49  C   UNL A   1      40.318  28.889  29.202  1.00  0.00     0.031 A 
ATOM     50  C   UNL A   1      47.081  27.084  29.338  1.00  0.00     0.031 A 
ATOM     51  C   UNL A   1      41.203  29.886  29.744  1.00  0.00     0.049 A 
ATOM     52  C   UNL A   1      46.611  28.440  29.787  1.00  0.00     0.074 A 
ATOM     53  C   UNL A   1      40.888  31.131  30.259  1.00  0.00     0.029 A 
ATOM     54  N   UNL A   1      42.580  29.750  29.838  1.00  0.00    -0.354 N 
ATOM     55  N   UNL A   1      45.390  28.914  29.847  1.00  0.00    -0.248 NA
ATOM     56  C   UNL A   1      47.647  29.381  30.237  1.00  0.00     0.031 C 
ATOM     57  C   UNL A   1      42.080  31.775  30.605  1.00  0.00     0.029 A 
ATOM     58  C   UNL A   1      43.132  30.903  30.371  1.00  0.00     0.049 A 
ATOM     59  H   UNL A   1      43.090  28.953  29.565  1.00  0.00     0.167 HD
ATOM     60  C   UNL A   1      45.508  30.196  30.369  1.00  0.00     0.074 A 
ATOM     61  C   UNL A   1      46.916  30.416  30.626  1.00  0.00     0.031 C 
ATOM     62  C   UNL A   1      44.537  31.109  30.615  1.00  0.00     0.031 A 
BRANCH  49  63
ATOM     63  C   UNL A   1      38.854  29.215  29.091  1.00  0.00    -0.014 A 
ATOM     64  C   UNL A   1      37.986  29.057  30.184  1.00  0.00     0.009 A 
ATOM     65  C   UNL A   1      38.339  29.723  27.888  1.00  0.00     0.009 A 
ATOM     66  C   UNL A   1      36.628  29.360  30.062  1.00  0.00     0.001 A 
ATOM     67  C   UNL A   1      36.988  30.057  27.778  1.00  0.00     0.001 A 
ATOM     68  C   UNL A   1      36.132  29.865  28.861  1.00  0.00     0.000 A 
ENDBRANCH  49  63
BRANCH  50  69
ATOM     69  C   UNL A   1      48.526  26.732  29.366  1.00  0.00    -0.014 A 
ATOM     70  C   UNL A   1      49.368  27.087  28.300  1.00  0.00     0.009 A 
ATOM     71  C   UNL A   1      49.070  26.031  30.454  1.00  0.00     0.009 A 
ATOM     72  C   UNL A   1      50.715  26.720  28.309  1.00  0.00     0.001 A 
ATOM     73  C   UNL A   1      50.425  25.695  30.475  1.00  0.00     0.001 A 
ATOM     74  C   UNL A   1      51.243  26.028  29.397  1.00  0.00     0.000 A 
ENDBRANCH  50  69
BRANCH  62  75
ATOM     75  C   UNL A   1      44.961  32.418  31.222  1.00  0.00    -0.014 A 
ATOM     76  C   UNL A   1      45.058  32.583  32.612  1.00  0.00     0.009 A 
ATOM     77  C   UNL A   1      45.304  33.491  30.385  1.00  0.00     0.009 A 
ATOM     78  C   UNL A   1      45.453  33.808  33.152  1.00  0.00     0.001 A 
ATOM     79  C   UNL A   1      45.731  34.704  30.927  1.00  0.00     0.001 A 
ATOM     80  C   UNL A   1      45.795  34.865  32.309  1.00  0.00     0.000 A 
ENDBRANCH  62  75
ENDBRANCH  36  37
ENDBRANCH  28  31
ENDBRANCH  26  27
ENDBRANCH  25  26
ENDBRANCH  24  25
ENDBRANCH   1  24
TORSDOF 17
ENDMDL
MODEL 2
REMARK VINA RESULT:     -10.6      4.271      8.967
REMARK SMILES NNS(=O)(=O)c1ccc(O)c(C(=O)NCCCCCCNC(=O)c2ccc(-c3c4nc(c(-c5ccccc5)c5ccc([nH]5)c(-c5ccccc5)c5nc(c(-c6ccccc6)c6ccc3[nH]6)C=C5)C=C4)cc2)c1
REMARK SMILES IDX 17 1 16 2 15 3 14 4 12 5 13 6 11 8 6 9 7 10 72 11 8 12 9 13
REMARK SMILES IDX 3 14 4 15 5 16 2 17 1 19 10 22 18 24 19 25 20 26 21 27 22 28
REMARK SMILES IDX 23 30 24 31 25 32 71 33 26 34 70 35 27 36 28 37 29 38 64 39
REMARK SMILES IDX 30 40 69 41 63 42 65 43 31 44 68 45 62 46 61 47 32 49 54 50
REMARK SMILES IDX 39 51 53 52 40 53 43 54 52 55 66 56 41 57 42 58 51 60 67 61
REMARK SMILES IDX 44 62 33 63 34 64 38 65 35 66 37 67 36 68 55 69 56 70 60 71
REMARK SMILES IDX 57 72 59 73 58 74 45 75 46 76 50 77 47 78 49 79 48 80
REMARK H PARENT 14 7 2 18 1 20 1 21 10 23 21 29 65 48 43 59
REMARK Flexibility Score: inf
ROOT
ATOM      1  C   UNL A   1      32.093  29.105  26.286  1.00  0.00     0.002 C 
ENDROOT
BRANCH   1   2
ATOM      2  C   UNL A   1      33.085  28.277  25.461  1.00  0.00     0.021 C 
BRANCH   2   3
ATOM      3  C   UNL A   1      33.611  29.022  24.229  1.00  0.00     0.116 C 
BRANCH   3   4
ATOM      4  N   UNL A   1      33.595  28.138  23.087  1.00  0.00    -0.352 N 
ATOM      5  C   UNL A   1      32.655  27.284  22.585  1.00  0.00     0.255 C 
ATOM      6  O   UNL A   1      33.027  26.578  21.641  1.00  0.00    -0.269 OA
ATOM      7  H   UNL A   1      34.431  28.154  22.566  1.00  0.00     0.163 HD
BRANCH   5   8
ATOM      8  C   UNL A   1      31.221  27.199  23.010  1.00  0.00     0.082 A 
ATOM      9  C   UNL A   1      29.112  28.441  23.034  1.00  0.00     0.084 A 
ATOM     10  C   UNL A   1      28.466  27.376  23.657  1.00  0.00     0.025 A 
ATOM     11  C   UNL A   1      30.472  28.363  22.724  1.00  0.00     0.039 A 
ATOM     12  C   UNL A   1      29.180  26.218  23.939  1.00  0.00     0.048 A 
ATOM     13  C   UNL A   1      30.535  26.114  23.582  1.00  0.00     0.128 A 
BRANCH   9  14
ATOM     14  S   UNL A   1      28.153  29.842  22.512  1.00  0.00     0.253 S 
ATOM     15  O   UNL A   1      26.914  29.847  23.267  1.00  0.00    -0.206 OA
ATOM     16  O   UNL A   1      28.144  29.874  21.068  1.00  0.00    -0.206 OA
BRANCH  14  17
ATOM     17  N   UNL A   1      29.136  31.178  23.023  1.00  0.00    -0.150 NA
ATOM     18  H   UNL A   1      28.574  31.793  23.612  1.00  0.00     0.160 HD
BRANCH  17  19
ATOM     19  N   UNL A   1      29.631  31.922  21.926  1.00  0.00    -0.257 NA
ATOM     20  H   UNL A   1      29.081  31.707  21.094  1.00  0.00     0.138 HD
ATOM     21  H   UNL A   1      30.607  31.677  21.762  1.00  0.00     0.138 HD
ENDBRANCH  17  19
ENDBRANCH  14  17
ENDBRANCH   9  14
BRANCH  13  22
ATOM     22  O   UNL A   1      31.105  24.886  23.746  1.00  0.00    -0.507 OA
ATOM     23  H   UNL A   1      31.561  24.482  23.034  1.00  0.00     0.293 HD
ENDBRANCH  13  22
ENDBRANCH   5   8
ENDBRANCH   3   4
ENDBRANCH   2   3
ENDBRANCH   1   2
BRANCH   1  24
ATOM     24  C   UNL A   1      31.555  30.346  25.565  1.00  0.00     0.002 C 
BRANCH  24  25
ATOM     25  C   UNL A   1      31.338  31.563  26.467  1.00  0.00     0.021 C 
BRANCH  25  26
ATOM     26  C   UNL A   1      32.628  32.160  27.017  1.00  0.00     0.116 C 
BRANCH  26  27
ATOM     27  N   UNL A   1      32.437  33.542  27.430  1.00  0.00    -0.352 N 
ATOM     28  C   UNL A   1      33.114  34.266  28.377  1.00  0.00     0.251 C 
ATOM     29  H   UNL A   1      31.720  34.027  26.961  1.00  0.00     0.163 HD
ATOM     30  O   UNL A   1      32.652  35.321  28.800  1.00  0.00    -0.269 OA
BRANCH  28  31
ATOM     31  C   UNL A   1      34.405  33.768  28.891  1.00  0.00     0.039 A 
ATOM     32  C   UNL A   1      34.422  33.013  30.066  1.00  0.00     0.014 A 
ATOM     33  C   UNL A   1      35.597  34.063  28.224  1.00  0.00     0.014 A 
ATOM     34  C   UNL A   1      35.634  32.513  30.545  1.00  0.00     0.010 A 
ATOM     35  C   UNL A   1      36.791  33.496  28.656  1.00  0.00     0.010 A 
ATOM     36  C   UNL A   1      36.824  32.726  29.828  1.00  0.00    -0.014 A 
BRANCH  36  37
ATOM     37  C   UNL A   1      38.110  32.152  30.294  1.00  0.00     0.031 A 
ATOM     38  C   UNL A   1      38.603  30.845  29.739  1.00  0.00     0.074 A 
ATOM     39  C   UNL A   1      38.808  32.787  31.255  1.00  0.00     0.049 A 
ATOM     40  N   UNL A   1      39.686  30.175  30.042  1.00  0.00    -0.248 NA
ATOM     41  C   UNL A   1      37.757  30.189  28.727  1.00  0.00     0.031 C 
ATOM     42  C   UNL A   1      38.416  34.041  31.902  1.00  0.00     0.029 A 
ATOM     43  N   UNL A   1      39.999  32.462  31.855  1.00  0.00    -0.354 N 
ATOM     44  C   UNL A   1      39.645  29.021  29.271  1.00  0.00     0.074 A 
ATOM     45  C   UNL A   1      38.403  29.050  28.530  1.00  0.00     0.031 C 
ATOM     46  C   UNL A   1      39.365  34.397  32.781  1.00  0.00     0.029 A 
ATOM     47  C   UNL A   1      40.409  33.378  32.793  1.00  0.00     0.049 A 
ATOM     48  H   UNL A   1      40.511  31.651  31.634  1.00  0.00     0.167 HD
ATOM     49  C   UNL A   1      40.567  28.035  29.171  1.00  0.00     0.031 A 
ATOM     50  C   UNL A   1      41.502  33.393  33.579  1.00  0.00     0.031 A 
ATOM     51  C   UNL A   1      41.802  28.008  29.909  1.00  0.00     0.049 A 
ATOM     52  C   UNL A   1      42.497  32.272  33.469  1.00  0.00     0.074 A 
ATOM     53  C   UNL A   1      42.828  27.081  29.840  1.00  0.00     0.029 A 
ATOM     54  N   UNL A   1      42.177  28.950  30.854  1.00  0.00    -0.354 N 
ATOM     55  N   UNL A   1      42.479  31.224  32.680  1.00  0.00    -0.248 NA
ATOM     56  C   UNL A   1      43.671  32.344  34.351  1.00  0.00     0.031 C 
ATOM     57  C   UNL A   1      43.794  27.427  30.790  1.00  0.00     0.029 A 
ATOM     58  C   UNL A   1      43.403  28.609  31.400  1.00  0.00     0.049 A 
ATOM     59  H   UNL A   1      41.649  29.744  31.102  1.00  0.00     0.167 HD
ATOM     60  C   UNL A   1      43.651  30.528  32.950  1.00  0.00     0.074 A 
ATOM     61  C   UNL A   1      44.364  31.283  33.959  1.00  0.00     0.031 C 
ATOM     62  C   UNL A   1      44.097  29.368  32.409  1.00  0.00     0.031 A 
BRANCH  49  63
ATOM     63  C   UNL A   1      40.265  26.894  28.237  1.00  0.00    -0.014 A 
ATOM     64  C   UNL A   1      40.767  26.873  26.926  1.00  0.00     0.009 A 
ATOM     65  C   UNL A   1      39.498  25.808  28.685  1.00  0.00     0.009 A 
ATOM     66  C   UNL A   1      40.473  25.808  26.071  1.00  0.00     0.001 A 
ATOM     67  C   UNL A   1      39.232  24.729  27.840  1.00  0.00     0.001 A 
ATOM     68  C   UNL A   1      39.710  24.735  26.531  1.00  0.00     0.000 A 
ENDBRANCH  49  63
BRANCH  50  69
ATOM     69  C   UNL A   1      41.720  34.513  34.534  1.00  0.00    -0.014 A 
ATOM     70  C   UNL A   1      42.394  35.676  34.128  1.00  0.00     0.009 A 
ATOM     71  C   UNL A   1      41.263  34.421  35.858  1.00  0.00     0.009 A 
ATOM     72  C   UNL A   1      42.634  36.709  35.038  1.00  0.00     0.001 A 
ATOM     73  C   UNL A   1      41.475  35.469  36.755  1.00  0.00     0.001 A 
ATOM     74  C   UNL A   1      42.171  36.606  36.348  1.00  0.00     0.000 A 
ENDBRANCH  50  69
BRANCH  62  75
ATOM     75  C   UNL A   1      45.434  28.862  32.875  1.00  0.00    -0.014 A 
ATOM     76  C   UNL A   1      46.626  29.260  32.248  1.00  0.00     0.009 A 
ATOM     77  C   UNL A   1      45.503  28.002  33.981  1.00  0.00     0.009 A 
ATOM     78  C   UNL A   1      47.856  28.775  32.698  1.00  0.00     0.001 A 
ATOM     79  C   UNL A   1      46.736  27.546  34.450  1.00  0.00     0.001 A 
ATOM     80  C   UNL A   1      47.910  27.924  33.802  1.00  0.00     0.000 A 
ENDBRANCH  62  75
ENDBRANCH  36  37
ENDBRANCH  28  31
ENDBRANCH  26  27
ENDBRANCH  25  26
ENDBRANCH  24  25
ENDBRANCH   1  24
TORSDOF 17
ENDMDL
MODEL 3
REMARK VINA RESULT:     -10.5      5.577     10.274
REMARK SMILES NNS(=O)(=O)c1ccc(O)c(C(=O)NCCCCCCNC(=O)c2ccc(-c3c4nc(c(-c5ccccc5)c5ccc([nH]5)c(-c5ccccc5)c5nc(c(-c6ccccc6)c6ccc3[nH]6)C=C5)C=C4)cc2)c1
REMARK SMILES IDX 17 1 16 2 15 3 14 4 12 5 13 6 11 8 6 9 7 10 72 11 8 12 9 13
REMARK SMILES IDX 3 14 4 15 5 16 2 17 1 19 10 22 18 24 19 25 20 26 21 27 22 28
REMARK SMILES IDX 23 30 24 31 25 32 71 33 26 34 70 35 27 36 28 37 29 38 64 39
REMARK SMILES IDX 30 40 69 41 63 42 65 43 31 44 68 45 62 46 61 47 32 49 54 50
REMARK SMILES IDX 39 51 53 52 40 53 43 54 52 55 66 56 41 57 42 58 51 60 67 61
REMARK SMILES IDX 44 62 33 63 34 64 38 65 35 66 37 67 36 68 55 69 56 70 60 71
REMARK SMILES IDX 57 72 59 73 58 74 45 75 46 76 50 77 47 78 49 79 48 80
REMARK H PARENT 14 7 2 18 1 20 1 21 10 23 21 29 65 48 43 59
REMARK Flexibility Score: inf
ROOT
ATOM      1  C   UNL A   1      37.354  33.105  29.217  1.00  0.00     0.002 C 
ENDROOT
BRANCH   1   2
ATOM      2  C   UNL A   1      38.621  33.339  30.047  1.00  0.00     0.021 C 
BRANCH   2   3
ATOM      3  C   UNL A   1      38.645  34.710  30.734  1.00  0.00     0.116 C 
BRANCH   3   4
ATOM      4  N   UNL A   1      38.803  34.532  32.159  1.00  0.00    -0.352 N 
ATOM      5  C   UNL A   1      37.911  34.420  33.187  1.00  0.00     0.255 C 
ATOM      6  O   UNL A   1      38.404  34.398  34.320  1.00  0.00    -0.269 OA
ATOM      7  H   UNL A   1      39.744  34.483  32.447  1.00  0.00     0.163 HD
BRANCH   5   8
ATOM      8  C   UNL A   1      36.430  34.234  33.057  1.00  0.00     0.082 A 
ATOM      9  C   UNL A   1      34.317  35.451  32.856  1.00  0.00     0.084 A 
ATOM     10  C   UNL A   1      33.608  34.254  32.786  1.00  0.00     0.025 A 
ATOM     11  C   UNL A   1      35.706  35.446  33.001  1.00  0.00     0.039 A 
ATOM     12  C   UNL A   1      34.300  33.050  32.830  1.00  0.00     0.048 A 
ATOM     13  C   UNL A   1      35.702  33.039  32.923  1.00  0.00     0.128 A 
BRANCH   9  14
ATOM     14  S   UNL A   1      33.446  36.981  32.614  1.00  0.00     0.253 S 
ATOM     15  O   UNL A   1      34.126  38.011  33.377  1.00  0.00    -0.206 OA
ATOM     16  O   UNL A   1      32.034  36.734  32.791  1.00  0.00    -0.206 OA
BRANCH  14  17
ATOM     17  N   UNL A   1      33.681  37.279  30.921  1.00  0.00    -0.150 NA
ATOM     18  H   UNL A   1      33.616  38.284  30.752  1.00  0.00     0.160 HD
BRANCH  17  19
ATOM     19  N   UNL A   1      32.713  36.619  30.128  1.00  0.00    -0.257 NA
ATOM     20  H   UNL A   1      33.170  36.185  29.327  1.00  0.00     0.138 HD
ATOM     21  H   UNL A   1      32.022  37.295  29.803  1.00  0.00     0.138 HD
ENDBRANCH  17  19
ENDBRANCH  14  17
ENDBRANCH   9  14
BRANCH  13  22
ATOM     22  O   UNL A   1      36.301  31.821  32.792  1.00  0.00    -0.507 OA
ATOM     23  H   UNL A   1      36.630  31.548  31.958  1.00  0.00     0.293 HD
ENDBRANCH  13  22
ENDBRANCH   5   8
ENDBRANCH   3   4
ENDBRANCH   2   3
ENDBRANCH   1   2
BRANCH   1  24
ATOM     24  C   UNL A   1      36.372  34.281  29.221  1.00  0.00     0.002 C 
BRANCH  24  25
ATOM     25  C   UNL A   1      34.937  33.915  28.834  1.00  0.00     0.021 C 
BRANCH  25  26
ATOM     26  C   UNL A   1      34.451  32.604  29.441  1.00  0.00     0.116 C 
BRANCH  26  27
ATOM     27  N   UNL A   1      33.885  31.729  28.425  1.00  0.00    -0.352 N 
ATOM     28  C   UNL A   1      34.474  30.695  27.744  1.00  0.00     0.251 C 
ATOM     29  H   UNL A   1      32.944  31.905  28.194  1.00  0.00     0.163 HD
ATOM     30  O   UNL A   1      33.954  30.243  26.729  1.00  0.00    -0.269 OA
BRANCH  28  31
ATOM     31  C   UNL A   1      35.745  30.127  28.237  1.00  0.00     0.039 A 
ATOM     32  C   UNL A   1      36.859  30.125  27.396  1.00  0.00     0.014 A 
ATOM     33  C   UNL A   1      35.827  29.580  29.521  1.00  0.00     0.014 A 
ATOM     34  C   UNL A   1      38.073  29.617  27.863  1.00  0.00     0.010 A 
ATOM     35  C   UNL A   1      37.055  29.149  30.012  1.00  0.00     0.010 A 
ATOM     36  C   UNL A   1      38.187  29.153  29.184  1.00  0.00    -0.014 A 
BRANCH  36  37
ATOM     37  C   UNL A   1      39.484  28.663  29.712  1.00  0.00     0.031 A 
ATOM     38  C   UNL A   1      40.111  29.319  30.910  1.00  0.00     0.074 A 
ATOM     39  C   UNL A   1      40.120  27.657  29.079  1.00  0.00     0.049 A 
ATOM     40  N   UNL A   1      41.250  29.048  31.498  1.00  0.00    -0.248 NA
ATOM     41  C   UNL A   1      39.377  30.443  31.516  1.00  0.00     0.031 C 
ATOM     42  C   UNL A   1      39.634  26.966  27.883  1.00  0.00     0.029 A 
ATOM     43  N   UNL A   1      41.314  27.042  29.356  1.00  0.00    -0.354 N 
ATOM     44  C   UNL A   1      41.372  29.971  32.528  1.00  0.00     0.074 A 
ATOM     45  C   UNL A   1      40.223  30.847  32.452  1.00  0.00     0.031 C 
ATOM     46  C   UNL A   1      40.503  25.999  27.552  1.00  0.00     0.029 A 
ATOM     47  C   UNL A   1      41.627  26.030  28.482  1.00  0.00     0.049 A 
ATOM     48  H   UNL A   1      41.892  27.300  30.110  1.00  0.00     0.167 HD
ATOM     49  C   UNL A   1      42.341  30.069  33.468  1.00  0.00     0.031 A 
ATOM     50  C   UNL A   1      42.701  25.221  28.431  1.00  0.00     0.031 A 
ATOM     51  C   UNL A   1      43.483  29.196  33.544  1.00  0.00     0.049 A 
ATOM     52  C   UNL A   1      43.777  25.368  29.471  1.00  0.00     0.074 A 
ATOM     53  C   UNL A   1      44.493  29.179  34.490  1.00  0.00     0.029 A 
ATOM     54  N   UNL A   1      43.766  28.189  32.635  1.00  0.00    -0.354 N 
ATOM     55  N   UNL A   1      43.840  26.198  30.483  1.00  0.00    -0.248 NA
ATOM     56  C   UNL A   1      44.924  24.455  29.365  1.00  0.00     0.031 C 
ATOM     57  C   UNL A   1      45.422  28.203  34.117  1.00  0.00     0.029 A 
ATOM     58  C   UNL A   1      44.954  27.565  32.978  1.00  0.00     0.049 A 
ATOM     59  H   UNL A   1      43.207  27.952  31.860  1.00  0.00     0.167 HD
ATOM     60  C   UNL A   1      45.018  25.889  31.152  1.00  0.00     0.074 A 
ATOM     61  C   UNL A   1      45.626  24.784  30.442  1.00  0.00     0.031 C 
ATOM     62  C   UNL A   1      45.549  26.469  32.257  1.00  0.00     0.031 A 
BRANCH  49  63
ATOM     63  C   UNL A   1      42.212  31.171  34.485  1.00  0.00    -0.014 A 
ATOM     64  C   UNL A   1      42.756  32.445  34.253  1.00  0.00     0.009 A 
ATOM     65  C   UNL A   1      41.507  30.944  35.677  1.00  0.00     0.009 A 
ATOM     66  C   UNL A   1      42.632  33.454  35.211  1.00  0.00     0.001 A 
ATOM     67  C   UNL A   1      41.355  31.963  36.618  1.00  0.00     0.001 A 
ATOM     68  C   UNL A   1      41.927  33.214  36.389  1.00  0.00     0.000 A 
ENDBRANCH  49  63
BRANCH  50  69
ATOM     69  C   UNL A   1      42.810  24.190  27.364  1.00  0.00    -0.014 A 
ATOM     70  C   UNL A   1      43.398  24.501  26.128  1.00  0.00     0.009 A 
ATOM     71  C   UNL A   1      42.318  22.892  27.572  1.00  0.00     0.009 A 
ATOM     72  C   UNL A   1      43.462  23.544  25.113  1.00  0.00     0.001 A 
ATOM     73  C   UNL A   1      42.414  21.927  26.568  1.00  0.00     0.001 A 
ATOM     74  C   UNL A   1      42.974  22.258  25.335  1.00  0.00     0.000 A 
ENDBRANCH  50  69
BRANCH  62  75
ATOM     75  C   UNL A   1      46.835  25.895  32.784  1.00  0.00    -0.014 A 
ATOM     76  C   UNL A   1      46.840  24.871  33.744  1.00  0.00     0.009 A 
ATOM     77  C   UNL A   1      48.059  26.363  32.283  1.00  0.00     0.009 A 
ATOM     78  C   UNL A   1      48.047  24.355  34.220  1.00  0.00     0.001 A 
ATOM     79  C   UNL A   1      49.264  25.822  32.735  1.00  0.00     0.001 A 
ATOM     80  C   UNL A   1      49.257  24.827  33.710  1.00  0.00     0.000 A 
ENDBRANCH  62  75
ENDBRANCH  36  37
ENDBRANCH  28  31
ENDBRANCH  26  27
ENDBRANCH  25  26
ENDBRANCH  24  25
ENDBRANCH   1  24
TORSDOF 17
ENDMDL
