MODEL 1
REMARK VINA RESULT:     -13.2      0.000      0.000
REMARK SMILES Cc1ccc(-c2nc(NC(=O)[C@H]3[C@@H](C(=O)NCCCCCCNC(=O)c4ccc(-c5c6nc(c(-c7ccccc7)c7ccc([nH]7)c(-c7ccccc7)c7nc(c(-c8ccccc8)c8ccc5[nH]8)C=C7)C=C6)cc4)[C@@H]4CC[C@H]3O4)sc2C)cc1
REMARK SMILES IDX 19 1 18 2 17 3 16 4 14 5 15 6 13 8 12 9 77 10 74 11 76 12
REMARK SMILES IDX 78 13 75 14 10 15 9 16 11 18 8 19 6 20 7 21 80 22 79 23
REMARK SMILES IDX 81 24 5 25 1 26 2 27 3 28 83 29 4 30 82 31 20 32 21 33 22 34
REMARK SMILES IDX 23 35 24 36 25 38 26 39 27 40 73 41 28 42 72 43 29 44 30 45
REMARK SMILES IDX 31 46 66 47 32 48 71 49 65 50 67 51 33 52 70 53 64 54 63 55
REMARK SMILES IDX 34 57 56 58 41 59 55 60 42 61 45 62 54 63 68 64 43 65 44 66
REMARK SMILES IDX 53 68 69 69 46 70 35 71 36 72 40 73 37 74 39 75 38 76 57 77
REMARK SMILES IDX 58 78 62 79 59 80 61 81 60 82 47 83 48 84 52 85 49 86 51 87
REMARK SMILES IDX 50 88
REMARK H PARENT 16 7 9 17 23 37 67 56 45 67
REMARK Flexibility Score: inf
ROOT
ATOM      1  C   UNL A   1      38.707  22.518  26.083  1.00  0.00     0.002 C 
ENDROOT
BRANCH   1   2
ATOM      2  C   UNL A   1      37.944  21.614  25.116  1.00  0.00     0.021 C 
BRANCH   2   3
ATOM      3  C   UNL A   1      36.516  21.188  25.437  1.00  0.00     0.116 C 
BRANCH   3   4
ATOM      4  N   UNL A   1      35.868  21.838  26.555  1.00  0.00    -0.356 N 
ATOM      5  C   UNL A   1      34.527  21.838  26.814  1.00  0.00     0.226 C 
ATOM      6  O   UNL A   1      34.157  21.616  27.968  1.00  0.00    -0.275 OA
ATOM      7  H   UNL A   1      36.446  22.325  27.186  1.00  0.00     0.163 HD
BRANCH   5   8
ATOM      8  C   UNL A   1      33.554  21.967  25.671  1.00  0.00     0.122 C 
ATOM      9  C   UNL A   1      32.579  23.132  25.458  1.00  0.00     0.123 C 
ATOM     10  C   UNL A   1      31.543  22.409  24.574  1.00  0.00     0.132 C 
ATOM     11  C   UNL A   1      32.637  20.734  25.418  1.00  0.00     0.132 C 
ATOM     12  C   UNL A   1      32.176  21.712  23.339  1.00  0.00     0.035 C 
ATOM     13  O   UNL A   1      31.291  21.288  25.446  1.00  0.00    -0.373 OA
ATOM     14  C   UNL A   1      32.686  20.391  23.934  1.00  0.00     0.035 C 
BRANCH   9  15
ATOM     15  C   UNL A   1      31.774  24.092  26.390  1.00  0.00     0.232 C 
ATOM     16  N   UNL A   1      31.475  25.410  26.412  1.00  0.00    -0.302 N 
ATOM     17  H   UNL A   1      30.947  25.639  27.211  1.00  0.00     0.172 HD
ATOM     18  O   UNL A   1      31.296  23.507  27.391  1.00  0.00    -0.274 OA
BRANCH  16  19
ATOM     19  C   UNL A   1      31.697  26.515  25.637  1.00  0.00     0.190 A 
ATOM     20  C   UNL A   1      31.335  28.326  24.364  1.00  0.00     0.086 A 
ATOM     21  N   UNL A   1      30.756  27.329  25.182  1.00  0.00    -0.220 NA
ATOM     22  C   UNL A   1      32.723  28.262  24.327  1.00  0.00     0.031 A 
ATOM     23  S   UNL A   1      33.256  26.963  25.271  1.00  0.00    -0.101 S 
ATOM     24  C   UNL A   1      33.783  29.084  23.688  1.00  0.00     0.059 C 
BRANCH  20  25
ATOM     25  C   UNL A   1      30.570  29.350  23.627  1.00  0.00     0.001 A 
ATOM     26  C   UNL A   1      27.900  32.228  21.750  1.00  0.00     0.044 C 
ATOM     27  C   UNL A   1      28.847  31.248  22.380  1.00  0.00    -0.051 A 
ATOM     28  C   UNL A   1      29.344  30.144  21.669  1.00  0.00     0.004 A 
ATOM     29  C   UNL A   1      29.262  31.425  23.698  1.00  0.00     0.004 A 
ATOM     30  C   UNL A   1      30.195  29.201  22.286  1.00  0.00     0.010 A 
ATOM     31  C   UNL A   1      30.126  30.504  24.298  1.00  0.00     0.010 A 
ENDBRANCH  20  25
ENDBRANCH  16  19
ENDBRANCH   9  15
ENDBRANCH   5   8
ENDBRANCH   3   4
ENDBRANCH   2   3
ENDBRANCH   1   2
BRANCH   1  32
ATOM     32  C   UNL A   1      40.054  22.069  26.656  1.00  0.00     0.002 C 
BRANCH  32  33
ATOM     33  C   UNL A   1      40.601  20.696  26.271  1.00  0.00     0.021 C 
BRANCH  33  34
ATOM     34  C   UNL A   1      42.049  20.435  26.662  1.00  0.00     0.116 C 
BRANCH  34  35
ATOM     35  N   UNL A   1      42.899  20.036  25.550  1.00  0.00    -0.352 N 
ATOM     36  C   UNL A   1      43.894  20.742  24.885  1.00  0.00     0.251 C 
ATOM     37  H   UNL A   1      42.745  19.122  25.217  1.00  0.00     0.163 HD
ATOM     38  O   UNL A   1      44.517  20.218  23.997  1.00  0.00    -0.269 OA
BRANCH  36  39
ATOM     39  C   UNL A   1      44.276  22.097  25.375  1.00  0.00     0.039 A 
ATOM     40  C   UNL A   1      45.048  22.160  26.540  1.00  0.00     0.014 A 
ATOM     41  C   UNL A   1      43.750  23.262  24.824  1.00  0.00     0.014 A 
ATOM     42  C   UNL A   1      45.064  23.336  27.284  1.00  0.00     0.010 A 
ATOM     43  C   UNL A   1      43.686  24.402  25.597  1.00  0.00     0.010 A 
ATOM     44  C   UNL A   1      44.285  24.409  26.857  1.00  0.00    -0.014 A 
BRANCH  44  45
ATOM     45  C   UNL A   1      43.991  25.550  27.707  1.00  0.00     0.031 A 
ATOM     46  C   UNL A   1      42.668  26.181  27.643  1.00  0.00     0.074 A 
ATOM     47  C   UNL A   1      44.949  26.038  28.522  1.00  0.00     0.049 A 
ATOM     48  N   UNL A   1      42.452  27.439  27.827  1.00  0.00    -0.248 NA
ATOM     49  C   UNL A   1      41.473  25.425  27.294  1.00  0.00     0.031 C 
ATOM     50  C   UNL A   1      44.821  27.077  29.538  1.00  0.00     0.029 A 
ATOM     51  N   UNL A   1      46.321  25.837  28.397  1.00  0.00    -0.354 N 
ATOM     52  C   UNL A   1      41.090  27.603  27.918  1.00  0.00     0.074 A 
ATOM     53  C   UNL A   1      40.526  26.350  27.470  1.00  0.00     0.031 C 
ATOM     54  C   UNL A   1      46.035  27.608  29.761  1.00  0.00     0.029 A 
ATOM     55  C   UNL A   1      46.954  27.022  28.798  1.00  0.00     0.049 A 
ATOM     56  H   UNL A   1      46.765  25.015  28.085  1.00  0.00     0.167 HD
ATOM     57  C   UNL A   1      40.590  28.718  28.523  1.00  0.00     0.031 A 
ATOM     58  C   UNL A   1      47.710  27.731  27.909  1.00  0.00     0.031 A 
ATOM     59  C   UNL A   1      41.654  29.654  28.895  1.00  0.00     0.049 A 
ATOM     60  C   UNL A   1      47.165  29.112  27.621  1.00  0.00     0.074 A 
ATOM     61  C   UNL A   1      42.291  29.918  30.096  1.00  0.00     0.029 A 
ATOM     62  N   UNL A   1      42.434  30.238  27.901  1.00  0.00    -0.354 N 
ATOM     63  N   UNL A   1      45.942  29.492  27.874  1.00  0.00    -0.248 NA
ATOM     64  C   UNL A   1      47.957  30.164  26.990  1.00  0.00     0.031 C 
ATOM     65  C   UNL A   1      43.504  30.599  29.812  1.00  0.00     0.029 A 
ATOM     66  C   UNL A   1      43.586  30.779  28.442  1.00  0.00     0.049 A 
ATOM     67  H   UNL A   1      42.198  30.261  26.946  1.00  0.00     0.167 HD
ATOM     68  C   UNL A   1      45.769  30.789  27.462  1.00  0.00     0.074 A 
ATOM     69  C   UNL A   1      47.066  31.169  26.931  1.00  0.00     0.031 C 
ATOM     70  C   UNL A   1      44.571  31.436  27.588  1.00  0.00     0.031 A 
BRANCH  57  71
ATOM     71  C   UNL A   1      39.183  28.773  29.078  1.00  0.00    -0.014 A 
ATOM     72  C   UNL A   1      38.140  29.281  28.283  1.00  0.00     0.009 A 
ATOM     73  C   UNL A   1      38.832  28.420  30.392  1.00  0.00     0.009 A 
ATOM     74  C   UNL A   1      36.863  29.535  28.804  1.00  0.00     0.001 A 
ATOM     75  C   UNL A   1      37.573  28.712  30.935  1.00  0.00     0.001 A 
ATOM     76  C   UNL A   1      36.589  29.285  30.141  1.00  0.00     0.000 A 
ENDBRANCH  57  71
BRANCH  58  77
ATOM     77  C   UNL A   1      48.423  26.876  26.917  1.00  0.00    -0.014 A 
ATOM     78  C   UNL A   1      47.988  26.902  25.576  1.00  0.00     0.009 A 
ATOM     79  C   UNL A   1      49.692  26.350  27.194  1.00  0.00     0.009 A 
ATOM     80  C   UNL A   1      48.842  26.525  24.535  1.00  0.00     0.001 A 
ATOM     81  C   UNL A   1      50.539  25.959  26.148  1.00  0.00     0.001 A 
ATOM     82  C   UNL A   1      50.130  26.082  24.821  1.00  0.00     0.000 A 
ENDBRANCH  58  77
BRANCH  70  83
ATOM     83  C   UNL A   1      44.213  32.783  26.997  1.00  0.00    -0.014 A 
ATOM     84  C   UNL A   1      44.122  33.058  25.626  1.00  0.00     0.009 A 
ATOM     85  C   UNL A   1      43.832  33.829  27.869  1.00  0.00     0.009 A 
ATOM     86  C   UNL A   1      43.728  34.320  25.155  1.00  0.00     0.001 A 
ATOM     87  C   UNL A   1      43.389  35.071  27.406  1.00  0.00     0.001 A 
ATOM     88  C   UNL A   1      43.352  35.321  26.044  1.00  0.00     0.000 A 
ENDBRANCH  70  83
ENDBRANCH  44  45
ENDBRANCH  36  39
ENDBRANCH  34  35
ENDBRANCH  33  34
ENDBRANCH  32  33
ENDBRANCH   1  32
TORSDOF 16
ENDMDL
MODEL 2
REMARK VINA RESULT:     -13.0      2.461      5.321
REMARK SMILES Cc1ccc(-c2nc(NC(=O)[C@H]3[C@@H](C(=O)NCCCCCCNC(=O)c4ccc(-c5c6nc(c(-c7ccccc7)c7ccc([nH]7)c(-c7ccccc7)c7nc(c(-c8ccccc8)c8ccc5[nH]8)C=C7)C=C6)cc4)[C@@H]4CC[C@H]3O4)sc2C)cc1
REMARK SMILES IDX 19 1 18 2 17 3 16 4 14 5 15 6 13 8 12 9 77 10 74 11 76 12
REMARK SMILES IDX 78 13 75 14 10 15 9 16 11 18 8 19 6 20 7 21 80 22 79 23
REMARK SMILES IDX 81 24 5 25 1 26 2 27 3 28 83 29 4 30 82 31 20 32 21 33 22 34
REMARK SMILES IDX 23 35 24 36 25 38 26 39 27 40 73 41 28 42 72 43 29 44 30 45
REMARK SMILES IDX 31 46 66 47 32 48 71 49 65 50 67 51 33 52 70 53 64 54 63 55
REMARK SMILES IDX 34 57 56 58 41 59 55 60 42 61 45 62 54 63 68 64 43 65 44 66
REMARK SMILES IDX 53 68 69 69 46 70 35 71 36 72 40 73 37 74 39 75 38 76 57 77
REMARK SMILES IDX 58 78 62 79 59 80 61 81 60 82 47 83 48 84 52 85 49 86 51 87
REMARK SMILES IDX 50 88
REMARK H PARENT 16 7 9 17 23 37 67 56 45 67
REMARK Flexibility Score: inf
ROOT
ATOM      1  C   UNL A   1      37.040  21.711  25.760  1.00  0.00     0.002 C 
ENDROOT
BRANCH   1   2
ATOM      2  C   UNL A   1      37.316  23.210  25.851  1.00  0.00     0.021 C 
BRANCH   2   3
ATOM      3  C   UNL A   1      36.195  24.209  25.591  1.00  0.00     0.116 C 
BRANCH   3   4
ATOM      4  N   UNL A   1      35.206  23.849  24.598  1.00  0.00    -0.356 N 
ATOM      5  C   UNL A   1      34.507  24.720  23.811  1.00  0.00     0.226 C 
ATOM      6  O   UNL A   1      34.404  24.464  22.610  1.00  0.00    -0.275 OA
ATOM      7  H   UNL A   1      35.021  22.889  24.480  1.00  0.00     0.163 HD
BRANCH   5   8
ATOM      8  C   UNL A   1      34.013  26.015  24.401  1.00  0.00     0.122 C 
ATOM      9  C   UNL A   1      33.077  26.143  25.609  1.00  0.00     0.123 C 
ATOM     10  C   UNL A   1      32.511  27.547  25.316  1.00  0.00     0.132 C 
ATOM     11  C   UNL A   1      33.375  27.018  23.396  1.00  0.00     0.132 C 
ATOM     12  C   UNL A   1      33.617  28.615  25.093  1.00  0.00     0.035 C 
ATOM     13  O   UNL A   1      32.066  27.300  23.967  1.00  0.00    -0.373 OA
ATOM     14  C   UNL A   1      33.998  28.391  23.623  1.00  0.00     0.035 C 
BRANCH   9  15
ATOM     15  C   UNL A   1      31.898  25.304  26.197  1.00  0.00     0.232 C 
ATOM     16  N   UNL A   1      31.403  24.058  26.025  1.00  0.00    -0.302 N 
ATOM     17  H   UNL A   1      30.605  23.916  26.582  1.00  0.00     0.172 HD
ATOM     18  O   UNL A   1      31.211  25.949  27.025  1.00  0.00    -0.274 OA
BRANCH  16  19
ATOM     19  C   UNL A   1      31.701  22.939  25.297  1.00  0.00     0.190 A 
ATOM     20  C   UNL A   1      32.440  20.893  24.750  1.00  0.00     0.086 A 
ATOM     21  N   UNL A   1      32.196  21.815  25.793  1.00  0.00    -0.220 NA
ATOM     22  C   UNL A   1      32.013  21.349  23.509  1.00  0.00     0.031 A 
ATOM     23  S   UNL A   1      31.361  22.903  23.669  1.00  0.00    -0.101 S 
ATOM     24  C   UNL A   1      31.982  20.766  22.143  1.00  0.00     0.059 C 
BRANCH  20  25
ATOM     25  C   UNL A   1      33.066  19.570  24.934  1.00  0.00     0.001 A 
ATOM     26  C   UNL A   1      34.937  15.641  24.948  1.00  0.00     0.044 C 
ATOM     27  C   UNL A   1      34.294  16.998  24.977  1.00  0.00    -0.051 A 
ATOM     28  C   UNL A   1      32.968  17.174  25.404  1.00  0.00     0.004 A 
ATOM     29  C   UNL A   1      35.016  18.122  24.583  1.00  0.00     0.004 A 
ATOM     30  C   UNL A   1      32.357  18.448  25.380  1.00  0.00     0.010 A 
ATOM     31  C   UNL A   1      34.416  19.385  24.586  1.00  0.00     0.010 A 
ENDBRANCH  20  25
ENDBRANCH  16  19
ENDBRANCH   9  15
ENDBRANCH   5   8
ENDBRANCH   3   4
ENDBRANCH   2   3
ENDBRANCH   1   2
BRANCH   1  32
ATOM     32  C   UNL A   1      37.657  20.882  24.629  1.00  0.00     0.002 C 
BRANCH  32  33
ATOM     33  C   UNL A   1      38.472  19.640  24.982  1.00  0.00     0.021 C 
BRANCH  33  34
ATOM     34  C   UNL A   1      39.426  19.796  26.159  1.00  0.00     0.116 C 
BRANCH  34  35
ATOM     35  N   UNL A   1      40.830  19.856  25.778  1.00  0.00    -0.352 N 
ATOM     36  C   UNL A   1      41.755  20.882  25.923  1.00  0.00     0.251 C 
ATOM     37  H   UNL A   1      41.178  19.040  25.350  1.00  0.00     0.163 HD
ATOM     38  O   UNL A   1      42.895  20.724  25.568  1.00  0.00    -0.269 OA
BRANCH  36  39
ATOM     39  C   UNL A   1      41.358  22.123  26.649  1.00  0.00     0.039 A 
ATOM     40  C   UNL A   1      41.322  23.310  25.910  1.00  0.00     0.014 A 
ATOM     41  C   UNL A   1      41.204  22.157  28.032  1.00  0.00     0.014 A 
ATOM     42  C   UNL A   1      41.401  24.529  26.576  1.00  0.00     0.010 A 
ATOM     43  C   UNL A   1      41.373  23.353  28.697  1.00  0.00     0.010 A 
ATOM     44  C   UNL A   1      41.542  24.527  27.962  1.00  0.00    -0.014 A 
BRANCH  44  45
ATOM     45  C   UNL A   1      41.938  25.708  28.710  1.00  0.00     0.031 A 
ATOM     46  C   UNL A   1      40.947  26.749  29.002  1.00  0.00     0.074 A 
ATOM     47  C   UNL A   1      43.223  25.851  29.099  1.00  0.00     0.049 A 
ATOM     48  N   UNL A   1      41.216  28.007  29.085  1.00  0.00    -0.248 NA
ATOM     49  C   UNL A   1      39.533  26.439  29.160  1.00  0.00     0.031 C 
ATOM     50  C   UNL A   1      43.791  26.881  29.961  1.00  0.00     0.029 A 
ATOM     51  N   UNL A   1      44.327  25.195  28.560  1.00  0.00    -0.354 N 
ATOM     52  C   UNL A   1      40.097  28.625  29.594  1.00  0.00     0.074 A 
ATOM     53  C   UNL A   1      39.049  27.632  29.517  1.00  0.00     0.031 C 
ATOM     54  C   UNL A   1      45.108  26.971  29.707  1.00  0.00     0.029 A 
ATOM     55  C   UNL A   1      45.398  26.100  28.579  1.00  0.00     0.049 A 
ATOM     56  H   UNL A   1      44.350  24.269  28.227  1.00  0.00     0.167 HD
ATOM     57  C   UNL A   1      40.218  29.848  30.182  1.00  0.00     0.031 A 
ATOM     58  C   UNL A   1      45.977  26.502  27.410  1.00  0.00     0.031 A 
ATOM     59  C   UNL A   1      41.581  30.372  30.065  1.00  0.00     0.049 A 
ATOM     60  C   UNL A   1      45.829  27.983  27.143  1.00  0.00     0.074 A 
ATOM     61  C   UNL A   1      42.647  30.416  30.949  1.00  0.00     0.029 A 
ATOM     62  N   UNL A   1      42.105  30.648  28.806  1.00  0.00    -0.354 N 
ATOM     63  N   UNL A   1      44.958  28.758  27.731  1.00  0.00    -0.248 NA
ATOM     64  C   UNL A   1      46.637  28.700  26.160  1.00  0.00     0.031 C 
ATOM     65  C   UNL A   1      43.832  30.643  30.201  1.00  0.00     0.029 A 
ATOM     66  C   UNL A   1      43.481  30.772  28.868  1.00  0.00     0.049 A 
ATOM     67  H   UNL A   1      41.571  30.741  27.985  1.00  0.00     0.167 HD
ATOM     68  C   UNL A   1      45.069  30.033  27.237  1.00  0.00     0.074 A 
ATOM     69  C   UNL A   1      46.147  29.946  26.267  1.00  0.00     0.031 C 
ATOM     70  C   UNL A   1      44.259  31.048  27.663  1.00  0.00     0.031 A 
BRANCH  57  71
ATOM     71  C   UNL A   1      39.188  30.382  31.154  1.00  0.00    -0.014 A 
ATOM     72  C   UNL A   1      38.232  31.315  30.714  1.00  0.00     0.009 A 
ATOM     73  C   UNL A   1      39.152  30.072  32.524  1.00  0.00     0.009 A 
ATOM     74  C   UNL A   1      37.381  31.985  31.604  1.00  0.00     0.001 A 
ATOM     75  C   UNL A   1      38.338  30.769  33.428  1.00  0.00     0.001 A 
ATOM     76  C   UNL A   1      37.459  31.740  32.968  1.00  0.00     0.000 A 
ENDBRANCH  57  71
BRANCH  58  77
ATOM     77  C   UNL A   1      45.991  25.447  26.356  1.00  0.00    -0.014 A 
ATOM     78  C   UNL A   1      46.765  24.289  26.578  1.00  0.00     0.009 A 
ATOM     79  C   UNL A   1      45.009  25.410  25.357  1.00  0.00     0.009 A 
ATOM     80  C   UNL A   1      46.484  23.097  25.905  1.00  0.00     0.001 A 
ATOM     81  C   UNL A   1      44.742  24.216  24.674  1.00  0.00     0.001 A 
ATOM     82  C   UNL A   1      45.450  23.053  24.974  1.00  0.00     0.000 A 
ENDBRANCH  58  77
BRANCH  70  83
ATOM     83  C   UNL A   1      44.159  32.432  27.056  1.00  0.00    -0.014 A 
ATOM     84  C   UNL A   1      43.989  32.697  25.691  1.00  0.00     0.009 A 
ATOM     85  C   UNL A   1      44.123  33.552  27.918  1.00  0.00     0.009 A 
ATOM     86  C   UNL A   1      43.848  34.008  25.210  1.00  0.00     0.001 A 
ATOM     87  C   UNL A   1      43.931  34.855  27.450  1.00  0.00     0.001 A 
ATOM     88  C   UNL A   1      43.808  35.084  26.089  1.00  0.00     0.000 A 
ENDBRANCH  70  83
ENDBRANCH  44  45
ENDBRANCH  36  39
ENDBRANCH  34  35
ENDBRANCH  33  34
ENDBRANCH  32  33
ENDBRANCH   1  32
TORSDOF 16
ENDMDL
MODEL 3
REMARK VINA RESULT:     -12.7      2.665      4.247
REMARK SMILES Cc1ccc(-c2nc(NC(=O)[C@H]3[C@@H](C(=O)NCCCCCCNC(=O)c4ccc(-c5c6nc(c(-c7ccccc7)c7ccc([nH]7)c(-c7ccccc7)c7nc(c(-c8ccccc8)c8ccc5[nH]8)C=C7)C=C6)cc4)[C@@H]4CC[C@H]3O4)sc2C)cc1
REMARK SMILES IDX 19 1 18 2 17 3 16 4 14 5 15 6 13 8 12 9 77 10 74 11 76 12
REMARK SMILES IDX 78 13 75 14 10 15 9 16 11 18 8 19 6 20 7 21 80 22 79 23
REMARK SMILES IDX 81 24 5 25 1 26 2 27 3 28 83 29 4 30 82 31 20 32 21 33 22 34
REMARK SMILES IDX 23 35 24 36 25 38 26 39 27 40 73 41 28 42 72 43 29 44 30 45
REMARK SMILES IDX 31 46 66 47 32 48 71 49 65 50 67 51 33 52 70 53 64 54 63 55
REMARK SMILES IDX 34 57 56 58 41 59 55 60 42 61 45 62 54 63 68 64 43 65 44 66
REMARK SMILES IDX 53 68 69 69 46 70 35 71 36 72 40 73 37 74 39 75 38 76 57 77
REMARK SMILES IDX 58 78 62 79 59 80 61 81 60 82 47 83 48 84 52 85 49 86 51 87
REMARK SMILES IDX 50 88
REMARK H PARENT 16 7 9 17 23 37 67 56 45 67
REMARK Flexibility Score: inf
ROOT
ATOM      1  C   UNL A   1      37.519  23.457  25.433  1.00  0.00     0.002 C 
ENDROOT
BRANCH   1   2
ATOM      2  C   UNL A   1      37.297  22.114  24.740  1.00  0.00     0.021 C 
BRANCH   2   3
ATOM      3  C   UNL A   1      36.212  21.168  25.242  1.00  0.00     0.116 C 
BRANCH   3   4
ATOM      4  N   UNL A   1      35.526  21.537  26.461  1.00  0.00    -0.356 N 
ATOM      5  C   UNL A   1      34.172  21.559  26.644  1.00  0.00     0.226 C 
ATOM      6  O   UNL A   1      33.716  21.061  27.674  1.00  0.00    -0.275 OA
ATOM      7  H   UNL A   1      36.086  21.795  27.229  1.00  0.00     0.163 HD
BRANCH   5   8
ATOM      8  C   UNL A   1      33.285  22.057  25.532  1.00  0.00     0.122 C 
ATOM      9  C   UNL A   1      32.410  23.314  25.587  1.00  0.00     0.123 C 
ATOM     10  C   UNL A   1      31.384  22.931  24.501  1.00  0.00     0.132 C 
ATOM     11  C   UNL A   1      32.303  21.011  24.927  1.00  0.00     0.132 C 
ATOM     12  C   UNL A   1      32.045  22.523  23.156  1.00  0.00     0.035 C 
ATOM     13  O   UNL A   1      31.000  21.650  25.040  1.00  0.00    -0.373 OA
ATOM     14  C   UNL A   1      32.423  21.056  23.409  1.00  0.00     0.035 C 
BRANCH   9  15
ATOM     15  C   UNL A   1      31.615  24.068  26.700  1.00  0.00     0.232 C 
ATOM     16  N   UNL A   1      31.281  25.351  26.966  1.00  0.00    -0.302 N 
ATOM     17  H   UNL A   1      30.779  25.418  27.810  1.00  0.00     0.172 HD
ATOM     18  O   UNL A   1      31.192  23.300  27.598  1.00  0.00    -0.274 OA
BRANCH  16  19
ATOM     19  C   UNL A   1      31.442  26.581  26.392  1.00  0.00     0.190 A 
ATOM     20  C   UNL A   1      31.881  28.766  26.134  1.00  0.00     0.086 A 
ATOM     21  N   UNL A   1      31.909  27.657  27.009  1.00  0.00    -0.220 NA
ATOM     22  C   UNL A   1      31.476  28.435  24.847  1.00  0.00     0.031 A 
ATOM     23  S   UNL A   1      31.117  26.783  24.773  1.00  0.00    -0.101 S 
ATOM     24  C   UNL A   1      31.336  29.192  23.576  1.00  0.00     0.059 C 
BRANCH  20  25
ATOM     25  C   UNL A   1      32.252  30.142  26.518  1.00  0.00     0.001 A 
ATOM     26  C   UNL A   1      33.296  34.039  28.150  1.00  0.00     0.044 C 
ATOM     27  C   UNL A   1      32.942  32.706  27.555  1.00  0.00    -0.051 A 
ATOM     28  C   UNL A   1      31.745  32.509  26.850  1.00  0.00     0.004 A 
ATOM     29  C   UNL A   1      33.815  31.628  27.689  1.00  0.00     0.004 A 
ATOM     30  C   UNL A   1      31.400  31.238  26.338  1.00  0.00     0.010 A 
ATOM     31  C   UNL A   1      33.482  30.378  27.157  1.00  0.00     0.010 A 
ENDBRANCH  20  25
ENDBRANCH  16  19
ENDBRANCH   9  15
ENDBRANCH   5   8
ENDBRANCH   3   4
ENDBRANCH   2   3
ENDBRANCH   1   2
BRANCH   1  32
ATOM     32  C   UNL A   1      38.670  23.628  26.428  1.00  0.00     0.002 C 
BRANCH  32  33
ATOM     33  C   UNL A   1      39.654  22.477  26.626  1.00  0.00     0.021 C 
BRANCH  33  34
ATOM     34  C   UNL A   1      41.027  22.873  27.154  1.00  0.00     0.116 C 
BRANCH  34  35
ATOM     35  N   UNL A   1      41.857  23.566  26.179  1.00  0.00    -0.352 N 
ATOM     36  C   UNL A   1      42.014  24.926  25.942  1.00  0.00     0.251 C 
ATOM     37  H   UNL A   1      42.391  22.978  25.596  1.00  0.00     0.163 HD
ATOM     38  O   UNL A   1      42.785  25.308  25.099  1.00  0.00    -0.269 OA
BRANCH  36  39
ATOM     39  C   UNL A   1      41.329  25.905  26.834  1.00  0.00     0.039 A 
ATOM     40  C   UNL A   1      40.905  27.106  26.256  1.00  0.00     0.014 A 
ATOM     41  C   UNL A   1      41.268  25.735  28.214  1.00  0.00     0.014 A 
ATOM     42  C   UNL A   1      40.677  28.210  27.071  1.00  0.00     0.010 A 
ATOM     43  C   UNL A   1      41.132  26.844  29.022  1.00  0.00     0.010 A 
ATOM     44  C   UNL A   1      40.907  28.092  28.440  1.00  0.00    -0.014 A 
BRANCH  44  45
ATOM     45  C   UNL A   1      40.998  29.244  29.321  1.00  0.00     0.031 A 
ATOM     46  C   UNL A   1      39.853  30.150  29.452  1.00  0.00     0.074 A 
ATOM     47  C   UNL A   1      42.149  29.486  29.983  1.00  0.00     0.049 A 
ATOM     48  N   UNL A   1      39.948  31.419  29.662  1.00  0.00    -0.248 NA
ATOM     49  C   UNL A   1      38.483  29.685  29.286  1.00  0.00     0.031 C 
ATOM     50  C   UNL A   1      42.402  30.497  31.003  1.00  0.00     0.029 A 
ATOM     51  N   UNL A   1      43.410  28.993  29.656  1.00  0.00    -0.354 N 
ATOM     52  C   UNL A   1      38.685  31.875  29.954  1.00  0.00     0.074 A 
ATOM     53  C   UNL A   1      37.799  30.789  29.598  1.00  0.00     0.031 C 
ATOM     54  C   UNL A   1      43.723  30.743  31.042  1.00  0.00     0.029 A 
ATOM     55  C   UNL A   1      44.340  29.999  29.955  1.00  0.00     0.049 A 
ATOM     56  H   UNL A   1      43.610  28.104  29.285  1.00  0.00     0.167 HD
ATOM     57  C   UNL A   1      38.537  33.054  30.622  1.00  0.00     0.031 A 
ATOM     58  C   UNL A   1      45.097  30.551  28.962  1.00  0.00     0.031 A 
ATOM     59  C   UNL A   1      39.823  33.722  30.829  1.00  0.00     0.049 A 
ATOM     60  C   UNL A   1      44.833  32.026  28.753  1.00  0.00     0.074 A 
ATOM     61  C   UNL A   1      40.671  33.805  31.922  1.00  0.00     0.029 A 
ATOM     62  N   UNL A   1      40.560  34.151  29.728  1.00  0.00    -0.354 N 
ATOM     63  N   UNL A   1      43.775  32.657  29.184  1.00  0.00    -0.248 NA
ATOM     64  C   UNL A   1      45.737  32.898  28.009  1.00  0.00     0.031 C 
ATOM     65  C   UNL A   1      41.950  34.212  31.458  1.00  0.00     0.029 A 
ATOM     66  C   UNL A   1      41.869  34.411  30.090  1.00  0.00     0.049 A 
ATOM     67  H   UNL A   1      40.199  34.253  28.819  1.00  0.00     0.167 HD
ATOM     68  C   UNL A   1      43.834  33.972  28.798  1.00  0.00     0.074 A 
ATOM     69  C   UNL A   1      45.092  34.075  28.078  1.00  0.00     0.031 C 
ATOM     70  C   UNL A   1      42.840  34.861  29.098  1.00  0.00     0.031 A 
BRANCH  57  71
ATOM     71  C   UNL A   1      37.273  33.398  31.379  1.00  0.00    -0.014 A 
ATOM     72  C   UNL A   1      37.192  33.132  32.758  1.00  0.00     0.009 A 
ATOM     73  C   UNL A   1      36.105  33.908  30.787  1.00  0.00     0.009 A 
ATOM     74  C   UNL A   1      35.989  33.248  33.470  1.00  0.00     0.001 A 
ATOM     75  C   UNL A   1      34.887  33.985  31.478  1.00  0.00     0.001 A 
ATOM     76  C   UNL A   1      34.826  33.640  32.821  1.00  0.00     0.000 A 
ENDBRANCH  57  71
BRANCH  58  77
ATOM     77  C   UNL A   1      45.451  29.591  27.877  1.00  0.00    -0.014 A 
ATOM     78  C   UNL A   1      46.543  28.722  28.084  1.00  0.00     0.009 A 
ATOM     79  C   UNL A   1      44.544  29.287  26.854  1.00  0.00     0.009 A 
ATOM     80  C   UNL A   1      46.656  27.526  27.368  1.00  0.00     0.001 A 
ATOM     81  C   UNL A   1      44.669  28.095  26.129  1.00  0.00     0.001 A 
ATOM     82  C   UNL A   1      45.700  27.198  26.411  1.00  0.00     0.000 A 
ENDBRANCH  58  77
BRANCH  70  83
ATOM     83  C   UNL A   1      42.706  36.271  28.562  1.00  0.00    -0.014 A 
ATOM     84  C   UNL A   1      42.067  36.615  27.364  1.00  0.00     0.009 A 
ATOM     85  C   UNL A   1      43.154  37.348  29.362  1.00  0.00     0.009 A 
ATOM     86  C   UNL A   1      41.934  37.953  26.961  1.00  0.00     0.001 A 
ATOM     87  C   UNL A   1      42.978  38.684  28.991  1.00  0.00     0.001 A 
ATOM     88  C   UNL A   1      42.379  38.986  27.779  1.00  0.00     0.000 A 
ENDBRANCH  70  83
ENDBRANCH  44  45
ENDBRANCH  36  39
ENDBRANCH  34  35
ENDBRANCH  33  34
ENDBRANCH  32  33
ENDBRANCH   1  32
TORSDOF 16
ENDMDL
