MODEL 1
REMARK VINA RESULT:     -11.1      0.000      0.000
REMARK SMILES Cc1c(Cc2nc(C(C)(C)C)cs2)cccc1C(=O)NCCCCCCNC(=O)c1ccc(-c2c3nc(c(-c4ccccc4)c4ccc([nH]4)c(-c4ccccc4)c4nc(c(-c5ccccc5)c5ccc2[nH]5)C=C4)C=C3)cc1
REMARK SMILES IDX 23 1 22 2 21 3 20 4 18 5 19 6 17 8 1 9 2 10 3 11 14 12 16 13
REMARK SMILES IDX 15 14 4 15 5 16 6 17 13 18 7 19 12 20 8 21 9 22 10 23 11 24
REMARK SMILES IDX 24 25 25 26 26 27 27 28 28 29 29 31 30 32 31 33 77 34 32 35
REMARK SMILES IDX 76 36 33 37 34 38 35 39 70 40 36 41 75 42 69 43 71 44 37 45
REMARK SMILES IDX 74 46 68 47 67 48 38 50 60 51 45 52 59 53 46 54 49 55 58 56
REMARK SMILES IDX 72 57 47 58 48 59 57 61 73 62 50 63 39 64 40 65 44 66 41 67
REMARK SMILES IDX 43 68 42 69 61 70 62 71 66 72 63 73 65 74 64 75 51 76 52 77
REMARK SMILES IDX 56 78 53 79 55 80 54 81
REMARK H PARENT 20 7 27 30 71 49 49 60
REMARK Flexibility Score: inf
ROOT
ATOM      1  C   UNL A   1      32.729  27.554  24.617  1.00  0.00     0.002 C 
ENDROOT
BRANCH   1   2
ATOM      2  C   UNL A   1      31.285  27.564  25.138  1.00  0.00     0.021 C 
BRANCH   2   3
ATOM      3  C   UNL A   1      30.918  26.412  26.086  1.00  0.00     0.116 C 
BRANCH   3   4
ATOM      4  N   UNL A   1      30.626  25.220  25.316  1.00  0.00    -0.352 N 
ATOM      5  C   UNL A   1      31.338  24.087  25.021  1.00  0.00     0.251 C 
ATOM      6  O   UNL A   1      30.798  23.276  24.266  1.00  0.00    -0.269 OA
ATOM      7  H   UNL A   1      29.724  25.225  24.921  1.00  0.00     0.163 HD
BRANCH   5   8
ATOM      8  C   UNL A   1      32.652  23.719  25.634  1.00  0.00     0.043 A 
ATOM      9  C   UNL A   1      34.152  24.255  23.638  1.00  0.00     0.045 C 
ATOM     10  C   UNL A   1      33.943  23.859  25.070  1.00  0.00    -0.035 A 
ATOM     11  C   UNL A   1      35.079  23.517  25.856  1.00  0.00    -0.037 A 
ATOM     12  C   UNL A   1      34.890  22.824  27.068  1.00  0.00     0.004 A 
ATOM     13  C   UNL A   1      32.518  23.064  26.875  1.00  0.00     0.014 A 
ATOM     14  C   UNL A   1      33.621  22.584  27.568  1.00  0.00     0.001 A 
BRANCH  11  15
ATOM     15  C   UNL A   1      36.513  23.844  25.442  1.00  0.00     0.103 C 
BRANCH  15  16
ATOM     16  C   UNL A   1      37.436  22.662  25.616  1.00  0.00     0.097 A 
ATOM     17  N   UNL A   1      38.558  22.707  26.303  1.00  0.00    -0.245 NA
ATOM     18  S   UNL A   1      37.125  21.164  24.834  1.00  0.00    -0.127 S 
ATOM     19  C   UNL A   1      39.302  21.552  26.113  1.00  0.00     0.057 A 
ATOM     20  C   UNL A   1      38.644  20.581  25.376  1.00  0.00     0.091 A 
BRANCH  19  21
ATOM     21  C   UNL A   1      40.707  21.479  26.695  1.00  0.00     0.005 C 
ATOM     22  C   UNL A   1      41.119  20.012  26.901  1.00  0.00     0.017 C 
ATOM     23  C   UNL A   1      41.716  22.164  25.751  1.00  0.00     0.017 C 
ATOM     24  C   UNL A   1      40.782  22.201  28.059  1.00  0.00     0.017 C 
ENDBRANCH  19  21
ENDBRANCH  15  16
ENDBRANCH  11  15
ENDBRANCH   5   8
ENDBRANCH   3   4
ENDBRANCH   2   3
ENDBRANCH   1   2
BRANCH   1  25
ATOM     25  C   UNL A   1      33.840  27.570  25.677  1.00  0.00     0.002 C 
BRANCH  25  26
ATOM     26  C   UNL A   1      34.303  28.952  26.143  1.00  0.00     0.021 C 
BRANCH  26  27
ATOM     27  C   UNL A   1      33.872  29.318  27.560  1.00  0.00     0.116 C 
BRANCH  27  28
ATOM     28  N   UNL A   1      34.388  30.602  28.020  1.00  0.00    -0.352 N 
ATOM     29  C   UNL A   1      35.655  30.936  28.453  1.00  0.00     0.251 C 
ATOM     30  H   UNL A   1      33.736  31.340  28.022  1.00  0.00     0.163 HD
ATOM     31  O   UNL A   1      35.888  32.081  28.839  1.00  0.00    -0.269 OA
BRANCH  29  32
ATOM     32  C   UNL A   1      36.763  29.958  28.339  1.00  0.00     0.039 A 
ATOM     33  C   UNL A   1      36.930  29.034  29.379  1.00  0.00     0.014 A 
ATOM     34  C   UNL A   1      37.716  30.049  27.328  1.00  0.00     0.014 A 
ATOM     35  C   UNL A   1      38.153  28.385  29.529  1.00  0.00     0.010 A 
ATOM     36  C   UNL A   1      38.957  29.472  27.518  1.00  0.00     0.010 A 
ATOM     37  C   UNL A   1      39.195  28.696  28.656  1.00  0.00    -0.014 A 
BRANCH  37  38
ATOM     38  C   UNL A   1      40.586  28.357  28.927  1.00  0.00     0.031 A 
ATOM     39  C   UNL A   1      41.198  27.149  28.351  1.00  0.00     0.074 A 
ATOM     40  C   UNL A   1      41.329  29.176  29.703  1.00  0.00     0.049 A 
ATOM     41  N   UNL A   1      42.218  26.544  28.863  1.00  0.00    -0.248 NA
ATOM     42  C   UNL A   1      40.669  26.491  27.164  1.00  0.00     0.031 C 
ATOM     43  C   UNL A   1      42.774  29.152  29.908  1.00  0.00     0.029 A 
ATOM     44  N   UNL A   1      40.855  30.062  30.668  1.00  0.00    -0.354 N 
ATOM     45  C   UNL A   1      42.641  25.605  27.957  1.00  0.00     0.074 A 
ATOM     46  C   UNL A   1      41.604  25.559  26.948  1.00  0.00     0.031 C 
ATOM     47  C   UNL A   1      43.053  29.762  31.071  1.00  0.00     0.029 A 
ATOM     48  C   UNL A   1      41.788  30.060  31.721  1.00  0.00     0.049 A 
ATOM     49  H   UNL A   1      40.026  30.590  30.622  1.00  0.00     0.167 HD
ATOM     50  C   UNL A   1      43.878  25.052  28.087  1.00  0.00     0.031 A 
ATOM     51  C   UNL A   1      41.422  29.629  32.965  1.00  0.00     0.031 A 
ATOM     52  C   UNL A   1      44.571  25.503  29.292  1.00  0.00     0.049 A 
ATOM     53  C   UNL A   1      42.172  28.405  33.456  1.00  0.00     0.074 A 
ATOM     54  C   UNL A   1      45.588  26.408  29.545  1.00  0.00     0.029 A 
ATOM     55  N   UNL A   1      44.025  25.189  30.525  1.00  0.00    -0.354 N 
ATOM     56  N   UNL A   1      43.032  27.727  32.747  1.00  0.00    -0.248 NA
ATOM     57  C   UNL A   1      41.918  27.787  34.760  1.00  0.00     0.031 C 
ATOM     58  C   UNL A   1      45.648  26.630  30.950  1.00  0.00     0.029 A 
ATOM     59  C   UNL A   1      44.674  25.851  31.547  1.00  0.00     0.049 A 
ATOM     60  H   UNL A   1      43.269  24.571  30.656  1.00  0.00     0.167 HD
ATOM     61  C   UNL A   1      43.396  26.601  33.434  1.00  0.00     0.074 A 
ATOM     62  C   UNL A   1      42.679  26.682  34.692  1.00  0.00     0.031 C 
ATOM     63  C   UNL A   1      44.219  25.650  32.910  1.00  0.00     0.031 A 
BRANCH  50  64
ATOM     64  C   UNL A   1      44.548  24.268  26.987  1.00  0.00    -0.014 A 
ATOM     65  C   UNL A   1      44.716  24.854  25.719  1.00  0.00     0.009 A 
ATOM     66  C   UNL A   1      44.997  22.944  27.121  1.00  0.00     0.009 A 
ATOM     67  C   UNL A   1      45.207  24.128  24.626  1.00  0.00     0.001 A 
ATOM     68  C   UNL A   1      45.449  22.198  26.024  1.00  0.00     0.001 A 
ATOM     69  C   UNL A   1      45.542  22.788  24.772  1.00  0.00     0.000 A 
ENDBRANCH  50  64
BRANCH  51  70
ATOM     70  C   UNL A   1      39.997  29.923  33.295  1.00  0.00    -0.014 A 
ATOM     71  C   UNL A   1      39.635  31.254  33.586  1.00  0.00     0.009 A 
ATOM     72  C   UNL A   1      38.984  29.004  32.993  1.00  0.00     0.009 A 
ATOM     73  C   UNL A   1      38.310  31.679  33.456  1.00  0.00     0.001 A 
ATOM     74  C   UNL A   1      37.654  29.430  32.887  1.00  0.00     0.001 A 
ATOM     75  C   UNL A   1      37.325  30.771  33.081  1.00  0.00     0.000 A 
ENDBRANCH  51  70
BRANCH  63  76
ATOM     76  C   UNL A   1      44.638  24.416  33.652  1.00  0.00    -0.014 A 
ATOM     77  C   UNL A   1      43.778  23.324  33.835  1.00  0.00     0.009 A 
ATOM     78  C   UNL A   1      45.887  24.372  34.302  1.00  0.00     0.009 A 
ATOM     79  C   UNL A   1      44.174  22.214  34.592  1.00  0.00     0.001 A 
ATOM     80  C   UNL A   1      46.275  23.277  35.076  1.00  0.00     0.001 A 
ATOM     81  C   UNL A   1      45.421  22.191  35.212  1.00  0.00     0.000 A 
ENDBRANCH  63  76
ENDBRANCH  37  38
ENDBRANCH  29  32
ENDBRANCH  27  28
ENDBRANCH  26  27
ENDBRANCH  25  26
ENDBRANCH   1  25
TORSDOF 16
ENDMDL
MODEL 2
REMARK VINA RESULT:     -10.9      1.758      2.898
REMARK SMILES Cc1c(Cc2nc(C(C)(C)C)cs2)cccc1C(=O)NCCCCCCNC(=O)c1ccc(-c2c3nc(c(-c4ccccc4)c4ccc([nH]4)c(-c4ccccc4)c4nc(c(-c5ccccc5)c5ccc2[nH]5)C=C4)C=C3)cc1
REMARK SMILES IDX 23 1 22 2 21 3 20 4 18 5 19 6 17 8 1 9 2 10 3 11 14 12 16 13
REMARK SMILES IDX 15 14 4 15 5 16 6 17 13 18 7 19 12 20 8 21 9 22 10 23 11 24
REMARK SMILES IDX 24 25 25 26 26 27 27 28 28 29 29 31 30 32 31 33 77 34 32 35
REMARK SMILES IDX 76 36 33 37 34 38 35 39 70 40 36 41 75 42 69 43 71 44 37 45
REMARK SMILES IDX 74 46 68 47 67 48 38 50 60 51 45 52 59 53 46 54 49 55 58 56
REMARK SMILES IDX 72 57 47 58 48 59 57 61 73 62 50 63 39 64 40 65 44 66 41 67
REMARK SMILES IDX 43 68 42 69 61 70 62 71 66 72 63 73 65 74 64 75 51 76 52 77
REMARK SMILES IDX 56 78 53 79 55 80 54 81
REMARK H PARENT 20 7 27 30 71 49 49 60
REMARK Flexibility Score: inf
ROOT
ATOM      1  C   UNL A   1      34.202  28.156  26.147  1.00  0.00     0.002 C 
ENDROOT
BRANCH   1   2
ATOM      2  C   UNL A   1      33.962  27.585  24.742  1.00  0.00     0.021 C 
BRANCH   2   3
ATOM      3  C   UNL A   1      33.993  28.611  23.599  1.00  0.00     0.116 C 
BRANCH   3   4
ATOM      4  N   UNL A   1      32.655  29.112  23.357  1.00  0.00    -0.352 N 
ATOM      5  C   UNL A   1      31.416  28.528  23.335  1.00  0.00     0.251 C 
ATOM      6  O   UNL A   1      30.468  29.254  23.025  1.00  0.00    -0.269 OA
ATOM      7  H   UNL A   1      32.631  30.079  23.169  1.00  0.00     0.163 HD
BRANCH   5   8
ATOM      8  C   UNL A   1      31.123  27.126  23.765  1.00  0.00     0.043 A 
ATOM      9  C   UNL A   1      31.922  25.919  21.662  1.00  0.00     0.045 C 
ATOM     10  C   UNL A   1      31.413  25.925  23.073  1.00  0.00    -0.035 A 
ATOM     11  C   UNL A   1      31.119  24.682  23.699  1.00  0.00    -0.037 A 
ATOM     12  C   UNL A   1      30.332  24.670  24.867  1.00  0.00     0.004 A 
ATOM     13  C   UNL A   1      30.376  27.060  24.960  1.00  0.00     0.014 A 
ATOM     14  C   UNL A   1      29.948  25.849  25.486  1.00  0.00     0.001 A 
BRANCH  11  15
ATOM     15  C   UNL A   1      31.597  23.336  23.153  1.00  0.00     0.103 C 
BRANCH  15  16
ATOM     16  C   UNL A   1      32.708  22.748  23.990  1.00  0.00     0.097 A 
ATOM     17  N   UNL A   1      33.964  23.134  23.911  1.00  0.00    -0.245 NA
ATOM     18  S   UNL A   1      32.419  21.439  25.064  1.00  0.00    -0.127 S 
ATOM     19  C   UNL A   1      34.790  22.282  24.628  1.00  0.00     0.057 A 
ATOM     20  C   UNL A   1      34.105  21.328  25.361  1.00  0.00     0.091 A 
BRANCH  19  21
ATOM     21  C   UNL A   1      36.298  22.466  24.529  1.00  0.00     0.005 C 
ATOM     22  C   UNL A   1      36.776  23.493  25.570  1.00  0.00     0.017 C 
ATOM     23  C   UNL A   1      37.020  21.125  24.769  1.00  0.00     0.017 C 
ATOM     24  C   UNL A   1      36.707  22.970  23.127  1.00  0.00     0.017 C 
ENDBRANCH  19  21
ENDBRANCH  15  16
ENDBRANCH  11  15
ENDBRANCH   5   8
ENDBRANCH   3   4
ENDBRANCH   2   3
ENDBRANCH   1   2
BRANCH   1  25
ATOM     25  C   UNL A   1      32.955  28.398  27.010  1.00  0.00     0.002 C 
BRANCH  25  26
ATOM     26  C   UNL A   1      32.626  29.861  27.317  1.00  0.00     0.021 C 
BRANCH  26  27
ATOM     27  C   UNL A   1      33.792  30.825  27.119  1.00  0.00     0.116 C 
BRANCH  27  28
ATOM     28  N   UNL A   1      34.150  31.571  28.319  1.00  0.00    -0.352 N 
ATOM     29  C   UNL A   1      35.181  31.362  29.211  1.00  0.00     0.251 C 
ATOM     30  H   UNL A   1      33.568  32.340  28.523  1.00  0.00     0.163 HD
ATOM     31  O   UNL A   1      35.297  32.090  30.196  1.00  0.00    -0.269 OA
BRANCH  29  32
ATOM     32  C   UNL A   1      36.219  30.343  28.923  1.00  0.00     0.039 A 
ATOM     33  C   UNL A   1      36.525  29.417  29.928  1.00  0.00     0.014 A 
ATOM     34  C   UNL A   1      36.993  30.397  27.766  1.00  0.00     0.014 A 
ATOM     35  C   UNL A   1      37.731  28.724  29.879  1.00  0.00     0.010 A 
ATOM     36  C   UNL A   1      38.227  29.775  27.752  1.00  0.00     0.010 A 
ATOM     37  C   UNL A   1      38.624  28.994  28.841  1.00  0.00    -0.014 A 
BRANCH  37  38
ATOM     38  C   UNL A   1      40.027  28.605  28.880  1.00  0.00     0.031 A 
ATOM     39  C   UNL A   1      40.464  27.292  28.379  1.00  0.00     0.074 A 
ATOM     40  C   UNL A   1      40.943  29.472  29.364  1.00  0.00     0.049 A 
ATOM     41  N   UNL A   1      41.545  26.698  28.764  1.00  0.00    -0.248 NA
ATOM     42  C   UNL A   1      39.680  26.513  27.430  1.00  0.00     0.031 C 
ATOM     43  C   UNL A   1      42.397  29.382  29.282  1.00  0.00     0.029 A 
ATOM     44  N   UNL A   1      40.709  30.511  30.263  1.00  0.00    -0.354 N 
ATOM     45  C   UNL A   1      41.738  25.618  27.940  1.00  0.00     0.074 A 
ATOM     46  C   UNL A   1      40.517  25.502  27.173  1.00  0.00     0.031 C 
ATOM     47  C   UNL A   1      42.930  30.126  30.264  1.00  0.00     0.029 A 
ATOM     48  C   UNL A   1      41.836  30.593  31.100  1.00  0.00     0.049 A 
ATOM     49  H   UNL A   1      39.907  31.081  30.304  1.00  0.00     0.167 HD
ATOM     50  C   UNL A   1      42.955  25.008  27.904  1.00  0.00     0.031 A 
ATOM     51  C   UNL A   1      41.717  30.361  32.441  1.00  0.00     0.031 A 
ATOM     52  C   UNL A   1      43.895  25.573  28.869  1.00  0.00     0.049 A 
ATOM     53  C   UNL A   1      42.507  29.170  32.949  1.00  0.00     0.074 A 
ATOM     54  C   UNL A   1      44.976  26.436  28.780  1.00  0.00     0.029 A 
ATOM     55  N   UNL A   1      43.603  25.467  30.218  1.00  0.00    -0.354 N 
ATOM     56  N   UNL A   1      43.178  28.346  32.193  1.00  0.00    -0.248 NA
ATOM     57  C   UNL A   1      42.502  28.755  34.355  1.00  0.00     0.031 C 
ATOM     58  C   UNL A   1      45.329  26.844  30.097  1.00  0.00     0.029 A 
ATOM     59  C   UNL A   1      44.471  26.219  30.982  1.00  0.00     0.049 A 
ATOM     60  H   UNL A   1      42.867  24.924  30.585  1.00  0.00     0.167 HD
ATOM     61  C   UNL A   1      43.633  27.303  32.953  1.00  0.00     0.074 A 
ATOM     62  C   UNL A   1      43.192  27.602  34.302  1.00  0.00     0.031 C 
ATOM     63  C   UNL A   1      44.297  26.237  32.423  1.00  0.00     0.031 A 
BRANCH  50  64
ATOM     64  C   UNL A   1      43.357  24.039  26.822  1.00  0.00    -0.014 A 
ATOM     65  C   UNL A   1      43.904  24.525  25.621  1.00  0.00     0.009 A 
ATOM     66  C   UNL A   1      43.187  22.647  26.905  1.00  0.00     0.009 A 
ATOM     67  C   UNL A   1      44.169  23.685  24.532  1.00  0.00     0.001 A 
ATOM     68  C   UNL A   1      43.408  21.804  25.806  1.00  0.00     0.001 A 
ATOM     69  C   UNL A   1      43.888  22.327  24.614  1.00  0.00     0.000 A 
ENDBRANCH  50  64
BRANCH  51  70
ATOM     70  C   UNL A   1      40.401  30.791  32.998  1.00  0.00    -0.014 A 
ATOM     71  C   UNL A   1      39.331  29.873  32.978  1.00  0.00     0.009 A 
ATOM     72  C   UNL A   1      40.303  31.918  33.824  1.00  0.00     0.009 A 
ATOM     73  C   UNL A   1      38.250  30.017  33.852  1.00  0.00     0.001 A 
ATOM     74  C   UNL A   1      39.207  32.070  34.682  1.00  0.00     0.001 A 
ATOM     75  C   UNL A   1      38.203  31.102  34.723  1.00  0.00     0.000 A 
ENDBRANCH  51  70
BRANCH  63  76
ATOM     76  C   UNL A   1      44.813  25.092  33.241  1.00  0.00    -0.014 A 
ATOM     77  C   UNL A   1      46.133  25.042  33.710  1.00  0.00     0.009 A 
ATOM     78  C   UNL A   1      44.007  23.958  33.458  1.00  0.00     0.009 A 
ATOM     79  C   UNL A   1      46.608  23.927  34.413  1.00  0.00     0.001 A 
ATOM     80  C   UNL A   1      44.483  22.836  34.139  1.00  0.00     0.001 A 
ATOM     81  C   UNL A   1      45.783  22.825  34.626  1.00  0.00     0.000 A 
ENDBRANCH  63  76
ENDBRANCH  37  38
ENDBRANCH  29  32
ENDBRANCH  27  28
ENDBRANCH  26  27
ENDBRANCH  25  26
ENDBRANCH   1  25
TORSDOF 16
ENDMDL
MODEL 3
REMARK VINA RESULT:     -10.7      3.187      8.660
REMARK SMILES Cc1c(Cc2nc(C(C)(C)C)cs2)cccc1C(=O)NCCCCCCNC(=O)c1ccc(-c2c3nc(c(-c4ccccc4)c4ccc([nH]4)c(-c4ccccc4)c4nc(c(-c5ccccc5)c5ccc2[nH]5)C=C4)C=C3)cc1
REMARK SMILES IDX 23 1 22 2 21 3 20 4 18 5 19 6 17 8 1 9 2 10 3 11 14 12 16 13
REMARK SMILES IDX 15 14 4 15 5 16 6 17 13 18 7 19 12 20 8 21 9 22 10 23 11 24
REMARK SMILES IDX 24 25 25 26 26 27 27 28 28 29 29 31 30 32 31 33 77 34 32 35
REMARK SMILES IDX 76 36 33 37 34 38 35 39 70 40 36 41 75 42 69 43 71 44 37 45
REMARK SMILES IDX 74 46 68 47 67 48 38 50 60 51 45 52 59 53 46 54 49 55 58 56
REMARK SMILES IDX 72 57 47 58 48 59 57 61 73 62 50 63 39 64 40 65 44 66 41 67
REMARK SMILES IDX 43 68 42 69 61 70 62 71 66 72 63 73 65 74 64 75 51 76 52 77
REMARK SMILES IDX 56 78 53 79 55 80 54 81
REMARK H PARENT 20 7 27 30 71 49 49 60
REMARK Flexibility Score: inf
ROOT
ATOM      1  C   UNL A   1      37.676  23.611  25.862  1.00  0.00     0.002 C 
ENDROOT
BRANCH   1   2
ATOM      2  C   UNL A   1      36.651  22.728  25.136  1.00  0.00     0.021 C 
BRANCH   2   3
ATOM      3  C   UNL A   1      35.702  21.934  26.046  1.00  0.00     0.116 C 
BRANCH   3   4
ATOM      4  N   UNL A   1      34.998  20.937  25.266  1.00  0.00    -0.352 N 
ATOM      5  C   UNL A   1      33.735  20.868  24.739  1.00  0.00     0.251 C 
ATOM      6  O   UNL A   1      33.431  19.819  24.166  1.00  0.00    -0.269 OA
ATOM      7  H   UNL A   1      35.542  20.139  25.073  1.00  0.00     0.163 HD
BRANCH   5   8
ATOM      8  C   UNL A   1      32.757  22.000  24.709  1.00  0.00     0.043 A 
ATOM      9  C   UNL A   1      33.781  23.322  22.779  1.00  0.00     0.045 C 
ATOM     10  C   UNL A   1      32.700  23.075  23.790  1.00  0.00    -0.035 A 
ATOM     11  C   UNL A   1      31.635  24.013  23.892  1.00  0.00    -0.037 A 
ATOM     12  C   UNL A   1      30.813  23.995  25.036  1.00  0.00     0.004 A 
ATOM     13  C   UNL A   1      31.878  21.999  25.812  1.00  0.00     0.014 A 
ATOM     14  C   UNL A   1      30.942  23.007  25.999  1.00  0.00     0.001 A 
BRANCH  11  15
ATOM     15  C   UNL A   1      31.342  25.067  22.825  1.00  0.00     0.103 C 
BRANCH  15  16
ATOM     16  C   UNL A   1      31.406  26.470  23.383  1.00  0.00     0.097 A 
ATOM     17  N   UNL A   1      32.101  26.799  24.451  1.00  0.00    -0.245 NA
ATOM     18  S   UNL A   1      30.481  27.745  22.698  1.00  0.00    -0.127 S 
ATOM     19  C   UNL A   1      31.804  28.092  24.855  1.00  0.00     0.057 A 
ATOM     20  C   UNL A   1      30.973  28.772  23.981  1.00  0.00     0.091 A 
BRANCH  19  21
ATOM     21  C   UNL A   1      32.385  28.603  26.167  1.00  0.00     0.005 C 
ATOM     22  C   UNL A   1      31.700  27.907  27.356  1.00  0.00     0.017 C 
ATOM     23  C   UNL A   1      33.902  28.333  26.225  1.00  0.00     0.017 C 
ATOM     24  C   UNL A   1      32.177  30.127  26.311  1.00  0.00     0.017 C 
ENDBRANCH  19  21
ENDBRANCH  15  16
ENDBRANCH  11  15
ENDBRANCH   5   8
ENDBRANCH   3   4
ENDBRANCH   2   3
ENDBRANCH   1   2
BRANCH   1  25
ATOM     25  C   UNL A   1      38.879  22.890  26.488  1.00  0.00     0.002 C 
BRANCH  25  26
ATOM     26  C   UNL A   1      39.297  21.578  25.820  1.00  0.00     0.021 C 
BRANCH  26  27
ATOM     27  C   UNL A   1      40.249  20.723  26.650  1.00  0.00     0.116 C 
BRANCH  27  28
ATOM     28  N   UNL A   1      41.384  20.204  25.895  1.00  0.00    -0.352 N 
ATOM     29  C   UNL A   1      42.681  20.667  25.827  1.00  0.00     0.251 C 
ATOM     30  H   UNL A   1      41.196  19.403  25.353  1.00  0.00     0.163 HD
ATOM     31  O   UNL A   1      43.496  20.105  25.096  1.00  0.00    -0.269 OA
BRANCH  29  32
ATOM     32  C   UNL A   1      43.130  21.760  26.723  1.00  0.00     0.039 A 
ATOM     33  C   UNL A   1      42.760  21.694  28.073  1.00  0.00     0.014 A 
ATOM     34  C   UNL A   1      43.748  22.905  26.226  1.00  0.00     0.014 A 
ATOM     35  C   UNL A   1      42.792  22.848  28.850  1.00  0.00     0.010 A 
ATOM     36  C   UNL A   1      43.705  24.070  26.967  1.00  0.00     0.010 A 
ATOM     37  C   UNL A   1      43.162  24.054  28.255  1.00  0.00    -0.014 A 
BRANCH  37  38
ATOM     38  C   UNL A   1      42.896  25.352  28.861  1.00  0.00     0.031 A 
ATOM     39  C   UNL A   1      41.710  26.137  28.483  1.00  0.00     0.074 A 
ATOM     40  C   UNL A   1      43.741  25.832  29.800  1.00  0.00     0.049 A 
ATOM     41  N   UNL A   1      41.626  27.419  28.607  1.00  0.00    -0.248 NA
ATOM     42  C   UNL A   1      40.529  25.533  27.880  1.00  0.00     0.031 C 
ATOM     43  C   UNL A   1      43.544  26.975  30.685  1.00  0.00     0.029 A 
ATOM     44  N   UNL A   1      45.084  25.496  29.958  1.00  0.00    -0.354 N 
ATOM     45  C   UNL A   1      40.322  27.774  28.365  1.00  0.00     0.074 A 
ATOM     46  C   UNL A   1      39.694  26.577  27.848  1.00  0.00     0.031 C 
ATOM     47  C   UNL A   1      44.746  27.413  31.094  1.00  0.00     0.029 A 
ATOM     48  C   UNL A   1      45.755  26.663  30.364  1.00  0.00     0.049 A 
ATOM     49  H   UNL A   1      45.487  24.610  29.813  1.00  0.00     0.167 HD
ATOM     50  C   UNL A   1      39.878  29.004  28.741  1.00  0.00     0.031 A 
ATOM     51  C   UNL A   1      46.724  27.212  29.573  1.00  0.00     0.031 A 
ATOM     52  C   UNL A   1      40.941  29.840  29.294  1.00  0.00     0.049 A 
ATOM     53  C   UNL A   1      46.414  28.609  29.071  1.00  0.00     0.074 A 
ATOM     54  C   UNL A   1      41.306  30.224  30.574  1.00  0.00     0.029 A 
ATOM     55  N   UNL A   1      41.998  30.196  28.474  1.00  0.00    -0.354 N 
ATOM     56  N   UNL A   1      45.287  29.236  29.268  1.00  0.00    -0.248 NA
ATOM     57  C   UNL A   1      47.324  29.363  28.204  1.00  0.00     0.031 C 
ATOM     58  C   UNL A   1      42.598  30.819  30.509  1.00  0.00     0.029 A 
ATOM     59  C   UNL A   1      43.008  30.805  29.189  1.00  0.00     0.049 A 
ATOM     60  H   UNL A   1      42.025  30.034  27.503  1.00  0.00     0.167 HD
ATOM     61  C   UNL A   1      45.285  30.400  28.548  1.00  0.00     0.074 A 
ATOM     62  C   UNL A   1      46.582  30.442  27.901  1.00  0.00     0.031 C 
ATOM     63  C   UNL A   1      44.205  31.229  28.486  1.00  0.00     0.031 A 
BRANCH  50  64
ATOM     64  C   UNL A   1      38.416  29.364  28.811  1.00  0.00    -0.014 A 
ATOM     65  C   UNL A   1      37.757  29.824  27.657  1.00  0.00     0.009 A 
ATOM     66  C   UNL A   1      37.644  29.311  29.984  1.00  0.00     0.009 A 
ATOM     67  C   UNL A   1      36.439  30.299  27.694  1.00  0.00     0.001 A 
ATOM     68  C   UNL A   1      36.342  29.825  30.041  1.00  0.00     0.001 A 
ATOM     69  C   UNL A   1      35.742  30.331  28.896  1.00  0.00     0.000 A 
ENDBRANCH  50  64
BRANCH  51  70
ATOM     70  C   UNL A   1      47.495  26.198  28.798  1.00  0.00    -0.014 A 
ATOM     71  C   UNL A   1      47.129  25.954  27.458  1.00  0.00     0.009 A 
ATOM     72  C   UNL A   1      48.747  25.751  29.242  1.00  0.00     0.009 A 
ATOM     73  C   UNL A   1      48.040  25.390  26.560  1.00  0.00     0.001 A 
ATOM     74  C   UNL A   1      49.647  25.166  28.344  1.00  0.00     0.001 A 
ATOM     75  C   UNL A   1      49.307  25.021  26.998  1.00  0.00     0.000 A 
ENDBRANCH  51  70
BRANCH  63  76
ATOM     76  C   UNL A   1      44.188  32.513  27.713  1.00  0.00    -0.014 A 
ATOM     77  C   UNL A   1      43.987  33.756  28.329  1.00  0.00     0.009 A 
ATOM     78  C   UNL A   1      44.251  32.492  26.305  1.00  0.00     0.009 A 
ATOM     79  C   UNL A   1      43.907  34.932  27.572  1.00  0.00     0.001 A 
ATOM     80  C   UNL A   1      44.150  33.660  25.547  1.00  0.00     0.001 A 
ATOM     81  C   UNL A   1      43.988  34.883  26.183  1.00  0.00     0.000 A 
ENDBRANCH  63  76
ENDBRANCH  37  38
ENDBRANCH  29  32
ENDBRANCH  27  28
ENDBRANCH  26  27
ENDBRANCH  25  26
ENDBRANCH   1  25
TORSDOF 16
ENDMDL
