MODEL 1
REMARK VINA RESULT:     -11.6      0.000      0.000
REMARK SMILES Cc1ccc(S(=O)(=O)n2cc(C(=O)C(=O)NCC(=O)NCCCCCCNC(=O)c3ccc(-c4c5nc(c(-c6ccccc6)c6ccc([nH]6)c(-c6ccccc6)c6nc(c(-c7ccccc7)c7ccc4[nH]7)C=C6)C=C5)cc3)c3ccccc32)cc1
REMARK SMILES IDX 22 1 21 2 20 3 18 4 19 5 17 7 16 8 14 9 15 10 12 12 13 13
REMARK SMILES IDX 11 14 9 15 10 16 83 17 78 18 82 19 79 20 81 21 80 22 6 23
REMARK SMILES IDX 7 24 8 25 5 26 1 27 2 28 3 29 85 30 4 31 84 32 23 33 24 34
REMARK SMILES IDX 25 35 26 36 27 37 28 38 29 40 30 41 31 42 77 43 32 44 76 45
REMARK SMILES IDX 33 46 34 47 35 48 70 49 36 50 75 51 69 52 71 53 37 54 74 55
REMARK SMILES IDX 68 56 67 57 38 59 60 60 45 61 59 62 46 63 49 64 58 65 72 66
REMARK SMILES IDX 47 67 48 68 57 70 73 71 50 72 39 73 40 74 44 75 41 76 43 77
REMARK SMILES IDX 42 78 61 79 62 80 66 81 63 82 65 83 64 84 51 85 52 86 56 87
REMARK SMILES IDX 53 88 55 89 54 90
REMARK H PARENT 20 6 16 11 27 39 71 58 49 69
REMARK Flexibility Score: inf
ROOT
ATOM      1  C   UNL A   1      31.479  29.313  26.116  1.00  0.00     0.021 C 
ENDROOT
BRANCH   1   2
ATOM      2  C   UNL A   1      31.931  28.669  24.806  1.00  0.00     0.116 C 
BRANCH   2   3
ATOM      3  N   UNL A   1      31.273  29.273  23.671  1.00  0.00    -0.355 N 
ATOM      4  C   UNL A   1      30.711  28.684  22.578  1.00  0.00     0.239 C 
ATOM      5  O   UNL A   1      30.135  29.409  21.764  1.00  0.00    -0.273 OA
ATOM      6  H   UNL A   1      31.223  30.256  23.689  1.00  0.00     0.163 HD
BRANCH   4   7
ATOM      7  C   UNL A   1      30.665  27.157  22.449  1.00  0.00     0.216 C 
BRANCH   7   8
ATOM      8  N   UNL A   1      31.498  26.615  21.380  1.00  0.00    -0.340 N 
ATOM      9  C   UNL A   1      32.719  25.970  21.411  1.00  0.00     0.292 C 
ATOM     10  O   UNL A   1      33.195  25.577  20.351  1.00  0.00    -0.265 OA
ATOM     11  H   UNL A   1      31.124  26.729  20.476  1.00  0.00     0.164 HD
BRANCH   9  12
ATOM     12  C   UNL A   1      33.501  25.781  22.740  1.00  0.00     0.252 C 
ATOM     13  O   UNL A   1      34.092  26.749  23.210  1.00  0.00    -0.283 OA
BRANCH  12  14
ATOM     14  C   UNL A   1      33.568  24.480  23.428  1.00  0.00     0.054 A 
ATOM     15  N   UNL A   1      33.055  22.670  24.636  1.00  0.00    -0.240 N 
ATOM     16  C   UNL A   1      32.546  23.817  24.083  1.00  0.00     0.117 A 
ATOM     17  C   UNL A   1      34.393  22.524  24.343  1.00  0.00     0.065 A 
ATOM     18  C   UNL A   1      34.743  23.652  23.586  1.00  0.00     0.012 A 
ATOM     19  C   UNL A   1      35.338  21.542  24.696  1.00  0.00     0.028 A 
ATOM     20  C   UNL A   1      36.085  23.777  23.159  1.00  0.00     0.011 A 
ATOM     21  C   UNL A   1      36.660  21.712  24.280  1.00  0.00     0.002 A 
ATOM     22  C   UNL A   1      37.030  22.812  23.517  1.00  0.00     0.001 A 
BRANCH  15  23
ATOM     23  S   UNL A   1      32.160  21.630  25.647  1.00  0.00     0.268 S 
ATOM     24  O   UNL A   1      30.771  21.915  25.353  1.00  0.00    -0.201 OA
ATOM     25  O   UNL A   1      32.714  21.806  26.979  1.00  0.00    -0.201 OA
BRANCH  23  26
ATOM     26  C   UNL A   1      32.493  19.959  25.153  1.00  0.00     0.088 A 
ATOM     27  C   UNL A   1      33.106  15.797  24.245  1.00  0.00     0.044 C 
ATOM     28  C   UNL A   1      32.910  17.253  24.553  1.00  0.00    -0.051 A 
ATOM     29  C   UNL A   1      33.059  17.715  25.865  1.00  0.00     0.005 A 
ATOM     30  C   UNL A   1      32.579  18.163  23.541  1.00  0.00     0.005 A 
ATOM     31  C   UNL A   1      32.847  19.061  26.167  1.00  0.00     0.022 A 
ATOM     32  C   UNL A   1      32.382  19.515  23.834  1.00  0.00     0.022 A 
ENDBRANCH  23  26
ENDBRANCH  15  23
ENDBRANCH  12  14
ENDBRANCH   9  12
ENDBRANCH   7   8
ENDBRANCH   4   7
ENDBRANCH   2   3
ENDBRANCH   1   2
BRANCH   1  33
ATOM     33  C   UNL A   1      32.253  30.586  26.486  1.00  0.00     0.002 C 
BRANCH  33  34
ATOM     34  C   UNL A   1      33.314  30.422  27.585  1.00  0.00     0.002 C 
BRANCH  34  35
ATOM     35  C   UNL A   1      34.756  30.634  27.131  1.00  0.00     0.021 C 
BRANCH  35  36
ATOM     36  C   UNL A   1      35.778  29.876  27.962  1.00  0.00     0.116 C 
BRANCH  36  37
ATOM     37  N   UNL A   1      36.800  30.758  28.517  1.00  0.00    -0.352 N 
ATOM     38  C   UNL A   1      38.062  30.490  29.011  1.00  0.00     0.251 C 
ATOM     39  H   UNL A   1      36.547  31.709  28.542  1.00  0.00     0.163 HD
ATOM     40  O   UNL A   1      38.725  31.400  29.502  1.00  0.00    -0.269 OA
BRANCH  38  41
ATOM     41  C   UNL A   1      38.699  29.175  28.753  1.00  0.00     0.039 A 
ATOM     42  C   UNL A   1      39.029  28.445  29.903  1.00  0.00     0.014 A 
ATOM     43  C   UNL A   1      39.360  28.942  27.556  1.00  0.00     0.014 A 
ATOM     44  C   UNL A   1      40.253  27.802  29.953  1.00  0.00     0.010 A 
ATOM     45  C   UNL A   1      40.633  28.442  27.638  1.00  0.00     0.010 A 
ATOM     46  C   UNL A   1      41.098  27.960  28.864  1.00  0.00    -0.014 A 
BRANCH  46  47
ATOM     47  C   UNL A   1      42.503  27.630  28.880  1.00  0.00     0.031 A 
ATOM     48  C   UNL A   1      43.443  28.751  28.828  1.00  0.00     0.074 A 
ATOM     49  C   UNL A   1      42.855  26.348  29.116  1.00  0.00     0.049 A 
ATOM     50  N   UNL A   1      44.687  28.643  28.545  1.00  0.00    -0.248 NA
ATOM     51  C   UNL A   1      43.015  30.134  29.037  1.00  0.00     0.031 C 
ATOM     52  C   UNL A   1      44.151  25.811  29.513  1.00  0.00     0.029 A 
ATOM     53  N   UNL A   1      42.094  25.215  28.821  1.00  0.00    -0.354 N 
ATOM     54  C   UNL A   1      45.274  29.846  28.864  1.00  0.00     0.074 A 
ATOM     55  C   UNL A   1      44.186  30.772  29.043  1.00  0.00     0.031 C 
ATOM     56  C   UNL A   1      44.199  24.506  29.188  1.00  0.00     0.029 A 
ATOM     57  C   UNL A   1      42.996  24.212  28.420  1.00  0.00     0.049 A 
ATOM     58  H   UNL A   1      41.115  25.136  28.880  1.00  0.00     0.167 HD
ATOM     59  C   UNL A   1      46.612  29.857  29.107  1.00  0.00     0.031 A 
ATOM     60  C   UNL A   1      42.997  23.790  27.120  1.00  0.00     0.031 A 
ATOM     61  C   UNL A   1      47.194  28.556  28.776  1.00  0.00     0.049 A 
ATOM     62  C   UNL A   1      44.278  24.161  26.397  1.00  0.00     0.074 A 
ATOM     63  C   UNL A   1      47.519  27.451  29.546  1.00  0.00     0.029 A 
ATOM     64  N   UNL A   1      47.115  28.112  27.461  1.00  0.00    -0.354 N 
ATOM     65  N   UNL A   1      45.064  25.146  26.747  1.00  0.00    -0.248 NA
ATOM     66  C   UNL A   1      44.792  23.422  25.248  1.00  0.00     0.031 C 
ATOM     67  C   UNL A   1      47.532  26.315  28.686  1.00  0.00     0.029 A 
ATOM     68  C   UNL A   1      47.257  26.739  27.397  1.00  0.00     0.049 A 
ATOM     69  H   UNL A   1      46.976  28.697  26.681  1.00  0.00     0.167 HD
ATOM     70  C   UNL A   1      46.174  25.160  25.943  1.00  0.00     0.074 A 
ATOM     71  C   UNL A   1      45.951  24.064  25.015  1.00  0.00     0.031 C 
ATOM     72  C   UNL A   1      47.194  26.057  26.108  1.00  0.00     0.031 A 
BRANCH  59  73
ATOM     73  C   UNL A   1      47.319  30.922  29.908  1.00  0.00    -0.014 A 
ATOM     74  C   UNL A   1      47.556  32.174  29.312  1.00  0.00     0.009 A 
ATOM     75  C   UNL A   1      47.843  30.752  31.201  1.00  0.00     0.009 A 
ATOM     76  C   UNL A   1      48.312  33.170  29.944  1.00  0.00     0.001 A 
ATOM     77  C   UNL A   1      48.614  31.736  31.835  1.00  0.00     0.001 A 
ATOM     78  C   UNL A   1      48.855  32.945  31.202  1.00  0.00     0.000 A 
ENDBRANCH  59  73
BRANCH  60  79
ATOM     79  C   UNL A   1      41.624  23.788  26.523  1.00  0.00    -0.014 A 
ATOM     80  C   UNL A   1      40.888  22.582  26.591  1.00  0.00     0.009 A 
ATOM     81  C   UNL A   1      40.917  24.984  26.335  1.00  0.00     0.009 A 
ATOM     82  C   UNL A   1      39.491  22.595  26.665  1.00  0.00     0.001 A 
ATOM     83  C   UNL A   1      39.514  24.986  26.375  1.00  0.00     0.001 A 
ATOM     84  C   UNL A   1      38.807  23.804  26.599  1.00  0.00     0.000 A 
ENDBRANCH  60  79
BRANCH  72  85
ATOM     85  C   UNL A   1      48.287  26.358  25.102  1.00  0.00    -0.014 A 
ATOM     86  C   UNL A   1      48.071  26.889  23.826  1.00  0.00     0.009 A 
ATOM     87  C   UNL A   1      49.640  26.232  25.501  1.00  0.00     0.009 A 
ATOM     88  C   UNL A   1      49.138  27.226  22.980  1.00  0.00     0.001 A 
ATOM     89  C   UNL A   1      50.705  26.630  24.691  1.00  0.00     0.001 A 
ATOM     90  C   UNL A   1      50.453  27.111  23.418  1.00  0.00     0.000 A 
ENDBRANCH  72  85
ENDBRANCH  46  47
ENDBRANCH  38  41
ENDBRANCH  36  37
ENDBRANCH  35  36
ENDBRANCH  34  35
ENDBRANCH  33  34
ENDBRANCH   1  33
TORSDOF 18
ENDMDL
MODEL 2
REMARK VINA RESULT:     -11.5      2.078      3.259
REMARK SMILES Cc1ccc(S(=O)(=O)n2cc(C(=O)C(=O)NCC(=O)NCCCCCCNC(=O)c3ccc(-c4c5nc(c(-c6ccccc6)c6ccc([nH]6)c(-c6ccccc6)c6nc(c(-c7ccccc7)c7ccc4[nH]7)C=C6)C=C5)cc3)c3ccccc32)cc1
REMARK SMILES IDX 22 1 21 2 20 3 18 4 19 5 17 7 16 8 14 9 15 10 12 12 13 13
REMARK SMILES IDX 11 14 9 15 10 16 83 17 78 18 82 19 79 20 81 21 80 22 6 23
REMARK SMILES IDX 7 24 8 25 5 26 1 27 2 28 3 29 85 30 4 31 84 32 23 33 24 34
REMARK SMILES IDX 25 35 26 36 27 37 28 38 29 40 30 41 31 42 77 43 32 44 76 45
REMARK SMILES IDX 33 46 34 47 35 48 70 49 36 50 75 51 69 52 71 53 37 54 74 55
REMARK SMILES IDX 68 56 67 57 38 59 60 60 45 61 59 62 46 63 49 64 58 65 72 66
REMARK SMILES IDX 47 67 48 68 57 70 73 71 50 72 39 73 40 74 44 75 41 76 43 77
REMARK SMILES IDX 42 78 61 79 62 80 66 81 63 82 65 83 64 84 51 85 52 86 56 87
REMARK SMILES IDX 53 88 55 89 54 90
REMARK H PARENT 20 6 16 11 27 39 71 58 49 69
REMARK Flexibility Score: inf
ROOT
ATOM      1  C   UNL A   1      34.264  31.437  27.957  1.00  0.00     0.021 C 
ENDROOT
BRANCH   1   2
ATOM      2  C   UNL A   1      33.154  30.716  27.196  1.00  0.00     0.116 C 
BRANCH   2   3
ATOM      3  N   UNL A   1      33.688  29.945  26.097  1.00  0.00    -0.355 N 
ATOM      4  C   UNL A   1      33.035  29.286  25.099  1.00  0.00     0.239 C 
ATOM      5  O   UNL A   1      33.713  28.751  24.220  1.00  0.00    -0.273 OA
ATOM      6  H   UNL A   1      34.670  29.887  26.064  1.00  0.00     0.163 HD
BRANCH   4   7
ATOM      7  C   UNL A   1      31.506  29.342  24.995  1.00  0.00     0.216 C 
BRANCH   7   8
ATOM      8  N   UNL A   1      31.001  29.626  23.654  1.00  0.00    -0.340 N 
ATOM      9  C   UNL A   1      30.073  28.970  22.870  1.00  0.00     0.292 C 
ATOM     10  O   UNL A   1      29.799  29.448  21.774  1.00  0.00    -0.265 OA
ATOM     11  H   UNL A   1      31.392  30.427  23.236  1.00  0.00     0.164 HD
BRANCH   9  12
ATOM     12  C   UNL A   1      29.420  27.639  23.331  1.00  0.00     0.252 C 
ATOM     13  O   UNL A   1      28.200  27.605  23.466  1.00  0.00    -0.283 OA
BRANCH  12  14
ATOM     14  C   UNL A   1      30.220  26.437  23.627  1.00  0.00     0.054 A 
ATOM     15  N   UNL A   1      31.168  24.701  24.669  1.00  0.00    -0.240 N 
ATOM     16  C   UNL A   1      30.237  25.699  24.797  1.00  0.00     0.117 A 
ATOM     17  C   UNL A   1      31.761  24.726  23.426  1.00  0.00     0.065 A 
ATOM     18  C   UNL A   1      31.186  25.812  22.750  1.00  0.00     0.012 A 
ATOM     19  C   UNL A   1      32.769  23.935  22.842  1.00  0.00     0.028 A 
ATOM     20  C   UNL A   1      31.630  26.090  21.437  1.00  0.00     0.011 A 
ATOM     21  C   UNL A   1      33.202  24.256  21.554  1.00  0.00     0.002 A 
ATOM     22  C   UNL A   1      32.638  25.316  20.856  1.00  0.00     0.001 A 
BRANCH  15  23
ATOM     23  S   UNL A   1      31.604  23.647  25.936  1.00  0.00     0.268 S 
ATOM     24  O   UNL A   1      30.950  22.392  25.628  1.00  0.00    -0.201 OA
ATOM     25  O   UNL A   1      31.331  24.374  27.163  1.00  0.00    -0.201 OA
BRANCH  23  26
ATOM     26  C   UNL A   1      33.357  23.385  25.856  1.00  0.00     0.088 A 
ATOM     27  C   UNL A   1      37.546  22.522  25.383  1.00  0.00     0.044 C 
ATOM     28  C   UNL A   1      36.089  22.827  25.568  1.00  0.00    -0.051 A 
ATOM     29  C   UNL A   1      35.150  21.788  25.544  1.00  0.00     0.005 A 
ATOM     30  C   UNL A   1      35.649  24.141  25.767  1.00  0.00     0.005 A 
ATOM     31  C   UNL A   1      33.789  22.065  25.681  1.00  0.00     0.022 A 
ATOM     32  C   UNL A   1      34.289  24.422  25.923  1.00  0.00     0.022 A 
ENDBRANCH  23  26
ENDBRANCH  15  23
ENDBRANCH  12  14
ENDBRANCH   9  12
ENDBRANCH   7   8
ENDBRANCH   4   7
ENDBRANCH   2   3
ENDBRANCH   1   2
BRANCH   1  33
ATOM     33  C   UNL A   1      35.674  30.910  27.654  1.00  0.00     0.002 C 
BRANCH  33  34
ATOM     34  C   UNL A   1      36.260  29.943  28.694  1.00  0.00     0.002 C 
BRANCH  34  35
ATOM     35  C   UNL A   1      37.240  30.571  29.681  1.00  0.00     0.021 C 
BRANCH  35  36
ATOM     36  C   UNL A   1      37.397  29.784  30.972  1.00  0.00     0.116 C 
BRANCH  36  37
ATOM     37  N   UNL A   1      37.680  28.373  30.728  1.00  0.00    -0.352 N 
ATOM     38  C   UNL A   1      38.819  27.740  30.271  1.00  0.00     0.251 C 
ATOM     39  H   UNL A   1      36.928  27.768  30.922  1.00  0.00     0.163 HD
ATOM     40  O   UNL A   1      38.798  26.528  30.069  1.00  0.00    -0.269 OA
BRANCH  38  41
ATOM     41  C   UNL A   1      40.113  28.466  30.237  1.00  0.00     0.039 A 
ATOM     42  C   UNL A   1      40.600  28.742  28.953  1.00  0.00     0.014 A 
ATOM     43  C   UNL A   1      40.976  28.406  31.321  1.00  0.00     0.014 A 
ATOM     44  C   UNL A   1      41.947  28.553  28.699  1.00  0.00     0.010 A 
ATOM     45  C   UNL A   1      42.278  28.068  31.059  1.00  0.00     0.010 A 
ATOM     46  C   UNL A   1      42.725  28.057  29.735  1.00  0.00    -0.014 A 
BRANCH  46  47
ATOM     47  C   UNL A   1      44.050  27.514  29.559  1.00  0.00     0.031 A 
ATOM     48  C   UNL A   1      45.165  28.459  29.642  1.00  0.00     0.074 A 
ATOM     49  C   UNL A   1      44.188  26.172  29.507  1.00  0.00     0.049 A 
ATOM     50  N   UNL A   1      46.354  28.216  29.231  1.00  0.00    -0.248 NA
ATOM     51  C   UNL A   1      44.996  29.818  30.155  1.00  0.00     0.031 C 
ATOM     52  C   UNL A   1      45.392  25.366  29.672  1.00  0.00     0.029 A 
ATOM     53  N   UNL A   1      43.227  25.260  29.066  1.00  0.00    -0.354 N 
ATOM     54  C   UNL A   1      47.158  29.218  29.726  1.00  0.00     0.074 A 
ATOM     55  C   UNL A   1      46.259  30.247  30.180  1.00  0.00     0.031 C 
ATOM     56  C   UNL A   1      45.195  24.166  29.095  1.00  0.00     0.029 A 
ATOM     57  C   UNL A   1      43.917  24.232  28.398  1.00  0.00     0.049 A 
ATOM     58  H   UNL A   1      42.254  25.325  29.197  1.00  0.00     0.167 HD
ATOM     59  C   UNL A   1      48.489  28.968  29.844  1.00  0.00     0.031 A 
ATOM     60  C   UNL A   1      43.772  24.095  27.045  1.00  0.00     0.031 A 
ATOM     61  C   UNL A   1      48.818  27.689  29.213  1.00  0.00     0.049 A 
ATOM     62  C   UNL A   1      45.055  24.400  26.295  1.00  0.00     0.074 A 
ATOM     63  C   UNL A   1      48.989  26.411  29.720  1.00  0.00     0.029 A 
ATOM     64  N   UNL A   1      48.588  27.546  27.849  1.00  0.00    -0.354 N 
ATOM     65  N   UNL A   1      46.018  25.155  26.758  1.00  0.00    -0.248 NA
ATOM     66  C   UNL A   1      45.368  23.845  24.982  1.00  0.00     0.031 C 
ATOM     67  C   UNL A   1      48.757  25.490  28.657  1.00  0.00     0.029 A 
ATOM     68  C   UNL A   1      48.487  26.211  27.505  1.00  0.00     0.049 A 
ATOM     69  H   UNL A   1      48.509  28.294  27.214  1.00  0.00     0.167 HD
ATOM     70  C   UNL A   1      47.067  25.160  25.875  1.00  0.00     0.074 A 
ATOM     71  C   UNL A   1      46.605  24.330  24.775  1.00  0.00     0.031 C 
ATOM     72  C   UNL A   1      48.234  25.831  26.119  1.00  0.00     0.031 A 
BRANCH  59  73
ATOM     73  C   UNL A   1      49.414  29.717  30.770  1.00  0.00    -0.014 A 
ATOM     74  C   UNL A   1      49.432  29.375  32.134  1.00  0.00     0.009 A 
ATOM     75  C   UNL A   1      50.226  30.804  30.401  1.00  0.00     0.009 A 
ATOM     76  C   UNL A   1      50.170  30.104  33.076  1.00  0.00     0.001 A 
ATOM     77  C   UNL A   1      50.955  31.549  31.339  1.00  0.00     0.001 A 
ATOM     78  C   UNL A   1      50.922  31.202  32.680  1.00  0.00     0.000 A 
ENDBRANCH  59  73
BRANCH  60  79
ATOM     79  C   UNL A   1      42.387  24.434  26.586  1.00  0.00    -0.014 A 
ATOM     80  C   UNL A   1      41.318  23.703  27.154  1.00  0.00     0.009 A 
ATOM     81  C   UNL A   1      42.104  25.679  26.007  1.00  0.00     0.009 A 
ATOM     82  C   UNL A   1      40.054  24.283  27.311  1.00  0.00     0.001 A 
ATOM     83  C   UNL A   1      40.824  26.240  26.136  1.00  0.00     0.001 A 
ATOM     84  C   UNL A   1      39.821  25.570  26.838  1.00  0.00     0.000 A 
ENDBRANCH  60  79
BRANCH  72  85
ATOM     85  C   UNL A   1      49.304  26.158  25.097  1.00  0.00    -0.014 A 
ATOM     86  C   UNL A   1      49.059  26.726  23.842  1.00  0.00     0.009 A 
ATOM     87  C   UNL A   1      50.666  26.016  25.460  1.00  0.00     0.009 A 
ATOM     88  C   UNL A   1      50.107  27.085  22.981  1.00  0.00     0.001 A 
ATOM     89  C   UNL A   1      51.713  26.434  24.637  1.00  0.00     0.001 A 
ATOM     90  C   UNL A   1      51.432  26.953  23.384  1.00  0.00     0.000 A 
ENDBRANCH  72  85
ENDBRANCH  46  47
ENDBRANCH  38  41
ENDBRANCH  36  37
ENDBRANCH  35  36
ENDBRANCH  34  35
ENDBRANCH  33  34
ENDBRANCH   1  33
TORSDOF 18
ENDMDL
MODEL 3
REMARK VINA RESULT:     -11.3      3.143      7.341
REMARK SMILES Cc1ccc(S(=O)(=O)n2cc(C(=O)C(=O)NCC(=O)NCCCCCCNC(=O)c3ccc(-c4c5nc(c(-c6ccccc6)c6ccc([nH]6)c(-c6ccccc6)c6nc(c(-c7ccccc7)c7ccc4[nH]7)C=C6)C=C5)cc3)c3ccccc32)cc1
REMARK SMILES IDX 22 1 21 2 20 3 18 4 19 5 17 7 16 8 14 9 15 10 12 12 13 13
REMARK SMILES IDX 11 14 9 15 10 16 83 17 78 18 82 19 79 20 81 21 80 22 6 23
REMARK SMILES IDX 7 24 8 25 5 26 1 27 2 28 3 29 85 30 4 31 84 32 23 33 24 34
REMARK SMILES IDX 25 35 26 36 27 37 28 38 29 40 30 41 31 42 77 43 32 44 76 45
REMARK SMILES IDX 33 46 34 47 35 48 70 49 36 50 75 51 69 52 71 53 37 54 74 55
REMARK SMILES IDX 68 56 67 57 38 59 60 60 45 61 59 62 46 63 49 64 58 65 72 66
REMARK SMILES IDX 47 67 48 68 57 70 73 71 50 72 39 73 40 74 44 75 41 76 43 77
REMARK SMILES IDX 42 78 61 79 62 80 66 81 63 82 65 83 64 84 51 85 52 86 56 87
REMARK SMILES IDX 53 88 55 89 54 90
REMARK H PARENT 20 6 16 11 27 39 71 58 49 69
REMARK Flexibility Score: inf
ROOT
ATOM      1  C   UNL A   1      34.555  26.558  25.404  1.00  0.00     0.021 C 
ENDROOT
BRANCH   1   2
ATOM      2  C   UNL A   1      34.787  25.111  25.839  1.00  0.00     0.116 C 
BRANCH   2   3
ATOM      3  N   UNL A   1      35.653  24.419  24.912  1.00  0.00    -0.355 N 
ATOM      4  C   UNL A   1      35.944  23.091  24.822  1.00  0.00     0.239 C 
ATOM      5  O   UNL A   1      36.663  22.720  23.892  1.00  0.00    -0.273 OA
ATOM      6  H   UNL A   1      36.099  24.992  24.247  1.00  0.00     0.163 HD
BRANCH   4   7
ATOM      7  C   UNL A   1      35.274  22.078  25.757  1.00  0.00     0.216 C 
BRANCH   7   8
ATOM      8  N   UNL A   1      35.250  20.709  25.249  1.00  0.00    -0.340 N 
ATOM      9  C   UNL A   1      34.203  19.901  24.852  1.00  0.00     0.292 C 
ATOM     10  O   UNL A   1      34.465  18.782  24.423  1.00  0.00    -0.265 OA
ATOM     11  H   UNL A   1      36.137  20.288  25.176  1.00  0.00     0.164 HD
BRANCH   9  12
ATOM     12  C   UNL A   1      32.726  20.366  24.981  1.00  0.00     0.252 C 
ATOM     13  O   UNL A   1      31.854  19.509  25.093  1.00  0.00    -0.283 OA
BRANCH  12  14
ATOM     14  C   UNL A   1      32.350  21.791  24.951  1.00  0.00     0.054 A 
ATOM     15  N   UNL A   1      31.500  23.790  25.478  1.00  0.00    -0.240 N 
ATOM     16  C   UNL A   1      31.714  22.518  25.942  1.00  0.00     0.117 A 
ATOM     17  C   UNL A   1      32.006  23.952  24.206  1.00  0.00     0.065 A 
ATOM     18  C   UNL A   1      32.543  22.706  23.849  1.00  0.00     0.012 A 
ATOM     19  C   UNL A   1      32.010  25.046  23.321  1.00  0.00     0.028 A 
ATOM     20  C   UNL A   1      33.121  22.575  22.565  1.00  0.00     0.011 A 
ATOM     21  C   UNL A   1      32.564  24.871  22.051  1.00  0.00     0.002 A 
ATOM     22  C   UNL A   1      33.118  23.654  21.678  1.00  0.00     0.001 A 
BRANCH  15  23
ATOM     23  S   UNL A   1      30.619  24.972  26.333  1.00  0.00     0.268 S 
ATOM     24  O   UNL A   1      31.572  25.575  27.241  1.00  0.00    -0.201 OA
ATOM     25  O   UNL A   1      29.423  24.300  26.811  1.00  0.00    -0.201 OA
BRANCH  23  26
ATOM     26  C   UNL A   1      30.100  26.215  25.178  1.00  0.00     0.088 A 
ATOM     27  C   UNL A   1      29.193  29.262  22.278  1.00  0.00     0.044 C 
ATOM     28  C   UNL A   1      29.493  28.206  23.300  1.00  0.00    -0.051 A 
ATOM     29  C   UNL A   1      30.588  28.357  24.159  1.00  0.00     0.005 A 
ATOM     30  C   UNL A   1      28.690  27.064  23.411  1.00  0.00     0.005 A 
ATOM     31  C   UNL A   1      30.894  27.365  25.091  1.00  0.00     0.022 A 
ATOM     32  C   UNL A   1      28.982  26.075  24.354  1.00  0.00     0.022 A 
ENDBRANCH  23  26
ENDBRANCH  15  23
ENDBRANCH  12  14
ENDBRANCH   9  12
ENDBRANCH   7   8
ENDBRANCH   4   7
ENDBRANCH   2   3
ENDBRANCH   1   2
BRANCH   1  33
ATOM     33  C   UNL A   1      33.939  27.446  26.494  1.00  0.00     0.002 C 
BRANCH  33  34
ATOM     34  C   UNL A   1      34.092  28.960  26.283  1.00  0.00     0.002 C 
BRANCH  34  35
ATOM     35  C   UNL A   1      34.038  29.801  27.556  1.00  0.00     0.021 C 
BRANCH  35  36
ATOM     36  C   UNL A   1      34.103  31.298  27.305  1.00  0.00     0.116 C 
BRANCH  36  37
ATOM     37  N   UNL A   1      34.990  31.977  28.244  1.00  0.00    -0.352 N 
ATOM     38  C   UNL A   1      36.055  31.510  28.989  1.00  0.00     0.251 C 
ATOM     39  H   UNL A   1      34.795  32.934  28.368  1.00  0.00     0.163 HD
ATOM     40  O   UNL A   1      36.615  32.263  29.782  1.00  0.00    -0.269 OA
BRANCH  38  41
ATOM     41  C   UNL A   1      36.659  30.191  28.679  1.00  0.00     0.039 A 
ATOM     42  C   UNL A   1      36.729  29.305  29.763  1.00  0.00     0.014 A 
ATOM     43  C   UNL A   1      37.519  30.052  27.599  1.00  0.00     0.014 A 
ATOM     44  C   UNL A   1      37.886  28.570  29.946  1.00  0.00     0.010 A 
ATOM     45  C   UNL A   1      38.726  29.452  27.841  1.00  0.00     0.010 A 
ATOM     46  C   UNL A   1      38.927  28.792  29.056  1.00  0.00    -0.014 A 
BRANCH  46  47
ATOM     47  C   UNL A   1      40.285  28.357  29.280  1.00  0.00     0.031 A 
ATOM     48  C   UNL A   1      40.660  27.057  28.721  1.00  0.00     0.074 A 
ATOM     49  C   UNL A   1      41.155  29.234  29.823  1.00  0.00     0.049 A 
ATOM     50  N   UNL A   1      41.702  26.394  29.061  1.00  0.00    -0.248 NA
ATOM     51  C   UNL A   1      39.818  26.355  27.752  1.00  0.00     0.031 C 
ATOM     52  C   UNL A   1      42.612  29.186  29.847  1.00  0.00     0.029 A 
ATOM     53  N   UNL A   1      40.837  30.289  30.681  1.00  0.00    -0.354 N 
ATOM     54  C   UNL A   1      41.850  25.384  28.137  1.00  0.00     0.074 A 
ATOM     55  C   UNL A   1      40.599  25.324  27.427  1.00  0.00     0.031 C 
ATOM     56  C   UNL A   1      43.057  29.959  30.854  1.00  0.00     0.029 A 
ATOM     57  C   UNL A   1      41.888  30.390  31.610  1.00  0.00     0.049 A 
ATOM     58  H   UNL A   1      40.030  30.852  30.642  1.00  0.00     0.167 HD
ATOM     59  C   UNL A   1      43.087  24.842  27.978  1.00  0.00     0.031 A 
ATOM     60  C   UNL A   1      41.659  30.073  32.920  1.00  0.00     0.031 A 
ATOM     61  C   UNL A   1      43.994  25.349  29.008  1.00  0.00     0.049 A 
ATOM     62  C   UNL A   1      42.418  28.832  33.352  1.00  0.00     0.074 A 
ATOM     63  C   UNL A   1      44.933  26.367  29.011  1.00  0.00     0.029 A 
ATOM     64  N   UNL A   1      43.699  25.080  30.340  1.00  0.00    -0.354 N 
ATOM     65  N   UNL A   1      42.831  27.899  32.534  1.00  0.00    -0.248 NA
ATOM     66  C   UNL A   1      42.804  28.569  34.734  1.00  0.00     0.031 C 
ATOM     67  C   UNL A   1      45.121  26.777  30.363  1.00  0.00     0.029 A 
ATOM     68  C   UNL A   1      44.330  25.982  31.175  1.00  0.00     0.049 A 
ATOM     69  H   UNL A   1      43.119  24.346  30.647  1.00  0.00     0.167 HD
ATOM     70  C   UNL A   1      43.553  26.962  33.228  1.00  0.00     0.074 A 
ATOM     71  C   UNL A   1      43.499  27.425  34.604  1.00  0.00     0.031 C 
ATOM     72  C   UNL A   1      44.149  25.891  32.620  1.00  0.00     0.031 A 
BRANCH  59  73
ATOM     73  C   UNL A   1      43.537  24.105  26.741  1.00  0.00    -0.014 A 
ATOM     74  C   UNL A   1      44.515  24.693  25.920  1.00  0.00     0.009 A 
ATOM     75  C   UNL A   1      43.002  22.890  26.281  1.00  0.00     0.009 A 
ATOM     76  C   UNL A   1      44.896  24.132  24.694  1.00  0.00     0.001 A 
ATOM     77  C   UNL A   1      43.365  22.329  25.048  1.00  0.00     0.001 A 
ATOM     78  C   UNL A   1      44.308  22.955  24.250  1.00  0.00     0.000 A 
ENDBRANCH  59  73
BRANCH  60  79
ATOM     79  C   UNL A   1      40.281  30.456  33.364  1.00  0.00    -0.014 A 
ATOM     80  C   UNL A   1      39.955  31.832  33.356  1.00  0.00     0.009 A 
ATOM     81  C   UNL A   1      39.231  29.527  33.339  1.00  0.00     0.009 A 
ATOM     82  C   UNL A   1      38.641  32.259  33.132  1.00  0.00     0.001 A 
ATOM     83  C   UNL A   1      37.911  29.963  33.151  1.00  0.00     0.001 A 
ATOM     84  C   UNL A   1      37.626  31.320  32.988  1.00  0.00     0.000 A 
ENDBRANCH  60  79
BRANCH  72  85
ATOM     85  C   UNL A   1      44.684  24.656  33.317  1.00  0.00    -0.014 A 
ATOM     86  C   UNL A   1      46.002  24.499  33.758  1.00  0.00     0.009 A 
ATOM     87  C   UNL A   1      43.780  23.628  33.681  1.00  0.00     0.009 A 
ATOM     88  C   UNL A   1      46.407  23.364  34.476  1.00  0.00     0.001 A 
ATOM     89  C   UNL A   1      44.160  22.529  34.454  1.00  0.00     0.001 A 
ATOM     90  C   UNL A   1      45.484  22.387  34.835  1.00  0.00     0.000 A 
ENDBRANCH  72  85
ENDBRANCH  46  47
ENDBRANCH  38  41
ENDBRANCH  36  37
ENDBRANCH  35  36
ENDBRANCH  34  35
ENDBRANCH  33  34
ENDBRANCH   1  33
TORSDOF 18
ENDMDL
