MODEL 1
REMARK VINA RESULT:     -12.9      0.000      0.000
REMARK SMILES CS(=O)(=O)Nc1ccc(-c2cc(Cl)cc3c2O[C@H](C(F)(F)F)C(C(=O)NCCCCCCNC(=O)c2ccc(-c4c5nc(c(-c6ccccc6)c6ccc([nH]6)c(-c6ccccc6)c6nc(c(-c7ccccc7)c7ccc4[nH]7)C=C6)C=C5)cc2)=C3)cc1
REMARK SMILES IDX 29 1 28 2 27 3 26 4 24 5 25 6 23 8 10 9 11 10 16 11 12 12
REMARK SMILES IDX 15 13 17 14 13 15 14 16 84 17 18 18 9 19 6 20 7 21 86 22
REMARK SMILES IDX 8 23 85 24 5 25 2 27 1 28 3 29 4 30 19 31 20 32 21 33 22 34
REMARK SMILES IDX 30 35 31 36 32 37 33 38 34 39 35 41 36 42 37 43 83 44 38 45
REMARK SMILES IDX 82 46 39 47 40 48 41 49 76 50 42 51 81 52 75 53 77 54 43 55
REMARK SMILES IDX 80 56 74 57 73 58 44 60 66 61 51 62 65 63 52 64 55 65 64 66
REMARK SMILES IDX 78 67 53 68 54 69 63 71 79 72 56 73 45 74 46 75 50 76 47 77
REMARK SMILES IDX 49 78 48 79 67 80 68 81 72 82 69 83 71 84 70 85 57 86 58 87
REMARK SMILES IDX 62 88 59 89 61 90 60 91
REMARK H PARENT 26 7 5 26 33 40 77 59 55 70
REMARK Flexibility Score: inf
ROOT
ATOM      1  C   UNL A   1      35.386  20.533  25.283  1.00  0.00     0.002 C 
ENDROOT
BRANCH   1   2
ATOM      2  C   UNL A   1      34.538  19.387  24.707  1.00  0.00     0.021 C 
BRANCH   2   3
ATOM      3  C   UNL A   1      33.059  19.733  24.477  1.00  0.00     0.116 C 
BRANCH   3   4
ATOM      4  N   UNL A   1      32.942  20.717  23.421  1.00  0.00    -0.352 N 
ATOM      5  C   UNL A   1      32.256  21.884  23.526  1.00  0.00     0.251 C 
ATOM      6  O   UNL A   1      31.417  22.183  22.686  1.00  0.00    -0.270 OA
ATOM      7  H   UNL A   1      33.394  20.528  22.567  1.00  0.00     0.163 HD
BRANCH   5   8
ATOM      8  C   UNL A   1      32.710  22.819  24.597  1.00  0.00     0.067 C 
ATOM      9  C   UNL A   1      31.138  26.286  23.182  1.00  0.00     0.026 A 
ATOM     10  C   UNL A   1      31.397  26.287  21.783  1.00  0.00     0.033 A 
ATOM     11  C   UNL A   1      31.837  25.327  23.934  1.00  0.00     0.135 A 
ATOM     12  C   UNL A   1      32.417  25.537  21.204  1.00  0.00     0.042 A 
ATOM     13  C   UNL A   1      32.951  24.672  23.352  1.00  0.00     0.019 A 
ATOM     14  O   UNL A   1      31.454  24.924  25.208  1.00  0.00    -0.475 OA
ATOM     15  Cl  UNL A   1      32.647  25.578  19.502  1.00  0.00    -0.084 Cl
ATOM     16  C   UNL A   1      33.257  24.787  21.999  1.00  0.00     0.032 A 
ATOM     17  C   UNL A   1      33.665  23.668  24.170  1.00  0.00     0.025 C 
ATOM     18  C   UNL A   1      31.598  23.449  25.424  1.00  0.00     0.314 C 
BRANCH   9  19
ATOM     19  C   UNL A   1      30.368  27.469  23.667  1.00  0.00    -0.014 A 
ATOM     20  C   UNL A   1      29.734  30.247  23.590  1.00  0.00     0.048 A 
ATOM     21  C   UNL A   1      28.982  29.320  22.863  1.00  0.00     0.027 A 
ATOM     22  C   UNL A   1      30.680  29.764  24.492  1.00  0.00     0.027 A 
ATOM     23  C   UNL A   1      29.271  27.948  22.926  1.00  0.00     0.011 A 
ATOM     24  C   UNL A   1      30.989  28.387  24.534  1.00  0.00     0.011 A 
BRANCH  20  25
ATOM     25  N   UNL A   1      29.588  31.613  23.213  1.00  0.00    -0.284 N 
ATOM     26  H   UNL A   1      30.403  32.164  23.261  1.00  0.00     0.180 HD
BRANCH  25  27
ATOM     27  S   UNL A   1      28.211  32.388  22.703  1.00  0.00     0.229 S 
ATOM     28  C   UNL A   1      28.035  31.899  20.995  1.00  0.00     0.183 C 
ATOM     29  O   UNL A   1      28.409  33.820  22.766  1.00  0.00    -0.207 OA
ATOM     30  O   UNL A   1      27.135  31.754  23.437  1.00  0.00    -0.207 OA
ENDBRANCH  25  27
ENDBRANCH  20  25
ENDBRANCH   9  19
BRANCH  18  31
ATOM     31  C   UNL A   1      31.860  23.094  26.906  1.00  0.00     0.429 C 
ATOM     32  F   UNL A   1      32.163  24.175  27.657  1.00  0.00    -0.167 F 
ATOM     33  F   UNL A   1      30.784  22.491  27.464  1.00  0.00    -0.167 F 
ATOM     34  F   UNL A   1      32.895  22.222  27.055  1.00  0.00    -0.167 F 
ENDBRANCH  18  31
ENDBRANCH   5   8
ENDBRANCH   3   4
ENDBRANCH   2   3
ENDBRANCH   1   2
BRANCH   1  35
ATOM     35  C   UNL A   1      36.770  20.693  24.650  1.00  0.00     0.002 C 
BRANCH  35  36
ATOM     36  C   UNL A   1      37.760  19.585  25.010  1.00  0.00     0.021 C 
BRANCH  36  37
ATOM     37  C   UNL A   1      38.996  20.062  25.762  1.00  0.00     0.116 C 
BRANCH  37  38
ATOM     38  N   UNL A   1      40.037  19.048  25.823  1.00  0.00    -0.352 N 
ATOM     39  C   UNL A   1      41.386  19.207  26.017  1.00  0.00     0.251 C 
ATOM     40  H   UNL A   1      39.731  18.119  25.709  1.00  0.00     0.163 HD
ATOM     41  O   UNL A   1      42.152  18.261  25.873  1.00  0.00    -0.269 OA
BRANCH  39  42
ATOM     42  C   UNL A   1      41.915  20.539  26.374  1.00  0.00     0.039 A 
ATOM     43  C   UNL A   1      42.339  21.393  25.353  1.00  0.00     0.014 A 
ATOM     44  C   UNL A   1      41.975  20.949  27.709  1.00  0.00     0.014 A 
ATOM     45  C   UNL A   1      42.767  22.684  25.669  1.00  0.00     0.010 A 
ATOM     46  C   UNL A   1      42.326  22.261  28.014  1.00  0.00     0.010 A 
ATOM     47  C   UNL A   1      42.730  23.140  26.997  1.00  0.00    -0.014 A 
BRANCH  47  48
ATOM     48  C   UNL A   1      43.108  24.535  27.340  1.00  0.00     0.031 A 
ATOM     49  C   UNL A   1      44.551  24.960  27.297  1.00  0.00     0.074 A 
ATOM     50  C   UNL A   1      42.159  25.402  27.743  1.00  0.00     0.049 A 
ATOM     51  N   UNL A   1      45.077  26.121  27.596  1.00  0.00    -0.248 NA
ATOM     52  C   UNL A   1      45.534  23.945  26.885  1.00  0.00     0.031 C 
ATOM     53  C   UNL A   1      40.729  25.102  27.862  1.00  0.00     0.029 A 
ATOM     54  N   UNL A   1      42.255  26.715  28.131  1.00  0.00    -0.354 N 
ATOM     55  C   UNL A   1      46.448  25.968  27.431  1.00  0.00     0.074 A 
ATOM     56  C   UNL A   1      46.679  24.593  27.049  1.00  0.00     0.031 C 
ATOM     57  C   UNL A   1      40.079  26.209  28.255  1.00  0.00     0.029 A 
ATOM     58  C   UNL A   1      41.047  27.281  28.462  1.00  0.00     0.049 A 
ATOM     59  H   UNL A   1      43.107  27.205  28.167  1.00  0.00     0.167 HD
ATOM     60  C   UNL A   1      47.426  26.894  27.567  1.00  0.00     0.031 A 
ATOM     61  C   UNL A   1      40.753  28.523  28.891  1.00  0.00     0.031 A 
ATOM     62  C   UNL A   1      47.194  28.267  27.932  1.00  0.00     0.049 A 
ATOM     63  C   UNL A   1      41.865  29.522  29.060  1.00  0.00     0.074 A 
ATOM     64  C   UNL A   1      48.112  29.298  28.026  1.00  0.00     0.029 A 
ATOM     65  N   UNL A   1      45.959  28.797  28.267  1.00  0.00    -0.354 N 
ATOM     66  N   UNL A   1      43.146  29.385  28.816  1.00  0.00    -0.248 NA
ATOM     67  C   UNL A   1      41.486  30.854  29.554  1.00  0.00     0.031 C 
ATOM     68  C   UNL A   1      47.443  30.437  28.484  1.00  0.00     0.029 A 
ATOM     69  C   UNL A   1      46.097  30.133  28.606  1.00  0.00     0.049 A 
ATOM     70  H   UNL A   1      45.109  28.300  28.265  1.00  0.00     0.167 HD
ATOM     71  C   UNL A   1      43.718  30.621  29.092  1.00  0.00     0.074 A 
ATOM     72  C   UNL A   1      42.643  31.498  29.504  1.00  0.00     0.031 C 
ATOM     73  C   UNL A   1      45.017  30.996  29.008  1.00  0.00     0.031 A 
BRANCH  60  74
ATOM     74  C   UNL A   1      48.845  26.454  27.337  1.00  0.00    -0.014 A 
ATOM     75  C   UNL A   1      49.652  26.001  28.394  1.00  0.00     0.009 A 
ATOM     76  C   UNL A   1      49.365  26.440  26.034  1.00  0.00     0.009 A 
ATOM     77  C   UNL A   1      50.959  25.572  28.152  1.00  0.00     0.001 A 
ATOM     78  C   UNL A   1      50.661  25.981  25.790  1.00  0.00     0.001 A 
ATOM     79  C   UNL A   1      51.459  25.555  26.850  1.00  0.00     0.000 A 
ENDBRANCH  60  74
BRANCH  61  80
ATOM     80  C   UNL A   1      39.346  28.907  29.188  1.00  0.00    -0.014 A 
ATOM     81  C   UNL A   1      38.803  28.686  30.464  1.00  0.00     0.009 A 
ATOM     82  C   UNL A   1      38.528  29.461  28.192  1.00  0.00     0.009 A 
ATOM     83  C   UNL A   1      37.461  28.974  30.723  1.00  0.00     0.001 A 
ATOM     84  C   UNL A   1      37.196  29.780  28.464  1.00  0.00     0.001 A 
ATOM     85  C   UNL A   1      36.660  29.522  29.724  1.00  0.00     0.000 A 
ENDBRANCH  61  80
BRANCH  73  86
ATOM     86  C   UNL A   1      45.342  32.430  29.325  1.00  0.00    -0.014 A 
ATOM     87  C   UNL A   1      45.282  33.430  28.344  1.00  0.00     0.009 A 
ATOM     88  C   UNL A   1      45.677  32.787  30.642  1.00  0.00     0.009 A 
ATOM     89  C   UNL A   1      45.589  34.754  28.667  1.00  0.00     0.001 A 
ATOM     90  C   UNL A   1      45.949  34.116  30.969  1.00  0.00     0.001 A 
ATOM     91  C   UNL A   1      45.915  35.096  29.979  1.00  0.00     0.000 A 
ENDBRANCH  73  86
ENDBRANCH  47  48
ENDBRANCH  39  42
ENDBRANCH  37  38
ENDBRANCH  36  37
ENDBRANCH  35  36
ENDBRANCH   1  35
TORSDOF 17
ENDMDL
MODEL 2
REMARK VINA RESULT:     -12.6      2.296      2.974
REMARK SMILES CS(=O)(=O)Nc1ccc(-c2cc(Cl)cc3c2O[C@H](C(F)(F)F)C(C(=O)NCCCCCCNC(=O)c2ccc(-c4c5nc(c(-c6ccccc6)c6ccc([nH]6)c(-c6ccccc6)c6nc(c(-c7ccccc7)c7ccc4[nH]7)C=C6)C=C5)cc2)=C3)cc1
REMARK SMILES IDX 29 1 28 2 27 3 26 4 24 5 25 6 23 8 10 9 11 10 16 11 12 12
REMARK SMILES IDX 15 13 17 14 13 15 14 16 84 17 18 18 9 19 6 20 7 21 86 22
REMARK SMILES IDX 8 23 85 24 5 25 2 27 1 28 3 29 4 30 19 31 20 32 21 33 22 34
REMARK SMILES IDX 30 35 31 36 32 37 33 38 34 39 35 41 36 42 37 43 83 44 38 45
REMARK SMILES IDX 82 46 39 47 40 48 41 49 76 50 42 51 81 52 75 53 77 54 43 55
REMARK SMILES IDX 80 56 74 57 73 58 44 60 66 61 51 62 65 63 52 64 55 65 64 66
REMARK SMILES IDX 78 67 53 68 54 69 63 71 79 72 56 73 45 74 46 75 50 76 47 77
REMARK SMILES IDX 49 78 48 79 67 80 68 81 72 82 69 83 71 84 70 85 57 86 58 87
REMARK SMILES IDX 62 88 59 89 61 90 60 91
REMARK H PARENT 26 7 5 26 33 40 77 59 55 70
REMARK Flexibility Score: inf
ROOT
ATOM      1  C   UNL A   1      35.115  19.467  24.746  1.00  0.00     0.002 C 
ENDROOT
BRANCH   1   2
ATOM      2  C   UNL A   1      33.806  20.238  24.509  1.00  0.00     0.021 C 
BRANCH   2   3
ATOM      3  C   UNL A   1      32.917  20.398  25.752  1.00  0.00     0.116 C 
BRANCH   3   4
ATOM      4  N   UNL A   1      31.938  21.441  25.526  1.00  0.00    -0.352 N 
ATOM      5  C   UNL A   1      32.152  22.762  25.752  1.00  0.00     0.251 C 
ATOM      6  O   UNL A   1      31.370  23.403  26.442  1.00  0.00    -0.270 OA
ATOM      7  H   UNL A   1      31.056  21.173  25.182  1.00  0.00     0.163 HD
BRANCH   5   8
ATOM      8  C   UNL A   1      33.267  23.388  24.983  1.00  0.00     0.067 C 
ATOM      9  C   UNL A   1      32.108  27.277  25.154  1.00  0.00     0.026 A 
ATOM     10  C   UNL A   1      30.706  27.275  24.916  1.00  0.00     0.033 A 
ATOM     11  C   UNL A   1      32.782  26.080  24.861  1.00  0.00     0.135 A 
ATOM     12  C   UNL A   1      30.056  26.240  24.248  1.00  0.00     0.042 A 
ATOM     13  C   UNL A   1      32.132  25.098  24.071  1.00  0.00     0.019 A 
ATOM     14  O   UNL A   1      34.038  25.764  25.366  1.00  0.00    -0.475 OA
ATOM     15  Cl  UNL A   1      28.354  26.307  24.021  1.00  0.00    -0.084 Cl
ATOM     16  C   UNL A   1      30.782  25.182  23.746  1.00  0.00     0.032 A 
ATOM     17  C   UNL A   1      32.869  23.849  23.781  1.00  0.00     0.025 C 
ATOM     18  C   UNL A   1      34.159  24.329  25.780  1.00  0.00     0.314 C 
BRANCH   9  19
ATOM     19  C   UNL A   1      32.685  28.626  25.429  1.00  0.00    -0.014 A 
ATOM     20  C   UNL A   1      33.429  30.712  27.223  1.00  0.00     0.048 A 
ATOM     21  C   UNL A   1      34.360  29.753  26.814  1.00  0.00     0.027 A 
ATOM     22  C   UNL A   1      32.186  30.732  26.595  1.00  0.00     0.027 A 
ATOM     23  C   UNL A   1      34.005  28.745  25.904  1.00  0.00     0.011 A 
ATOM     24  C   UNL A   1      31.820  29.702  25.701  1.00  0.00     0.011 A 
BRANCH  20  25
ATOM     25  N   UNL A   1      33.775  31.475  28.376  1.00  0.00    -0.284 N 
ATOM     26  H   UNL A   1      33.698  31.010  29.241  1.00  0.00     0.180 HD
BRANCH  25  27
ATOM     27  S   UNL A   1      34.291  33.052  28.437  1.00  0.00     0.229 S 
ATOM     28  C   UNL A   1      34.794  33.287  30.135  1.00  0.00     0.183 C 
ATOM     29  O   UNL A   1      33.183  33.936  28.146  1.00  0.00    -0.207 OA
ATOM     30  O   UNL A   1      35.495  33.080  27.633  1.00  0.00    -0.207 OA
ENDBRANCH  25  27
ENDBRANCH  20  25
ENDBRANCH   9  19
BRANCH  18  31
ATOM     31  C   UNL A   1      35.609  23.805  25.666  1.00  0.00     0.429 C 
ATOM     32  F   UNL A   1      35.920  23.390  24.420  1.00  0.00    -0.167 F 
ATOM     33  F   UNL A   1      36.505  24.758  26.021  1.00  0.00    -0.167 F 
ATOM     34  F   UNL A   1      35.845  22.748  26.492  1.00  0.00    -0.167 F 
ENDBRANCH  18  31
ENDBRANCH   5   8
ENDBRANCH   3   4
ENDBRANCH   2   3
ENDBRANCH   1   2
BRANCH   1  35
ATOM     35  C   UNL A   1      36.336  20.343  25.036  1.00  0.00     0.002 C 
BRANCH  35  36
ATOM     36  C   UNL A   1      37.675  19.694  24.689  1.00  0.00     0.021 C 
BRANCH  36  37
ATOM     37  C   UNL A   1      38.839  20.137  25.567  1.00  0.00     0.116 C 
BRANCH  37  38
ATOM     38  N   UNL A   1      39.829  19.087  25.751  1.00  0.00    -0.352 N 
ATOM     39  C   UNL A   1      41.163  19.203  26.050  1.00  0.00     0.251 C 
ATOM     40  H   UNL A   1      39.495  18.167  25.647  1.00  0.00     0.163 HD
ATOM     41  O   UNL A   1      41.899  18.223  26.005  1.00  0.00    -0.269 OA
BRANCH  39  42
ATOM     42  C   UNL A   1      41.716  20.528  26.400  1.00  0.00     0.039 A 
ATOM     43  C   UNL A   1      42.179  21.357  25.377  1.00  0.00     0.014 A 
ATOM     44  C   UNL A   1      41.759  20.954  27.730  1.00  0.00     0.014 A 
ATOM     45  C   UNL A   1      42.630  22.643  25.684  1.00  0.00     0.010 A 
ATOM     46  C   UNL A   1      42.135  22.261  28.025  1.00  0.00     0.010 A 
ATOM     47  C   UNL A   1      42.578  23.117  27.005  1.00  0.00    -0.014 A 
BRANCH  47  48
ATOM     48  C   UNL A   1      42.982  24.507  27.336  1.00  0.00     0.031 A 
ATOM     49  C   UNL A   1      44.428  24.914  27.259  1.00  0.00     0.074 A 
ATOM     50  C   UNL A   1      42.053  25.387  27.761  1.00  0.00     0.049 A 
ATOM     51  N   UNL A   1      44.976  26.070  27.545  1.00  0.00    -0.248 NA
ATOM     52  C   UNL A   1      45.389  23.887  26.827  1.00  0.00     0.031 C 
ATOM     53  C   UNL A   1      40.623  25.106  27.913  1.00  0.00     0.029 A 
ATOM     54  N   UNL A   1      42.174  26.699  28.144  1.00  0.00    -0.354 N 
ATOM     55  C   UNL A   1      46.340  25.899  27.347  1.00  0.00     0.074 A 
ATOM     56  C   UNL A   1      46.545  24.521  26.962  1.00  0.00     0.031 C 
ATOM     57  C   UNL A   1      39.996  26.221  28.319  1.00  0.00     0.029 A 
ATOM     58  C   UNL A   1      40.982  27.281  28.503  1.00  0.00     0.049 A 
ATOM     59  H   UNL A   1      43.033  27.178  28.160  1.00  0.00     0.167 HD
ATOM     60  C   UNL A   1      47.333  26.813  27.460  1.00  0.00     0.031 A 
ATOM     61  C   UNL A   1      40.714  28.527  28.937  1.00  0.00     0.031 A 
ATOM     62  C   UNL A   1      47.127  28.189  27.828  1.00  0.00     0.049 A 
ATOM     63  C   UNL A   1      41.842  29.512  29.078  1.00  0.00     0.074 A 
ATOM     64  C   UNL A   1      48.060  29.209  27.899  1.00  0.00     0.029 A 
ATOM     65  N   UNL A   1      45.907  28.735  28.191  1.00  0.00    -0.354 N 
ATOM     66  N   UNL A   1      43.115  29.358  28.805  1.00  0.00    -0.248 NA
ATOM     67  C   UNL A   1      41.491  30.849  29.579  1.00  0.00     0.031 C 
ATOM     68  C   UNL A   1      47.416  30.356  28.371  1.00  0.00     0.029 A 
ATOM     69  C   UNL A   1      46.069  30.069  28.525  1.00  0.00     0.049 A 
ATOM     70  H   UNL A   1      45.051  28.248  28.209  1.00  0.00     0.167 HD
ATOM     71  C   UNL A   1      43.709  30.588  29.065  1.00  0.00     0.074 A 
ATOM     72  C   UNL A   1      42.655  31.479  29.501  1.00  0.00     0.031 C 
ATOM     73  C   UNL A   1      45.010  30.946  28.951  1.00  0.00     0.031 A 
BRANCH  60  74
ATOM     74  C   UNL A   1      48.741  26.355  27.198  1.00  0.00    -0.014 A 
ATOM     75  C   UNL A   1      49.292  26.382  25.906  1.00  0.00     0.009 A 
ATOM     76  C   UNL A   1      49.548  25.942  28.269  1.00  0.00     0.009 A 
ATOM     77  C   UNL A   1      50.612  25.978  25.691  1.00  0.00     0.001 A 
ATOM     78  C   UNL A   1      50.876  25.567  28.057  1.00  0.00     0.001 A 
ATOM     79  C   UNL A   1      51.404  25.578  26.767  1.00  0.00     0.000 A 
ENDBRANCH  60  74
BRANCH  61  80
ATOM     80  C   UNL A   1      39.320  28.929  29.265  1.00  0.00    -0.014 A 
ATOM     81  C   UNL A   1      38.789  28.677  30.541  1.00  0.00     0.009 A 
ATOM     82  C   UNL A   1      38.499  29.532  28.300  1.00  0.00     0.009 A 
ATOM     83  C   UNL A   1      37.456  28.982  30.828  1.00  0.00     0.001 A 
ATOM     84  C   UNL A   1      37.178  29.868  28.600  1.00  0.00     0.001 A 
ATOM     85  C   UNL A   1      36.653  29.580  29.859  1.00  0.00     0.000 A 
ENDBRANCH  61  80
BRANCH  73  86
ATOM     86  C   UNL A   1      45.361  32.376  29.258  1.00  0.00    -0.014 A 
ATOM     87  C   UNL A   1      45.252  33.383  28.288  1.00  0.00     0.009 A 
ATOM     88  C   UNL A   1      45.770  32.723  30.556  1.00  0.00     0.009 A 
ATOM     89  C   UNL A   1      45.584  34.703  28.601  1.00  0.00     0.001 A 
ATOM     90  C   UNL A   1      46.067  34.048  30.876  1.00  0.00     0.001 A 
ATOM     91  C   UNL A   1      45.985  35.035  29.896  1.00  0.00     0.000 A 
ENDBRANCH  73  86
ENDBRANCH  47  48
ENDBRANCH  39  42
ENDBRANCH  37  38
ENDBRANCH  36  37
ENDBRANCH  35  36
ENDBRANCH   1  35
TORSDOF 17
ENDMDL
MODEL 3
REMARK VINA RESULT:     -12.1      2.177      6.098
REMARK SMILES CS(=O)(=O)Nc1ccc(-c2cc(Cl)cc3c2O[C@H](C(F)(F)F)C(C(=O)NCCCCCCNC(=O)c2ccc(-c4c5nc(c(-c6ccccc6)c6ccc([nH]6)c(-c6ccccc6)c6nc(c(-c7ccccc7)c7ccc4[nH]7)C=C6)C=C5)cc2)=C3)cc1
REMARK SMILES IDX 29 1 28 2 27 3 26 4 24 5 25 6 23 8 10 9 11 10 16 11 12 12
REMARK SMILES IDX 15 13 17 14 13 15 14 16 84 17 18 18 9 19 6 20 7 21 86 22
REMARK SMILES IDX 8 23 85 24 5 25 2 27 1 28 3 29 4 30 19 31 20 32 21 33 22 34
REMARK SMILES IDX 30 35 31 36 32 37 33 38 34 39 35 41 36 42 37 43 83 44 38 45
REMARK SMILES IDX 82 46 39 47 40 48 41 49 76 50 42 51 81 52 75 53 77 54 43 55
REMARK SMILES IDX 80 56 74 57 73 58 44 60 66 61 51 62 65 63 52 64 55 65 64 66
REMARK SMILES IDX 78 67 53 68 54 69 63 71 79 72 56 73 45 74 46 75 50 76 47 77
REMARK SMILES IDX 49 78 48 79 67 80 68 81 72 82 69 83 71 84 70 85 57 86 58 87
REMARK SMILES IDX 62 88 59 89 61 90 60 91
REMARK H PARENT 26 7 5 26 33 40 77 59 55 70
REMARK Flexibility Score: inf
ROOT
ATOM      1  C   UNL A   1      37.479  22.406  24.835  1.00  0.00     0.002 C 
ENDROOT
BRANCH   1   2
ATOM      2  C   UNL A   1      36.262  21.466  24.887  1.00  0.00     0.021 C 
BRANCH   2   3
ATOM      3  C   UNL A   1      35.386  21.616  26.140  1.00  0.00     0.116 C 
BRANCH   3   4
ATOM      4  N   UNL A   1      34.998  23.001  26.306  1.00  0.00    -0.352 N 
ATOM      5  C   UNL A   1      34.397  23.754  25.349  1.00  0.00     0.251 C 
ATOM      6  O   UNL A   1      34.862  24.844  25.041  1.00  0.00    -0.270 OA
ATOM      7  H   UNL A   1      35.182  23.427  27.174  1.00  0.00     0.163 HD
BRANCH   5   8
ATOM      8  C   UNL A   1      33.082  23.256  24.851  1.00  0.00     0.067 C 
ATOM      9  C   UNL A   1      31.228  26.803  24.162  1.00  0.00     0.026 A 
ATOM     10  C   UNL A   1      31.542  27.628  25.277  1.00  0.00     0.033 A 
ATOM     11  C   UNL A   1      31.519  25.437  24.308  1.00  0.00     0.135 A 
ATOM     12  C   UNL A   1      31.922  27.112  26.514  1.00  0.00     0.042 A 
ATOM     13  C   UNL A   1      31.779  24.922  25.604  1.00  0.00     0.019 A 
ATOM     14  O   UNL A   1      31.639  24.559  23.237  1.00  0.00    -0.475 OA
ATOM     15  Cl  UNL A   1      32.306  28.181  27.803  1.00  0.00    -0.084 Cl
ATOM     16  C   UNL A   1      31.960  25.748  26.708  1.00  0.00     0.032 A 
ATOM     17  C   UNL A   1      32.081  23.479  25.724  1.00  0.00     0.025 C 
ATOM     18  C   UNL A   1      32.769  23.588  23.399  1.00  0.00     0.314 C 
BRANCH   9  19
ATOM     19  C   UNL A   1      30.402  27.472  23.114  1.00  0.00    -0.014 A 
ATOM     20  C   UNL A   1      28.901  29.694  22.150  1.00  0.00     0.048 A 
ATOM     21  C   UNL A   1      30.251  29.544  21.820  1.00  0.00     0.027 A 
ATOM     22  C   UNL A   1      28.263  28.643  22.805  1.00  0.00     0.027 A 
ATOM     23  C   UNL A   1      30.983  28.433  22.264  1.00  0.00     0.011 A 
ATOM     24  C   UNL A   1      29.006  27.539  23.276  1.00  0.00     0.011 A 
BRANCH  20  25
ATOM     25  N   UNL A   1      28.341  30.987  21.942  1.00  0.00    -0.284 N 
ATOM     26  H   UNL A   1      28.102  31.211  21.013  1.00  0.00     0.180 HD
BRANCH  25  27
ATOM     27  S   UNL A   1      28.041  32.163  23.076  1.00  0.00     0.229 S 
ATOM     28  C   UNL A   1      29.510  32.184  24.091  1.00  0.00     0.183 C 
ATOM     29  O   UNL A   1      26.910  31.774  23.890  1.00  0.00    -0.207 OA
ATOM     30  O   UNL A   1      28.026  33.404  22.329  1.00  0.00    -0.207 OA
ENDBRANCH  25  27
ENDBRANCH  20  25
ENDBRANCH   9  19
BRANCH  18  31
ATOM     31  C   UNL A   1      32.508  22.255  22.660  1.00  0.00     0.429 C 
ATOM     32  F   UNL A   1      32.900  22.288  21.368  1.00  0.00    -0.167 F 
ATOM     33  F   UNL A   1      33.152  21.226  23.262  1.00  0.00    -0.167 F 
ATOM     34  F   UNL A   1      31.190  21.916  22.653  1.00  0.00    -0.167 F 
ENDBRANCH  18  31
ENDBRANCH   5   8
ENDBRANCH   3   4
ENDBRANCH   2   3
ENDBRANCH   1   2
BRANCH   1  35
ATOM     35  C   UNL A   1      38.518  22.176  25.934  1.00  0.00     0.002 C 
BRANCH  35  36
ATOM     36  C   UNL A   1      39.172  20.795  25.906  1.00  0.00     0.021 C 
BRANCH  36  37
ATOM     37  C   UNL A   1      40.395  20.656  26.804  1.00  0.00     0.116 C 
BRANCH  37  38
ATOM     38  N   UNL A   1      41.552  20.138  26.093  1.00  0.00    -0.352 N 
ATOM     39  C   UNL A   1      42.714  20.784  25.750  1.00  0.00     0.251 C 
ATOM     40  H   UNL A   1      41.495  19.195  25.819  1.00  0.00     0.163 HD
ATOM     41  O   UNL A   1      43.525  20.251  25.001  1.00  0.00    -0.269 OA
BRANCH  39  42
ATOM     42  C   UNL A   1      42.969  22.143  26.270  1.00  0.00     0.039 A 
ATOM     43  C   UNL A   1      42.858  23.230  25.400  1.00  0.00     0.014 A 
ATOM     44  C   UNL A   1      43.298  22.344  27.613  1.00  0.00     0.014 A 
ATOM     45  C   UNL A   1      43.018  24.526  25.895  1.00  0.00     0.010 A 
ATOM     46  C   UNL A   1      43.379  23.637  28.119  1.00  0.00     0.010 A 
ATOM     47  C   UNL A   1      43.244  24.741  27.264  1.00  0.00    -0.014 A 
BRANCH  47  48
ATOM     48  C   UNL A   1      43.340  26.116  27.818  1.00  0.00     0.031 A 
ATOM     49  C   UNL A   1      42.091  26.906  28.102  1.00  0.00     0.074 A 
ATOM     50  C   UNL A   1      44.552  26.672  28.013  1.00  0.00     0.049 A 
ATOM     51  N   UNL A   1      41.975  28.131  28.551  1.00  0.00    -0.248 NA
ATOM     52  C   UNL A   1      40.806  26.245  27.826  1.00  0.00     0.031 C 
ATOM     53  C   UNL A   1      45.838  26.024  27.743  1.00  0.00     0.029 A 
ATOM     54  N   UNL A   1      44.900  27.914  28.483  1.00  0.00    -0.354 N 
ATOM     55  C   UNL A   1      40.612  28.391  28.590  1.00  0.00     0.074 A 
ATOM     56  C   UNL A   1      39.940  27.217  28.078  1.00  0.00     0.031 C 
ATOM     57  C   UNL A   1      46.832  26.858  28.088  1.00  0.00     0.029 A 
ATOM     58  C   UNL A   1      46.258  28.114  28.557  1.00  0.00     0.049 A 
ATOM     59  H   UNL A   1      44.240  28.596  28.743  1.00  0.00     0.167 HD
ATOM     60  C   UNL A   1      39.973  29.501  29.029  1.00  0.00     0.031 A 
ATOM     61  C   UNL A   1      46.961  29.193  28.952  1.00  0.00     0.031 A 
ATOM     62  C   UNL A   1      40.640  30.663  29.553  1.00  0.00     0.049 A 
ATOM     63  C   UNL A   1      46.224  30.422  29.408  1.00  0.00     0.074 A 
ATOM     64  C   UNL A   1      40.078  31.809  30.089  1.00  0.00     0.029 A 
ATOM     65  N   UNL A   1      42.015  30.829  29.603  1.00  0.00    -0.354 N 
ATOM     66  N   UNL A   1      44.932  30.619  29.519  1.00  0.00    -0.248 NA
ATOM     67  C   UNL A   1      47.044  31.575  29.805  1.00  0.00     0.031 C 
ATOM     68  C   UNL A   1      41.112  32.696  30.401  1.00  0.00     0.029 A 
ATOM     69  C   UNL A   1      42.319  32.075  30.125  1.00  0.00     0.049 A 
ATOM     70  H   UNL A   1      42.677  30.162  29.311  1.00  0.00     0.167 HD
ATOM     71  C   UNL A   1      44.788  31.903  30.032  1.00  0.00     0.074 A 
ATOM     72  C   UNL A   1      46.123  32.429  30.226  1.00  0.00     0.031 C 
ATOM     73  C   UNL A   1      43.652  32.584  30.319  1.00  0.00     0.031 A 
BRANCH  60  74
ATOM     74  C   UNL A   1      38.472  29.525  28.948  1.00  0.00    -0.014 A 
ATOM     75  C   UNL A   1      37.674  29.378  30.094  1.00  0.00     0.009 A 
ATOM     76  C   UNL A   1      37.846  29.755  27.713  1.00  0.00     0.009 A 
ATOM     77  C   UNL A   1      36.281  29.431  29.999  1.00  0.00     0.001 A 
ATOM     78  C   UNL A   1      36.456  29.838  27.624  1.00  0.00     0.001 A 
ATOM     79  C   UNL A   1      35.674  29.669  28.765  1.00  0.00     0.000 A 
ENDBRANCH  60  74
BRANCH  61  80
ATOM     80  C   UNL A   1      48.449  29.168  28.946  1.00  0.00    -0.014 A 
ATOM     81  C   UNL A   1      49.154  28.582  30.010  1.00  0.00     0.009 A 
ATOM     82  C   UNL A   1      49.173  29.760  27.900  1.00  0.00     0.009 A 
ATOM     83  C   UNL A   1      50.550  28.626  30.045  1.00  0.00     0.001 A 
ATOM     84  C   UNL A   1      50.569  29.772  27.921  1.00  0.00     0.001 A 
ATOM     85  C   UNL A   1      51.256  29.218  29.000  1.00  0.00     0.000 A 
ENDBRANCH  61  80
BRANCH  73  86
ATOM     86  C   UNL A   1      43.803  33.955  30.916  1.00  0.00    -0.014 A 
ATOM     87  C   UNL A   1      43.849  35.105  30.114  1.00  0.00     0.009 A 
ATOM     88  C   UNL A   1      43.861  34.097  32.312  1.00  0.00     0.009 A 
ATOM     89  C   UNL A   1      43.989  36.367  30.696  1.00  0.00     0.001 A 
ATOM     90  C   UNL A   1      43.966  35.362  32.893  1.00  0.00     0.001 A 
ATOM     91  C   UNL A   1      44.041  36.494  32.084  1.00  0.00     0.000 A 
ENDBRANCH  73  86
ENDBRANCH  47  48
ENDBRANCH  39  42
ENDBRANCH  37  38
ENDBRANCH  36  37
ENDBRANCH  35  36
ENDBRANCH   1  35
TORSDOF 17
ENDMDL
