MODEL 1
REMARK VINA RESULT:     -10.7      0.000      0.000
REMARK SMILES [NH3+]C[C@H]1CC[C@@H](C(=O)Nc2ccc(O)c(C(=O)NCCCCCCNC(=O)c3ccc(-c4c5nc(c(-c6ccccc6)c6ccc([nH]6)c(-c6ccccc6)c6nc(c(-c7ccccc7)c7ccc4[nH]7)C=C6)C=C5)cc3)c2)O1
REMARK SMILES IDX 20 1 19 2 18 3 16 4 17 5 15 7 10 8 11 9 76 10 12 11 13 12
REMARK SMILES IDX 9 13 7 14 8 15 6 17 3 18 4 19 77 20 5 21 2 22 1 23 14 27
REMARK SMILES IDX 21 29 22 30 23 31 24 32 25 33 26 34 27 36 28 37 29 38 75 39
REMARK SMILES IDX 30 40 74 41 31 42 32 43 33 44 68 45 34 46 73 47 67 48 69 49
REMARK SMILES IDX 35 50 72 51 66 52 65 53 36 55 58 56 43 57 57 58 44 59 47 60
REMARK SMILES IDX 56 61 70 62 45 63 46 64 55 66 71 67 48 68 37 69 38 70 42 71
REMARK SMILES IDX 39 72 41 73 40 74 59 75 60 76 64 77 61 78 63 79 62 80 49 81
REMARK SMILES IDX 50 82 54 83 51 84 53 85 52 86
REMARK H PARENT 18 6 9 16 1 24 1 25 1 26 14 28 25 35 69 54 47 65
REMARK Flexibility Score: inf
ROOT
ATOM      1  C   UNL A   1      37.929  23.713  25.767  1.00  0.00     0.021 C 
ENDROOT
BRANCH   1   2
ATOM      2  C   UNL A   1      36.397  23.705  25.808  1.00  0.00     0.116 C 
BRANCH   2   3
ATOM      3  N   UNL A   1      35.870  24.081  24.513  1.00  0.00    -0.352 N 
ATOM      4  C   UNL A   1      34.757  23.678  23.826  1.00  0.00     0.255 C 
ATOM      5  O   UNL A   1      34.622  24.114  22.679  1.00  0.00    -0.269 OA
ATOM      6  H   UNL A   1      36.414  24.750  24.038  1.00  0.00     0.163 HD
BRANCH   4   7
ATOM      7  C   UNL A   1      33.656  22.851  24.396  1.00  0.00     0.083 A 
ATOM      8  C   UNL A   1      32.348  20.813  24.029  1.00  0.00     0.042 A 
ATOM      9  C   UNL A   1      31.661  21.042  25.219  1.00  0.00     0.030 A 
ATOM     10  C   UNL A   1      33.362  21.691  23.648  1.00  0.00     0.043 A 
ATOM     11  C   UNL A   1      31.953  22.166  25.990  1.00  0.00     0.049 A 
ATOM     12  C   UNL A   1      32.951  23.061  25.587  1.00  0.00     0.128 A 
BRANCH   8  13
ATOM     13  N   UNL A   1      32.122  19.683  23.234  1.00  0.00    -0.324 N 
ATOM     14  C   UNL A   1      32.829  18.510  23.157  1.00  0.00     0.253 C 
ATOM     15  O   UNL A   1      32.633  17.766  22.192  1.00  0.00    -0.272 OA
ATOM     16  H   UNL A   1      31.339  19.740  22.640  1.00  0.00     0.170 HD
BRANCH  14  17
ATOM     17  C   UNL A   1      33.703  18.084  24.348  1.00  0.00     0.208 C 
ATOM     18  C   UNL A   1      33.554  16.221  25.768  1.00  0.00     0.174 C 
ATOM     19  C   UNL A   1      34.983  16.348  25.262  1.00  0.00     0.041 C 
ATOM     20  O   UNL A   1      32.883  17.421  25.336  1.00  0.00    -0.359 OA
ATOM     21  C   UNL A   1      34.802  17.108  23.972  1.00  0.00     0.045 C 
BRANCH  18  22
ATOM     22  C   UNL A   1      32.781  15.001  25.228  1.00  0.00     0.291 C 
BRANCH  22  23
ATOM     23  N   UNL A   1      31.424  14.860  25.755  1.00  0.00    -0.355 N 
ATOM     24  H   UNL A   1      31.294  13.911  26.109  1.00  0.00     0.344 HD
ATOM     25  H   UNL A   1      30.749  15.039  25.011  1.00  0.00     0.344 HD
ATOM     26  H   UNL A   1      31.282  15.528  26.512  1.00  0.00     0.344 HD
ENDBRANCH  22  23
ENDBRANCH  18  22
ENDBRANCH  14  17
ENDBRANCH   8  13
BRANCH  12  27
ATOM     27  O   UNL A   1      33.239  24.089  26.434  1.00  0.00    -0.507 OA
ATOM     28  H   UNL A   1      33.670  23.918  27.248  1.00  0.00     0.293 HD
ENDBRANCH  12  27
ENDBRANCH   4   7
ENDBRANCH   2   3
ENDBRANCH   1   2
BRANCH   1  29
ATOM     29  C   UNL A   1      38.558  22.320  25.866  1.00  0.00     0.002 C 
BRANCH  29  30
ATOM     30  C   UNL A   1      37.894  21.250  24.993  1.00  0.00     0.002 C 
BRANCH  30  31
ATOM     31  C   UNL A   1      38.569  19.875  25.014  1.00  0.00     0.021 C 
BRANCH  31  32
ATOM     32  C   UNL A   1      39.404  19.583  26.259  1.00  0.00     0.116 C 
BRANCH  32  33
ATOM     33  N   UNL A   1      40.680  18.974  25.925  1.00  0.00    -0.352 N 
ATOM     34  C   UNL A   1      41.932  19.533  25.867  1.00  0.00     0.251 C 
ATOM     35  H   UNL A   1      40.640  18.016  25.707  1.00  0.00     0.163 HD
ATOM     36  O   UNL A   1      42.854  18.909  25.351  1.00  0.00    -0.269 OA
BRANCH  34  37
ATOM     37  C   UNL A   1      42.180  20.884  26.416  1.00  0.00     0.039 A 
ATOM     38  C   UNL A   1      42.122  21.064  27.801  1.00  0.00     0.014 A 
ATOM     39  C   UNL A   1      42.406  21.981  25.578  1.00  0.00     0.014 A 
ATOM     40  C   UNL A   1      42.325  22.333  28.347  1.00  0.00     0.010 A 
ATOM     41  C   UNL A   1      42.665  23.238  26.127  1.00  0.00     0.010 A 
ATOM     42  C   UNL A   1      42.617  23.427  27.515  1.00  0.00    -0.014 A 
BRANCH  42  43
ATOM     43  C   UNL A   1      42.858  24.771  28.096  1.00  0.00     0.031 A 
ATOM     44  C   UNL A   1      44.246  25.188  28.504  1.00  0.00     0.074 A 
ATOM     45  C   UNL A   1      41.824  25.616  28.270  1.00  0.00     0.049 A 
ATOM     46  N   UNL A   1      44.647  26.322  29.021  1.00  0.00    -0.248 NA
ATOM     47  C   UNL A   1      45.318  24.197  28.324  1.00  0.00     0.031 C 
ATOM     48  C   UNL A   1      40.427  25.324  27.944  1.00  0.00     0.029 A 
ATOM     49  N   UNL A   1      41.790  26.898  28.760  1.00  0.00    -0.354 N 
ATOM     50  C   UNL A   1      46.014  26.181  29.227  1.00  0.00     0.074 A 
ATOM     51  C   UNL A   1      46.365  24.835  28.828  1.00  0.00     0.031 C 
ATOM     52  C   UNL A   1      39.678  26.408  28.209  1.00  0.00     0.029 A 
ATOM     53  C   UNL A   1      40.535  27.457  28.751  1.00  0.00     0.049 A 
ATOM     54  H   UNL A   1      42.589  27.372  29.087  1.00  0.00     0.167 HD
ATOM     55  C   UNL A   1      46.903  27.095  29.686  1.00  0.00     0.031 A 
ATOM     56  C   UNL A   1      40.124  28.681  29.128  1.00  0.00     0.031 A 
ATOM     57  C   UNL A   1      46.562  28.435  30.079  1.00  0.00     0.049 A 
ATOM     58  C   UNL A   1      41.130  29.672  29.642  1.00  0.00     0.074 A 
ATOM     59  C   UNL A   1      47.398  29.441  30.535  1.00  0.00     0.029 A 
ATOM     60  N   UNL A   1      45.281  28.962  30.053  1.00  0.00    -0.354 N 
ATOM     61  N   UNL A   1      42.425  29.534  29.788  1.00  0.00    -0.248 NA
ATOM     62  C   UNL A   1      40.616  30.993  30.029  1.00  0.00     0.031 C 
ATOM     63  C   UNL A   1      46.616  30.567  30.815  1.00  0.00     0.029 A 
ATOM     64  C   UNL A   1      45.301  30.274  30.493  1.00  0.00     0.049 A 
ATOM     65  H   UNL A   1      44.476  28.474  29.765  1.00  0.00     0.167 HD
ATOM     66  C   UNL A   1      42.884  30.758  30.256  1.00  0.00     0.074 A 
ATOM     67  C   UNL A   1      41.732  31.630  30.352  1.00  0.00     0.031 C 
ATOM     68  C   UNL A   1      44.147  31.127  30.579  1.00  0.00     0.031 A 
BRANCH  55  69
ATOM     69  C   UNL A   1      48.342  26.672  29.778  1.00  0.00    -0.014 A 
ATOM     70  C   UNL A   1      48.826  26.016  30.920  1.00  0.00     0.009 A 
ATOM     71  C   UNL A   1      49.209  26.885  28.696  1.00  0.00     0.009 A 
ATOM     72  C   UNL A   1      50.159  25.607  30.990  1.00  0.00     0.001 A 
ATOM     73  C   UNL A   1      50.536  26.454  28.759  1.00  0.00     0.001 A 
ATOM     74  C   UNL A   1      51.012  25.822  29.907  1.00  0.00     0.000 A 
ENDBRANCH  55  69
BRANCH  56  75
ATOM     75  C   UNL A   1      38.691  29.059  29.013  1.00  0.00    -0.014 A 
ATOM     76  C   UNL A   1      38.179  29.538  27.798  1.00  0.00     0.009 A 
ATOM     77  C   UNL A   1      37.838  28.971  30.124  1.00  0.00     0.009 A 
ATOM     78  C   UNL A   1      36.850  29.954  27.706  1.00  0.00     0.001 A 
ATOM     79  C   UNL A   1      36.502  29.364  30.021  1.00  0.00     0.001 A 
ATOM     80  C   UNL A   1      36.012  29.865  28.817  1.00  0.00     0.000 A 
ENDBRANCH  56  75
BRANCH  68  81
ATOM     81  C   UNL A   1      44.346  32.546  31.031  1.00  0.00    -0.014 A 
ATOM     82  C   UNL A   1      44.226  32.901  32.383  1.00  0.00     0.009 A 
ATOM     83  C   UNL A   1      44.675  33.534  30.091  1.00  0.00     0.009 A 
ATOM     84  C   UNL A   1      44.394  34.228  32.780  1.00  0.00     0.001 A 
ATOM     85  C   UNL A   1      44.869  34.856  30.495  1.00  0.00     0.001 A 
ATOM     86  C   UNL A   1      44.718  35.203  31.837  1.00  0.00     0.000 A 
ENDBRANCH  68  81
ENDBRANCH  42  43
ENDBRANCH  34  37
ENDBRANCH  32  33
ENDBRANCH  31  32
ENDBRANCH  30  31
ENDBRANCH  29  30
ENDBRANCH   1  29
TORSDOF 18
ENDMDL
MODEL 2
REMARK VINA RESULT:     -10.6      2.037      7.313
REMARK SMILES [NH3+]C[C@H]1CC[C@@H](C(=O)Nc2ccc(O)c(C(=O)NCCCCCCNC(=O)c3ccc(-c4c5nc(c(-c6ccccc6)c6ccc([nH]6)c(-c6ccccc6)c6nc(c(-c7ccccc7)c7ccc4[nH]7)C=C6)C=C5)cc3)c2)O1
REMARK SMILES IDX 20 1 19 2 18 3 16 4 17 5 15 7 10 8 11 9 76 10 12 11 13 12
REMARK SMILES IDX 9 13 7 14 8 15 6 17 3 18 4 19 77 20 5 21 2 22 1 23 14 27
REMARK SMILES IDX 21 29 22 30 23 31 24 32 25 33 26 34 27 36 28 37 29 38 75 39
REMARK SMILES IDX 30 40 74 41 31 42 32 43 33 44 68 45 34 46 73 47 67 48 69 49
REMARK SMILES IDX 35 50 72 51 66 52 65 53 36 55 58 56 43 57 57 58 44 59 47 60
REMARK SMILES IDX 56 61 70 62 45 63 46 64 55 66 71 67 48 68 37 69 38 70 42 71
REMARK SMILES IDX 39 72 41 73 40 74 59 75 60 76 64 77 61 78 63 79 62 80 49 81
REMARK SMILES IDX 50 82 54 83 51 84 53 85 52 86
REMARK H PARENT 18 6 9 16 1 24 1 25 1 26 14 28 25 35 69 54 47 65
REMARK Flexibility Score: inf
ROOT
ATOM      1  C   UNL A   1      33.530  19.533  25.574  1.00  0.00     0.021 C 
ENDROOT
BRANCH   1   2
ATOM      2  C   UNL A   1      32.294  20.159  24.921  1.00  0.00     0.116 C 
BRANCH   2   3
ATOM      3  N   UNL A   1      31.688  21.109  25.830  1.00  0.00    -0.352 N 
ATOM      4  C   UNL A   1      32.152  22.276  26.376  1.00  0.00     0.255 C 
ATOM      5  O   UNL A   1      31.426  22.827  27.208  1.00  0.00    -0.269 OA
ATOM      6  H   UNL A   1      30.774  20.872  26.107  1.00  0.00     0.163 HD
BRANCH   4   7
ATOM      7  C   UNL A   1      33.400  22.975  25.961  1.00  0.00     0.083 A 
ATOM      8  C   UNL A   1      34.418  24.238  24.126  1.00  0.00     0.042 A 
ATOM      9  C   UNL A   1      35.570  24.414  24.889  1.00  0.00     0.030 A 
ATOM     10  C   UNL A   1      33.333  23.559  24.678  1.00  0.00     0.043 A 
ATOM     11  C   UNL A   1      35.650  23.871  26.170  1.00  0.00     0.049 A 
ATOM     12  C   UNL A   1      34.569  23.164  26.708  1.00  0.00     0.128 A 
BRANCH   8  13
ATOM     13  N   UNL A   1      34.268  24.791  22.848  1.00  0.00    -0.324 N 
ATOM     14  C   UNL A   1      33.564  25.898  22.450  1.00  0.00     0.253 C 
ATOM     15  O   UNL A   1      33.326  26.045  21.248  1.00  0.00    -0.272 OA
ATOM     16  H   UNL A   1      34.738  24.312  22.128  1.00  0.00     0.170 HD
BRANCH  14  17
ATOM     17  C   UNL A   1      33.248  26.994  23.481  1.00  0.00     0.208 C 
ATOM     18  C   UNL A   1      31.915  28.919  23.311  1.00  0.00     0.174 C 
ATOM     19  C   UNL A   1      31.536  28.161  24.576  1.00  0.00     0.041 C 
ATOM     20  O   UNL A   1      33.094  28.263  22.806  1.00  0.00    -0.359 OA
ATOM     21  C   UNL A   1      31.960  26.752  24.246  1.00  0.00     0.045 C 
BRANCH  18  22
ATOM     22  C   UNL A   1      30.837  28.917  22.208  1.00  0.00     0.291 C 
BRANCH  22  23
ATOM     23  N   UNL A   1      30.525  30.238  21.663  1.00  0.00    -0.355 N 
ATOM     24  H   UNL A   1      29.599  30.526  21.982  1.00  0.00     0.344 HD
ATOM     25  H   UNL A   1      30.534  30.197  20.644  1.00  0.00     0.344 HD
ATOM     26  H   UNL A   1      31.220  30.912  21.983  1.00  0.00     0.344 HD
ENDBRANCH  22  23
ENDBRANCH  18  22
ENDBRANCH  14  17
ENDBRANCH   8  13
BRANCH  12  27
ATOM     27  O   UNL A   1      34.688  22.737  27.997  1.00  0.00    -0.507 OA
ATOM     28  H   UNL A   1      35.403  22.183  28.242  1.00  0.00     0.293 HD
ENDBRANCH  12  27
ENDBRANCH   4   7
ENDBRANCH   2   3
ENDBRANCH   1   2
BRANCH   1  29
ATOM     29  C   UNL A   1      34.745  19.445  24.644  1.00  0.00     0.002 C 
BRANCH  29  30
ATOM     30  C   UNL A   1      35.933  20.322  25.054  1.00  0.00     0.002 C 
BRANCH  30  31
ATOM     31  C   UNL A   1      37.315  19.746  24.730  1.00  0.00     0.021 C 
BRANCH  31  32
ATOM     32  C   UNL A   1      38.471  20.359  25.518  1.00  0.00     0.116 C 
BRANCH  32  33
ATOM     33  N   UNL A   1      39.562  19.418  25.700  1.00  0.00    -0.352 N 
ATOM     34  C   UNL A   1      40.869  19.645  26.049  1.00  0.00     0.251 C 
ATOM     35  H   UNL A   1      39.329  18.474  25.549  1.00  0.00     0.163 HD
ATOM     36  O   UNL A   1      41.696  18.745  25.937  1.00  0.00    -0.269 OA
BRANCH  34  37
ATOM     37  C   UNL A   1      41.296  20.969  26.553  1.00  0.00     0.039 A 
ATOM     38  C   UNL A   1      41.144  21.245  27.915  1.00  0.00     0.014 A 
ATOM     39  C   UNL A   1      41.781  21.957  25.690  1.00  0.00     0.014 A 
ATOM     40  C   UNL A   1      41.512  22.496  28.417  1.00  0.00     0.010 A 
ATOM     41  C   UNL A   1      42.201  23.186  26.201  1.00  0.00     0.010 A 
ATOM     42  C   UNL A   1      42.061  23.469  27.567  1.00  0.00    -0.014 A 
BRANCH  42  43
ATOM     43  C   UNL A   1      42.476  24.790  28.104  1.00  0.00     0.031 A 
ATOM     44  C   UNL A   1      41.467  25.890  28.288  1.00  0.00     0.074 A 
ATOM     45  C   UNL A   1      43.769  25.005  28.414  1.00  0.00     0.049 A 
ATOM     46  N   UNL A   1      41.643  27.103  28.749  1.00  0.00    -0.248 NA
ATOM     47  C   UNL A   1      40.082  25.596  27.887  1.00  0.00     0.031 C 
ATOM     48  C   UNL A   1      44.852  24.032  28.255  1.00  0.00     0.029 A 
ATOM     49  N   UNL A   1      44.391  26.112  28.934  1.00  0.00    -0.354 N 
ATOM     50  C   UNL A   1      40.398  27.715  28.694  1.00  0.00     0.074 A 
ATOM     51  C   UNL A   1      39.483  26.759  28.108  1.00  0.00     0.031 C 
ATOM     52  C   UNL A   1      45.998  24.573  28.702  1.00  0.00     0.029 A 
ATOM     53  C   UNL A   1      45.736  25.937  29.150  1.00  0.00     0.049 A 
ATOM     54  H   UNL A   1      43.917  26.952  29.135  1.00  0.00     0.167 HD
ATOM     55  C   UNL A   1      40.039  28.952  29.113  1.00  0.00     0.031 A 
ATOM     56  C   UNL A   1      46.654  26.778  29.661  1.00  0.00     0.031 A 
ATOM     57  C   UNL A   1      40.941  29.905  29.701  1.00  0.00     0.049 A 
ATOM     58  C   UNL A   1      46.230  28.149  30.109  1.00  0.00     0.074 A 
ATOM     59  C   UNL A   1      40.666  31.176  30.178  1.00  0.00     0.029 A 
ATOM     60  N   UNL A   1      42.294  29.688  29.902  1.00  0.00    -0.354 N 
ATOM     61  N   UNL A   1      45.038  28.692  30.089  1.00  0.00    -0.248 NA
ATOM     62  C   UNL A   1      47.280  29.014  30.664  1.00  0.00     0.031 C 
ATOM     63  C   UNL A   1      41.860  31.739  30.639  1.00  0.00     0.029 A 
ATOM     64  C   UNL A   1      42.870  30.803  30.487  1.00  0.00     0.049 A 
ATOM     65  H   UNL A   1      42.775  28.862  29.664  1.00  0.00     0.167 HD
ATOM     66  C   UNL A   1      45.189  29.952  30.654  1.00  0.00     0.074 A 
ATOM     67  C   UNL A   1      46.583  30.083  31.022  1.00  0.00     0.031 C 
ATOM     68  C   UNL A   1      44.257  30.915  30.850  1.00  0.00     0.031 A 
BRANCH  55  69
ATOM     69  C   UNL A   1      38.596  29.343  28.957  1.00  0.00    -0.014 A 
ATOM     70  C   UNL A   1      38.110  29.819  27.729  1.00  0.00     0.009 A 
ATOM     71  C   UNL A   1      37.704  29.187  30.028  1.00  0.00     0.009 A 
ATOM     72  C   UNL A   1      36.764  30.160  27.586  1.00  0.00     0.001 A 
ATOM     73  C   UNL A   1      36.353  29.506  29.875  1.00  0.00     0.001 A 
ATOM     74  C   UNL A   1      35.886  29.998  28.657  1.00  0.00     0.000 A 
ENDBRANCH  55  69
BRANCH  56  75
ATOM     75  C   UNL A   1      48.069  26.347  29.803  1.00  0.00    -0.014 A 
ATOM     76  C   UNL A   1      48.967  26.500  28.735  1.00  0.00     0.009 A 
ATOM     77  C   UNL A   1      48.520  25.755  30.992  1.00  0.00     0.009 A 
ATOM     78  C   UNL A   1      50.280  26.036  28.844  1.00  0.00     0.001 A 
ATOM     79  C   UNL A   1      49.840  25.317  31.107  1.00  0.00     0.001 A 
ATOM     80  C   UNL A   1      50.716  25.447  30.030  1.00  0.00     0.000 A 
ENDBRANCH  56  75
BRANCH  68  81
ATOM     81  C   UNL A   1      44.713  32.177  31.524  1.00  0.00    -0.014 A 
ATOM     82  C   UNL A   1      44.675  32.308  32.920  1.00  0.00     0.009 A 
ATOM     83  C   UNL A   1      45.202  33.239  30.750  1.00  0.00     0.009 A 
ATOM     84  C   UNL A   1      45.084  33.497  33.526  1.00  0.00     0.001 A 
ATOM     85  C   UNL A   1      45.635  34.418  31.360  1.00  0.00     0.001 A 
ATOM     86  C   UNL A   1      45.566  34.549  32.747  1.00  0.00     0.000 A 
ENDBRANCH  68  81
ENDBRANCH  42  43
ENDBRANCH  34  37
ENDBRANCH  32  33
ENDBRANCH  31  32
ENDBRANCH  30  31
ENDBRANCH  29  30
ENDBRANCH   1  29
TORSDOF 18
ENDMDL
MODEL 3
REMARK VINA RESULT:     -10.5      1.870      3.892
REMARK SMILES [NH3+]C[C@H]1CC[C@@H](C(=O)Nc2ccc(O)c(C(=O)NCCCCCCNC(=O)c3ccc(-c4c5nc(c(-c6ccccc6)c6ccc([nH]6)c(-c6ccccc6)c6nc(c(-c7ccccc7)c7ccc4[nH]7)C=C6)C=C5)cc3)c2)O1
REMARK SMILES IDX 20 1 19 2 18 3 16 4 17 5 15 7 10 8 11 9 76 10 12 11 13 12
REMARK SMILES IDX 9 13 7 14 8 15 6 17 3 18 4 19 77 20 5 21 2 22 1 23 14 27
REMARK SMILES IDX 21 29 22 30 23 31 24 32 25 33 26 34 27 36 28 37 29 38 75 39
REMARK SMILES IDX 30 40 74 41 31 42 32 43 33 44 68 45 34 46 73 47 67 48 69 49
REMARK SMILES IDX 35 50 72 51 66 52 65 53 36 55 58 56 43 57 57 58 44 59 47 60
REMARK SMILES IDX 56 61 70 62 45 63 46 64 55 66 71 67 48 68 37 69 38 70 42 71
REMARK SMILES IDX 39 72 41 73 40 74 59 75 60 76 64 77 61 78 63 79 62 80 49 81
REMARK SMILES IDX 50 82 54 83 51 84 53 85 52 86
REMARK H PARENT 18 6 9 16 1 24 1 25 1 26 14 28 25 35 69 54 47 65
REMARK Flexibility Score: inf
ROOT
ATOM      1  C   UNL A   1      37.927  23.642  26.190  1.00  0.00     0.021 C 
ENDROOT
BRANCH   1   2
ATOM      2  C   UNL A   1      36.454  23.589  25.773  1.00  0.00     0.116 C 
BRANCH   2   3
ATOM      3  N   UNL A   1      35.668  22.984  26.828  1.00  0.00    -0.352 N 
ATOM      4  C   UNL A   1      34.451  22.357  26.817  1.00  0.00     0.255 C 
ATOM      5  O   UNL A   1      33.987  22.025  27.912  1.00  0.00    -0.269 OA
ATOM      6  H   UNL A   1      36.087  23.033  27.717  1.00  0.00     0.163 HD
BRANCH   4   7
ATOM      7  C   UNL A   1      33.709  21.954  25.589  1.00  0.00     0.083 A 
ATOM      8  C   UNL A   1      33.099  22.703  23.339  1.00  0.00     0.042 A 
ATOM      9  C   UNL A   1      32.452  21.490  23.113  1.00  0.00     0.030 A 
ATOM     10  C   UNL A   1      33.753  22.910  24.552  1.00  0.00     0.043 A 
ATOM     11  C   UNL A   1      32.419  20.519  24.112  1.00  0.00     0.049 A 
ATOM     12  C   UNL A   1      33.051  20.744  25.340  1.00  0.00     0.128 A 
BRANCH   8  13
ATOM     13  N   UNL A   1      33.195  23.700  22.360  1.00  0.00    -0.324 N 
ATOM     14  C   UNL A   1      32.497  24.873  22.233  1.00  0.00     0.253 C 
ATOM     15  O   UNL A   1      32.531  25.466  21.151  1.00  0.00    -0.272 OA
ATOM     16  H   UNL A   1      33.864  23.532  21.658  1.00  0.00     0.170 HD
BRANCH  14  17
ATOM     17  C   UNL A   1      31.846  25.494  23.479  1.00  0.00     0.208 C 
ATOM     18  C   UNL A   1      30.827  27.586  23.794  1.00  0.00     0.174 C 
ATOM     19  C   UNL A   1      29.907  26.498  24.330  1.00  0.00     0.041 C 
ATOM     20  O   UNL A   1      32.067  26.922  23.480  1.00  0.00    -0.359 OA
ATOM     21  C   UNL A   1      30.343  25.289  23.541  1.00  0.00     0.045 C 
BRANCH  18  22
ATOM     22  C   UNL A   1      30.315  28.302  22.527  1.00  0.00     0.291 C 
BRANCH  22  23
ATOM     23  N   UNL A   1      31.145  29.422  22.086  1.00  0.00    -0.355 N 
ATOM     24  H   UNL A   1      31.756  29.114  21.329  1.00  0.00     0.344 HD
ATOM     25  H   UNL A   1      31.712  29.754  22.866  1.00  0.00     0.344 HD
ATOM     26  H   UNL A   1      30.547  30.179  21.754  1.00  0.00     0.344 HD
ENDBRANCH  22  23
ENDBRANCH  18  22
ENDBRANCH  14  17
ENDBRANCH   8  13
BRANCH  12  27
ATOM     27  O   UNL A   1      33.050  19.717  26.235  1.00  0.00    -0.507 OA
ATOM     28  H   UNL A   1      33.742  19.085  26.223  1.00  0.00     0.293 HD
ENDBRANCH  12  27
ENDBRANCH   4   7
ENDBRANCH   2   3
ENDBRANCH   1   2
BRANCH   1  29
ATOM     29  C   UNL A   1      38.670  22.314  26.010  1.00  0.00     0.002 C 
BRANCH  29  30
ATOM     30  C   UNL A   1      38.039  21.357  24.993  1.00  0.00     0.002 C 
BRANCH  30  31
ATOM     31  C   UNL A   1      38.481  19.894  25.108  1.00  0.00     0.021 C 
BRANCH  31  32
ATOM     32  C   UNL A   1      39.414  19.591  26.278  1.00  0.00     0.116 C 
BRANCH  32  33
ATOM     33  N   UNL A   1      40.691  19.063  25.830  1.00  0.00    -0.352 N 
ATOM     34  C   UNL A   1      41.914  19.678  25.742  1.00  0.00     0.251 C 
ATOM     35  H   UNL A   1      40.677  18.121  25.546  1.00  0.00     0.163 HD
ATOM     36  O   UNL A   1      42.828  19.132  25.132  1.00  0.00    -0.269 OA
BRANCH  34  37
ATOM     37  C   UNL A   1      42.141  20.998  26.371  1.00  0.00     0.039 A 
ATOM     38  C   UNL A   1      42.458  22.083  25.549  1.00  0.00     0.014 A 
ATOM     39  C   UNL A   1      42.108  21.160  27.760  1.00  0.00     0.014 A 
ATOM     40  C   UNL A   1      42.705  23.336  26.114  1.00  0.00     0.010 A 
ATOM     41  C   UNL A   1      42.300  22.423  28.320  1.00  0.00     0.010 A 
ATOM     42  C   UNL A   1      42.609  23.520  27.503  1.00  0.00    -0.014 A 
BRANCH  42  43
ATOM     43  C   UNL A   1      42.846  24.857  28.104  1.00  0.00     0.031 A 
ATOM     44  C   UNL A   1      44.229  25.265  28.536  1.00  0.00     0.074 A 
ATOM     45  C   UNL A   1      41.811  25.702  28.274  1.00  0.00     0.049 A 
ATOM     46  N   UNL A   1      44.626  26.391  29.071  1.00  0.00    -0.248 NA
ATOM     47  C   UNL A   1      45.301  24.273  28.358  1.00  0.00     0.031 C 
ATOM     48  C   UNL A   1      40.418  25.418  27.925  1.00  0.00     0.029 A 
ATOM     49  N   UNL A   1      41.774  26.978  28.779  1.00  0.00    -0.354 N 
ATOM     50  C   UNL A   1      45.989  26.245  29.294  1.00  0.00     0.074 A 
ATOM     51  C   UNL A   1      46.343  24.903  28.883  1.00  0.00     0.031 C 
ATOM     52  C   UNL A   1      39.669  26.500  28.194  1.00  0.00     0.029 A 
ATOM     53  C   UNL A   1      40.521  27.541  28.759  1.00  0.00     0.049 A 
ATOM     54  H   UNL A   1      42.570  27.446  29.122  1.00  0.00     0.167 HD
ATOM     55  C   UNL A   1      46.875  27.150  29.775  1.00  0.00     0.031 A 
ATOM     56  C   UNL A   1      40.108  28.762  29.146  1.00  0.00     0.031 A 
ATOM     57  C   UNL A   1      46.532  28.487  30.180  1.00  0.00     0.049 A 
ATOM     58  C   UNL A   1      41.109  29.743  29.686  1.00  0.00     0.074 A 
ATOM     59  C   UNL A   1      47.363  29.485  30.659  1.00  0.00     0.029 A 
ATOM     60  N   UNL A   1      45.252  29.017  30.143  1.00  0.00    -0.354 N 
ATOM     61  N   UNL A   1      42.401  29.600  29.847  1.00  0.00    -0.248 NA
ATOM     62  C   UNL A   1      40.593  31.061  30.081  1.00  0.00     0.031 C 
ATOM     63  C   UNL A   1      46.581  30.610  30.942  1.00  0.00     0.029 A 
ATOM     64  C   UNL A   1      45.269  30.324  30.600  1.00  0.00     0.049 A 
ATOM     65  H   UNL A   1      44.449  28.535  29.839  1.00  0.00     0.167 HD
ATOM     66  C   UNL A   1      42.857  30.817  30.336  1.00  0.00     0.074 A 
ATOM     67  C   UNL A   1      41.706  31.691  30.427  1.00  0.00     0.031 C 
ATOM     68  C   UNL A   1      44.116  31.179  30.680  1.00  0.00     0.031 A 
BRANCH  55  69
ATOM     69  C   UNL A   1      48.311  26.723  29.882  1.00  0.00    -0.014 A 
ATOM     70  C   UNL A   1      48.782  26.066  31.029  1.00  0.00     0.009 A 
ATOM     71  C   UNL A   1      49.190  26.933  28.809  1.00  0.00     0.009 A 
ATOM     72  C   UNL A   1      50.113  25.653  31.112  1.00  0.00     0.001 A 
ATOM     73  C   UNL A   1      50.515  26.497  28.884  1.00  0.00     0.001 A 
ATOM     74  C   UNL A   1      50.976  25.864  30.038  1.00  0.00     0.000 A 
ENDBRANCH  55  69
BRANCH  56  75
ATOM     75  C   UNL A   1      38.677  29.144  29.017  1.00  0.00    -0.014 A 
ATOM     76  C   UNL A   1      38.187  29.658  27.806  1.00  0.00     0.009 A 
ATOM     77  C   UNL A   1      37.805  29.027  30.109  1.00  0.00     0.009 A 
ATOM     78  C   UNL A   1      36.860  30.078  27.702  1.00  0.00     0.001 A 
ATOM     79  C   UNL A   1      36.471  29.424  29.993  1.00  0.00     0.001 A 
ATOM     80  C   UNL A   1      36.002  29.959  28.795  1.00  0.00     0.000 A 
ENDBRANCH  56  75
BRANCH  68  81
ATOM     81  C   UNL A   1      44.313  32.592  31.152  1.00  0.00    -0.014 A 
ATOM     82  C   UNL A   1      44.230  32.921  32.513  1.00  0.00     0.009 A 
ATOM     83  C   UNL A   1      44.602  33.600  30.221  1.00  0.00     0.009 A 
ATOM     84  C   UNL A   1      44.395  34.242  32.929  1.00  0.00     0.001 A 
ATOM     85  C   UNL A   1      44.793  34.918  30.643  1.00  0.00     0.001 A 
ATOM     86  C   UNL A   1      44.678  35.238  31.995  1.00  0.00     0.000 A 
ENDBRANCH  68  81
ENDBRANCH  42  43
ENDBRANCH  34  37
ENDBRANCH  32  33
ENDBRANCH  31  32
ENDBRANCH  30  31
ENDBRANCH  29  30
ENDBRANCH   1  29
TORSDOF 18
ENDMDL
