MODEL 1
REMARK VINA RESULT:     -11.0      0.000      0.000
REMARK SMILES O=C(Cc1ccc(F)c(F)c1)NC1(C(=O)NCCCCCCNC(=O)c2ccc(-c3c4nc(c(-c5ccccc5)c5ccc([nH]5)c(-c5ccccc5)c5nc(c(-c6ccccc6)c6ccc3[nH]6)C=C5)C=C4)cc2)CCCC1
REMARK SMILES IDX 19 1 18 2 17 3 16 4 14 5 15 6 13 8 74 9 77 10 75 11 76 12
REMARK SMILES IDX 12 13 1 14 2 15 3 17 4 18 5 19 11 20 6 21 9 22 7 23 10 24
REMARK SMILES IDX 8 25 20 26 21 27 22 28 23 29 24 30 25 32 26 33 27 34 73 35
REMARK SMILES IDX 28 36 72 37 29 38 30 39 31 40 66 41 32 42 71 43 65 44 67 45
REMARK SMILES IDX 33 46 70 47 64 48 63 49 34 51 56 52 41 53 55 54 42 55 45 56
REMARK SMILES IDX 54 57 68 58 43 59 44 60 53 62 69 63 46 64 35 65 36 66 40 67
REMARK SMILES IDX 37 68 39 69 38 70 57 71 58 72 62 73 59 74 61 75 60 76 47 77
REMARK SMILES IDX 48 78 52 79 49 80 51 81 50 82
REMARK H PARENT 16 7 12 16 23 31 67 50 45 61
REMARK Flexibility Score: inf
ROOT
ATOM      1  C   UNL A   1      30.615  26.234  26.243  1.00  0.00     0.002 C 
ENDROOT
BRANCH   1   2
ATOM      2  C   UNL A   1      30.504  24.799  25.725  1.00  0.00     0.021 C 
BRANCH   2   3
ATOM      3  C   UNL A   1      31.022  23.752  26.702  1.00  0.00     0.116 C 
BRANCH   3   4
ATOM      4  N   UNL A   1      31.052  22.431  26.128  1.00  0.00    -0.354 N 
ATOM      5  C   UNL A   1      32.011  21.789  25.412  1.00  0.00     0.245 C 
ATOM      6  O   UNL A   1      31.790  20.587  25.197  1.00  0.00    -0.272 OA
ATOM      7  H   UNL A   1      30.236  21.902  26.281  1.00  0.00     0.163 HD
BRANCH   5   8
ATOM      8  C   UNL A   1      33.371  22.445  24.982  1.00  0.00     0.119 C 
ATOM      9  C   UNL A   1      34.333  21.403  24.376  1.00  0.00     0.038 C 
ATOM     10  C   UNL A   1      34.178  23.150  26.084  1.00  0.00     0.038 C 
ATOM     11  C   UNL A   1      35.533  21.253  25.300  1.00  0.00     0.003 C 
ATOM     12  C   UNL A   1      35.487  22.396  26.297  1.00  0.00     0.003 C 
BRANCH   8  13
ATOM     13  N   UNL A   1      32.983  23.358  23.878  1.00  0.00    -0.341 N 
ATOM     14  O   UNL A   1      35.036  23.819  22.949  1.00  0.00    -0.275 OA
ATOM     15  C   UNL A   1      33.816  23.953  22.960  1.00  0.00     0.225 C 
ATOM     16  H   UNL A   1      32.024  23.560  23.795  1.00  0.00     0.164 HD
BRANCH  15  17
ATOM     17  C   UNL A   1      33.109  24.857  21.960  1.00  0.00     0.135 C 
BRANCH  17  18
ATOM     18  C   UNL A   1      32.511  26.164  22.461  1.00  0.00    -0.036 A 
ATOM     19  C   UNL A   1      31.114  26.322  22.365  1.00  0.00     0.007 A 
ATOM     20  C   UNL A   1      33.256  27.223  23.004  1.00  0.00     0.046 A 
ATOM     21  C   UNL A   1      30.492  27.513  22.755  1.00  0.00     0.043 A 
ATOM     22  C   UNL A   1      32.635  28.419  23.360  1.00  0.00     0.159 A 
ATOM     23  C   UNL A   1      31.262  28.564  23.235  1.00  0.00     0.158 A 
ATOM     24  F   UNL A   1      33.384  29.433  23.815  1.00  0.00    -0.204 F 
ATOM     25  F   UNL A   1      30.669  29.715  23.579  1.00  0.00    -0.204 F 
ENDBRANCH  17  18
ENDBRANCH  15  17
ENDBRANCH   8  13
ENDBRANCH   5   8
ENDBRANCH   3   4
ENDBRANCH   2   3
ENDBRANCH   1   2
BRANCH   1  26
ATOM     26  C   UNL A   1      32.047  26.737  26.468  1.00  0.00     0.002 C 
BRANCH  26  27
ATOM     27  C   UNL A   1      32.165  28.172  26.991  1.00  0.00     0.021 C 
BRANCH  27  28
ATOM     28  C   UNL A   1      33.591  28.627  27.288  1.00  0.00     0.116 C 
BRANCH  28  29
ATOM     29  N   UNL A   1      33.646  30.029  27.669  1.00  0.00    -0.352 N 
ATOM     30  C   UNL A   1      34.633  30.725  28.315  1.00  0.00     0.251 C 
ATOM     31  H   UNL A   1      32.853  30.560  27.425  1.00  0.00     0.163 HD
ATOM     32  O   UNL A   1      34.407  31.854  28.753  1.00  0.00    -0.269 OA
BRANCH  30  33
ATOM     33  C   UNL A   1      35.965  30.119  28.505  1.00  0.00     0.039 A 
ATOM     34  C   UNL A   1      36.881  30.154  27.451  1.00  0.00     0.014 A 
ATOM     35  C   UNL A   1      36.307  29.508  29.715  1.00  0.00     0.014 A 
ATOM     36  C   UNL A   1      38.165  29.641  27.633  1.00  0.00     0.010 A 
ATOM     37  C   UNL A   1      37.609  29.057  29.919  1.00  0.00     0.010 A 
ATOM     38  C   UNL A   1      38.553  29.128  28.883  1.00  0.00    -0.014 A 
BRANCH  38  39
ATOM     39  C   UNL A   1      39.953  28.708  29.136  1.00  0.00     0.031 A 
ATOM     40  C   UNL A   1      40.940  29.660  29.748  1.00  0.00     0.074 A 
ATOM     41  C   UNL A   1      40.349  27.481  28.745  1.00  0.00     0.049 A 
ATOM     42  N   UNL A   1      42.214  29.480  29.989  1.00  0.00    -0.248 NA
ATOM     43  C   UNL A   1      40.439  30.993  30.115  1.00  0.00     0.031 C 
ATOM     44  C   UNL A   1      39.493  26.479  28.104  1.00  0.00     0.029 A 
ATOM     45  N   UNL A   1      41.574  26.869  28.822  1.00  0.00    -0.354 N 
ATOM     46  C   UNL A   1      42.669  30.678  30.526  1.00  0.00     0.074 A 
ATOM     47  C   UNL A   1      41.546  31.591  30.533  1.00  0.00     0.031 C 
ATOM     48  C   UNL A   1      40.213  25.371  27.871  1.00  0.00     0.029 A 
ATOM     49  C   UNL A   1      41.589  25.599  28.299  1.00  0.00     0.049 A 
ATOM     50  H   UNL A   1      42.368  27.300  29.214  1.00  0.00     0.167 HD
ATOM     51  C   UNL A   1      43.905  30.984  30.987  1.00  0.00     0.031 A 
ATOM     52  C   UNL A   1      42.599  24.719  28.165  1.00  0.00     0.031 A 
ATOM     53  C   UNL A   1      45.021  30.074  30.977  1.00  0.00     0.049 A 
ATOM     54  C   UNL A   1      43.970  25.098  28.648  1.00  0.00     0.074 A 
ATOM     55  C   UNL A   1      46.296  30.270  31.479  1.00  0.00     0.029 A 
ATOM     56  N   UNL A   1      44.999  28.802  30.427  1.00  0.00    -0.354 N 
ATOM     57  N   UNL A   1      44.363  26.206  29.230  1.00  0.00    -0.248 NA
ATOM     58  C   UNL A   1      45.035  24.105  28.459  1.00  0.00     0.031 C 
ATOM     59  C   UNL A   1      47.063  29.140  31.175  1.00  0.00     0.029 A 
ATOM     60  C   UNL A   1      46.249  28.218  30.538  1.00  0.00     0.049 A 
ATOM     61  H   UNL A   1      44.210  28.378  30.017  1.00  0.00     0.167 HD
ATOM     62  C   UNL A   1      45.716  26.037  29.489  1.00  0.00     0.074 A 
ATOM     63  C   UNL A   1      46.070  24.710  29.025  1.00  0.00     0.031 C 
ATOM     64  C   UNL A   1      46.589  26.903  30.057  1.00  0.00     0.031 A 
BRANCH  51  65
ATOM     65  C   UNL A   1      44.122  32.371  31.529  1.00  0.00    -0.014 A 
ATOM     66  C   UNL A   1      43.929  32.661  32.890  1.00  0.00     0.009 A 
ATOM     67  C   UNL A   1      44.570  33.391  30.675  1.00  0.00     0.009 A 
ATOM     68  C   UNL A   1      44.143  33.952  33.375  1.00  0.00     0.001 A 
ATOM     69  C   UNL A   1      44.812  34.674  31.169  1.00  0.00     0.001 A 
ATOM     70  C   UNL A   1      44.590  34.956  32.517  1.00  0.00     0.000 A 
ENDBRANCH  51  65
BRANCH  52  71
ATOM     71  C   UNL A   1      42.351  23.393  27.541  1.00  0.00    -0.014 A 
ATOM     72  C   UNL A   1      41.886  22.317  28.312  1.00  0.00     0.009 A 
ATOM     73  C   UNL A   1      42.581  23.196  26.170  1.00  0.00     0.009 A 
ATOM     74  C   UNL A   1      41.680  21.065  27.727  1.00  0.00     0.001 A 
ATOM     75  C   UNL A   1      42.343  21.951  25.582  1.00  0.00     0.001 A 
ATOM     76  C   UNL A   1      41.902  20.885  26.363  1.00  0.00     0.000 A 
ENDBRANCH  52  71
BRANCH  64  77
ATOM     77  C   UNL A   1      48.011  26.441  30.212  1.00  0.00    -0.014 A 
ATOM     78  C   UNL A   1      48.439  25.793  31.381  1.00  0.00     0.009 A 
ATOM     79  C   UNL A   1      48.923  26.619  29.159  1.00  0.00     0.009 A 
ATOM     80  C   UNL A   1      49.761  25.361  31.505  1.00  0.00     0.001 A 
ATOM     81  C   UNL A   1      50.235  26.159  29.274  1.00  0.00     0.001 A 
ATOM     82  C   UNL A   1      50.655  25.538  30.450  1.00  0.00     0.000 A 
ENDBRANCH  64  77
ENDBRANCH  38  39
ENDBRANCH  30  33
ENDBRANCH  28  29
ENDBRANCH  27  28
ENDBRANCH  26  27
ENDBRANCH   1  26
TORSDOF 16
ENDMDL
MODEL 2
REMARK VINA RESULT:     -10.8      2.866      7.908
REMARK SMILES O=C(Cc1ccc(F)c(F)c1)NC1(C(=O)NCCCCCCNC(=O)c2ccc(-c3c4nc(c(-c5ccccc5)c5ccc([nH]5)c(-c5ccccc5)c5nc(c(-c6ccccc6)c6ccc3[nH]6)C=C5)C=C4)cc2)CCCC1
REMARK SMILES IDX 19 1 18 2 17 3 16 4 14 5 15 6 13 8 74 9 77 10 75 11 76 12
REMARK SMILES IDX 12 13 1 14 2 15 3 17 4 18 5 19 11 20 6 21 9 22 7 23 10 24
REMARK SMILES IDX 8 25 20 26 21 27 22 28 23 29 24 30 25 32 26 33 27 34 73 35
REMARK SMILES IDX 28 36 72 37 29 38 30 39 31 40 66 41 32 42 71 43 65 44 67 45
REMARK SMILES IDX 33 46 70 47 64 48 63 49 34 51 56 52 41 53 55 54 42 55 45 56
REMARK SMILES IDX 54 57 68 58 43 59 44 60 53 62 69 63 46 64 35 65 36 66 40 67
REMARK SMILES IDX 37 68 39 69 38 70 57 71 58 72 62 73 59 74 61 75 60 76 47 77
REMARK SMILES IDX 48 78 52 79 49 80 51 81 50 82
REMARK H PARENT 16 7 12 16 23 31 67 50 45 61
REMARK Flexibility Score: inf
ROOT
ATOM      1  C   UNL A   1      36.820  22.129  24.218  1.00  0.00     0.002 C 
ENDROOT
BRANCH   1   2
ATOM      2  C   UNL A   1      36.787  23.350  25.140  1.00  0.00     0.021 C 
BRANCH   2   3
ATOM      3  C   UNL A   1      35.522  24.186  25.005  1.00  0.00     0.116 C 
BRANCH   3   4
ATOM      4  N   UNL A   1      35.037  24.236  23.648  1.00  0.00    -0.354 N 
ATOM      5  C   UNL A   1      33.791  24.058  23.137  1.00  0.00     0.245 C 
ATOM      6  O   UNL A   1      33.674  24.327  21.931  1.00  0.00    -0.272 OA
ATOM      7  H   UNL A   1      35.729  24.433  22.976  1.00  0.00     0.163 HD
BRANCH   5   8
ATOM      8  C   UNL A   1      32.537  23.668  23.999  1.00  0.00     0.119 C 
ATOM      9  C   UNL A   1      31.313  23.371  23.109  1.00  0.00     0.038 C 
ATOM     10  C   UNL A   1      32.052  24.707  25.023  1.00  0.00     0.038 C 
ATOM     11  C   UNL A   1      30.255  24.433  23.367  1.00  0.00     0.003 C 
ATOM     12  C   UNL A   1      30.666  25.196  24.612  1.00  0.00     0.003 C 
BRANCH   8  13
ATOM     13  N   UNL A   1      32.931  22.382  24.624  1.00  0.00    -0.341 N 
ATOM     14  O   UNL A   1      30.976  21.796  25.687  1.00  0.00    -0.275 OA
ATOM     15  C   UNL A   1      32.143  21.555  25.391  1.00  0.00     0.225 C 
ATOM     16  H   UNL A   1      33.858  22.089  24.475  1.00  0.00     0.164 HD
BRANCH  15  17
ATOM     17  C   UNL A   1      32.851  20.311  25.906  1.00  0.00     0.135 C 
BRANCH  17  18
ATOM     18  C   UNL A   1      33.141  19.183  24.926  1.00  0.00    -0.036 A 
ATOM     19  C   UNL A   1      34.116  18.234  25.291  1.00  0.00     0.007 A 
ATOM     20  C   UNL A   1      32.509  19.029  23.681  1.00  0.00     0.046 A 
ATOM     21  C   UNL A   1      34.477  17.197  24.424  1.00  0.00     0.043 A 
ATOM     22  C   UNL A   1      32.896  18.013  22.808  1.00  0.00     0.159 A 
ATOM     23  C   UNL A   1      33.875  17.104  23.177  1.00  0.00     0.158 A 
ATOM     24  F   UNL A   1      32.316  17.933  21.603  1.00  0.00    -0.204 F 
ATOM     25  F   UNL A   1      34.244  16.129  22.335  1.00  0.00    -0.204 F 
ENDBRANCH  17  18
ENDBRANCH  15  17
ENDBRANCH   8  13
ENDBRANCH   5   8
ENDBRANCH   3   4
ENDBRANCH   2   3
ENDBRANCH   1   2
BRANCH   1  26
ATOM     26  C   UNL A   1      36.569  20.783  24.911  1.00  0.00     0.002 C 
BRANCH  26  27
ATOM     27  C   UNL A   1      37.773  19.837  24.964  1.00  0.00     0.021 C 
BRANCH  27  28
ATOM     28  C   UNL A   1      38.978  20.380  25.727  1.00  0.00     0.116 C 
BRANCH  28  29
ATOM     29  N   UNL A   1      40.055  19.407  25.806  1.00  0.00    -0.352 N 
ATOM     30  C   UNL A   1      41.385  19.591  26.074  1.00  0.00     0.251 C 
ATOM     31  H   UNL A   1      39.787  18.474  25.643  1.00  0.00     0.163 HD
ATOM     32  O   UNL A   1      42.186  18.676  25.876  1.00  0.00    -0.269 OA
BRANCH  30  33
ATOM     33  C   UNL A   1      41.867  20.889  26.584  1.00  0.00     0.039 A 
ATOM     34  C   UNL A   1      42.362  21.829  25.678  1.00  0.00     0.014 A 
ATOM     35  C   UNL A   1      41.842  21.175  27.952  1.00  0.00     0.014 A 
ATOM     36  C   UNL A   1      42.765  23.085  26.134  1.00  0.00     0.010 A 
ATOM     37  C   UNL A   1      42.181  22.449  28.400  1.00  0.00     0.010 A 
ATOM     38  C   UNL A   1      42.636  23.419  27.494  1.00  0.00    -0.014 A 
BRANCH  38  39
ATOM     39  C   UNL A   1      42.927  24.792  27.973  1.00  0.00     0.031 A 
ATOM     40  C   UNL A   1      44.323  25.190  28.358  1.00  0.00     0.074 A 
ATOM     41  C   UNL A   1      41.909  25.661  28.128  1.00  0.00     0.049 A 
ATOM     42  N   UNL A   1      44.748  26.328  28.848  1.00  0.00    -0.248 NA
ATOM     43  C   UNL A   1      45.374  24.175  28.194  1.00  0.00     0.031 C 
ATOM     44  C   UNL A   1      40.503  25.380  27.826  1.00  0.00     0.029 A 
ATOM     45  N   UNL A   1      41.898  26.954  28.585  1.00  0.00    -0.354 N 
ATOM     46  C   UNL A   1      46.112  26.161  29.059  1.00  0.00     0.074 A 
ATOM     47  C   UNL A   1      46.433  24.800  28.688  1.00  0.00     0.031 C 
ATOM     48  C   UNL A   1      39.771  26.476  28.081  1.00  0.00     0.029 A 
ATOM     49  C   UNL A   1      40.645  27.519  28.609  1.00  0.00     0.049 A 
ATOM     50  H   UNL A   1      42.709  27.433  28.869  1.00  0.00     0.167 HD
ATOM     51  C   UNL A   1      47.015  27.066  29.506  1.00  0.00     0.031 A 
ATOM     52  C   UNL A   1      40.241  28.733  29.022  1.00  0.00     0.031 A 
ATOM     53  C   UNL A   1      46.692  28.419  29.876  1.00  0.00     0.049 A 
ATOM     54  C   UNL A   1      41.258  29.704  29.551  1.00  0.00     0.074 A 
ATOM     55  C   UNL A   1      47.548  29.429  30.280  1.00  0.00     0.029 A 
ATOM     56  N   UNL A   1      45.411  28.947  29.900  1.00  0.00    -0.354 N 
ATOM     57  N   UNL A   1      42.556  29.558  29.666  1.00  0.00    -0.248 NA
ATOM     58  C   UNL A   1      40.754  31.008  30.005  1.00  0.00     0.031 C 
ATOM     59  C   UNL A   1      46.776  30.549  30.610  1.00  0.00     0.029 A 
ATOM     60  C   UNL A   1      45.447  30.255  30.353  1.00  0.00     0.049 A 
ATOM     61  H   UNL A   1      44.595  28.463  29.634  1.00  0.00     0.167 HD
ATOM     62  C   UNL A   1      43.026  30.755  30.191  1.00  0.00     0.074 A 
ATOM     63  C   UNL A   1      41.876  31.625  30.346  1.00  0.00     0.031 C 
ATOM     64  C   UNL A   1      44.293  31.102  30.517  1.00  0.00     0.031 A 
BRANCH  51  65
ATOM     65  C   UNL A   1      48.445  26.615  29.635  1.00  0.00    -0.014 A 
ATOM     66  C   UNL A   1      49.362  26.786  28.584  1.00  0.00     0.009 A 
ATOM     67  C   UNL A   1      48.892  26.052  30.840  1.00  0.00     0.009 A 
ATOM     68  C   UNL A   1      50.686  26.368  28.726  1.00  0.00     0.001 A 
ATOM     69  C   UNL A   1      50.225  25.663  30.989  1.00  0.00     0.001 A 
ATOM     70  C   UNL A   1      51.119  25.813  29.930  1.00  0.00     0.000 A 
ENDBRANCH  51  65
BRANCH  52  71
ATOM     71  C   UNL A   1      38.801  29.099  28.957  1.00  0.00    -0.014 A 
ATOM     72  C   UNL A   1      38.244  29.597  27.769  1.00  0.00     0.009 A 
ATOM     73  C   UNL A   1      37.976  28.954  30.084  1.00  0.00     0.009 A 
ATOM     74  C   UNL A   1      36.897  29.965  27.719  1.00  0.00     0.001 A 
ATOM     75  C   UNL A   1      36.623  29.292  30.021  1.00  0.00     0.001 A 
ATOM     76  C   UNL A   1      36.087  29.807  28.842  1.00  0.00     0.000 A 
ENDBRANCH  52  71
BRANCH  64  77
ATOM     77  C   UNL A   1      44.505  32.483  31.071  1.00  0.00    -0.014 A 
ATOM     78  C   UNL A   1      44.498  32.718  32.455  1.00  0.00     0.009 A 
ATOM     79  C   UNL A   1      44.756  33.555  30.200  1.00  0.00     0.009 A 
ATOM     80  C   UNL A   1      44.707  34.005  32.953  1.00  0.00     0.001 A 
ATOM     81  C   UNL A   1      44.994  34.834  30.702  1.00  0.00     0.001 A 
ATOM     82  C   UNL A   1      44.961  35.060  32.078  1.00  0.00     0.000 A 
ENDBRANCH  64  77
ENDBRANCH  38  39
ENDBRANCH  30  33
ENDBRANCH  28  29
ENDBRANCH  27  28
ENDBRANCH  26  27
ENDBRANCH   1  26
TORSDOF 16
ENDMDL
MODEL 3
REMARK VINA RESULT:     -10.6      2.440      7.642
REMARK SMILES O=C(Cc1ccc(F)c(F)c1)NC1(C(=O)NCCCCCCNC(=O)c2ccc(-c3c4nc(c(-c5ccccc5)c5ccc([nH]5)c(-c5ccccc5)c5nc(c(-c6ccccc6)c6ccc3[nH]6)C=C5)C=C4)cc2)CCCC1
REMARK SMILES IDX 19 1 18 2 17 3 16 4 14 5 15 6 13 8 74 9 77 10 75 11 76 12
REMARK SMILES IDX 12 13 1 14 2 15 3 17 4 18 5 19 11 20 6 21 9 22 7 23 10 24
REMARK SMILES IDX 8 25 20 26 21 27 22 28 23 29 24 30 25 32 26 33 27 34 73 35
REMARK SMILES IDX 28 36 72 37 29 38 30 39 31 40 66 41 32 42 71 43 65 44 67 45
REMARK SMILES IDX 33 46 70 47 64 48 63 49 34 51 56 52 41 53 55 54 42 55 45 56
REMARK SMILES IDX 54 57 68 58 43 59 44 60 53 62 69 63 46 64 35 65 36 66 40 67
REMARK SMILES IDX 37 68 39 69 38 70 57 71 58 72 62 73 59 74 61 75 60 76 47 77
REMARK SMILES IDX 48 78 52 79 49 80 51 81 50 82
REMARK H PARENT 16 7 12 16 23 31 67 50 45 61
REMARK Flexibility Score: inf
ROOT
ATOM      1  C   UNL A   1      36.505  22.485  24.163  1.00  0.00     0.002 C 
ENDROOT
BRANCH   1   2
ATOM      2  C   UNL A   1      35.180  22.951  23.557  1.00  0.00     0.021 C 
BRANCH   2   3
ATOM      3  C   UNL A   1      34.650  24.244  24.161  1.00  0.00     0.116 C 
BRANCH   3   4
ATOM      4  N   UNL A   1      34.251  25.198  23.157  1.00  0.00    -0.354 N 
ATOM      5  C   UNL A   1      33.543  26.353  23.252  1.00  0.00     0.245 C 
ATOM      6  O   UNL A   1      33.506  27.033  22.215  1.00  0.00    -0.272 OA
ATOM      7  H   UNL A   1      34.543  24.973  22.244  1.00  0.00     0.163 HD
BRANCH   5   8
ATOM      8  C   UNL A   1      32.913  26.888  24.587  1.00  0.00     0.119 C 
ATOM      9  C   UNL A   1      31.856  27.977  24.314  1.00  0.00     0.038 C 
ATOM     10  C   UNL A   1      33.881  27.508  25.608  1.00  0.00     0.038 C 
ATOM     11  C   UNL A   1      32.362  29.298  24.874  1.00  0.00     0.003 C 
ATOM     12  C   UNL A   1      33.559  28.992  25.755  1.00  0.00     0.003 C 
BRANCH   8  13
ATOM     13  N   UNL A   1      32.184  25.712  25.124  1.00  0.00    -0.341 N 
ATOM     14  O   UNL A   1      31.086  26.656  26.911  1.00  0.00    -0.275 OA
ATOM     15  C   UNL A   1      31.338  25.683  26.207  1.00  0.00     0.225 C 
ATOM     16  H   UNL A   1      32.322  24.860  24.652  1.00  0.00     0.164 HD
BRANCH  15  17
ATOM     17  C   UNL A   1      30.758  24.310  26.516  1.00  0.00     0.135 C 
BRANCH  17  18
ATOM     18  C   UNL A   1      31.637  23.086  26.300  1.00  0.00    -0.036 A 
ATOM     19  C   UNL A   1      31.299  22.217  25.244  1.00  0.00     0.007 A 
ATOM     20  C   UNL A   1      32.755  22.760  27.086  1.00  0.00     0.046 A 
ATOM     21  C   UNL A   1      32.025  21.045  25.011  1.00  0.00     0.043 A 
ATOM     22  C   UNL A   1      33.454  21.574  26.870  1.00  0.00     0.159 A 
ATOM     23  C   UNL A   1      33.090  20.721  25.840  1.00  0.00     0.158 A 
ATOM     24  F   UNL A   1      34.477  21.263  27.678  1.00  0.00    -0.204 F 
ATOM     25  F   UNL A   1      33.765  19.582  25.635  1.00  0.00    -0.204 F 
ENDBRANCH  17  18
ENDBRANCH  15  17
ENDBRANCH   8  13
ENDBRANCH   5   8
ENDBRANCH   3   4
ENDBRANCH   2   3
ENDBRANCH   1   2
BRANCH   1  26
ATOM     26  C   UNL A   1      36.478  21.084  24.789  1.00  0.00     0.002 C 
BRANCH  26  27
ATOM     27  C   UNL A   1      37.787  20.294  24.688  1.00  0.00     0.021 C 
BRANCH  27  28
ATOM     28  C   UNL A   1      38.723  20.456  25.882  1.00  0.00     0.116 C 
BRANCH  28  29
ATOM     29  N   UNL A   1      39.820  19.501  25.847  1.00  0.00    -0.352 N 
ATOM     30  C   UNL A   1      41.161  19.699  26.037  1.00  0.00     0.251 C 
ATOM     31  H   UNL A   1      39.558  18.571  25.657  1.00  0.00     0.163 HD
ATOM     32  O   UNL A   1      41.963  18.810  25.746  1.00  0.00    -0.269 OA
BRANCH  30  33
ATOM     33  C   UNL A   1      41.653  20.981  26.576  1.00  0.00     0.039 A 
ATOM     34  C   UNL A   1      42.174  21.930  25.693  1.00  0.00     0.014 A 
ATOM     35  C   UNL A   1      41.613  21.244  27.948  1.00  0.00     0.014 A 
ATOM     36  C   UNL A   1      42.587  23.172  26.176  1.00  0.00     0.010 A 
ATOM     37  C   UNL A   1      41.962  22.506  28.422  1.00  0.00     0.010 A 
ATOM     38  C   UNL A   1      42.444  23.485  27.539  1.00  0.00    -0.014 A 
BRANCH  38  39
ATOM     39  C   UNL A   1      42.746  24.846  28.046  1.00  0.00     0.031 A 
ATOM     40  C   UNL A   1      44.138  25.212  28.474  1.00  0.00     0.074 A 
ATOM     41  C   UNL A   1      41.740  25.731  28.185  1.00  0.00     0.049 A 
ATOM     42  N   UNL A   1      44.570  26.335  28.991  1.00  0.00    -0.248 NA
ATOM     43  C   UNL A   1      45.174  24.180  28.324  1.00  0.00     0.031 C 
ATOM     44  C   UNL A   1      40.338  25.480  27.842  1.00  0.00     0.029 A 
ATOM     45  N   UNL A   1      41.740  27.018  28.660  1.00  0.00    -0.354 N 
ATOM     46  C   UNL A   1      45.924  26.141  29.237  1.00  0.00     0.074 A 
ATOM     47  C   UNL A   1      46.230  24.779  28.856  1.00  0.00     0.031 C 
ATOM     48  C   UNL A   1      39.619  26.586  28.092  1.00  0.00     0.029 A 
ATOM     49  C   UNL A   1      40.497  27.605  28.659  1.00  0.00     0.049 A 
ATOM     50  H   UNL A   1      42.552  27.478  28.974  1.00  0.00     0.167 HD
ATOM     51  C   UNL A   1      46.831  27.022  29.721  1.00  0.00     0.031 A 
ATOM     52  C   UNL A   1      40.104  28.821  29.078  1.00  0.00     0.031 A 
ATOM     53  C   UNL A   1      46.522  28.376  30.102  1.00  0.00     0.049 A 
ATOM     54  C   UNL A   1      41.123  29.766  29.648  1.00  0.00     0.074 A 
ATOM     55  C   UNL A   1      47.385  29.364  30.543  1.00  0.00     0.029 A 
ATOM     56  N   UNL A   1      45.251  28.927  30.098  1.00  0.00    -0.354 N 
ATOM     57  N   UNL A   1      42.415  29.594  29.797  1.00  0.00    -0.248 NA
ATOM     58  C   UNL A   1      40.631  31.072  30.107  1.00  0.00     0.031 C 
ATOM     59  C   UNL A   1      46.625  30.493  30.868  1.00  0.00     0.029 A 
ATOM     60  C   UNL A   1      45.299  30.228  30.571  1.00  0.00     0.049 A 
ATOM     61  H   UNL A   1      44.434  28.461  29.804  1.00  0.00     0.167 HD
ATOM     62  C   UNL A   1      42.892  30.774  30.350  1.00  0.00     0.074 A 
ATOM     63  C   UNL A   1      41.754  31.663  30.487  1.00  0.00     0.031 C 
ATOM     64  C   UNL A   1      44.156  31.093  30.717  1.00  0.00     0.031 A 
BRANCH  51  65
ATOM     65  C   UNL A   1      48.249  26.543  29.882  1.00  0.00    -0.014 A 
ATOM     66  C   UNL A   1      49.200  26.723  28.864  1.00  0.00     0.009 A 
ATOM     67  C   UNL A   1      48.649  25.944  31.086  1.00  0.00     0.009 A 
ATOM     68  C   UNL A   1      50.512  26.278  29.036  1.00  0.00     0.001 A 
ATOM     69  C   UNL A   1      49.970  25.528  31.267  1.00  0.00     0.001 A 
ATOM     70  C   UNL A   1      50.898  25.687  30.238  1.00  0.00     0.000 A 
ENDBRANCH  51  65
BRANCH  52  71
ATOM     71  C   UNL A   1      38.674  29.214  28.980  1.00  0.00    -0.014 A 
ATOM     72  C   UNL A   1      38.152  29.715  27.777  1.00  0.00     0.009 A 
ATOM     73  C   UNL A   1      37.822  29.093  30.089  1.00  0.00     0.009 A 
ATOM     74  C   UNL A   1      36.814  30.108  27.695  1.00  0.00     0.001 A 
ATOM     75  C   UNL A   1      36.477  29.457  29.995  1.00  0.00     0.001 A 
ATOM     76  C   UNL A   1      35.976  29.974  28.801  1.00  0.00     0.000 A 
ENDBRANCH  52  71
BRANCH  64  77
ATOM     77  C   UNL A   1      44.378  32.462  31.296  1.00  0.00    -0.014 A 
ATOM     78  C   UNL A   1      44.651  33.564  30.470  1.00  0.00     0.009 A 
ATOM     79  C   UNL A   1      44.273  32.660  32.682  1.00  0.00     0.009 A 
ATOM     80  C   UNL A   1      44.843  34.831  31.024  1.00  0.00     0.001 A 
ATOM     81  C   UNL A   1      44.436  33.933  33.230  1.00  0.00     0.001 A 
ATOM     82  C   UNL A   1      44.730  35.016  32.401  1.00  0.00     0.000 A 
ENDBRANCH  64  77
ENDBRANCH  38  39
ENDBRANCH  30  33
ENDBRANCH  28  29
ENDBRANCH  27  28
ENDBRANCH  26  27
ENDBRANCH   1  26
TORSDOF 16
ENDMDL
