MODEL 1
REMARK VINA RESULT:     -11.7      0.000      0.000
REMARK SMILES O=C(NCCCCCCNC(=O)C1(C/C=C/c2ccccc2)Cc2ccccc2C1)c1ccc(-c2c3nc(c(-c4ccccc4)c4ccc([nH]4)c(-c4ccccc4)c4nc(c(-c5ccccc5)c5ccc2[nH]5)C=C4)C=C3)cc1
REMARK SMILES IDX 7 1 6 2 5 3 4 4 3 5 1 6 2 7 31 9 32 10 78 11 33 12 77 13
REMARK SMILES IDX 34 14 35 15 36 16 71 17 37 18 76 19 70 20 72 21 38 22 75 23
REMARK SMILES IDX 69 24 68 25 39 27 61 28 46 29 60 30 47 31 50 32 59 33 73 34
REMARK SMILES IDX 48 35 49 36 58 38 74 39 51 40 40 41 41 42 45 43 42 44 44 45
REMARK SMILES IDX 43 46 62 47 63 48 67 49 64 50 66 51 65 52 52 53 53 54 57 55
REMARK SMILES IDX 54 56 56 57 55 58 8 59 9 60 10 61 11 62 12 64 13 65 23 66
REMARK SMILES IDX 30 67 24 68 29 69 25 70 28 71 26 72 27 73 14 74 15 75 16 76
REMARK SMILES IDX 17 77 18 78 22 79 19 80 21 81 20 82
REMARK H PARENT 3 8 72 26 50 37 10 63
REMARK Flexibility Score: inf
ROOT
ATOM      1  C   UNL A   1      34.398  21.838  24.547  1.00  0.00     0.002 C 
ENDROOT
BRANCH   1   2
ATOM      2  C   UNL A   1      35.634  22.461  23.894  1.00  0.00     0.002 C 
BRANCH   2   3
ATOM      3  C   UNL A   1      36.201  23.684  24.616  1.00  0.00     0.021 C 
BRANCH   3   4
ATOM      4  C   UNL A   1      36.641  23.423  26.054  1.00  0.00     0.116 C 
BRANCH   4   5
ATOM      5  N   UNL A   1      37.761  22.500  26.114  1.00  0.00    -0.352 N 
ATOM      6  O   UNL A   1      39.936  21.907  26.166  1.00  0.00    -0.269 OA
ATOM      7  C   UNL A   1      39.079  22.754  26.392  1.00  0.00     0.251 C 
ATOM      8  H   UNL A   1      37.542  21.558  25.928  1.00  0.00     0.163 HD
BRANCH   7   9
ATOM      9  C   UNL A   1      39.469  24.061  26.960  1.00  0.00     0.039 A 
ATOM     10  C   UNL A   1      39.285  24.331  28.320  1.00  0.00     0.014 A 
ATOM     11  C   UNL A   1      40.061  25.009  26.124  1.00  0.00     0.014 A 
ATOM     12  C   UNL A   1      39.601  25.588  28.825  1.00  0.00     0.010 A 
ATOM     13  C   UNL A   1      40.438  26.247  26.645  1.00  0.00     0.010 A 
ATOM     14  C   UNL A   1      40.194  26.552  27.996  1.00  0.00    -0.014 A 
BRANCH  14  15
ATOM     15  C   UNL A   1      40.617  27.860  28.548  1.00  0.00     0.031 A 
ATOM     16  C   UNL A   1      39.618  28.958  28.766  1.00  0.00     0.074 A 
ATOM     17  C   UNL A   1      41.920  28.069  28.807  1.00  0.00     0.049 A 
ATOM     18  N   UNL A   1      39.821  30.195  29.141  1.00  0.00    -0.248 NA
ATOM     19  C   UNL A   1      38.206  28.626  28.519  1.00  0.00     0.031 C 
ATOM     20  C   UNL A   1      42.984  27.077  28.637  1.00  0.00     0.029 A 
ATOM     21  N   UNL A   1      42.576  29.189  29.248  1.00  0.00    -0.354 N 
ATOM     22  C   UNL A   1      38.571  30.798  29.149  1.00  0.00     0.074 A 
ATOM     23  C   UNL A   1      37.617  29.796  28.723  1.00  0.00     0.031 C 
ATOM     24  C   UNL A   1      44.157  27.630  28.976  1.00  0.00     0.029 A 
ATOM     25  C   UNL A   1      43.937  29.029  29.323  1.00  0.00     0.049 A 
ATOM     26  H   UNL A   1      42.115  30.026  29.489  1.00  0.00     0.167 HD
ATOM     27  C   UNL A   1      38.249  32.072  29.478  1.00  0.00     0.031 A 
ATOM     28  C   UNL A   1      44.908  29.918  29.602  1.00  0.00     0.031 A 
ATOM     29  C   UNL A   1      39.207  33.066  29.888  1.00  0.00     0.049 A 
ATOM     30  C   UNL A   1      44.536  31.336  29.916  1.00  0.00     0.074 A 
ATOM     31  C   UNL A   1      38.978  34.375  30.278  1.00  0.00     0.029 A 
ATOM     32  N   UNL A   1      40.578  32.865  29.947  1.00  0.00    -0.354 N 
ATOM     33  N   UNL A   1      43.346  31.884  29.957  1.00  0.00    -0.248 NA
ATOM     34  C   UNL A   1      45.638  32.257  30.225  1.00  0.00     0.031 C 
ATOM     35  C   UNL A   1      40.216  34.981  30.517  1.00  0.00     0.029 A 
ATOM     36  C   UNL A   1      41.211  34.033  30.337  1.00  0.00     0.049 A 
ATOM     37  H   UNL A   1      41.034  32.018  29.741  1.00  0.00     0.167 HD
ATOM     38  C   UNL A   1      43.551  33.207  30.322  1.00  0.00     0.074 A 
ATOM     39  C   UNL A   1      44.980  33.378  30.495  1.00  0.00     0.031 C 
ATOM     40  C   UNL A   1      42.635  34.188  30.506  1.00  0.00     0.031 A 
BRANCH  27  41
ATOM     41  C   UNL A   1      36.804  32.472  29.359  1.00  0.00    -0.014 A 
ATOM     42  C   UNL A   1      35.915  32.348  30.439  1.00  0.00     0.009 A 
ATOM     43  C   UNL A   1      36.327  32.996  28.147  1.00  0.00     0.009 A 
ATOM     44  C   UNL A   1      34.570  32.695  30.292  1.00  0.00     0.001 A 
ATOM     45  C   UNL A   1      34.989  33.370  28.012  1.00  0.00     0.001 A 
ATOM     46  C   UNL A   1      34.109  33.207  29.080  1.00  0.00     0.000 A 
ENDBRANCH  27  41
BRANCH  28  47
ATOM     47  C   UNL A   1      46.324  29.474  29.571  1.00  0.00    -0.014 A 
ATOM     48  C   UNL A   1      46.962  29.037  30.741  1.00  0.00     0.009 A 
ATOM     49  C   UNL A   1      47.027  29.429  28.356  1.00  0.00     0.009 A 
ATOM     50  C   UNL A   1      48.278  28.569  30.694  1.00  0.00     0.001 A 
ATOM     51  C   UNL A   1      48.331  28.936  28.308  1.00  0.00     0.001 A 
ATOM     52  C   UNL A   1      48.957  28.511  29.478  1.00  0.00     0.000 A 
ENDBRANCH  28  47
BRANCH  40  53
ATOM     53  C   UNL A   1      43.138  35.529  30.960  1.00  0.00    -0.014 A 
ATOM     54  C   UNL A   1      43.320  35.819  32.321  1.00  0.00     0.009 A 
ATOM     55  C   UNL A   1      43.504  36.488  30.002  1.00  0.00     0.009 A 
ATOM     56  C   UNL A   1      43.841  37.055  32.712  1.00  0.00     0.001 A 
ATOM     57  C   UNL A   1      44.049  37.710  30.396  1.00  0.00     0.001 A 
ATOM     58  C   UNL A   1      44.212  37.994  31.750  1.00  0.00     0.000 A 
ENDBRANCH  40  53
ENDBRANCH  14  15
ENDBRANCH   7   9
ENDBRANCH   4   5
ENDBRANCH   3   4
ENDBRANCH   2   3
ENDBRANCH   1   2
BRANCH   1  59
ATOM     59  C   UNL A   1      33.108  21.953  23.728  1.00  0.00     0.021 C 
BRANCH  59  60
ATOM     60  C   UNL A   1      32.363  23.274  23.911  1.00  0.00     0.116 C 
BRANCH  60  61
ATOM     61  N   UNL A   1      31.771  23.350  25.231  1.00  0.00    -0.356 N 
ATOM     62  C   UNL A   1      31.641  24.378  26.112  1.00  0.00     0.227 C 
ATOM     63  H   UNL A   1      31.391  22.500  25.549  1.00  0.00     0.163 HD
ATOM     64  O   UNL A   1      31.240  24.075  27.240  1.00  0.00    -0.274 OA
BRANCH  62  65
ATOM     65  C   UNL A   1      31.961  25.834  25.737  1.00  0.00     0.061 C 
ATOM     66  C   UNL A   1      31.160  26.813  26.649  1.00  0.00     0.053 C 
ATOM     67  C   UNL A   1      33.454  26.145  26.105  1.00  0.00     0.053 C 
ATOM     68  C   UNL A   1      32.099  27.970  26.799  1.00  0.00    -0.044 A 
ATOM     69  C   UNL A   1      33.399  27.599  26.455  1.00  0.00    -0.044 A 
ATOM     70  C   UNL A   1      31.813  29.256  27.220  1.00  0.00     0.004 A 
ATOM     71  C   UNL A   1      34.439  28.510  26.488  1.00  0.00     0.004 A 
ATOM     72  C   UNL A   1      32.852  30.187  27.253  1.00  0.00     0.000 A 
ATOM     73  C   UNL A   1      34.155  29.819  26.880  1.00  0.00     0.000 A 
BRANCH  65  74
ATOM     74  C   UNL A   1      31.720  26.130  24.223  1.00  0.00     0.045 C 
BRANCH  74  75
ATOM     75  C   UNL A   1      30.602  27.106  23.963  1.00  0.00    -0.025 C 
ATOM     76  C   UNL A   1      30.773  28.367  23.535  1.00  0.00     0.004 C 
BRANCH  76  77
ATOM     77  C   UNL A   1      29.686  29.351  23.432  1.00  0.00    -0.026 A 
ATOM     78  C   UNL A   1      29.908  30.667  23.857  1.00  0.00     0.008 A 
ATOM     79  C   UNL A   1      28.397  28.992  23.008  1.00  0.00     0.008 A 
ATOM     80  C   UNL A   1      28.876  31.608  23.825  1.00  0.00     0.001 A 
ATOM     81  C   UNL A   1      27.368  29.934  22.969  1.00  0.00     0.001 A 
ATOM     82  C   UNL A   1      27.609  31.243  23.375  1.00  0.00     0.000 A 
ENDBRANCH  76  77
ENDBRANCH  74  75
ENDBRANCH  65  74
ENDBRANCH  62  65
ENDBRANCH  60  61
ENDBRANCH  59  60
ENDBRANCH   1  59
TORSDOF 16
ENDMDL
MODEL 2
REMARK VINA RESULT:     -11.7      1.558      6.627
REMARK SMILES O=C(NCCCCCCNC(=O)C1(C/C=C/c2ccccc2)Cc2ccccc2C1)c1ccc(-c2c3nc(c(-c4ccccc4)c4ccc([nH]4)c(-c4ccccc4)c4nc(c(-c5ccccc5)c5ccc2[nH]5)C=C4)C=C3)cc1
REMARK SMILES IDX 7 1 6 2 5 3 4 4 3 5 1 6 2 7 31 9 32 10 78 11 33 12 77 13
REMARK SMILES IDX 34 14 35 15 36 16 71 17 37 18 76 19 70 20 72 21 38 22 75 23
REMARK SMILES IDX 69 24 68 25 39 27 61 28 46 29 60 30 47 31 50 32 59 33 73 34
REMARK SMILES IDX 48 35 49 36 58 38 74 39 51 40 40 41 41 42 45 43 42 44 44 45
REMARK SMILES IDX 43 46 62 47 63 48 67 49 64 50 66 51 65 52 52 53 53 54 57 55
REMARK SMILES IDX 54 56 56 57 55 58 8 59 9 60 10 61 11 62 12 64 13 65 23 66
REMARK SMILES IDX 30 67 24 68 29 69 25 70 28 71 26 72 27 73 14 74 15 75 16 76
REMARK SMILES IDX 17 77 18 78 22 79 19 80 21 81 20 82
REMARK H PARENT 3 8 72 26 50 37 10 63
REMARK Flexibility Score: inf
ROOT
ATOM      1  C   UNL A   1      34.432  24.606  23.552  1.00  0.00     0.002 C 
ENDROOT
BRANCH   1   2
ATOM      2  C   UNL A   1      35.098  23.249  23.311  1.00  0.00     0.002 C 
BRANCH   2   3
ATOM      3  C   UNL A   1      36.615  23.229  23.509  1.00  0.00     0.021 C 
BRANCH   3   4
ATOM      4  C   UNL A   1      37.073  23.572  24.924  1.00  0.00     0.116 C 
BRANCH   4   5
ATOM      5  N   UNL A   1      37.907  22.525  25.488  1.00  0.00    -0.352 N 
ATOM      6  O   UNL A   1      39.768  21.656  26.419  1.00  0.00    -0.269 OA
ATOM      7  C   UNL A   1      39.057  22.636  26.226  1.00  0.00     0.251 C 
ATOM      8  H   UNL A   1      37.603  21.604  25.315  1.00  0.00     0.163 HD
BRANCH   7   9
ATOM      9  C   UNL A   1      39.445  23.947  26.784  1.00  0.00     0.039 A 
ATOM     10  C   UNL A   1      39.121  24.285  28.103  1.00  0.00     0.014 A 
ATOM     11  C   UNL A   1      40.175  24.829  25.987  1.00  0.00     0.014 A 
ATOM     12  C   UNL A   1      39.441  25.548  28.592  1.00  0.00     0.010 A 
ATOM     13  C   UNL A   1      40.552  26.071  26.500  1.00  0.00     0.010 A 
ATOM     14  C   UNL A   1      40.172  26.445  27.800  1.00  0.00    -0.014 A 
BRANCH  14  15
ATOM     15  C   UNL A   1      40.594  27.756  28.348  1.00  0.00     0.031 A 
ATOM     16  C   UNL A   1      42.002  27.972  28.820  1.00  0.00     0.074 A 
ATOM     17  C   UNL A   1      39.683  28.739  28.462  1.00  0.00     0.049 A 
ATOM     18  N   UNL A   1      42.520  29.013  29.419  1.00  0.00    -0.248 NA
ATOM     19  C   UNL A   1      42.950  26.868  28.600  1.00  0.00     0.031 C 
ATOM     20  C   UNL A   1      38.285  28.648  28.036  1.00  0.00     0.029 A 
ATOM     21  N   UNL A   1      39.790  30.001  28.989  1.00  0.00    -0.354 N 
ATOM     22  C   UNL A   1      43.844  28.683  29.674  1.00  0.00     0.074 A 
ATOM     23  C   UNL A   1      44.045  27.337  29.180  1.00  0.00     0.031 C 
ATOM     24  C   UNL A   1      37.666  29.805  28.312  1.00  0.00     0.029 A 
ATOM     25  C   UNL A   1      38.605  30.692  28.991  1.00  0.00     0.049 A 
ATOM     26  H   UNL A   1      40.636  30.373  29.331  1.00  0.00     0.167 HD
ATOM     27  C   UNL A   1      44.802  29.432  30.269  1.00  0.00     0.031 A 
ATOM     28  C   UNL A   1      38.292  31.891  29.515  1.00  0.00     0.031 A 
ATOM     29  C   UNL A   1      44.590  30.766  30.769  1.00  0.00     0.049 A 
ATOM     30  C   UNL A   1      39.355  32.686  30.213  1.00  0.00     0.074 A 
ATOM     31  C   UNL A   1      45.506  31.624  31.355  1.00  0.00     0.029 A 
ATOM     32  N   UNL A   1      43.372  31.430  30.756  1.00  0.00    -0.354 N 
ATOM     33  N   UNL A   1      40.614  32.378  30.414  1.00  0.00    -0.248 NA
ATOM     34  C   UNL A   1      38.959  33.993  30.754  1.00  0.00     0.031 C 
ATOM     35  C   UNL A   1      44.828  32.783  31.747  1.00  0.00     0.029 A 
ATOM     36  C   UNL A   1      43.505  32.674  31.349  1.00  0.00     0.049 A 
ATOM     37  H   UNL A   1      42.537  31.069  30.380  1.00  0.00     0.167 HD
ATOM     38  C   UNL A   1      41.168  33.462  31.079  1.00  0.00     0.074 A 
ATOM     39  C   UNL A   1      40.108  34.437  31.245  1.00  0.00     0.031 C 
ATOM     40  C   UNL A   1      42.442  33.635  31.506  1.00  0.00     0.031 A 
BRANCH  27  41
ATOM     41  C   UNL A   1      46.157  28.804  30.452  1.00  0.00    -0.014 A 
ATOM     42  C   UNL A   1      47.159  28.916  29.475  1.00  0.00     0.009 A 
ATOM     43  C   UNL A   1      46.438  28.096  31.631  1.00  0.00     0.009 A 
ATOM     44  C   UNL A   1      48.396  28.294  29.655  1.00  0.00     0.001 A 
ATOM     45  C   UNL A   1      47.686  27.500  31.822  1.00  0.00     0.001 A 
ATOM     46  C   UNL A   1      48.659  27.588  30.829  1.00  0.00     0.000 A 
ENDBRANCH  27  41
BRANCH  28  47
ATOM     47  C   UNL A   1      36.897  32.386  29.406  1.00  0.00    -0.014 A 
ATOM     48  C   UNL A   1      35.961  32.114  30.414  1.00  0.00     0.009 A 
ATOM     49  C   UNL A   1      36.512  33.186  28.317  1.00  0.00     0.009 A 
ATOM     50  C   UNL A   1      34.665  32.629  30.330  1.00  0.00     0.001 A 
ATOM     51  C   UNL A   1      35.226  33.722  28.251  1.00  0.00     0.001 A 
ATOM     52  C   UNL A   1      34.302  33.439  29.255  1.00  0.00     0.000 A 
ENDBRANCH  28  47
BRANCH  40  53
ATOM     53  C   UNL A   1      42.782  34.946  32.156  1.00  0.00    -0.014 A 
ATOM     54  C   UNL A   1      42.556  35.164  33.523  1.00  0.00     0.009 A 
ATOM     55  C   UNL A   1      43.405  35.950  31.397  1.00  0.00     0.009 A 
ATOM     56  C   UNL A   1      42.932  36.374  34.113  1.00  0.00     0.001 A 
ATOM     57  C   UNL A   1      43.802  37.146  31.996  1.00  0.00     0.001 A 
ATOM     58  C   UNL A   1      43.561  37.358  33.351  1.00  0.00     0.000 A 
ENDBRANCH  40  53
ENDBRANCH  14  15
ENDBRANCH   7   9
ENDBRANCH   4   5
ENDBRANCH   3   4
ENDBRANCH   2   3
ENDBRANCH   1   2
BRANCH   1  59
ATOM     59  C   UNL A   1      33.423  25.028  22.479  1.00  0.00     0.021 C 
BRANCH  59  60
ATOM     60  C   UNL A   1      33.465  26.515  22.129  1.00  0.00     0.116 C 
BRANCH  60  61
ATOM     61  N   UNL A   1      32.131  27.025  21.892  1.00  0.00    -0.356 N 
ATOM     62  C   UNL A   1      31.178  27.510  22.733  1.00  0.00     0.227 C 
ATOM     63  H   UNL A   1      31.863  27.020  20.944  1.00  0.00     0.163 HD
ATOM     64  O   UNL A   1      30.065  27.704  22.234  1.00  0.00    -0.274 OA
BRANCH  62  65
ATOM     65  C   UNL A   1      31.460  27.814  24.213  1.00  0.00     0.061 C 
ATOM     66  C   UNL A   1      32.995  27.766  24.489  1.00  0.00     0.053 C 
ATOM     67  C   UNL A   1      31.090  29.309  24.512  1.00  0.00     0.053 C 
ATOM     68  C   UNL A   1      33.175  28.815  25.542  1.00  0.00    -0.044 A 
ATOM     69  C   UNL A   1      32.075  29.672  25.580  1.00  0.00    -0.044 A 
ATOM     70  C   UNL A   1      34.247  28.994  26.397  1.00  0.00     0.004 A 
ATOM     71  C   UNL A   1      32.001  30.707  26.494  1.00  0.00     0.004 A 
ATOM     72  C   UNL A   1      34.183  30.033  27.329  1.00  0.00     0.000 A 
ATOM     73  C   UNL A   1      33.062  30.877  27.383  1.00  0.00     0.000 A 
BRANCH  65  74
ATOM     74  C   UNL A   1      30.672  26.874  25.179  1.00  0.00     0.045 C 
BRANCH  74  75
ATOM     75  C   UNL A   1      31.148  25.444  25.162  1.00  0.00    -0.025 C 
ATOM     76  C   UNL A   1      31.737  24.825  26.197  1.00  0.00     0.004 C 
BRANCH  76  77
ATOM     77  C   UNL A   1      32.331  23.482  26.116  1.00  0.00    -0.026 A 
ATOM     78  C   UNL A   1      33.475  23.191  26.871  1.00  0.00     0.008 A 
ATOM     79  C   UNL A   1      31.845  22.507  25.232  1.00  0.00     0.008 A 
ATOM     80  C   UNL A   1      34.094  21.942  26.770  1.00  0.00     0.001 A 
ATOM     81  C   UNL A   1      32.460  21.258  25.136  1.00  0.00     0.001 A 
ATOM     82  C   UNL A   1      33.583  20.975  25.907  1.00  0.00     0.000 A 
ENDBRANCH  76  77
ENDBRANCH  74  75
ENDBRANCH  65  74
ENDBRANCH  62  65
ENDBRANCH  60  61
ENDBRANCH  59  60
ENDBRANCH   1  59
TORSDOF 16
ENDMDL
MODEL 3
REMARK VINA RESULT:     -11.6      1.631      6.384
REMARK SMILES O=C(NCCCCCCNC(=O)C1(C/C=C/c2ccccc2)Cc2ccccc2C1)c1ccc(-c2c3nc(c(-c4ccccc4)c4ccc([nH]4)c(-c4ccccc4)c4nc(c(-c5ccccc5)c5ccc2[nH]5)C=C4)C=C3)cc1
REMARK SMILES IDX 7 1 6 2 5 3 4 4 3 5 1 6 2 7 31 9 32 10 78 11 33 12 77 13
REMARK SMILES IDX 34 14 35 15 36 16 71 17 37 18 76 19 70 20 72 21 38 22 75 23
REMARK SMILES IDX 69 24 68 25 39 27 61 28 46 29 60 30 47 31 50 32 59 33 73 34
REMARK SMILES IDX 48 35 49 36 58 38 74 39 51 40 40 41 41 42 45 43 42 44 44 45
REMARK SMILES IDX 43 46 62 47 63 48 67 49 64 50 66 51 65 52 52 53 53 54 57 55
REMARK SMILES IDX 54 56 56 57 55 58 8 59 9 60 10 61 11 62 12 64 13 65 23 66
REMARK SMILES IDX 30 67 24 68 29 69 25 70 28 71 26 72 27 73 14 74 15 75 16 76
REMARK SMILES IDX 17 77 18 78 22 79 19 80 21 81 20 82
REMARK H PARENT 3 8 72 26 50 37 10 63
REMARK Flexibility Score: inf
ROOT
ATOM      1  C   UNL A   1      34.560  21.587  25.969  1.00  0.00     0.002 C 
ENDROOT
BRANCH   1   2
ATOM      2  C   UNL A   1      35.288  21.951  24.673  1.00  0.00     0.002 C 
BRANCH   2   3
ATOM      3  C   UNL A   1      35.856  23.371  24.626  1.00  0.00     0.021 C 
BRANCH   3   4
ATOM      4  C   UNL A   1      36.761  23.730  25.802  1.00  0.00     0.116 C 
BRANCH   4   5
ATOM      5  N   UNL A   1      37.790  22.727  26.013  1.00  0.00    -0.352 N 
ATOM      6  O   UNL A   1      39.894  21.970  26.307  1.00  0.00    -0.269 OA
ATOM      7  C   UNL A   1      39.093  22.892  26.409  1.00  0.00     0.251 C 
ATOM      8  H   UNL A   1      37.513  21.797  25.849  1.00  0.00     0.163 HD
BRANCH   7   9
ATOM      9  C   UNL A   1      39.533  24.192  26.953  1.00  0.00     0.039 A 
ATOM     10  C   UNL A   1      40.179  25.126  26.135  1.00  0.00     0.014 A 
ATOM     11  C   UNL A   1      39.257  24.492  28.288  1.00  0.00     0.014 A 
ATOM     12  C   UNL A   1      40.641  26.320  26.680  1.00  0.00     0.010 A 
ATOM     13  C   UNL A   1      39.663  25.718  28.817  1.00  0.00     0.010 A 
ATOM     14  C   UNL A   1      40.374  26.633  28.021  1.00  0.00    -0.014 A 
BRANCH  14  15
ATOM     15  C   UNL A   1      40.783  27.942  28.582  1.00  0.00     0.031 A 
ATOM     16  C   UNL A   1      42.192  28.170  29.045  1.00  0.00     0.074 A 
ATOM     17  C   UNL A   1      39.860  28.911  28.718  1.00  0.00     0.049 A 
ATOM     18  N   UNL A   1      42.701  29.210  29.654  1.00  0.00    -0.248 NA
ATOM     19  C   UNL A   1      43.153  27.082  28.801  1.00  0.00     0.031 C 
ATOM     20  C   UNL A   1      38.460  28.807  28.303  1.00  0.00     0.029 A 
ATOM     21  N   UNL A   1      39.955  30.166  29.262  1.00  0.00    -0.354 N 
ATOM     22  C   UNL A   1      44.032  28.894  29.892  1.00  0.00     0.074 A 
ATOM     23  C   UNL A   1      44.247  27.558  29.378  1.00  0.00     0.031 C 
ATOM     24  C   UNL A   1      37.828  29.951  28.601  1.00  0.00     0.029 A 
ATOM     25  C   UNL A   1      38.760  30.841  29.283  1.00  0.00     0.049 A 
ATOM     26  H   UNL A   1      40.798  30.546  29.601  1.00  0.00     0.167 HD
ATOM     27  C   UNL A   1      44.986  29.649  30.488  1.00  0.00     0.031 A 
ATOM     28  C   UNL A   1      38.436  32.029  29.826  1.00  0.00     0.031 A 
ATOM     29  C   UNL A   1      44.760  30.973  31.008  1.00  0.00     0.049 A 
ATOM     30  C   UNL A   1      39.495  32.828  30.525  1.00  0.00     0.074 A 
ATOM     31  C   UNL A   1      45.670  31.835  31.598  1.00  0.00     0.029 A 
ATOM     32  N   UNL A   1      43.533  31.620  31.015  1.00  0.00    -0.354 N 
ATOM     33  N   UNL A   1      40.759  32.535  30.710  1.00  0.00    -0.248 NA
ATOM     34  C   UNL A   1      39.086  34.123  31.087  1.00  0.00     0.031 C 
ATOM     35  C   UNL A   1      44.980  32.979  32.011  1.00  0.00     0.029 A 
ATOM     36  C   UNL A   1      43.655  32.858  31.624  1.00  0.00     0.049 A 
ATOM     37  H   UNL A   1      42.699  31.254  30.642  1.00  0.00     0.167 HD
ATOM     38  C   UNL A   1      41.305  33.618  31.386  1.00  0.00     0.074 A 
ATOM     39  C   UNL A   1      40.234  34.576  31.574  1.00  0.00     0.031 C 
ATOM     40  C   UNL A   1      42.580  33.803  31.804  1.00  0.00     0.031 A 
BRANCH  27  41
ATOM     41  C   UNL A   1      46.350  29.037  30.651  1.00  0.00    -0.014 A 
ATOM     42  C   UNL A   1      46.665  28.222  31.750  1.00  0.00     0.009 A 
ATOM     43  C   UNL A   1      47.335  29.270  29.678  1.00  0.00     0.009 A 
ATOM     44  C   UNL A   1      47.950  27.694  31.895  1.00  0.00     0.001 A 
ATOM     45  C   UNL A   1      48.610  28.717  29.810  1.00  0.00     0.001 A 
ATOM     46  C   UNL A   1      48.920  27.940  30.924  1.00  0.00     0.000 A 
ENDBRANCH  27  41
BRANCH  28  47
ATOM     47  C   UNL A   1      37.034  32.506  29.736  1.00  0.00    -0.014 A 
ATOM     48  C   UNL A   1      36.079  32.101  30.679  1.00  0.00     0.009 A 
ATOM     49  C   UNL A   1      36.659  33.420  28.737  1.00  0.00     0.009 A 
ATOM     50  C   UNL A   1      34.774  32.597  30.619  1.00  0.00     0.001 A 
ATOM     51  C   UNL A   1      35.363  33.935  28.697  1.00  0.00     0.001 A 
ATOM     52  C   UNL A   1      34.420  33.519  29.635  1.00  0.00     0.000 A 
ENDBRANCH  28  47
BRANCH  40  53
ATOM     53  C   UNL A   1      42.908  35.109  32.468  1.00  0.00    -0.014 A 
ATOM     54  C   UNL A   1      43.498  36.164  31.756  1.00  0.00     0.009 A 
ATOM     55  C   UNL A   1      42.552  35.306  33.812  1.00  0.00     0.009 A 
ATOM     56  C   UNL A   1      43.742  37.387  32.385  1.00  0.00     0.001 A 
ATOM     57  C   UNL A   1      42.774  36.537  34.429  1.00  0.00     0.001 A 
ATOM     58  C   UNL A   1      43.372  37.574  33.717  1.00  0.00     0.000 A 
ENDBRANCH  40  53
ENDBRANCH  14  15
ENDBRANCH   7   9
ENDBRANCH   4   5
ENDBRANCH   3   4
ENDBRANCH   2   3
ENDBRANCH   1   2
BRANCH   1  59
ATOM     59  C   UNL A   1      33.304  20.729  25.785  1.00  0.00     0.021 C 
BRANCH  59  60
ATOM     60  C   UNL A   1      32.154  21.444  25.079  1.00  0.00     0.116 C 
BRANCH  60  61
ATOM     61  N   UNL A   1      31.149  21.867  26.032  1.00  0.00    -0.356 N 
ATOM     62  C   UNL A   1      30.657  23.094  26.353  1.00  0.00     0.227 C 
ATOM     63  H   UNL A   1      30.746  21.128  26.543  1.00  0.00     0.163 HD
ATOM     64  O   UNL A   1      29.923  23.140  27.344  1.00  0.00    -0.274 OA
BRANCH  62  65
ATOM     65  C   UNL A   1      30.980  24.354  25.532  1.00  0.00     0.061 C 
ATOM     66  C   UNL A   1      32.523  24.575  25.470  1.00  0.00     0.053 C 
ATOM     67  C   UNL A   1      30.595  24.103  24.032  1.00  0.00     0.053 C 
ATOM     68  C   UNL A   1      32.718  25.169  24.110  1.00  0.00    -0.044 A 
ATOM     69  C   UNL A   1      31.605  24.932  23.302  1.00  0.00    -0.044 A 
ATOM     70  C   UNL A   1      33.812  25.864  23.629  1.00  0.00     0.004 A 
ATOM     71  C   UNL A   1      31.542  25.412  22.007  1.00  0.00     0.004 A 
ATOM     72  C   UNL A   1      33.760  26.358  22.324  1.00  0.00     0.000 A 
ATOM     73  C   UNL A   1      32.628  26.142  21.522  1.00  0.00     0.000 A 
BRANCH  65  74
ATOM     74  C   UNL A   1      30.237  25.620  26.061  1.00  0.00     0.045 C 
BRANCH  74  75
ATOM     75  C   UNL A   1      31.156  26.680  26.613  1.00  0.00    -0.025 C 
ATOM     76  C   UNL A   1      31.427  27.846  26.005  1.00  0.00     0.004 C 
BRANCH  76  77
ATOM     77  C   UNL A   1      32.440  28.800  26.480  1.00  0.00    -0.026 A 
ATOM     78  C   UNL A   1      33.748  28.355  26.712  1.00  0.00     0.008 A 
ATOM     79  C   UNL A   1      32.117  30.127  26.800  1.00  0.00     0.008 A 
ATOM     80  C   UNL A   1      34.716  29.226  27.218  1.00  0.00     0.001 A 
ATOM     81  C   UNL A   1      33.086  30.999  27.299  1.00  0.00     0.001 A 
ATOM     82  C   UNL A   1      34.386  30.549  27.506  1.00  0.00     0.000 A 
ENDBRANCH  76  77
ENDBRANCH  74  75
ENDBRANCH  65  74
ENDBRANCH  62  65
ENDBRANCH  60  61
ENDBRANCH  59  60
ENDBRANCH   1  59
TORSDOF 16
ENDMDL
