MODEL 1
REMARK VINA RESULT:     -10.6      0.000      0.000
REMARK SMILES O=C(NCCCCCCNC(=O)c1cc([C@@H]2C=NN=C2c2ccc(F)cc2)c2c(ccc3ccccc32)n1)c1ccc(-c2c3nc(c(-c4ccccc4)c4ccc([nH]4)c(-c4ccccc4)c4nc(c(-c5ccccc5)c5ccc2[nH]5)C=C4)C=C3)cc1
REMARK SMILES IDX 6 1 5 2 4 3 3 4 1 5 2 6 39 8 40 9 86 10 41 11 85 12 42 13
REMARK SMILES IDX 43 14 44 15 79 16 45 17 84 18 78 19 80 20 46 21 83 22 77 23
REMARK SMILES IDX 76 24 47 26 69 27 54 28 68 29 55 30 58 31 67 32 81 33 56 34
REMARK SMILES IDX 57 35 66 37 82 38 59 39 48 40 49 41 53 42 50 43 52 44 51 45
REMARK SMILES IDX 70 46 71 47 75 48 72 49 74 50 73 51 60 52 61 53 65 54 62 55
REMARK SMILES IDX 64 56 63 57 7 58 8 59 9 60 10 61 11 62 12 64 13 65 14 66
REMARK SMILES IDX 38 67 15 68 29 69 28 70 30 71 37 72 31 73 32 74 36 75 33 76
REMARK SMILES IDX 35 77 34 78 16 79 17 80 20 81 18 82 19 83 21 84 22 85 27 86
REMARK SMILES IDX 23 87 26 88 24 89 25 90
REMARK H PARENT 3 7 80 25 58 36 10 63
REMARK Flexibility Score: inf
ROOT
ATOM      1  C   UNL A   1      42.098  35.149  34.612  1.00  0.00     0.002 C 
ENDROOT
BRANCH   1   2
ATOM      2  C   UNL A   1      40.915  34.905  33.667  1.00  0.00     0.021 C 
BRANCH   2   3
ATOM      3  C   UNL A   1      41.297  34.358  32.290  1.00  0.00     0.116 C 
BRANCH   3   4
ATOM      4  N   UNL A   1      40.263  34.510  31.291  1.00  0.00    -0.352 N 
ATOM      5  O   UNL A   1      38.689  34.126  29.791  1.00  0.00    -0.269 OA
ATOM      6  C   UNL A   1      39.656  33.668  30.407  1.00  0.00     0.251 C 
ATOM      7  H   UNL A   1      39.919  35.431  31.237  1.00  0.00     0.163 HD
BRANCH   6   8
ATOM      8  C   UNL A   1      40.123  32.294  30.082  1.00  0.00     0.039 A 
ATOM      9  C   UNL A   1      39.329  31.146  30.034  1.00  0.00     0.014 A 
ATOM     10  C   UNL A   1      41.509  32.164  29.874  1.00  0.00     0.014 A 
ATOM     11  C   UNL A   1      39.912  29.890  29.907  1.00  0.00     0.010 A 
ATOM     12  C   UNL A   1      42.096  30.917  29.729  1.00  0.00     0.010 A 
ATOM     13  C   UNL A   1      41.297  29.781  29.801  1.00  0.00    -0.014 A 
BRANCH  13  14
ATOM     14  C   UNL A   1      41.875  28.453  29.653  1.00  0.00     0.031 A 
ATOM     15  C   UNL A   1      42.666  27.977  30.822  1.00  0.00     0.074 A 
ATOM     16  C   UNL A   1      41.586  27.653  28.607  1.00  0.00     0.049 A 
ATOM     17  N   UNL A   1      43.904  27.605  30.856  1.00  0.00    -0.248 NA
ATOM     18  C   UNL A   1      42.013  28.010  32.142  1.00  0.00     0.031 C 
ATOM     19  C   UNL A   1      40.603  27.880  27.545  1.00  0.00     0.029 A 
ATOM     20  N   UNL A   1      42.030  26.392  28.351  1.00  0.00    -0.354 N 
ATOM     21  C   UNL A   1      44.146  27.196  32.167  1.00  0.00     0.074 A 
ATOM     22  C   UNL A   1      42.995  27.591  32.938  1.00  0.00     0.031 C 
ATOM     23  C   UNL A   1      40.348  26.709  26.918  1.00  0.00     0.029 A 
ATOM     24  C   UNL A   1      41.245  25.692  27.443  1.00  0.00     0.049 A 
ATOM     25  H   UNL A   1      42.834  26.009  28.770  1.00  0.00     0.167 HD
ATOM     26  C   UNL A   1      45.174  26.363  32.488  1.00  0.00     0.031 A 
ATOM     27  C   UNL A   1      41.278  24.359  27.202  1.00  0.00     0.031 A 
ATOM     28  C   UNL A   1      46.177  26.318  31.459  1.00  0.00     0.049 A 
ATOM     29  C   UNL A   1      42.568  23.838  27.709  1.00  0.00     0.074 A 
ATOM     30  C   UNL A   1      47.026  27.238  30.877  1.00  0.00     0.029 A 
ATOM     31  N   UNL A   1      46.171  25.233  30.617  1.00  0.00    -0.354 N 
ATOM     32  N   UNL A   1      43.718  24.137  27.179  1.00  0.00    -0.248 NA
ATOM     33  C   UNL A   1      42.619  23.346  29.076  1.00  0.00     0.031 C 
ATOM     34  C   UNL A   1      47.078  26.867  29.501  1.00  0.00     0.029 A 
ATOM     35  C   UNL A   1      46.305  25.716  29.341  1.00  0.00     0.049 A 
ATOM     36  H   UNL A   1      46.084  24.288  30.879  1.00  0.00     0.167 HD
ATOM     37  C   UNL A   1      44.573  24.296  28.260  1.00  0.00     0.074 A 
ATOM     38  C   UNL A   1      43.868  23.699  29.392  1.00  0.00     0.031 C 
ATOM     39  C   UNL A   1      45.640  25.146  28.194  1.00  0.00     0.031 A 
BRANCH  26  40
ATOM     40  C   UNL A   1      45.061  25.278  33.532  1.00  0.00    -0.014 A 
ATOM     41  C   UNL A   1      44.230  24.172  33.273  1.00  0.00     0.009 A 
ATOM     42  C   UNL A   1      45.488  25.449  34.863  1.00  0.00     0.009 A 
ATOM     43  C   UNL A   1      43.778  23.343  34.306  1.00  0.00     0.001 A 
ATOM     44  C   UNL A   1      45.073  24.596  35.890  1.00  0.00     0.001 A 
ATOM     45  C   UNL A   1      44.190  23.563  35.616  1.00  0.00     0.000 A 
ENDBRANCH  26  40
BRANCH  27  46
ATOM     46  C   UNL A   1      40.152  23.465  26.855  1.00  0.00    -0.014 A 
ATOM     47  C   UNL A   1      38.870  23.976  26.604  1.00  0.00     0.009 A 
ATOM     48  C   UNL A   1      40.401  22.123  26.507  1.00  0.00     0.009 A 
ATOM     49  C   UNL A   1      37.885  23.182  25.997  1.00  0.00     0.001 A 
ATOM     50  C   UNL A   1      39.419  21.331  25.905  1.00  0.00     0.001 A 
ATOM     51  C   UNL A   1      38.164  21.865  25.639  1.00  0.00     0.000 A 
ENDBRANCH  27  46
BRANCH  39  52
ATOM     52  C   UNL A   1      45.975  25.753  26.853  1.00  0.00    -0.014 A 
ATOM     53  C   UNL A   1      45.369  26.929  26.376  1.00  0.00     0.009 A 
ATOM     54  C   UNL A   1      47.041  25.211  26.123  1.00  0.00     0.009 A 
ATOM     55  C   UNL A   1      45.797  27.524  25.185  1.00  0.00     0.001 A 
ATOM     56  C   UNL A   1      47.483  25.817  24.945  1.00  0.00     0.001 A 
ATOM     57  C   UNL A   1      46.858  26.970  24.473  1.00  0.00     0.000 A 
ENDBRANCH  39  52
ENDBRANCH  13  14
ENDBRANCH   6   8
ENDBRANCH   3   4
ENDBRANCH   2   3
ENDBRANCH   1   2
BRANCH   1  58
ATOM     58  C   UNL A   1      41.884  34.710  36.064  1.00  0.00     0.002 C 
BRANCH  58  59
ATOM     59  C   UNL A   1      40.709  33.759  36.290  1.00  0.00     0.021 C 
BRANCH  59  60
ATOM     60  C   UNL A   1      39.750  34.194  37.386  1.00  0.00     0.116 C 
BRANCH  60  61
ATOM     61  N   UNL A   1      39.164  33.059  38.084  1.00  0.00    -0.351 N 
ATOM     62  C   UNL A   1      38.092  32.277  37.713  1.00  0.00     0.269 C 
ATOM     63  H   UNL A   1      39.591  32.818  38.938  1.00  0.00     0.163 HD
ATOM     64  O   UNL A   1      37.634  31.454  38.510  1.00  0.00    -0.268 OA
BRANCH  62  65
ATOM     65  C   UNL A   1      37.536  32.402  36.339  1.00  0.00     0.129 A 
ATOM     66  C   UNL A   1      37.850  31.457  35.393  1.00  0.00     0.039 A 
ATOM     67  N   UNL A   1      36.750  33.447  36.069  1.00  0.00    -0.243 NA
ATOM     68  C   UNL A   1      37.438  31.615  34.052  1.00  0.00    -0.021 A 
ATOM     69  C   UNL A   1      36.265  33.576  34.830  1.00  0.00     0.072 A 
ATOM     70  C   UNL A   1      36.555  32.719  33.717  1.00  0.00     0.012 A 
ATOM     71  C   UNL A   1      35.408  34.644  34.709  1.00  0.00     0.029 A 
ATOM     72  C   UNL A   1      35.887  33.067  32.444  1.00  0.00    -0.009 A 
ATOM     73  C   UNL A   1      34.773  34.950  33.517  1.00  0.00     0.011 A 
ATOM     74  C   UNL A   1      35.000  34.180  32.388  1.00  0.00    -0.018 A 
ATOM     75  C   UNL A   1      36.010  32.381  31.213  1.00  0.00     0.009 A 
ATOM     76  C   UNL A   1      34.316  34.537  31.211  1.00  0.00     0.009 A 
ATOM     77  C   UNL A   1      35.335  32.738  30.037  1.00  0.00     0.001 A 
ATOM     78  C   UNL A   1      34.481  33.819  30.037  1.00  0.00     0.001 A 
BRANCH  68  79
ATOM     79  C   UNL A   1      37.998  30.514  33.182  1.00  0.00     0.115 C 
ATOM     80  C   UNL A   1      37.084  29.429  32.749  1.00  0.00     0.123 C 
ATOM     81  C   UNL A   1      39.162  29.680  33.602  1.00  0.00     0.083 C 
ATOM     82  N   UNL A   1      37.659  28.270  32.744  1.00  0.00    -0.162 NA
ATOM     83  N   UNL A   1      38.986  28.427  33.280  1.00  0.00    -0.154 NA
BRANCH  81  84
ATOM     84  C   UNL A   1      40.426  30.217  34.150  1.00  0.00    -0.001 A 
ATOM     85  C   UNL A   1      40.798  29.824  35.444  1.00  0.00     0.013 A 
ATOM     86  C   UNL A   1      41.262  31.081  33.431  1.00  0.00     0.013 A 
ATOM     87  C   UNL A   1      42.005  30.265  35.992  1.00  0.00     0.040 A 
ATOM     88  C   UNL A   1      42.468  31.518  33.980  1.00  0.00     0.040 A 
ATOM     89  C   UNL A   1      42.831  31.103  35.253  1.00  0.00     0.123 A 
ATOM     90  F   UNL A   1      43.991  31.520  35.776  1.00  0.00    -0.207 F 
ENDBRANCH  81  84
ENDBRANCH  68  79
ENDBRANCH  62  65
ENDBRANCH  60  61
ENDBRANCH  59  60
ENDBRANCH  58  59
ENDBRANCH   1  58
TORSDOF 15
ENDMDL
MODEL 2
REMARK VINA RESULT:     -10.3     10.535     14.389
REMARK SMILES O=C(NCCCCCCNC(=O)c1cc([C@@H]2C=NN=C2c2ccc(F)cc2)c2c(ccc3ccccc32)n1)c1ccc(-c2c3nc(c(-c4ccccc4)c4ccc([nH]4)c(-c4ccccc4)c4nc(c(-c5ccccc5)c5ccc2[nH]5)C=C4)C=C3)cc1
REMARK SMILES IDX 6 1 5 2 4 3 3 4 1 5 2 6 39 8 40 9 86 10 41 11 85 12 42 13
REMARK SMILES IDX 43 14 44 15 79 16 45 17 84 18 78 19 80 20 46 21 83 22 77 23
REMARK SMILES IDX 76 24 47 26 69 27 54 28 68 29 55 30 58 31 67 32 81 33 56 34
REMARK SMILES IDX 57 35 66 37 82 38 59 39 48 40 49 41 53 42 50 43 52 44 51 45
REMARK SMILES IDX 70 46 71 47 75 48 72 49 74 50 73 51 60 52 61 53 65 54 62 55
REMARK SMILES IDX 64 56 63 57 7 58 8 59 9 60 10 61 11 62 12 64 13 65 14 66
REMARK SMILES IDX 38 67 15 68 29 69 28 70 30 71 37 72 31 73 32 74 36 75 33 76
REMARK SMILES IDX 35 77 34 78 16 79 17 80 20 81 18 82 19 83 21 84 22 85 27 86
REMARK SMILES IDX 23 87 26 88 24 89 25 90
REMARK H PARENT 3 7 80 25 58 36 10 63
REMARK Flexibility Score: inf
ROOT
ATOM      1  C   UNL A   1      43.301  41.202  25.734  1.00  0.00     0.002 C 
ENDROOT
BRANCH   1   2
ATOM      2  C   UNL A   1      42.586  40.455  26.867  1.00  0.00     0.021 C 
BRANCH   2   3
ATOM      3  C   UNL A   1      42.963  38.979  27.000  1.00  0.00     0.116 C 
BRANCH   3   4
ATOM      4  N   UNL A   1      44.307  38.757  27.483  1.00  0.00    -0.352 N 
ATOM      5  O   UNL A   1      46.189  37.828  28.167  1.00  0.00    -0.269 OA
ATOM      6  C   UNL A   1      44.977  37.682  27.987  1.00  0.00     0.251 C 
ATOM      7  H   UNL A   1      44.866  39.566  27.436  1.00  0.00     0.163 HD
BRANCH   6   8
ATOM      8  C   UNL A   1      44.343  36.403  28.406  1.00  0.00     0.039 A 
ATOM      9  C   UNL A   1      43.812  35.432  27.554  1.00  0.00     0.014 A 
ATOM     10  C   UNL A   1      44.223  36.219  29.796  1.00  0.00     0.014 A 
ATOM     11  C   UNL A   1      43.076  34.371  28.068  1.00  0.00     0.010 A 
ATOM     12  C   UNL A   1      43.505  35.153  30.317  1.00  0.00     0.010 A 
ATOM     13  C   UNL A   1      42.888  34.263  29.444  1.00  0.00    -0.014 A 
BRANCH  13  14
ATOM     14  C   UNL A   1      42.125  33.131  29.951  1.00  0.00     0.031 A 
ATOM     15  C   UNL A   1      42.749  31.799  29.721  1.00  0.00     0.074 A 
ATOM     16  C   UNL A   1      41.021  33.287  30.708  1.00  0.00     0.049 A 
ATOM     17  N   UNL A   1      42.260  30.781  29.090  1.00  0.00    -0.248 NA
ATOM     18  C   UNL A   1      44.137  31.611  30.176  1.00  0.00     0.031 C 
ATOM     19  C   UNL A   1      40.469  34.532  31.250  1.00  0.00     0.029 A 
ATOM     20  N   UNL A   1      40.227  32.331  31.264  1.00  0.00    -0.354 N 
ATOM     21  C   UNL A   1      43.206  29.764  29.209  1.00  0.00     0.074 A 
ATOM     22  C   UNL A   1      44.389  30.369  29.767  1.00  0.00     0.031 C 
ATOM     23  C   UNL A   1      39.599  34.236  32.243  1.00  0.00     0.029 A 
ATOM     24  C   UNL A   1      39.436  32.794  32.309  1.00  0.00     0.049 A 
ATOM     25  H   UNL A   1      40.214  31.397  30.955  1.00  0.00     0.167 HD
ATOM     26  C   UNL A   1      42.882  28.451  29.051  1.00  0.00     0.031 A 
ATOM     27  C   UNL A   1      38.762  32.038  33.210  1.00  0.00     0.031 A 
ATOM     28  C   UNL A   1      41.637  28.280  28.355  1.00  0.00     0.049 A 
ATOM     29  C   UNL A   1      38.625  30.676  32.648  1.00  0.00     0.074 A 
ATOM     30  C   UNL A   1      41.161  28.609  27.101  1.00  0.00     0.029 A 
ATOM     31  N   UNL A   1      40.526  27.986  29.107  1.00  0.00    -0.354 N 
ATOM     32  N   UNL A   1      37.891  30.400  31.609  1.00  0.00    -0.248 NA
ATOM     33  C   UNL A   1      39.655  29.698  32.962  1.00  0.00     0.031 C 
ATOM     34  C   UNL A   1      39.801  28.980  27.312  1.00  0.00     0.029 A 
ATOM     35  C   UNL A   1      39.516  28.801  28.667  1.00  0.00     0.049 A 
ATOM     36  H   UNL A   1      40.467  27.318  29.828  1.00  0.00     0.167 HD
ATOM     37  C   UNL A   1      38.630  29.471  30.892  1.00  0.00     0.074 A 
ATOM     38  C   UNL A   1      39.656  29.003  31.822  1.00  0.00     0.031 C 
ATOM     39  C   UNL A   1      38.519  29.382  29.533  1.00  0.00     0.031 A 
BRANCH  26  40
ATOM     40  C   UNL A   1      43.478  27.348  29.893  1.00  0.00    -0.014 A 
ATOM     41  C   UNL A   1      43.230  27.346  31.279  1.00  0.00     0.009 A 
ATOM     42  C   UNL A   1      44.507  26.504  29.434  1.00  0.00     0.009 A 
ATOM     43  C   UNL A   1      44.032  26.611  32.161  1.00  0.00     0.001 A 
ATOM     44  C   UNL A   1      45.282  25.736  30.308  1.00  0.00     0.001 A 
ATOM     45  C   UNL A   1      45.066  25.817  31.675  1.00  0.00     0.000 A 
ENDBRANCH  26  40
BRANCH  27  46
ATOM     46  C   UNL A   1      38.512  32.327  34.639  1.00  0.00    -0.014 A 
ATOM     47  C   UNL A   1      39.546  32.266  35.584  1.00  0.00     0.009 A 
ATOM     48  C   UNL A   1      37.300  32.929  35.032  1.00  0.00     0.009 A 
ATOM     49  C   UNL A   1      39.384  32.815  36.865  1.00  0.00     0.001 A 
ATOM     50  C   UNL A   1      37.138  33.475  36.309  1.00  0.00     0.001 A 
ATOM     51  C   UNL A   1      38.185  33.428  37.222  1.00  0.00     0.000 A 
ENDBRANCH  27  46
BRANCH  39  52
ATOM     52  C   UNL A   1      37.429  30.182  28.861  1.00  0.00    -0.014 A 
ATOM     53  C   UNL A   1      36.228  29.604  28.411  1.00  0.00     0.009 A 
ATOM     54  C   UNL A   1      37.552  31.577  28.823  1.00  0.00     0.009 A 
ATOM     55  C   UNL A   1      35.195  30.401  27.907  1.00  0.00     0.001 A 
ATOM     56  C   UNL A   1      36.512  32.373  28.340  1.00  0.00     0.001 A 
ATOM     57  C   UNL A   1      35.336  31.786  27.877  1.00  0.00     0.000 A 
ENDBRANCH  39  52
ENDBRANCH  13  14
ENDBRANCH   6   8
ENDBRANCH   3   4
ENDBRANCH   2   3
ENDBRANCH   1   2
BRANCH   1  58
ATOM     58  C   UNL A   1      44.318  42.258  26.178  1.00  0.00     0.002 C 
BRANCH  58  59
ATOM     59  C   UNL A   1      44.354  43.526  25.324  1.00  0.00     0.021 C 
BRANCH  59  60
ATOM     60  C   UNL A   1      45.700  43.810  24.676  1.00  0.00     0.116 C 
BRANCH  60  61
ATOM     61  N   UNL A   1      46.369  42.591  24.246  1.00  0.00    -0.351 N 
ATOM     62  C   UNL A   1      46.313  41.962  23.022  1.00  0.00     0.269 C 
ATOM     63  H   UNL A   1      46.940  42.159  24.922  1.00  0.00     0.163 HD
ATOM     64  O   UNL A   1      46.824  40.846  22.888  1.00  0.00    -0.268 OA
BRANCH  62  65
ATOM     65  C   UNL A   1      45.681  42.657  21.869  1.00  0.00     0.129 A 
ATOM     66  C   UNL A   1      46.475  43.289  20.943  1.00  0.00     0.039 A 
ATOM     67  N   UNL A   1      44.349  42.653  21.781  1.00  0.00    -0.243 NA
ATOM     68  C   UNL A   1      45.900  44.059  19.908  1.00  0.00    -0.021 A 
ATOM     69  C   UNL A   1      43.776  43.294  20.759  1.00  0.00     0.072 A 
ATOM     70  C   UNL A   1      44.456  44.057  19.753  1.00  0.00     0.012 A 
ATOM     71  C   UNL A   1      42.409  43.142  20.742  1.00  0.00     0.029 A 
ATOM     72  C   UNL A   1      43.597  44.671  18.718  1.00  0.00    -0.009 A 
ATOM     73  C   UNL A   1      41.616  43.705  19.756  1.00  0.00     0.011 A 
ATOM     74  C   UNL A   1      42.188  44.464  18.749  1.00  0.00    -0.018 A 
ATOM     75  C   UNL A   1      44.026  45.463  17.627  1.00  0.00     0.009 A 
ATOM     76  C   UNL A   1      41.328  44.999  17.772  1.00  0.00     0.009 A 
ATOM     77  C   UNL A   1      43.172  46.003  16.656  1.00  0.00     0.001 A 
ATOM     78  C   UNL A   1      41.816  45.767  16.726  1.00  0.00     0.001 A 
BRANCH  68  79
ATOM     79  C   UNL A   1      46.969  44.745  19.090  1.00  0.00     0.115 C 
ATOM     80  C   UNL A   1      48.335  44.165  19.094  1.00  0.00     0.123 C 
ATOM     81  C   UNL A   1      47.329  46.180  19.288  1.00  0.00     0.083 C 
ATOM     82  N   UNL A   1      49.258  45.072  19.101  1.00  0.00    -0.162 NA
ATOM     83  N   UNL A   1      48.620  46.358  19.217  1.00  0.00    -0.154 NA
BRANCH  81  84
ATOM     84  C   UNL A   1      46.351  47.286  19.377  1.00  0.00    -0.001 A 
ATOM     85  C   UNL A   1      46.102  48.034  18.217  1.00  0.00     0.013 A 
ATOM     86  C   UNL A   1      45.662  47.601  20.555  1.00  0.00     0.013 A 
ATOM     87  C   UNL A   1      45.154  49.060  18.233  1.00  0.00     0.040 A 
ATOM     88  C   UNL A   1      44.714  48.625  20.567  1.00  0.00     0.040 A 
ATOM     89  C   UNL A   1      44.464  49.342  19.406  1.00  0.00     0.123 A 
ATOM     90  F   UNL A   1      43.551  50.320  19.420  1.00  0.00    -0.207 F 
ENDBRANCH  81  84
ENDBRANCH  68  79
ENDBRANCH  62  65
ENDBRANCH  60  61
ENDBRANCH  59  60
ENDBRANCH  58  59
ENDBRANCH   1  58
TORSDOF 15
ENDMDL
MODEL 3
REMARK VINA RESULT:     -10.1      2.894      6.824
REMARK SMILES O=C(NCCCCCCNC(=O)c1cc([C@@H]2C=NN=C2c2ccc(F)cc2)c2c(ccc3ccccc32)n1)c1ccc(-c2c3nc(c(-c4ccccc4)c4ccc([nH]4)c(-c4ccccc4)c4nc(c(-c5ccccc5)c5ccc2[nH]5)C=C4)C=C3)cc1
REMARK SMILES IDX 6 1 5 2 4 3 3 4 1 5 2 6 39 8 40 9 86 10 41 11 85 12 42 13
REMARK SMILES IDX 43 14 44 15 79 16 45 17 84 18 78 19 80 20 46 21 83 22 77 23
REMARK SMILES IDX 76 24 47 26 69 27 54 28 68 29 55 30 58 31 67 32 81 33 56 34
REMARK SMILES IDX 57 35 66 37 82 38 59 39 48 40 49 41 53 42 50 43 52 44 51 45
REMARK SMILES IDX 70 46 71 47 75 48 72 49 74 50 73 51 60 52 61 53 65 54 62 55
REMARK SMILES IDX 64 56 63 57 7 58 8 59 9 60 10 61 11 62 12 64 13 65 14 66
REMARK SMILES IDX 38 67 15 68 29 69 28 70 30 71 37 72 31 73 32 74 36 75 33 76
REMARK SMILES IDX 35 77 34 78 16 79 17 80 20 81 18 82 19 83 21 84 22 85 27 86
REMARK SMILES IDX 23 87 26 88 24 89 25 90
REMARK H PARENT 3 7 80 25 58 36 10 63
REMARK Flexibility Score: inf
ROOT
ATOM      1  C   UNL A   1      42.952  27.359  36.464  1.00  0.00     0.002 C 
ENDROOT
BRANCH   1   2
ATOM      2  C   UNL A   1      42.713  26.142  37.366  1.00  0.00     0.021 C 
BRANCH   2   3
ATOM      3  C   UNL A   1      43.893  25.768  38.264  1.00  0.00     0.116 C 
BRANCH   3   4
ATOM      4  N   UNL A   1      44.389  24.426  38.053  1.00  0.00    -0.352 N 
ATOM      5  O   UNL A   1      45.375  22.635  37.220  1.00  0.00    -0.269 OA
ATOM      6  C   UNL A   1      44.918  23.758  36.989  1.00  0.00     0.251 C 
ATOM      7  H   UNL A   1      44.332  23.868  38.863  1.00  0.00     0.163 HD
BRANCH   6   8
ATOM      8  C   UNL A   1      44.903  24.246  35.584  1.00  0.00     0.039 A 
ATOM      9  C   UNL A   1      45.893  25.016  34.971  1.00  0.00     0.014 A 
ATOM     10  C   UNL A   1      43.738  23.942  34.855  1.00  0.00     0.014 A 
ATOM     11  C   UNL A   1      45.678  25.572  33.715  1.00  0.00     0.010 A 
ATOM     12  C   UNL A   1      43.523  24.478  33.594  1.00  0.00     0.010 A 
ATOM     13  C   UNL A   1      44.475  25.336  33.054  1.00  0.00    -0.014 A 
BRANCH  13  14
ATOM     14  C   UNL A   1      44.287  25.920  31.733  1.00  0.00     0.031 A 
ATOM     15  C   UNL A   1      44.724  25.060  30.598  1.00  0.00     0.074 A 
ATOM     16  C   UNL A   1      43.625  27.078  31.544  1.00  0.00     0.049 A 
ATOM     17  N   UNL A   1      45.594  25.325  29.679  1.00  0.00    -0.248 NA
ATOM     18  C   UNL A   1      44.185  23.691  30.536  1.00  0.00     0.031 C 
ATOM     19  C   UNL A   1      42.896  27.871  32.537  1.00  0.00     0.029 A 
ATOM     20  N   UNL A   1      43.356  27.726  30.377  1.00  0.00    -0.354 N 
ATOM     21  C   UNL A   1      45.596  24.225  28.822  1.00  0.00     0.074 A 
ATOM     22  C   UNL A   1      44.814  23.202  29.469  1.00  0.00     0.031 C 
ATOM     23  C   UNL A   1      42.073  28.734  31.899  1.00  0.00     0.029 A 
ATOM     24  C   UNL A   1      42.321  28.647  30.470  1.00  0.00     0.049 A 
ATOM     25  H   UNL A   1      43.850  27.557  29.543  1.00  0.00     0.167 HD
ATOM     26  C   UNL A   1      46.050  24.305  27.541  1.00  0.00     0.031 A 
ATOM     27  C   UNL A   1      41.663  29.233  29.439  1.00  0.00     0.031 A 
ATOM     28  C   UNL A   1      46.884  25.457  27.333  1.00  0.00     0.049 A 
ATOM     29  C   UNL A   1      42.503  29.096  28.229  1.00  0.00     0.074 A 
ATOM     30  C   UNL A   1      48.084  25.905  27.848  1.00  0.00     0.029 A 
ATOM     31  N   UNL A   1      46.319  26.542  26.710  1.00  0.00    -0.354 N 
ATOM     32  N   UNL A   1      43.642  29.706  28.074  1.00  0.00    -0.248 NA
ATOM     33  C   UNL A   1      42.297  27.932  27.380  1.00  0.00     0.031 C 
ATOM     34  C   UNL A   1      47.934  27.320  27.945  1.00  0.00     0.029 A 
ATOM     35  C   UNL A   1      46.679  27.650  27.432  1.00  0.00     0.049 A 
ATOM     36  H   UNL A   1      45.760  26.528  25.900  1.00  0.00     0.167 HD
ATOM     37  C   UNL A   1      44.460  28.774  27.453  1.00  0.00     0.074 A 
ATOM     38  C   UNL A   1      43.551  27.741  26.960  1.00  0.00     0.031 C 
ATOM     39  C   UNL A   1      45.812  28.785  27.646  1.00  0.00     0.031 A 
BRANCH  26  40
ATOM     40  C   UNL A   1      45.398  23.579  26.389  1.00  0.00    -0.014 A 
ATOM     41  C   UNL A   1      46.219  23.002  25.401  1.00  0.00     0.009 A 
ATOM     42  C   UNL A   1      44.030  23.704  26.079  1.00  0.00     0.009 A 
ATOM     43  C   UNL A   1      45.712  22.659  24.141  1.00  0.00     0.001 A 
ATOM     44  C   UNL A   1      43.513  23.323  24.837  1.00  0.00     0.001 A 
ATOM     45  C   UNL A   1      44.361  22.832  23.857  1.00  0.00     0.000 A 
ENDBRANCH  26  40
BRANCH  27  46
ATOM     46  C   UNL A   1      40.236  29.617  29.366  1.00  0.00    -0.014 A 
ATOM     47  C   UNL A   1      39.801  30.880  29.795  1.00  0.00     0.009 A 
ATOM     48  C   UNL A   1      39.335  28.832  28.621  1.00  0.00     0.009 A 
ATOM     49  C   UNL A   1      38.523  31.352  29.461  1.00  0.00     0.001 A 
ATOM     50  C   UNL A   1      38.059  29.301  28.291  1.00  0.00     0.001 A 
ATOM     51  C   UNL A   1      37.658  30.567  28.701  1.00  0.00     0.000 A 
ENDBRANCH  27  46
BRANCH  39  52
ATOM     52  C   UNL A   1      46.408  29.954  28.391  1.00  0.00    -0.014 A 
ATOM     53  C   UNL A   1      46.257  30.130  29.779  1.00  0.00     0.009 A 
ATOM     54  C   UNL A   1      47.272  30.815  27.702  1.00  0.00     0.009 A 
ATOM     55  C   UNL A   1      46.927  31.158  30.449  1.00  0.00     0.001 A 
ATOM     56  C   UNL A   1      47.958  31.828  28.375  1.00  0.00     0.001 A 
ATOM     57  C   UNL A   1      47.782  32.004  29.746  1.00  0.00     0.000 A 
ENDBRANCH  39  52
ENDBRANCH  13  14
ENDBRANCH   6   8
ENDBRANCH   3   4
ENDBRANCH   2   3
ENDBRANCH   1   2
BRANCH   1  58
ATOM     58  C   UNL A   1      44.389  27.889  36.438  1.00  0.00     0.002 C 
BRANCH  58  59
ATOM     59  C   UNL A   1      44.588  29.189  35.658  1.00  0.00     0.021 C 
BRANCH  59  60
ATOM     60  C   UNL A   1      43.448  30.185  35.794  1.00  0.00     0.116 C 
BRANCH  60  61
ATOM     61  N   UNL A   1      43.817  31.334  36.607  1.00  0.00    -0.351 N 
ATOM     62  C   UNL A   1      43.581  32.671  36.370  1.00  0.00     0.269 C 
ATOM     63  H   UNL A   1      44.300  31.128  37.439  1.00  0.00     0.163 HD
ATOM     64  O   UNL A   1      44.109  33.520  37.094  1.00  0.00    -0.268 OA
BRANCH  62  65
ATOM     65  C   UNL A   1      42.656  33.068  35.275  1.00  0.00     0.129 A 
ATOM     66  C   UNL A   1      41.331  33.295  35.558  1.00  0.00     0.039 A 
ATOM     67  N   UNL A   1      43.150  33.181  34.040  1.00  0.00    -0.243 NA
ATOM     68  C   UNL A   1      40.407  33.552  34.521  1.00  0.00    -0.021 A 
ATOM     69  C   UNL A   1      42.319  33.517  33.049  1.00  0.00     0.072 A 
ATOM     70  C   UNL A   1      40.904  33.716  33.166  1.00  0.00     0.012 A 
ATOM     71  C   UNL A   1      42.969  33.678  31.848  1.00  0.00     0.029 A 
ATOM     72  C   UNL A   1      40.199  34.091  31.921  1.00  0.00    -0.009 A 
ATOM     73  C   UNL A   1      42.303  34.048  30.692  1.00  0.00     0.011 A 
ATOM     74  C   UNL A   1      40.933  34.255  30.711  1.00  0.00    -0.018 A 
ATOM     75  C   UNL A   1      38.814  34.342  31.778  1.00  0.00     0.009 A 
ATOM     76  C   UNL A   1      40.318  34.640  29.506  1.00  0.00     0.009 A 
ATOM     77  C   UNL A   1      38.197  34.718  30.578  1.00  0.00     0.001 A 
ATOM     78  C   UNL A   1      38.953  34.872  29.436  1.00  0.00     0.001 A 
BRANCH  68  79
ATOM     79  C   UNL A   1      39.001  33.653  35.066  1.00  0.00     0.115 C 
ATOM     80  C   UNL A   1      38.812  34.244  36.414  1.00  0.00     0.123 C 
ATOM     81  C   UNL A   1      38.114  32.462  35.211  1.00  0.00     0.083 C 
ATOM     82  N   UNL A   1      37.892  33.639  37.094  1.00  0.00    -0.162 NA
ATOM     83  N   UNL A   1      37.440  32.508  36.327  1.00  0.00    -0.154 NA
BRANCH  81  84
ATOM     84  C   UNL A   1      37.889  31.450  34.155  1.00  0.00    -0.001 A 
ATOM     85  C   UNL A   1      38.793  30.381  34.070  1.00  0.00     0.013 A 
ATOM     86  C   UNL A   1      36.814  31.510  33.260  1.00  0.00     0.013 A 
ATOM     87  C   UNL A   1      38.601  29.373  33.123  1.00  0.00     0.040 A 
ATOM     88  C   UNL A   1      36.624  30.500  32.315  1.00  0.00     0.040 A 
ATOM     89  C   UNL A   1      37.515  29.439  32.258  1.00  0.00     0.123 A 
ATOM     90  F   UNL A   1      37.327  28.469  31.355  1.00  0.00    -0.207 F 
ENDBRANCH  81  84
ENDBRANCH  68  79
ENDBRANCH  62  65
ENDBRANCH  60  61
ENDBRANCH  59  60
ENDBRANCH  58  59
ENDBRANCH   1  58
TORSDOF 15
ENDMDL
