MODEL 1
REMARK VINA RESULT:      -9.8      0.000      0.000
REMARK SMILES O=C(NCCCCCCNC(=O)[C@H](CO)NC(=O)[C@H](CS)NC(=O)c1ccc(F)cc1)c1ccc(-c2c3nc(c(-c4ccccc4)c4ccc([nH]4)c(-c4ccccc4)c4nc(c(-c5ccccc5)c5ccc2[nH]5)C=C4)C=C3)cc1
REMARK SMILES IDX 7 1 6 2 5 3 4 4 3 5 1 6 2 7 32 9 33 10 79 11 34 12 78 13
REMARK SMILES IDX 35 14 36 15 37 16 72 17 38 18 77 19 71 20 73 21 39 22 76 23
REMARK SMILES IDX 70 24 69 25 40 27 62 28 47 29 61 30 48 31 51 32 60 33 74 34
REMARK SMILES IDX 49 35 50 36 59 38 75 39 52 40 41 41 42 42 46 43 43 44 45 45
REMARK SMILES IDX 44 46 63 47 64 48 68 49 65 50 67 51 66 52 53 53 54 54 58 55
REMARK SMILES IDX 55 56 57 57 56 58 8 59 9 60 10 61 11 62 12 64 13 65 16 66
REMARK SMILES IDX 17 67 18 69 19 70 22 71 23 72 24 74 25 75 26 76 31 77 27 78
REMARK SMILES IDX 30 79 28 80 29 81 20 82 21 83 14 85 15 86
REMARK H PARENT 3 8 73 26 51 37 10 63 16 68 22 73 21 84 15 87
REMARK Flexibility Score: inf
ROOT
ATOM      1  C   UNL A   1      35.882  21.461  24.310  1.00  0.00     0.002 C 
ENDROOT
BRANCH   1   2
ATOM      2  C   UNL A   1      37.405  21.430  24.468  1.00  0.00     0.002 C 
BRANCH   2   3
ATOM      3  C   UNL A   1      38.005  20.057  24.774  1.00  0.00     0.021 C 
BRANCH   3   4
ATOM      4  C   UNL A   1      38.863  19.998  26.030  1.00  0.00     0.116 C 
BRANCH   4   5
ATOM      5  N   UNL A   1      40.069  19.210  25.842  1.00  0.00    -0.352 N 
ATOM      6  O   UNL A   1      42.282  18.836  25.605  1.00  0.00    -0.269 OA
ATOM      7  C   UNL A   1      41.382  19.588  25.969  1.00  0.00     0.251 C 
ATOM      8  H   UNL A   1      39.924  18.270  25.588  1.00  0.00     0.163 HD
BRANCH   7   9
ATOM      9  C   UNL A   1      41.712  20.915  26.529  1.00  0.00     0.039 A 
ATOM     10  C   UNL A   1      41.677  21.133  27.908  1.00  0.00     0.014 A 
ATOM     11  C   UNL A   1      42.077  21.949  25.662  1.00  0.00     0.014 A 
ATOM     12  C   UNL A   1      41.881  22.413  28.410  1.00  0.00     0.010 A 
ATOM     13  C   UNL A   1      42.365  23.216  26.176  1.00  0.00     0.010 A 
ATOM     14  C   UNL A   1      42.248  23.463  27.553  1.00  0.00    -0.014 A 
BRANCH  14  15
ATOM     15  C   UNL A   1      42.582  24.788  28.130  1.00  0.00     0.031 A 
ATOM     16  C   UNL A   1      43.989  25.139  28.520  1.00  0.00     0.074 A 
ATOM     17  C   UNL A   1      41.592  25.689  28.281  1.00  0.00     0.049 A 
ATOM     18  N   UNL A   1      44.447  26.262  29.015  1.00  0.00    -0.248 NA
ATOM     19  C   UNL A   1      45.015  24.102  28.337  1.00  0.00     0.031 C 
ATOM     20  C   UNL A   1      40.184  25.460  27.943  1.00  0.00     0.029 A 
ATOM     21  N   UNL A   1      41.616  26.981  28.737  1.00  0.00    -0.354 N 
ATOM     22  C   UNL A   1      45.806  26.062  29.221  1.00  0.00     0.074 A 
ATOM     23  C   UNL A   1      46.096  24.702  28.819  1.00  0.00     0.031 C 
ATOM     24  C   UNL A   1      39.491  26.586  28.158  1.00  0.00     0.029 A 
ATOM     25  C   UNL A   1      40.388  27.593  28.710  1.00  0.00     0.049 A 
ATOM     26  H   UNL A   1      42.435  27.427  29.054  1.00  0.00     0.167 HD
ATOM     27  C   UNL A   1      46.727  26.935  29.698  1.00  0.00     0.031 A 
ATOM     28  C   UNL A   1      40.014  28.824  29.102  1.00  0.00     0.031 A 
ATOM     29  C   UNL A   1      46.432  28.285  30.103  1.00  0.00     0.049 A 
ATOM     30  C   UNL A   1      41.048  29.754  29.665  1.00  0.00     0.074 A 
ATOM     31  C   UNL A   1      47.303  29.254  30.571  1.00  0.00     0.029 A 
ATOM     32  N   UNL A   1      45.168  28.854  30.099  1.00  0.00    -0.354 N 
ATOM     33  N   UNL A   1      42.335  29.561  29.814  1.00  0.00    -0.248 NA
ATOM     34  C   UNL A   1      40.576  31.070  30.111  1.00  0.00     0.031 C 
ATOM     35  C   UNL A   1      46.558  30.391  30.900  1.00  0.00     0.029 A 
ATOM     36  C   UNL A   1      45.231  30.151  30.582  1.00  0.00     0.049 A 
ATOM     37  H   UNL A   1      44.346  28.403  29.797  1.00  0.00     0.167 HD
ATOM     38  C   UNL A   1      42.833  30.738  30.355  1.00  0.00     0.074 A 
ATOM     39  C   UNL A   1      41.711  31.646  30.486  1.00  0.00     0.031 C 
ATOM     40  C   UNL A   1      44.105  31.039  30.713  1.00  0.00     0.031 A 
BRANCH  27  41
ATOM     41  C   UNL A   1      48.144  26.446  29.836  1.00  0.00    -0.014 A 
ATOM     42  C   UNL A   1      49.088  26.640  28.815  1.00  0.00     0.009 A 
ATOM     43  C   UNL A   1      48.552  25.829  31.029  1.00  0.00     0.009 A 
ATOM     44  C   UNL A   1      50.403  26.197  28.975  1.00  0.00     0.001 A 
ATOM     45  C   UNL A   1      49.875  25.412  31.197  1.00  0.00     0.001 A 
ATOM     46  C   UNL A   1      50.797  25.588  30.166  1.00  0.00     0.000 A 
ENDBRANCH  27  41
BRANCH  28  47
ATOM     47  C   UNL A   1      38.591  29.236  28.989  1.00  0.00    -0.014 A 
ATOM     48  C   UNL A   1      37.729  29.145  30.092  1.00  0.00     0.009 A 
ATOM     49  C   UNL A   1      38.093  29.739  27.776  1.00  0.00     0.009 A 
ATOM     50  C   UNL A   1      36.392  29.529  29.975  1.00  0.00     0.001 A 
ATOM     51  C   UNL A   1      36.764  30.151  27.672  1.00  0.00     0.001 A 
ATOM     52  C   UNL A   1      35.913  30.037  28.769  1.00  0.00     0.000 A 
ENDBRANCH  28  47
BRANCH  40  53
ATOM     53  C   UNL A   1      44.350  32.420  31.252  1.00  0.00    -0.014 A 
ATOM     54  C   UNL A   1      44.274  32.691  32.627  1.00  0.00     0.009 A 
ATOM     55  C   UNL A   1      44.686  33.459  30.370  1.00  0.00     0.009 A 
ATOM     56  C   UNL A   1      44.494  33.984  33.103  1.00  0.00     0.001 A 
ATOM     57  C   UNL A   1      44.936  34.744  30.853  1.00  0.00     0.001 A 
ATOM     58  C   UNL A   1      44.829  35.008  32.217  1.00  0.00     0.000 A 
ENDBRANCH  40  53
ENDBRANCH  14  15
ENDBRANCH   7   9
ENDBRANCH   4   5
ENDBRANCH   3   4
ENDBRANCH   2   3
ENDBRANCH   1   2
BRANCH   1  59
ATOM     59  C   UNL A   1      35.114  20.446  25.157  1.00  0.00     0.021 C 
BRANCH  59  60
ATOM     60  C   UNL A   1      33.626  20.739  25.302  1.00  0.00     0.116 C 
BRANCH  60  61
ATOM     61  N   UNL A   1      33.267  21.096  26.662  1.00  0.00    -0.354 N 
ATOM     62  C   UNL A   1      33.021  22.328  27.198  1.00  0.00     0.244 C 
ATOM     63  H   UNL A   1      33.192  20.342  27.291  1.00  0.00     0.163 HD
ATOM     64  O   UNL A   1      32.743  22.409  28.397  1.00  0.00    -0.273 OA
BRANCH  62  65
ATOM     65  C   UNL A   1      33.145  23.576  26.315  1.00  0.00     0.197 C 
BRANCH  65  66
ATOM     66  N   UNL A   1      32.230  24.605  26.810  1.00  0.00    -0.340 N 
ATOM     67  C   UNL A   1      31.928  25.854  26.367  1.00  0.00     0.244 C 
ATOM     68  H   UNL A   1      31.739  24.343  27.622  1.00  0.00     0.164 HD
ATOM     69  O   UNL A   1      30.959  26.394  26.915  1.00  0.00    -0.273 OA
BRANCH  67  70
ATOM     70  C   UNL A   1      32.814  26.683  25.388  1.00  0.00     0.181 C 
BRANCH  70  71
ATOM     71  N   UNL A   1      32.212  27.140  24.132  1.00  0.00    -0.339 N 
ATOM     72  C   UNL A   1      31.812  26.480  23.003  1.00  0.00     0.251 C 
ATOM     73  H   UNL A   1      32.068  28.114  24.093  1.00  0.00     0.164 HD
ATOM     74  O   UNL A   1      31.364  27.138  22.066  1.00  0.00    -0.269 OA
BRANCH  72  75
ATOM     75  C   UNL A   1      31.920  25.013  22.866  1.00  0.00     0.040 A 
ATOM     76  C   UNL A   1      30.922  24.133  23.299  1.00  0.00     0.017 A 
ATOM     77  C   UNL A   1      33.051  24.513  22.202  1.00  0.00     0.017 A 
ATOM     78  C   UNL A   1      31.096  22.756  23.141  1.00  0.00     0.040 A 
ATOM     79  C   UNL A   1      33.213  23.139  22.031  1.00  0.00     0.040 A 
ATOM     80  C   UNL A   1      32.241  22.271  22.517  1.00  0.00     0.123 A 
ATOM     81  F   UNL A   1      32.404  20.951  22.369  1.00  0.00    -0.207 F 
ENDBRANCH  72  75
ENDBRANCH  70  71
BRANCH  70  82
ATOM     82  C   UNL A   1      33.469  27.865  26.146  1.00  0.00     0.101 C 
BRANCH  82  83
ATOM     83  S   UNL A   1      32.791  29.509  25.701  1.00  0.00    -0.177 SA
ATOM     84  H   UNL A   1      31.595  29.350  25.072  1.00  0.00     0.102 HD
ENDBRANCH  82  83
ENDBRANCH  70  82
ENDBRANCH  67  70
ENDBRANCH  65  66
BRANCH  65  85
ATOM     85  C   UNL A   1      34.609  24.032  26.287  1.00  0.00     0.191 C 
BRANCH  85  86
ATOM     86  O   UNL A   1      35.396  23.219  27.165  1.00  0.00    -0.394 OA
ATOM     87  H   UNL A   1      35.851  22.534  26.650  1.00  0.00     0.210 HD
ENDBRANCH  85  86
ENDBRANCH  65  85
ENDBRANCH  62  65
ENDBRANCH  60  61
ENDBRANCH  59  60
ENDBRANCH   1  59
TORSDOF 21
ENDMDL
MODEL 2
REMARK VINA RESULT:      -9.8      3.055      8.596
REMARK SMILES O=C(NCCCCCCNC(=O)[C@H](CO)NC(=O)[C@H](CS)NC(=O)c1ccc(F)cc1)c1ccc(-c2c3nc(c(-c4ccccc4)c4ccc([nH]4)c(-c4ccccc4)c4nc(c(-c5ccccc5)c5ccc2[nH]5)C=C4)C=C3)cc1
REMARK SMILES IDX 7 1 6 2 5 3 4 4 3 5 1 6 2 7 32 9 33 10 79 11 34 12 78 13
REMARK SMILES IDX 35 14 36 15 37 16 72 17 38 18 77 19 71 20 73 21 39 22 76 23
REMARK SMILES IDX 70 24 69 25 40 27 62 28 47 29 61 30 48 31 51 32 60 33 74 34
REMARK SMILES IDX 49 35 50 36 59 38 75 39 52 40 41 41 42 42 46 43 43 44 45 45
REMARK SMILES IDX 44 46 63 47 64 48 68 49 65 50 67 51 66 52 53 53 54 54 58 55
REMARK SMILES IDX 55 56 57 57 56 58 8 59 9 60 10 61 11 62 12 64 13 65 16 66
REMARK SMILES IDX 17 67 18 69 19 70 22 71 23 72 24 74 25 75 26 76 31 77 27 78
REMARK SMILES IDX 30 79 28 80 29 81 20 82 21 83 14 85 15 86
REMARK H PARENT 3 8 73 26 51 37 10 63 16 68 22 73 21 84 15 87
REMARK Flexibility Score: inf
ROOT
ATOM      1  C   UNL A   1      32.603  29.498  27.378  1.00  0.00     0.002 C 
ENDROOT
BRANCH   1   2
ATOM      2  C   UNL A   1      31.634  30.195  26.419  1.00  0.00     0.002 C 
BRANCH   2   3
ATOM      3  C   UNL A   1      31.393  31.680  26.694  1.00  0.00     0.021 C 
BRANCH   3   4
ATOM      4  C   UNL A   1      32.656  32.519  26.833  1.00  0.00     0.116 C 
BRANCH   4   5
ATOM      5  N   UNL A   1      32.419  33.765  27.542  1.00  0.00    -0.352 N 
ATOM      6  O   UNL A   1      32.689  35.305  29.169  1.00  0.00    -0.269 OA
ATOM      7  C   UNL A   1      33.130  34.327  28.572  1.00  0.00     0.251 C 
ATOM      8  H   UNL A   1      31.636  34.281  27.241  1.00  0.00     0.163 HD
BRANCH   7   9
ATOM      9  C   UNL A   1      34.425  33.740  28.975  1.00  0.00     0.039 A 
ATOM     10  C   UNL A   1      34.496  32.837  30.038  1.00  0.00     0.014 A 
ATOM     11  C   UNL A   1      35.579  34.086  28.267  1.00  0.00     0.014 A 
ATOM     12  C   UNL A   1      35.735  32.381  30.475  1.00  0.00     0.010 A 
ATOM     13  C   UNL A   1      36.814  33.559  28.654  1.00  0.00     0.010 A 
ATOM     14  C   UNL A   1      36.904  32.719  29.776  1.00  0.00    -0.014 A 
BRANCH  14  15
ATOM     15  C   UNL A   1      38.196  32.117  30.187  1.00  0.00     0.031 A 
ATOM     16  C   UNL A   1      39.091  32.791  31.187  1.00  0.00     0.074 A 
ATOM     17  C   UNL A   1      38.547  30.929  29.656  1.00  0.00     0.049 A 
ATOM     18  N   UNL A   1      40.240  32.383  31.666  1.00  0.00    -0.248 NA
ATOM     19  C   UNL A   1      38.648  34.091  31.715  1.00  0.00     0.031 C 
ATOM     20  C   UNL A   1      37.761  30.181  28.670  1.00  0.00     0.029 A 
ATOM     21  N   UNL A   1      39.640  30.134  29.880  1.00  0.00    -0.354 N 
ATOM     22  C   UNL A   1      40.666  33.380  32.535  1.00  0.00     0.074 A 
ATOM     23  C   UNL A   1      39.664  34.424  32.500  1.00  0.00     0.031 C 
ATOM     24  C   UNL A   1      38.372  29.017  28.413  1.00  0.00     0.029 A 
ATOM     25  C   UNL A   1      39.622  28.965  29.160  1.00  0.00     0.049 A 
ATOM     26  H   UNL A   1      40.367  30.376  30.498  1.00  0.00     0.167 HD
ATOM     27  C   UNL A   1      41.788  33.416  33.295  1.00  0.00     0.031 A 
ATOM     28  C   UNL A   1      40.519  27.966  29.091  1.00  0.00     0.031 A 
ATOM     29  C   UNL A   1      42.784  32.377  33.321  1.00  0.00     0.049 A 
ATOM     30  C   UNL A   1      41.771  28.054  29.911  1.00  0.00     0.074 A 
ATOM     31  C   UNL A   1      43.941  32.310  34.080  1.00  0.00     0.029 A 
ATOM     32  N   UNL A   1      42.750  31.228  32.545  1.00  0.00    -0.354 N 
ATOM     33  N   UNL A   1      42.138  28.985  30.758  1.00  0.00    -0.248 NA
ATOM     34  C   UNL A   1      42.732  26.953  29.767  1.00  0.00     0.031 C 
ATOM     35  C   UNL A   1      44.632  31.148  33.725  1.00  0.00     0.029 A 
ATOM     36  C   UNL A   1      43.878  30.460  32.787  1.00  0.00     0.049 A 
ATOM     37  H   UNL A   1      42.031  30.993  31.916  1.00  0.00     0.167 HD
ATOM     38  C   UNL A   1      43.364  28.574  31.263  1.00  0.00     0.074 A 
ATOM     39  C   UNL A   1      43.666  27.300  30.642  1.00  0.00     0.031 C 
ATOM     40  C   UNL A   1      44.167  29.198  32.157  1.00  0.00     0.031 A 
BRANCH  27  41
ATOM     41  C   UNL A   1      42.014  34.638  34.144  1.00  0.00    -0.014 A 
ATOM     42  C   UNL A   1      41.600  34.685  35.485  1.00  0.00     0.009 A 
ATOM     43  C   UNL A   1      42.700  35.740  33.607  1.00  0.00     0.009 A 
ATOM     44  C   UNL A   1      41.841  35.821  36.260  1.00  0.00     0.001 A 
ATOM     45  C   UNL A   1      42.963  36.864  34.393  1.00  0.00     0.001 A 
ATOM     46  C   UNL A   1      42.526  36.908  35.716  1.00  0.00     0.000 A 
ENDBRANCH  27  41
BRANCH  28  47
ATOM     47  C   UNL A   1      40.267  26.807  28.197  1.00  0.00    -0.014 A 
ATOM     48  C   UNL A   1      39.459  25.740  28.618  1.00  0.00     0.009 A 
ATOM     49  C   UNL A   1      40.823  26.770  26.908  1.00  0.00     0.009 A 
ATOM     50  C   UNL A   1      39.231  24.651  27.775  1.00  0.00     0.001 A 
ATOM     51  C   UNL A   1      40.567  25.695  26.056  1.00  0.00     0.001 A 
ATOM     52  C   UNL A   1      39.780  24.633  26.493  1.00  0.00     0.000 A 
ENDBRANCH  28  47
BRANCH  40  53
ATOM     53  C   UNL A   1      45.437  28.490  32.539  1.00  0.00    -0.014 A 
ATOM     54  C   UNL A   1      45.489  27.634  33.650  1.00  0.00     0.009 A 
ATOM     55  C   UNL A   1      46.590  28.665  31.758  1.00  0.00     0.009 A 
ATOM     56  C   UNL A   1      46.682  26.996  33.993  1.00  0.00     0.001 A 
ATOM     57  C   UNL A   1      47.773  28.001  32.086  1.00  0.00     0.001 A 
ATOM     58  C   UNL A   1      47.821  27.176  33.208  1.00  0.00     0.000 A 
ENDBRANCH  40  53
ENDBRANCH  14  15
ENDBRANCH   7   9
ENDBRANCH   4   5
ENDBRANCH   3   4
ENDBRANCH   2   3
ENDBRANCH   1   2
BRANCH   1  59
ATOM     59  C   UNL A   1      34.028  29.318  26.853  1.00  0.00     0.021 C 
BRANCH  59  60
ATOM     60  C   UNL A   1      34.157  28.339  25.693  1.00  0.00     0.116 C 
BRANCH  60  61
ATOM     61  N   UNL A   1      33.782  28.939  24.425  1.00  0.00    -0.354 N 
ATOM     62  C   UNL A   1      33.155  28.374  23.352  1.00  0.00     0.244 C 
ATOM     63  H   UNL A   1      34.015  29.890  24.323  1.00  0.00     0.163 HD
ATOM     64  O   UNL A   1      32.942  29.069  22.356  1.00  0.00    -0.273 OA
BRANCH  62  65
ATOM     65  C   UNL A   1      32.779  26.887  23.391  1.00  0.00     0.197 C 
BRANCH  65  66
ATOM     66  N   UNL A   1      31.602  26.714  24.244  1.00  0.00    -0.340 N 
ATOM     67  C   UNL A   1      31.267  25.770  25.163  1.00  0.00     0.244 C 
ATOM     68  H   UNL A   1      30.922  27.416  24.130  1.00  0.00     0.164 HD
ATOM     69  O   UNL A   1      30.271  26.028  25.852  1.00  0.00    -0.273 OA
BRANCH  67  70
ATOM     70  C   UNL A   1      31.921  24.359  25.260  1.00  0.00     0.181 C 
BRANCH  70  71
ATOM     71  N   UNL A   1      32.068  23.756  26.588  1.00  0.00    -0.339 N 
ATOM     72  C   UNL A   1      33.034  22.961  27.141  1.00  0.00     0.251 C 
ATOM     73  H   UNL A   1      31.327  23.963  27.202  1.00  0.00     0.164 HD
ATOM     74  O   UNL A   1      32.877  22.562  28.294  1.00  0.00    -0.269 OA
BRANCH  72  75
ATOM     75  C   UNL A   1      34.243  22.553  26.397  1.00  0.00     0.040 A 
ATOM     76  C   UNL A   1      35.400  23.337  26.336  1.00  0.00     0.017 A 
ATOM     77  C   UNL A   1      34.227  21.285  25.796  1.00  0.00     0.017 A 
ATOM     78  C   UNL A   1      36.504  22.888  25.608  1.00  0.00     0.040 A 
ATOM     79  C   UNL A   1      35.337  20.832  25.083  1.00  0.00     0.040 A 
ATOM     80  C   UNL A   1      36.461  21.645  24.982  1.00  0.00     0.123 A 
ATOM     81  F   UNL A   1      37.520  21.220  24.284  1.00  0.00    -0.207 F 
ENDBRANCH  72  75
ENDBRANCH  70  71
BRANCH  70  82
ATOM     82  C   UNL A   1      31.209  23.383  24.290  1.00  0.00     0.101 C 
BRANCH  82  83
ATOM     83  S   UNL A   1      32.288  22.727  22.961  1.00  0.00    -0.177 SA
ATOM     84  H   UNL A   1      32.015  21.409  22.765  1.00  0.00     0.102 HD
ENDBRANCH  82  83
ENDBRANCH  70  82
ENDBRANCH  67  70
ENDBRANCH  65  66
BRANCH  65  85
ATOM     85  C   UNL A   1      32.565  26.381  21.960  1.00  0.00     0.191 C 
BRANCH  85  86
ATOM     86  O   UNL A   1      31.374  26.953  21.407  1.00  0.00    -0.394 OA
ATOM     87  H   UNL A   1      30.812  26.247  21.049  1.00  0.00     0.210 HD
ENDBRANCH  85  86
ENDBRANCH  65  85
ENDBRANCH  62  65
ENDBRANCH  60  61
ENDBRANCH  59  60
ENDBRANCH   1  59
TORSDOF 21
ENDMDL
MODEL 3
REMARK VINA RESULT:      -9.7      2.274      3.369
REMARK SMILES O=C(NCCCCCCNC(=O)[C@H](CO)NC(=O)[C@H](CS)NC(=O)c1ccc(F)cc1)c1ccc(-c2c3nc(c(-c4ccccc4)c4ccc([nH]4)c(-c4ccccc4)c4nc(c(-c5ccccc5)c5ccc2[nH]5)C=C4)C=C3)cc1
REMARK SMILES IDX 7 1 6 2 5 3 4 4 3 5 1 6 2 7 32 9 33 10 79 11 34 12 78 13
REMARK SMILES IDX 35 14 36 15 37 16 72 17 38 18 77 19 71 20 73 21 39 22 76 23
REMARK SMILES IDX 70 24 69 25 40 27 62 28 47 29 61 30 48 31 51 32 60 33 74 34
REMARK SMILES IDX 49 35 50 36 59 38 75 39 52 40 41 41 42 42 46 43 43 44 45 45
REMARK SMILES IDX 44 46 63 47 64 48 68 49 65 50 67 51 66 52 53 53 54 54 58 55
REMARK SMILES IDX 55 56 57 57 56 58 8 59 9 60 10 61 11 62 12 64 13 65 16 66
REMARK SMILES IDX 17 67 18 69 19 70 22 71 23 72 24 74 25 75 26 76 31 77 27 78
REMARK SMILES IDX 30 79 28 80 29 81 20 82 21 83 14 85 15 86
REMARK H PARENT 3 8 73 26 51 37 10 63 16 68 22 73 21 84 15 87
REMARK Flexibility Score: inf
ROOT
ATOM      1  C   UNL A   1      33.889  22.818  23.066  1.00  0.00     0.002 C 
ENDROOT
BRANCH   1   2
ATOM      2  C   UNL A   1      35.127  22.492  23.906  1.00  0.00     0.002 C 
BRANCH   2   3
ATOM      3  C   UNL A   1      36.247  23.534  23.859  1.00  0.00     0.021 C 
BRANCH   3   4
ATOM      4  C   UNL A   1      36.967  23.760  25.181  1.00  0.00     0.116 C 
BRANCH   4   5
ATOM      5  N   UNL A   1      37.937  22.716  25.469  1.00  0.00    -0.352 N 
ATOM      6  O   UNL A   1      39.926  21.854  26.098  1.00  0.00    -0.269 OA
ATOM      7  C   UNL A   1      39.158  22.811  26.089  1.00  0.00     0.251 C 
ATOM      8  H   UNL A   1      37.683  21.810  25.177  1.00  0.00     0.163 HD
BRANCH   7   9
ATOM      9  C   UNL A   1      39.554  24.080  26.735  1.00  0.00     0.039 A 
ATOM     10  C   UNL A   1      40.280  25.041  26.027  1.00  0.00     0.014 A 
ATOM     11  C   UNL A   1      39.180  24.316  28.060  1.00  0.00     0.014 A 
ATOM     12  C   UNL A   1      40.742  26.178  26.681  1.00  0.00     0.010 A 
ATOM     13  C   UNL A   1      39.572  25.500  28.691  1.00  0.00     0.010 A 
ATOM     14  C   UNL A   1      40.375  26.431  28.012  1.00  0.00    -0.014 A 
BRANCH  14  15
ATOM     15  C   UNL A   1      40.775  27.711  28.645  1.00  0.00     0.031 A 
ATOM     16  C   UNL A   1      42.187  27.954  29.097  1.00  0.00     0.074 A 
ATOM     17  C   UNL A   1      39.842  28.672  28.792  1.00  0.00     0.049 A 
ATOM     18  N   UNL A   1      42.700  29.027  29.646  1.00  0.00    -0.248 NA
ATOM     19  C   UNL A   1      43.148  26.855  28.915  1.00  0.00     0.031 C 
ATOM     20  C   UNL A   1      38.436  28.549  28.396  1.00  0.00     0.029 A 
ATOM     21  N   UNL A   1      39.935  29.944  29.292  1.00  0.00    -0.354 N 
ATOM     22  C   UNL A   1      44.033  28.728  29.893  1.00  0.00     0.074 A 
ATOM     23  C   UNL A   1      44.247  27.365  29.456  1.00  0.00     0.031 C 
ATOM     24  C   UNL A   1      37.812  29.713  28.623  1.00  0.00     0.029 A 
ATOM     25  C   UNL A   1      38.752  30.639  29.241  1.00  0.00     0.049 A 
ATOM     26  H   UNL A   1      40.769  30.323  29.652  1.00  0.00     0.167 HD
ATOM     27  C   UNL A   1      44.992  29.521  30.432  1.00  0.00     0.031 A 
ATOM     28  C   UNL A   1      38.447  31.879  29.661  1.00  0.00     0.031 A 
ATOM     29  C   UNL A   1      44.772  30.875  30.872  1.00  0.00     0.049 A 
ATOM     30  C   UNL A   1      39.518  32.718  30.292  1.00  0.00     0.074 A 
ATOM     31  C   UNL A   1      45.687  31.768  31.403  1.00  0.00     0.029 A 
ATOM     32  N   UNL A   1      43.550  31.528  30.842  1.00  0.00    -0.354 N 
ATOM     33  N   UNL A   1      40.784  32.434  30.480  1.00  0.00    -0.248 NA
ATOM     34  C   UNL A   1      39.119  34.049  30.765  1.00  0.00     0.031 C 
ATOM     35  C   UNL A   1      45.008  32.941  31.744  1.00  0.00     0.029 A 
ATOM     36  C   UNL A   1      43.681  32.802  31.371  1.00  0.00     0.049 A 
ATOM     37  H   UNL A   1      42.712  31.144  30.496  1.00  0.00     0.167 HD
ATOM     38  C   UNL A   1      41.337  33.557  31.078  1.00  0.00     0.074 A 
ATOM     39  C   UNL A   1      40.274  34.534  31.200  1.00  0.00     0.031 C 
ATOM     40  C   UNL A   1      42.612  33.759  31.491  1.00  0.00     0.031 A 
BRANCH  27  41
ATOM     41  C   UNL A   1      46.367  28.933  30.604  1.00  0.00    -0.014 A 
ATOM     42  C   UNL A   1      47.343  29.050  29.602  1.00  0.00     0.009 A 
ATOM     43  C   UNL A   1      46.705  28.299  31.810  1.00  0.00     0.009 A 
ATOM     44  C   UNL A   1      48.619  28.515  29.793  1.00  0.00     0.001 A 
ATOM     45  C   UNL A   1      47.990  27.790  32.009  1.00  0.00     0.001 A 
ATOM     46  C   UNL A   1      48.943  27.890  30.997  1.00  0.00     0.000 A 
ENDBRANCH  27  41
BRANCH  28  47
ATOM     47  C   UNL A   1      37.060  32.390  29.511  1.00  0.00    -0.014 A 
ATOM     48  C   UNL A   1      36.106  32.178  30.518  1.00  0.00     0.009 A 
ATOM     49  C   UNL A   1      36.689  33.108  28.363  1.00  0.00     0.009 A 
ATOM     50  C   UNL A   1      34.803  32.656  30.366  1.00  0.00     0.001 A 
ATOM     51  C   UNL A   1      35.395  33.612  28.230  1.00  0.00     0.001 A 
ATOM     52  C   UNL A   1      34.451  33.378  29.227  1.00  0.00     0.000 A 
ENDBRANCH  28  47
BRANCH  40  53
ATOM     53  C   UNL A   1      42.928  35.103  32.085  1.00  0.00    -0.014 A 
ATOM     54  C   UNL A   1      42.680  35.379  33.439  1.00  0.00     0.009 A 
ATOM     55  C   UNL A   1      43.506  36.098  31.281  1.00  0.00     0.009 A 
ATOM     56  C   UNL A   1      42.971  36.639  33.966  1.00  0.00     0.001 A 
ATOM     57  C   UNL A   1      43.824  37.346  31.819  1.00  0.00     0.001 A 
ATOM     58  C   UNL A   1      43.546  37.619  33.157  1.00  0.00     0.000 A 
ENDBRANCH  40  53
ENDBRANCH  14  15
ENDBRANCH   7   9
ENDBRANCH   4   5
ENDBRANCH   3   4
ENDBRANCH   2   3
ENDBRANCH   1   2
BRANCH   1  59
ATOM     59  C   UNL A   1      32.565  22.287  23.616  1.00  0.00     0.021 C 
BRANCH  59  60
ATOM     60  C   UNL A   1      31.488  23.348  23.808  1.00  0.00     0.116 C 
BRANCH  60  61
ATOM     61  N   UNL A   1      30.898  23.298  25.132  1.00  0.00    -0.354 N 
ATOM     62  C   UNL A   1      30.995  24.195  26.158  1.00  0.00     0.244 C 
ATOM     63  H   UNL A   1      30.350  22.502  25.320  1.00  0.00     0.163 HD
ATOM     64  O   UNL A   1      30.418  23.947  27.219  1.00  0.00    -0.273 OA
BRANCH  62  65
ATOM     65  C   UNL A   1      31.854  25.453  25.984  1.00  0.00     0.197 C 
BRANCH  65  66
ATOM     66  N   UNL A   1      31.539  26.399  27.056  1.00  0.00    -0.340 N 
ATOM     67  C   UNL A   1      31.453  27.755  27.086  1.00  0.00     0.244 C 
ATOM     68  H   UNL A   1      31.355  25.971  27.923  1.00  0.00     0.164 HD
ATOM     69  O   UNL A   1      30.973  28.236  28.121  1.00  0.00    -0.273 OA
BRANCH  67  70
ATOM     70  C   UNL A   1      32.077  28.705  26.019  1.00  0.00     0.181 C 
BRANCH  70  71
ATOM     71  N   UNL A   1      31.176  29.352  25.060  1.00  0.00    -0.339 N 
ATOM     72  C   UNL A   1      30.932  29.138  23.731  1.00  0.00     0.251 C 
ATOM     73  H   UNL A   1      30.643  30.083  25.448  1.00  0.00     0.164 HD
ATOM     74  O   UNL A   1      30.131  29.873  23.156  1.00  0.00    -0.269 OA
BRANCH  72  75
ATOM     75  C   UNL A   1      31.610  28.073  22.965  1.00  0.00     0.040 A 
ATOM     76  C   UNL A   1      32.999  27.899  22.969  1.00  0.00     0.017 A 
ATOM     77  C   UNL A   1      30.796  27.165  22.271  1.00  0.00     0.017 A 
ATOM     78  C   UNL A   1      33.571  26.872  22.215  1.00  0.00     0.040 A 
ATOM     79  C   UNL A   1      31.369  26.130  21.533  1.00  0.00     0.040 A 
ATOM     80  C   UNL A   1      32.754  26.002  21.499  1.00  0.00     0.123 A 
ATOM     81  F   UNL A   1      33.306  25.020  20.777  1.00  0.00    -0.207 F 
ENDBRANCH  72  75
ENDBRANCH  70  71
BRANCH  70  82
ATOM     82  C   UNL A   1      32.983  29.753  26.714  1.00  0.00     0.101 C 
BRANCH  82  83
ATOM     83  S   UNL A   1      34.655  29.135  27.138  1.00  0.00    -0.177 SA
ATOM     84  H   UNL A   1      34.743  28.953  28.483  1.00  0.00     0.102 HD
ENDBRANCH  82  83
ENDBRANCH  70  82
ENDBRANCH  67  70
ENDBRANCH  65  66
BRANCH  65  85
ATOM     85  C   UNL A   1      33.334  25.055  25.948  1.00  0.00     0.191 C 
BRANCH  85  86
ATOM     86  O   UNL A   1      33.537  23.844  26.686  1.00  0.00    -0.394 OA
ATOM     87  H   UNL A   1      34.487  23.709  26.832  1.00  0.00     0.210 HD
ENDBRANCH  85  86
ENDBRANCH  65  85
ENDBRANCH  62  65
ENDBRANCH  60  61
ENDBRANCH  59  60
ENDBRANCH   1  59
TORSDOF 21
ENDMDL
