MODEL 1
REMARK VINA RESULT:     -10.8      0.000      0.000
REMARK SMILES C/C(C(=O)NCCCCCCNC(=O)c1ccc(-c2c3nc(c(-c4ccccc4)c4ccc([nH]4)c(-c4ccccc4)c4nc(c(-c5ccccc5)c5ccc2[nH]5)C=C4)C=C3)cc1)=C(\C)C(=O)N[C@H]1CCCC1(C)C
REMARK SMILES IDX 8 1 7 2 6 3 5 4 3 5 4 6 2 8 1 9 63 10 64 11 65 12 66 13
REMARK SMILES IDX 67 14 68 16 69 17 72 18 70 19 71 20 73 21 74 22 9 23 10 24
REMARK SMILES IDX 11 25 12 26 13 27 14 29 15 30 16 31 62 32 17 33 61 34 18 35
REMARK SMILES IDX 19 36 20 37 55 38 21 39 60 40 54 41 56 42 22 43 59 44 53 45
REMARK SMILES IDX 52 46 23 48 45 49 30 50 44 51 31 52 34 53 43 54 57 55 32 56
REMARK SMILES IDX 33 57 42 59 58 60 35 61 24 62 25 63 29 64 26 65 28 66 27 67
REMARK SMILES IDX 46 68 47 69 51 70 48 71 50 72 49 73 36 74 37 75 41 76 38 77
REMARK SMILES IDX 40 78 39 79
REMARK H PARENT 5 7 67 15 12 28 56 47 34 58
REMARK Flexibility Score: inf
ROOT
ATOM      1  C   UNL A   1      37.026  22.143  24.433  1.00  0.00     0.002 C 
ENDROOT
BRANCH   1   2
ATOM      2  C   UNL A   1      37.134  23.197  25.542  1.00  0.00     0.021 C 
BRANCH   2   3
ATOM      3  C   UNL A   1      35.839  23.978  25.775  1.00  0.00     0.116 C 
BRANCH   3   4
ATOM      4  N   UNL A   1      34.865  23.215  26.535  1.00  0.00    -0.352 N 
ATOM      5  C   UNL A   1      33.653  22.645  26.280  1.00  0.00     0.247 C 
ATOM      6  O   UNL A   1      33.318  21.795  27.106  1.00  0.00    -0.270 OA
ATOM      7  H   UNL A   1      35.150  23.076  27.467  1.00  0.00     0.163 HD
BRANCH   5   8
ATOM      8  C   UNL A   1      32.835  22.909  25.030  1.00  0.00     0.022 C 
ATOM      9  C   UNL A   1      33.397  22.452  23.712  1.00  0.00     0.051 C 
ATOM     10  C   UNL A   1      31.607  23.511  25.064  1.00  0.00     0.022 C 
ATOM     11  C   UNL A   1      30.710  23.519  23.856  1.00  0.00     0.051 C 
BRANCH  10  12
ATOM     12  C   UNL A   1      31.120  24.326  26.248  1.00  0.00     0.247 C 
ATOM     13  O   UNL A   1      30.435  23.798  27.127  1.00  0.00    -0.270 OA
ATOM     14  N   UNL A   1      31.537  25.606  26.502  1.00  0.00    -0.349 N 
ATOM     15  H   UNL A   1      31.030  26.044  27.225  1.00  0.00     0.164 HD
BRANCH  14  16
ATOM     16  C   UNL A   1      32.574  26.460  25.926  1.00  0.00     0.088 C 
ATOM     17  C   UNL A   1      32.539  26.435  24.397  1.00  0.00     0.025 C 
ATOM     18  C   UNL A   1      32.482  27.967  26.283  1.00  0.00    -0.015 C 
ATOM     19  C   UNL A   1      31.793  27.694  23.959  1.00  0.00     0.003 C 
ATOM     20  C   UNL A   1      31.526  28.515  25.219  1.00  0.00     0.008 C 
ATOM     21  C   UNL A   1      31.985  28.258  27.705  1.00  0.00     0.013 C 
ATOM     22  C   UNL A   1      33.884  28.611  26.139  1.00  0.00     0.013 C 
ENDBRANCH  14  16
ENDBRANCH  10  12
ENDBRANCH   5   8
ENDBRANCH   3   4
ENDBRANCH   2   3
ENDBRANCH   1   2
BRANCH   1  23
ATOM     23  C   UNL A   1      36.746  20.715  24.920  1.00  0.00     0.002 C 
BRANCH  23  24
ATOM     24  C   UNL A   1      37.964  19.788  24.934  1.00  0.00     0.021 C 
BRANCH  24  25
ATOM     25  C   UNL A   1      39.128  20.308  25.768  1.00  0.00     0.116 C 
BRANCH  25  26
ATOM     26  N   UNL A   1      40.190  19.319  25.871  1.00  0.00    -0.352 N 
ATOM     27  C   UNL A   1      41.531  19.512  26.094  1.00  0.00     0.251 C 
ATOM     28  H   UNL A   1      39.909  18.383  25.764  1.00  0.00     0.163 HD
ATOM     29  O   UNL A   1      42.331  18.607  25.894  1.00  0.00    -0.269 OA
BRANCH  27  30
ATOM     30  C   UNL A   1      42.003  20.826  26.574  1.00  0.00     0.039 A 
ATOM     31  C   UNL A   1      42.432  21.775  25.644  1.00  0.00     0.014 A 
ATOM     32  C   UNL A   1      42.030  21.112  27.942  1.00  0.00     0.014 A 
ATOM     33  C   UNL A   1      42.841  23.034  26.085  1.00  0.00     0.010 A 
ATOM     34  C   UNL A   1      42.362  22.391  28.373  1.00  0.00     0.010 A 
ATOM     35  C   UNL A   1      42.782  23.361  27.450  1.00  0.00    -0.014 A 
BRANCH  35  36
ATOM     36  C   UNL A   1      43.159  24.711  27.932  1.00  0.00     0.031 A 
ATOM     37  C   UNL A   1      42.097  25.745  28.188  1.00  0.00     0.074 A 
ATOM     38  C   UNL A   1      44.460  25.025  28.082  1.00  0.00     0.049 A 
ATOM     39  N   UNL A   1      42.233  26.993  28.560  1.00  0.00    -0.248 NA
ATOM     40  C   UNL A   1      40.701  25.331  27.975  1.00  0.00     0.031 C 
ATOM     41  C   UNL A   1      45.585  24.121  27.830  1.00  0.00     0.029 A 
ATOM     42  N   UNL A   1      45.057  26.195  28.477  1.00  0.00    -0.354 N 
ATOM     43  C   UNL A   1      40.946  27.513  28.611  1.00  0.00     0.074 A 
ATOM     44  C   UNL A   1      40.048  26.465  28.179  1.00  0.00     0.031 C 
ATOM     45  C   UNL A   1      46.732  24.761  28.107  1.00  0.00     0.029 A 
ATOM     46  C   UNL A   1      46.429  26.129  28.510  1.00  0.00     0.049 A 
ATOM     47  H   UNL A   1      44.551  27.005  28.717  1.00  0.00     0.167 HD
ATOM     48  C   UNL A   1      40.545  28.747  28.999  1.00  0.00     0.031 A 
ATOM     49  C   UNL A   1      47.341  27.070  28.821  1.00  0.00     0.031 A 
ATOM     50  C   UNL A   1      41.441  29.785  29.433  1.00  0.00     0.049 A 
ATOM     51  C   UNL A   1      46.871  28.440  29.224  1.00  0.00     0.074 A 
ATOM     52  C   UNL A   1      41.130  31.051  29.898  1.00  0.00     0.029 A 
ATOM     53  N   UNL A   1      42.822  29.679  29.449  1.00  0.00    -0.354 N 
ATOM     54  N   UNL A   1      45.646  28.895  29.333  1.00  0.00    -0.248 NA
ATOM     55  C   UNL A   1      47.911  29.423  29.556  1.00  0.00     0.031 C 
ATOM     56  C   UNL A   1      42.327  31.733  30.138  1.00  0.00     0.029 A 
ATOM     57  C   UNL A   1      43.381  30.869  29.887  1.00  0.00     0.049 A 
ATOM     58  H   UNL A   1      43.331  28.878  29.188  1.00  0.00     0.167 HD
ATOM     59  C   UNL A   1      45.767  30.205  29.777  1.00  0.00     0.074 A 
ATOM     60  C   UNL A   1      47.183  30.465  29.932  1.00  0.00     0.031 C 
ATOM     61  C   UNL A   1      44.793  31.111  30.035  1.00  0.00     0.031 A 
BRANCH  48  62
ATOM     62  C   UNL A   1      39.070  29.042  28.963  1.00  0.00    -0.014 A 
ATOM     63  C   UNL A   1      38.256  28.837  30.090  1.00  0.00     0.009 A 
ATOM     64  C   UNL A   1      38.492  29.567  27.797  1.00  0.00     0.009 A 
ATOM     65  C   UNL A   1      36.889  29.116  30.036  1.00  0.00     0.001 A 
ATOM     66  C   UNL A   1      37.131  29.876  27.757  1.00  0.00     0.001 A 
ATOM     67  C   UNL A   1      36.328  29.640  28.872  1.00  0.00     0.000 A 
ENDBRANCH  48  62
BRANCH  49  68
ATOM     68  C   UNL A   1      48.792  26.748  28.773  1.00  0.00    -0.014 A 
ATOM     69  C   UNL A   1      49.517  26.895  27.581  1.00  0.00     0.009 A 
ATOM     70  C   UNL A   1      49.458  26.282  29.918  1.00  0.00     0.009 A 
ATOM     71  C   UNL A   1      50.870  26.553  27.528  1.00  0.00     0.001 A 
ATOM     72  C   UNL A   1      50.819  25.972  29.870  1.00  0.00     0.001 A 
ATOM     73  C   UNL A   1      51.521  26.096  28.673  1.00  0.00     0.000 A 
ENDBRANCH  49  68
BRANCH  61  74
ATOM     74  C   UNL A   1      45.223  32.458  30.549  1.00  0.00    -0.014 A 
ATOM     75  C   UNL A   1      45.490  33.524  29.677  1.00  0.00     0.009 A 
ATOM     76  C   UNL A   1      45.320  32.671  31.933  1.00  0.00     0.009 A 
ATOM     77  C   UNL A   1      45.880  34.766  30.181  1.00  0.00     0.001 A 
ATOM     78  C   UNL A   1      45.677  33.922  32.435  1.00  0.00     0.001 A 
ATOM     79  C   UNL A   1      45.966  34.967  31.558  1.00  0.00     0.000 A 
ENDBRANCH  61  74
ENDBRANCH  35  36
ENDBRANCH  27  30
ENDBRANCH  25  26
ENDBRANCH  24  25
ENDBRANCH  23  24
ENDBRANCH   1  23
TORSDOF 15
ENDMDL
MODEL 2
REMARK VINA RESULT:     -10.8      0.679      5.998
REMARK SMILES C/C(C(=O)NCCCCCCNC(=O)c1ccc(-c2c3nc(c(-c4ccccc4)c4ccc([nH]4)c(-c4ccccc4)c4nc(c(-c5ccccc5)c5ccc2[nH]5)C=C4)C=C3)cc1)=C(\C)C(=O)N[C@H]1CCCC1(C)C
REMARK SMILES IDX 8 1 7 2 6 3 5 4 3 5 4 6 2 8 1 9 63 10 64 11 65 12 66 13
REMARK SMILES IDX 67 14 68 16 69 17 72 18 70 19 71 20 73 21 74 22 9 23 10 24
REMARK SMILES IDX 11 25 12 26 13 27 14 29 15 30 16 31 62 32 17 33 61 34 18 35
REMARK SMILES IDX 19 36 20 37 55 38 21 39 60 40 54 41 56 42 22 43 59 44 53 45
REMARK SMILES IDX 52 46 23 48 45 49 30 50 44 51 31 52 34 53 43 54 57 55 32 56
REMARK SMILES IDX 33 57 42 59 58 60 35 61 24 62 25 63 29 64 26 65 28 66 27 67
REMARK SMILES IDX 46 68 47 69 51 70 48 71 50 72 49 73 36 74 37 75 41 76 38 77
REMARK SMILES IDX 40 78 39 79
REMARK H PARENT 5 7 67 15 12 28 56 47 34 58
REMARK Flexibility Score: inf
ROOT
ATOM      1  C   UNL A   1      36.910  22.060  24.435  1.00  0.00     0.002 C 
ENDROOT
BRANCH   1   2
ATOM      2  C   UNL A   1      36.942  23.100  25.563  1.00  0.00     0.021 C 
BRANCH   2   3
ATOM      3  C   UNL A   1      35.680  23.960  25.641  1.00  0.00     0.116 C 
BRANCH   3   4
ATOM      4  N   UNL A   1      34.607  23.301  26.365  1.00  0.00    -0.352 N 
ATOM      5  C   UNL A   1      33.370  22.819  26.056  1.00  0.00     0.247 C 
ATOM      6  O   UNL A   1      32.923  22.025  26.885  1.00  0.00    -0.270 OA
ATOM      7  H   UNL A   1      34.829  23.171  27.315  1.00  0.00     0.163 HD
BRANCH   5   8
ATOM      8  C   UNL A   1      32.646  23.105  24.754  1.00  0.00     0.022 C 
ATOM      9  C   UNL A   1      33.282  22.629  23.476  1.00  0.00     0.051 C 
ATOM     10  C   UNL A   1      31.437  23.743  24.706  1.00  0.00     0.022 C 
ATOM     11  C   UNL A   1      30.623  23.775  23.440  1.00  0.00     0.051 C 
BRANCH  10  12
ATOM     12  C   UNL A   1      30.896  24.574  25.854  1.00  0.00     0.247 C 
ATOM     13  O   UNL A   1      30.140  24.067  26.687  1.00  0.00    -0.270 OA
ATOM     14  N   UNL A   1      31.330  25.842  26.135  1.00  0.00    -0.349 N 
ATOM     15  H   UNL A   1      30.789  26.295  26.822  1.00  0.00     0.164 HD
BRANCH  14  16
ATOM     16  C   UNL A   1      32.426  26.665  25.628  1.00  0.00     0.088 C 
ATOM     17  C   UNL A   1      32.350  26.830  24.109  1.00  0.00     0.025 C 
ATOM     18  C   UNL A   1      32.481  28.120  26.166  1.00  0.00    -0.015 C 
ATOM     19  C   UNL A   1      31.712  28.195  23.851  1.00  0.00     0.003 C 
ATOM     20  C   UNL A   1      31.553  28.876  25.209  1.00  0.00     0.008 C 
ATOM     21  C   UNL A   1      32.049  28.278  27.628  1.00  0.00     0.013 C 
ATOM     22  C   UNL A   1      33.932  28.651  26.049  1.00  0.00     0.013 C 
ENDBRANCH  14  16
ENDBRANCH  10  12
ENDBRANCH   5   8
ENDBRANCH   3   4
ENDBRANCH   2   3
ENDBRANCH   1   2
BRANCH   1  23
ATOM     23  C   UNL A   1      36.580  20.630  24.880  1.00  0.00     0.002 C 
BRANCH  23  24
ATOM     24  C   UNL A   1      37.788  19.695  24.995  1.00  0.00     0.021 C 
BRANCH  24  25
ATOM     25  C   UNL A   1      38.948  20.279  25.790  1.00  0.00     0.116 C 
BRANCH  25  26
ATOM     26  N   UNL A   1      40.082  19.368  25.819  1.00  0.00    -0.352 N 
ATOM     27  C   UNL A   1      41.411  19.649  26.023  1.00  0.00     0.251 C 
ATOM     28  H   UNL A   1      39.867  18.420  25.673  1.00  0.00     0.163 HD
ATOM     29  O   UNL A   1      42.269  18.817  25.760  1.00  0.00    -0.269 OA
BRANCH  27  30
ATOM     30  C   UNL A   1      41.798  20.970  26.557  1.00  0.00     0.039 A 
ATOM     31  C   UNL A   1      42.218  21.964  25.671  1.00  0.00     0.014 A 
ATOM     32  C   UNL A   1      41.754  21.218  27.932  1.00  0.00     0.014 A 
ATOM     33  C   UNL A   1      42.546  23.228  26.162  1.00  0.00     0.010 A 
ATOM     34  C   UNL A   1      42.006  22.499  28.410  1.00  0.00     0.010 A 
ATOM     35  C   UNL A   1      42.415  23.513  27.532  1.00  0.00    -0.014 A 
BRANCH  35  36
ATOM     36  C   UNL A   1      42.706  24.866  28.065  1.00  0.00     0.031 A 
ATOM     37  C   UNL A   1      44.104  25.225  28.487  1.00  0.00     0.074 A 
ATOM     38  C   UNL A   1      41.702  25.748  28.225  1.00  0.00     0.049 A 
ATOM     39  N   UNL A   1      44.545  26.335  29.024  1.00  0.00    -0.248 NA
ATOM     40  C   UNL A   1      45.139  24.195  28.304  1.00  0.00     0.031 C 
ATOM     41  C   UNL A   1      40.297  25.505  27.889  1.00  0.00     0.029 A 
ATOM     42  N   UNL A   1      41.708  27.029  28.719  1.00  0.00    -0.354 N 
ATOM     43  C   UNL A   1      45.899  26.130  29.255  1.00  0.00     0.074 A 
ATOM     44  C   UNL A   1      46.197  24.773  28.853  1.00  0.00     0.031 C 
ATOM     45  C   UNL A   1      39.585  26.611  28.156  1.00  0.00     0.029 A 
ATOM     46  C   UNL A   1      40.469  27.622  28.724  1.00  0.00     0.049 A 
ATOM     47  H   UNL A   1      42.523  27.481  29.037  1.00  0.00     0.167 HD
ATOM     48  C   UNL A   1      46.817  26.999  29.741  1.00  0.00     0.031 A 
ATOM     49  C   UNL A   1      40.087  28.841  29.149  1.00  0.00     0.031 A 
ATOM     50  C   UNL A   1      46.517  28.350  30.136  1.00  0.00     0.049 A 
ATOM     51  C   UNL A   1      41.120  29.778  29.709  1.00  0.00     0.074 A 
ATOM     52  C   UNL A   1      47.386  29.326  30.590  1.00  0.00     0.029 A 
ATOM     53  N   UNL A   1      45.250  28.911  30.129  1.00  0.00    -0.354 N 
ATOM     54  N   UNL A   1      42.410  29.593  29.857  1.00  0.00    -0.248 NA
ATOM     55  C   UNL A   1      40.646  31.096  30.152  1.00  0.00     0.031 C 
ATOM     56  C   UNL A   1      46.635  30.460  30.916  1.00  0.00     0.029 A 
ATOM     57  C   UNL A   1      45.309  30.213  30.600  1.00  0.00     0.049 A 
ATOM     58  H   UNL A   1      44.430  28.453  29.832  1.00  0.00     0.167 HD
ATOM     59  C   UNL A   1      42.906  30.781  30.379  1.00  0.00     0.074 A 
ATOM     60  C   UNL A   1      41.780  31.684  30.507  1.00  0.00     0.031 C 
ATOM     61  C   UNL A   1      44.179  31.097  30.721  1.00  0.00     0.031 A 
BRANCH  48  62
ATOM     62  C   UNL A   1      48.231  26.509  29.882  1.00  0.00    -0.014 A 
ATOM     63  C   UNL A   1      49.180  26.712  28.865  1.00  0.00     0.009 A 
ATOM     64  C   UNL A   1      48.634  25.867  31.063  1.00  0.00     0.009 A 
ATOM     65  C   UNL A   1      50.488  26.249  29.014  1.00  0.00     0.001 A 
ATOM     66  C   UNL A   1      49.952  25.434  31.222  1.00  0.00     0.001 A 
ATOM     67  C   UNL A   1      50.875  25.615  30.194  1.00  0.00     0.000 A 
ENDBRANCH  48  62
BRANCH  49  68
ATOM     68  C   UNL A   1      38.661  29.253  29.053  1.00  0.00    -0.014 A 
ATOM     69  C   UNL A   1      38.146  29.772  27.855  1.00  0.00     0.009 A 
ATOM     70  C   UNL A   1      37.809  29.138  30.164  1.00  0.00     0.009 A 
ATOM     71  C   UNL A   1      36.818  30.196  27.781  1.00  0.00     0.001 A 
ATOM     72  C   UNL A   1      36.473  29.533  30.076  1.00  0.00     0.001 A 
ATOM     73  C   UNL A   1      35.981  30.073  28.889  1.00  0.00     0.000 A 
ENDBRANCH  49  68
BRANCH  61  74
ATOM     74  C   UNL A   1      44.430  32.490  31.230  1.00  0.00    -0.014 A 
ATOM     75  C   UNL A   1      44.390  32.787  32.600  1.00  0.00     0.009 A 
ATOM     76  C   UNL A   1      44.754  33.510  30.322  1.00  0.00     0.009 A 
ATOM     77  C   UNL A   1      44.635  34.087  33.047  1.00  0.00     0.001 A 
ATOM     78  C   UNL A   1      45.031  34.800  30.773  1.00  0.00     0.001 A 
ATOM     79  C   UNL A   1      44.962  35.090  32.135  1.00  0.00     0.000 A 
ENDBRANCH  61  74
ENDBRANCH  35  36
ENDBRANCH  27  30
ENDBRANCH  25  26
ENDBRANCH  24  25
ENDBRANCH  23  24
ENDBRANCH   1  23
TORSDOF 15
ENDMDL
MODEL 3
REMARK VINA RESULT:     -10.7      4.692      9.816
REMARK SMILES C/C(C(=O)NCCCCCCNC(=O)c1ccc(-c2c3nc(c(-c4ccccc4)c4ccc([nH]4)c(-c4ccccc4)c4nc(c(-c5ccccc5)c5ccc2[nH]5)C=C4)C=C3)cc1)=C(\C)C(=O)N[C@H]1CCCC1(C)C
REMARK SMILES IDX 8 1 7 2 6 3 5 4 3 5 4 6 2 8 1 9 63 10 64 11 65 12 66 13
REMARK SMILES IDX 67 14 68 16 69 17 72 18 70 19 71 20 73 21 74 22 9 23 10 24
REMARK SMILES IDX 11 25 12 26 13 27 14 29 15 30 16 31 62 32 17 33 61 34 18 35
REMARK SMILES IDX 19 36 20 37 55 38 21 39 60 40 54 41 56 42 22 43 59 44 53 45
REMARK SMILES IDX 52 46 23 48 45 49 30 50 44 51 31 52 34 53 43 54 57 55 32 56
REMARK SMILES IDX 33 57 42 59 58 60 35 61 24 62 25 63 29 64 26 65 28 66 27 67
REMARK SMILES IDX 46 68 47 69 51 70 48 71 50 72 49 73 36 74 37 75 41 76 38 77
REMARK SMILES IDX 40 78 39 79
REMARK H PARENT 5 7 67 15 12 28 56 47 34 58
REMARK Flexibility Score: inf
ROOT
ATOM      1  C   UNL A   1      32.557  29.983  26.986  1.00  0.00     0.002 C 
ENDROOT
BRANCH   1   2
ATOM      2  C   UNL A   1      32.120  28.575  27.412  1.00  0.00     0.021 C 
BRANCH   2   3
ATOM      3  C   UNL A   1      31.237  27.869  26.381  1.00  0.00     0.116 C 
BRANCH   3   4
ATOM      4  N   UNL A   1      31.039  26.465  26.696  1.00  0.00    -0.352 N 
ATOM      5  C   UNL A   1      31.250  25.279  26.056  1.00  0.00     0.247 C 
ATOM      6  O   UNL A   1      31.266  24.303  26.807  1.00  0.00    -0.270 OA
ATOM      7  H   UNL A   1      30.656  26.338  27.594  1.00  0.00     0.163 HD
BRANCH   5   8
ATOM      8  C   UNL A   1      31.576  25.155  24.580  1.00  0.00     0.022 C 
ATOM      9  C   UNL A   1      30.459  24.794  23.640  1.00  0.00     0.051 C 
ATOM     10  C   UNL A   1      32.827  25.389  24.077  1.00  0.00     0.022 C 
ATOM     11  C   UNL A   1      33.059  25.520  22.596  1.00  0.00     0.051 C 
BRANCH  10  12
ATOM     12  C   UNL A   1      34.076  25.392  24.939  1.00  0.00     0.247 C 
ATOM     13  O   UNL A   1      34.271  26.302  25.749  1.00  0.00    -0.270 OA
ATOM     14  N   UNL A   1      34.948  24.338  25.002  1.00  0.00    -0.349 N 
ATOM     15  H   UNL A   1      35.774  24.546  25.498  1.00  0.00     0.164 HD
BRANCH  14  16
ATOM     16  C   UNL A   1      34.913  22.970  24.488  1.00  0.00     0.088 C 
ATOM     17  C   UNL A   1      36.071  22.701  23.525  1.00  0.00     0.025 C 
ATOM     18  C   UNL A   1      35.035  21.847  25.552  1.00  0.00    -0.015 C 
ATOM     19  C   UNL A   1      37.143  21.966  24.328  1.00  0.00     0.003 C 
ATOM     20  C   UNL A   1      36.551  21.684  25.707  1.00  0.00     0.008 C 
ATOM     21  C   UNL A   1      34.352  22.156  26.889  1.00  0.00     0.013 C 
ATOM     22  C   UNL A   1      34.403  20.547  24.995  1.00  0.00     0.013 C 
ENDBRANCH  14  16
ENDBRANCH  10  12
ENDBRANCH   5   8
ENDBRANCH   3   4
ENDBRANCH   2   3
ENDBRANCH   1   2
BRANCH   1  23
ATOM     23  C   UNL A   1      31.530  30.756  26.149  1.00  0.00     0.002 C 
BRANCH  23  24
ATOM     24  C   UNL A   1      31.392  32.240  26.505  1.00  0.00     0.021 C 
BRANCH  24  25
ATOM     25  C   UNL A   1      32.539  32.782  27.349  1.00  0.00     0.116 C 
BRANCH  25  26
ATOM     26  N   UNL A   1      32.369  34.200  27.625  1.00  0.00    -0.352 N 
ATOM     27  C   UNL A   1      32.964  34.969  28.594  1.00  0.00     0.251 C 
ATOM     28  H   UNL A   1      31.740  34.674  27.035  1.00  0.00     0.163 HD
ATOM     29  O   UNL A   1      32.525  36.079  28.864  1.00  0.00    -0.269 OA
BRANCH  27  30
ATOM     30  C   UNL A   1      34.138  34.440  29.317  1.00  0.00     0.039 A 
ATOM     31  C   UNL A   1      33.958  33.859  30.574  1.00  0.00     0.014 A 
ATOM     32  C   UNL A   1      35.415  34.531  28.756  1.00  0.00     0.014 A 
ATOM     33  C   UNL A   1      35.055  33.320  31.246  1.00  0.00     0.010 A 
ATOM     34  C   UNL A   1      36.493  33.925  29.390  1.00  0.00     0.010 A 
ATOM     35  C   UNL A   1      36.326  33.324  30.647  1.00  0.00    -0.014 A 
BRANCH  35  36
ATOM     36  C   UNL A   1      37.494  32.707  31.321  1.00  0.00     0.031 A 
ATOM     37  C   UNL A   1      38.187  31.526  30.700  1.00  0.00     0.074 A 
ATOM     38  C   UNL A   1      37.892  33.173  32.520  1.00  0.00     0.049 A 
ATOM     39  N   UNL A   1      39.187  30.819  31.161  1.00  0.00    -0.248 NA
ATOM     40  C   UNL A   1      37.673  31.061  29.401  1.00  0.00     0.031 C 
ATOM     41  C   UNL A   1      37.279  34.290  33.243  1.00  0.00     0.029 A 
ATOM     42  N   UNL A   1      38.907  32.761  33.346  1.00  0.00    -0.354 N 
ATOM     43  C   UNL A   1      39.411  29.823  30.220  1.00  0.00     0.074 A 
ATOM     44  C   UNL A   1      38.408  29.980  29.190  1.00  0.00     0.031 C 
ATOM     45  C   UNL A   1      37.949  34.492  34.388  1.00  0.00     0.029 A 
ATOM     46  C   UNL A   1      39.007  33.494  34.503  1.00  0.00     0.049 A 
ATOM     47  H   UNL A   1      39.508  32.011  33.130  1.00  0.00     0.167 HD
ATOM     48  C   UNL A   1      40.376  28.873  30.204  1.00  0.00     0.031 A 
ATOM     49  C   UNL A   1      39.851  33.371  35.545  1.00  0.00     0.031 A 
ATOM     50  C   UNL A   1      41.374  28.722  31.229  1.00  0.00     0.049 A 
ATOM     51  C   UNL A   1      40.897  32.291  35.516  1.00  0.00     0.074 A 
ATOM     52  C   UNL A   1      42.428  27.826  31.279  1.00  0.00     0.029 A 
ATOM     53  N   UNL A   1      41.439  29.483  32.385  1.00  0.00    -0.354 N 
ATOM     54  N   UNL A   1      41.139  31.400  34.585  1.00  0.00    -0.248 NA
ATOM     55  C   UNL A   1      41.792  32.207  36.678  1.00  0.00     0.031 C 
ATOM     56  C   UNL A   1      43.094  28.004  32.496  1.00  0.00     0.029 A 
ATOM     57  C   UNL A   1      42.497  29.056  33.171  1.00  0.00     0.049 A 
ATOM     58  H   UNL A   1      40.826  30.218  32.614  1.00  0.00     0.167 HD
ATOM     59  C   UNL A   1      42.233  30.672  35.033  1.00  0.00     0.074 A 
ATOM     60  C   UNL A   1      42.616  31.236  36.311  1.00  0.00     0.031 C 
ATOM     61  C   UNL A   1      42.864  29.629  34.440  1.00  0.00     0.031 A 
BRANCH  48  62
ATOM     62  C   UNL A   1      40.389  27.915  29.044  1.00  0.00    -0.014 A 
ATOM     63  C   UNL A   1      39.699  26.692  29.098  1.00  0.00     0.009 A 
ATOM     64  C   UNL A   1      41.071  28.256  27.866  1.00  0.00     0.009 A 
ATOM     65  C   UNL A   1      39.725  25.817  28.011  1.00  0.00     0.001 A 
ATOM     66  C   UNL A   1      41.067  27.392  26.769  1.00  0.00     0.001 A 
ATOM     67  C   UNL A   1      40.404  26.169  26.846  1.00  0.00     0.000 A 
ENDBRANCH  48  62
BRANCH  49  68
ATOM     68  C   UNL A   1      39.751  34.300  36.702  1.00  0.00    -0.014 A 
ATOM     69  C   UNL A   1      39.027  33.937  37.848  1.00  0.00     0.009 A 
ATOM     70  C   UNL A   1      40.371  35.559  36.663  1.00  0.00     0.009 A 
ATOM     71  C   UNL A   1      38.899  34.828  38.916  1.00  0.00     0.001 A 
ATOM     72  C   UNL A   1      40.269  36.434  37.746  1.00  0.00     0.001 A 
ATOM     73  C   UNL A   1      39.523  36.073  38.867  1.00  0.00     0.000 A 
ENDBRANCH  49  68
BRANCH  61  74
ATOM     74  C   UNL A   1      44.061  29.056  35.149  1.00  0.00    -0.014 A 
ATOM     75  C   UNL A   1      45.352  29.561  34.933  1.00  0.00     0.009 A 
ATOM     76  C   UNL A   1      43.883  28.022  36.081  1.00  0.00     0.009 A 
ATOM     77  C   UNL A   1      46.445  29.016  35.610  1.00  0.00     0.001 A 
ATOM     78  C   UNL A   1      44.972  27.502  36.781  1.00  0.00     0.001 A 
ATOM     79  C   UNL A   1      46.253  27.993  36.538  1.00  0.00     0.000 A 
ENDBRANCH  61  74
ENDBRANCH  35  36
ENDBRANCH  27  30
ENDBRANCH  25  26
ENDBRANCH  24  25
ENDBRANCH  23  24
ENDBRANCH   1  23
TORSDOF 15
ENDMDL
