MODEL 1
REMARK VINA RESULT:     -10.1      0.000      0.000
REMARK SMILES CC(C)[C@H]([NH2+]C[C@H]1CC[C@@H](C(=O)NCCCCCCNC(=O)c2ccc(-c3c4nc(c(-c5ccccc5)c5ccc([nH]5)c(-c5ccccc5)c5nc(c(-c6ccccc6)c6ccc3[nH]6)C=C5)C=C4)cc2)CC1)c1ccccc1
REMARK SMILES IDX 15 1 14 2 13 3 11 4 12 5 10 7 7 8 8 9 72 10 9 11 71 12 6 13
REMARK SMILES IDX 5 14 4 17 2 18 1 19 3 20 73 21 74 22 78 23 75 24 77 25 76 26
REMARK SMILES IDX 16 27 17 28 18 29 19 30 20 31 21 32 22 34 23 35 24 36 70 37
REMARK SMILES IDX 25 38 69 39 26 40 27 41 28 42 63 43 29 44 68 45 62 46 64 47
REMARK SMILES IDX 30 48 67 49 61 50 60 51 31 53 53 54 38 55 52 56 39 57 42 58
REMARK SMILES IDX 51 59 65 60 40 61 41 62 50 64 66 65 43 66 32 67 33 68 37 69
REMARK SMILES IDX 34 70 36 71 35 72 54 73 55 74 59 75 56 76 58 77 57 78 44 79
REMARK SMILES IDX 45 80 49 81 46 82 48 83 47 84
REMARK H PARENT 13 6 5 15 5 16 20 33 64 52 42 63
REMARK Flexibility Score: inf
ROOT
ATOM      1  C   UNL A   1      38.521  22.731  26.130  1.00  0.00     0.021 C 
ENDROOT
BRANCH   1   2
ATOM      2  C   UNL A   1      37.799  21.742  25.214  1.00  0.00     0.116 C 
BRANCH   2   3
ATOM      3  N   UNL A   1      36.765  22.348  24.413  1.00  0.00    -0.356 N 
ATOM      4  C   UNL A   1      35.413  22.264  24.435  1.00  0.00     0.223 C 
ATOM      5  O   UNL A   1      34.822  23.028  23.658  1.00  0.00    -0.275 OA
ATOM      6  H   UNL A   1      37.111  22.943  23.708  1.00  0.00     0.163 HD
BRANCH   4   7
ATOM      7  C   UNL A   1      34.583  21.343  25.345  1.00  0.00     0.078 C 
ATOM      8  C   UNL A   1      31.833  22.080  26.388  1.00  0.00     0.044 C 
ATOM      9  C   UNL A   1      32.075  21.641  24.932  1.00  0.00     0.010 C 
ATOM     10  C   UNL A   1      33.107  22.452  27.180  1.00  0.00     0.010 C 
ATOM     11  C   UNL A   1      33.309  20.784  24.724  1.00  0.00     0.014 C 
ATOM     12  C   UNL A   1      34.406  21.746  26.804  1.00  0.00     0.014 C 
BRANCH   8  13
ATOM     13  C   UNL A   1      30.843  23.280  26.477  1.00  0.00     0.264 C 
BRANCH  13  14
ATOM     14  N   UNL A   1      31.462  24.536  26.887  1.00  0.00    -0.340 N 
ATOM     15  H   UNL A   1      30.787  25.062  27.442  1.00  0.00     0.346 HD
ATOM     16  H   UNL A   1      32.299  24.296  27.419  1.00  0.00     0.346 HD
BRANCH  14  17
ATOM     17  C   UNL A   1      31.896  25.379  25.757  1.00  0.00     0.216 C 
BRANCH  17  18
ATOM     18  C   UNL A   1      30.874  25.489  24.573  1.00  0.00     0.046 C 
ATOM     19  C   UNL A   1      30.311  26.891  24.310  1.00  0.00     0.014 C 
ATOM     20  C   UNL A   1      31.402  24.901  23.255  1.00  0.00     0.014 C 
ENDBRANCH  17  18
BRANCH  17  21
ATOM     21  C   UNL A   1      32.350  26.739  26.263  1.00  0.00     0.009 A 
ATOM     22  C   UNL A   1      31.550  27.543  27.090  1.00  0.00     0.010 A 
ATOM     23  C   UNL A   1      33.593  27.240  25.842  1.00  0.00     0.010 A 
ATOM     24  C   UNL A   1      31.964  28.825  27.452  1.00  0.00     0.001 A 
ATOM     25  C   UNL A   1      34.005  28.518  26.210  1.00  0.00     0.001 A 
ATOM     26  C   UNL A   1      33.190  29.315  27.007  1.00  0.00     0.000 A 
ENDBRANCH  17  21
ENDBRANCH  14  17
ENDBRANCH  13  14
ENDBRANCH   8  13
ENDBRANCH   4   7
ENDBRANCH   2   3
ENDBRANCH   1   2
BRANCH   1  27
ATOM     27  C   UNL A   1      40.022  22.473  26.319  1.00  0.00     0.002 C 
BRANCH  27  28
ATOM     28  C   UNL A   1      40.418  21.159  27.015  1.00  0.00     0.002 C 
BRANCH  28  29
ATOM     29  C   UNL A   1      40.931  20.040  26.107  1.00  0.00     0.021 C 
BRANCH  29  30
ATOM     30  C   UNL A   1      42.256  19.394  26.509  1.00  0.00     0.116 C 
BRANCH  30  31
ATOM     31  N   UNL A   1      43.263  19.562  25.476  1.00  0.00    -0.352 N 
ATOM     32  C   UNL A   1      43.847  20.688  24.956  1.00  0.00     0.251 C 
ATOM     33  H   UNL A   1      43.584  18.719  25.080  1.00  0.00     0.163 HD
ATOM     34  O   UNL A   1      44.498  20.577  23.910  1.00  0.00    -0.269 OA
BRANCH  32  35
ATOM     35  C   UNL A   1      43.743  22.029  25.589  1.00  0.00     0.039 A 
ATOM     36  C   UNL A   1      43.514  23.136  24.758  1.00  0.00     0.014 A 
ATOM     37  C   UNL A   1      43.994  22.249  26.946  1.00  0.00     0.014 A 
ATOM     38  C   UNL A   1      43.521  24.438  25.276  1.00  0.00     0.010 A 
ATOM     39  C   UNL A   1      43.947  23.547  27.476  1.00  0.00     0.010 A 
ATOM     40  C   UNL A   1      43.731  24.658  26.645  1.00  0.00    -0.014 A 
BRANCH  40  41
ATOM     41  C   UNL A   1      43.775  26.038  27.207  1.00  0.00     0.031 A 
ATOM     42  C   UNL A   1      45.095  26.736  27.418  1.00  0.00     0.074 A 
ATOM     43  C   UNL A   1      42.637  26.669  27.555  1.00  0.00     0.049 A 
ATOM     44  N   UNL A   1      45.338  27.901  27.969  1.00  0.00    -0.248 NA
ATOM     45  C   UNL A   1      46.300  26.028  26.960  1.00  0.00     0.031 C 
ATOM     46  C   UNL A   1      41.284  26.133  27.404  1.00  0.00     0.029 A 
ATOM     47  N   UNL A   1      42.442  27.910  28.116  1.00  0.00    -0.354 N 
ATOM     48  C   UNL A   1      46.720  28.053  27.946  1.00  0.00     0.074 A 
ATOM     49  C   UNL A   1      47.263  26.851  27.352  1.00  0.00     0.031 C 
ATOM     50  C   UNL A   1      40.400  27.045  27.841  1.00  0.00     0.029 A 
ATOM     51  C   UNL A   1      41.121  28.211  28.342  1.00  0.00     0.049 A 
ATOM     52  H   UNL A   1      43.179  28.524  28.334  1.00  0.00     0.167 HD
ATOM     53  C   UNL A   1      47.473  29.099  28.369  1.00  0.00     0.031 A 
ATOM     54  C   UNL A   1      40.551  29.294  28.903  1.00  0.00     0.031 A 
ATOM     55  C   UNL A   1      46.948  30.310  28.945  1.00  0.00     0.049 A 
ATOM     56  C   UNL A   1      41.407  30.425  29.398  1.00  0.00     0.074 A 
ATOM     57  C   UNL A   1      47.639  31.435  29.365  1.00  0.00     0.029 A 
ATOM     58  N   UNL A   1      45.606  30.558  29.176  1.00  0.00    -0.354 N 
ATOM     59  N   UNL A   1      42.710  30.551  29.361  1.00  0.00    -0.248 NA
ATOM     60  C   UNL A   1      40.705  31.563  30.010  1.00  0.00     0.031 C 
ATOM     61  C   UNL A   1      46.717  32.348  29.888  1.00  0.00     0.029 A 
ATOM     62  C   UNL A   1      45.449  31.809  29.751  1.00  0.00     0.049 A 
ATOM     63  H   UNL A   1      44.871  29.937  28.964  1.00  0.00     0.167 HD
ATOM     64  C   UNL A   1      42.983  31.791  29.925  1.00  0.00     0.074 A 
ATOM     65  C   UNL A   1      41.711  32.380  30.287  1.00  0.00     0.031 C 
ATOM     66  C   UNL A   1      44.183  32.387  30.117  1.00  0.00     0.031 A 
BRANCH  53  67
ATOM     67  C   UNL A   1      48.964  28.972  28.239  1.00  0.00    -0.014 A 
ATOM     68  C   UNL A   1      49.740  28.416  29.269  1.00  0.00     0.009 A 
ATOM     69  C   UNL A   1      49.598  29.375  27.053  1.00  0.00     0.009 A 
ATOM     70  C   UNL A   1      51.125  28.300  29.127  1.00  0.00     0.001 A 
ATOM     71  C   UNL A   1      50.979  29.234  26.903  1.00  0.00     0.001 A 
ATOM     72  C   UNL A   1      51.742  28.707  27.943  1.00  0.00     0.000 A 
ENDBRANCH  53  67
BRANCH  54  73
ATOM     73  C   UNL A   1      39.076  29.367  29.039  1.00  0.00    -0.014 A 
ATOM     74  C   UNL A   1      38.284  29.812  27.970  1.00  0.00     0.009 A 
ATOM     75  C   UNL A   1      38.456  29.005  30.244  1.00  0.00     0.009 A 
ATOM     76  C   UNL A   1      36.897  29.896  28.108  1.00  0.00     0.001 A 
ATOM     77  C   UNL A   1      37.067  29.064  30.369  1.00  0.00     0.001 A 
ATOM     78  C   UNL A   1      36.289  29.514  29.304  1.00  0.00     0.000 A 
ENDBRANCH  54  73
BRANCH  66  79
ATOM     79  C   UNL A   1      44.178  33.760  30.723  1.00  0.00    -0.014 A 
ATOM     80  C   UNL A   1      44.062  34.908  29.924  1.00  0.00     0.009 A 
ATOM     81  C   UNL A   1      44.264  33.906  32.116  1.00  0.00     0.009 A 
ATOM     82  C   UNL A   1      44.060  36.177  30.508  1.00  0.00     0.001 A 
ATOM     83  C   UNL A   1      44.240  35.174  32.700  1.00  0.00     0.001 A 
ATOM     84  C   UNL A   1      44.146  36.308  31.894  1.00  0.00     0.000 A 
ENDBRANCH  66  79
ENDBRANCH  40  41
ENDBRANCH  32  35
ENDBRANCH  30  31
ENDBRANCH  29  30
ENDBRANCH  28  29
ENDBRANCH  27  28
ENDBRANCH   1  27
TORSDOF 18
ENDMDL
MODEL 2
REMARK VINA RESULT:     -10.1      5.463     10.685
REMARK SMILES CC(C)[C@H]([NH2+]C[C@H]1CC[C@@H](C(=O)NCCCCCCNC(=O)c2ccc(-c3c4nc(c(-c5ccccc5)c5ccc([nH]5)c(-c5ccccc5)c5nc(c(-c6ccccc6)c6ccc3[nH]6)C=C5)C=C4)cc2)CC1)c1ccccc1
REMARK SMILES IDX 15 1 14 2 13 3 11 4 12 5 10 7 7 8 8 9 72 10 9 11 71 12 6 13
REMARK SMILES IDX 5 14 4 17 2 18 1 19 3 20 73 21 74 22 78 23 75 24 77 25 76 26
REMARK SMILES IDX 16 27 17 28 18 29 19 30 20 31 21 32 22 34 23 35 24 36 70 37
REMARK SMILES IDX 25 38 69 39 26 40 27 41 28 42 63 43 29 44 68 45 62 46 64 47
REMARK SMILES IDX 30 48 67 49 61 50 60 51 31 53 53 54 38 55 52 56 39 57 42 58
REMARK SMILES IDX 51 59 65 60 40 61 41 62 50 64 66 65 43 66 32 67 33 68 37 69
REMARK SMILES IDX 34 70 36 71 35 72 54 73 55 74 59 75 56 76 58 77 57 78 44 79
REMARK SMILES IDX 45 80 49 81 46 82 48 83 47 84
REMARK H PARENT 13 6 5 15 5 16 20 33 64 52 42 63
REMARK Flexibility Score: inf
ROOT
ATOM      1  C   UNL A   1      34.577  32.998  29.285  1.00  0.00     0.021 C 
ENDROOT
BRANCH   1   2
ATOM      2  C   UNL A   1      34.063  32.323  28.014  1.00  0.00     0.116 C 
BRANCH   2   3
ATOM      3  N   UNL A   1      34.632  31.018  27.785  1.00  0.00    -0.356 N 
ATOM      4  C   UNL A   1      34.222  29.947  27.062  1.00  0.00     0.223 C 
ATOM      5  O   UNL A   1      35.032  29.013  26.993  1.00  0.00    -0.275 OA
ATOM      6  H   UNL A   1      35.490  30.876  28.245  1.00  0.00     0.163 HD
BRANCH   4   7
ATOM      7  C   UNL A   1      32.881  29.823  26.319  1.00  0.00     0.078 C 
ATOM      8  C   UNL A   1      31.533  27.166  25.758  1.00  0.00     0.044 C 
ATOM      9  C   UNL A   1      31.536  27.813  27.155  1.00  0.00     0.010 C 
ATOM     10  C   UNL A   1      32.540  27.772  24.754  1.00  0.00     0.010 C 
ATOM     11  C   UNL A   1      31.712  29.320  27.157  1.00  0.00     0.014 C 
ATOM     12  C   UNL A   1      32.893  29.248  24.908  1.00  0.00     0.014 C 
BRANCH   8  13
ATOM     13  C   UNL A   1      31.787  25.630  25.828  1.00  0.00     0.264 C 
BRANCH  13  14
ATOM     14  N   UNL A   1      33.087  25.216  25.310  1.00  0.00    -0.340 N 
ATOM     15  H   UNL A   1      32.965  24.898  24.349  1.00  0.00     0.346 HD
ATOM     16  H   UNL A   1      33.706  26.024  25.377  1.00  0.00     0.346 HD
BRANCH  14  17
ATOM     17  C   UNL A   1      33.714  24.128  26.086  1.00  0.00     0.216 C 
BRANCH  17  18
ATOM     18  C   UNL A   1      32.730  23.023  26.603  1.00  0.00     0.046 C 
ATOM     19  C   UNL A   1      32.419  21.894  25.613  1.00  0.00     0.014 C 
ATOM     20  C   UNL A   1      33.152  22.411  27.949  1.00  0.00     0.014 C 
ENDBRANCH  17  18
BRANCH  17  21
ATOM     21  C   UNL A   1      34.890  23.548  25.317  1.00  0.00     0.009 A 
ATOM     22  C   UNL A   1      34.965  23.576  23.917  1.00  0.00     0.010 A 
ATOM     23  C   UNL A   1      35.917  22.906  26.029  1.00  0.00     0.010 A 
ATOM     24  C   UNL A   1      36.014  22.947  23.247  1.00  0.00     0.001 A 
ATOM     25  C   UNL A   1      36.966  22.284  25.358  1.00  0.00     0.001 A 
ATOM     26  C   UNL A   1      37.012  22.295  23.968  1.00  0.00     0.000 A 
ENDBRANCH  17  21
ENDBRANCH  14  17
ENDBRANCH  13  14
ENDBRANCH   8  13
ENDBRANCH   4   7
ENDBRANCH   2   3
ENDBRANCH   1   2
BRANCH   1  27
ATOM     27  C   UNL A   1      35.289  34.341  29.072  1.00  0.00     0.002 C 
BRANCH  27  28
ATOM     28  C   UNL A   1      34.517  35.420  28.293  1.00  0.00     0.002 C 
BRANCH  28  29
ATOM     29  C   UNL A   1      33.642  36.359  29.125  1.00  0.00     0.021 C 
BRANCH  29  30
ATOM     30  C   UNL A   1      32.467  35.717  29.861  1.00  0.00     0.116 C 
BRANCH  30  31
ATOM     31  N   UNL A   1      32.275  36.309  31.173  1.00  0.00    -0.352 N 
ATOM     32  C   UNL A   1      32.858  36.037  32.382  1.00  0.00     0.251 C 
ATOM     33  H   UNL A   1      31.609  37.034  31.198  1.00  0.00     0.163 HD
ATOM     34  O   UNL A   1      32.342  36.516  33.400  1.00  0.00    -0.269 OA
BRANCH  32  35
ATOM     35  C   UNL A   1      34.081  35.204  32.532  1.00  0.00     0.039 A 
ATOM     36  C   UNL A   1      33.933  33.891  33.006  1.00  0.00     0.014 A 
ATOM     37  C   UNL A   1      35.370  35.710  32.347  1.00  0.00     0.014 A 
ATOM     38  C   UNL A   1      35.053  33.095  33.278  1.00  0.00     0.010 A 
ATOM     39  C   UNL A   1      36.491  34.895  32.567  1.00  0.00     0.010 A 
ATOM     40  C   UNL A   1      36.347  33.586  33.054  1.00  0.00    -0.014 A 
BRANCH  40  41
ATOM     41  C   UNL A   1      37.549  32.764  33.369  1.00  0.00     0.031 A 
ATOM     42  C   UNL A   1      38.307  32.979  34.656  1.00  0.00     0.074 A 
ATOM     43  C   UNL A   1      37.989  31.835  32.499  1.00  0.00     0.049 A 
ATOM     44  N   UNL A   1      39.420  32.420  35.066  1.00  0.00    -0.248 NA
ATOM     45  C   UNL A   1      37.747  33.958  35.600  1.00  0.00     0.031 C 
ATOM     46  C   UNL A   1      37.361  31.502  31.220  1.00  0.00     0.029 A 
ATOM     47  N   UNL A   1      39.078  30.998  32.562  1.00  0.00    -0.354 N 
ATOM     48  C   UNL A   1      39.704  32.995  36.299  1.00  0.00     0.074 A 
ATOM     49  C   UNL A   1      38.663  33.967  36.558  1.00  0.00     0.031 C 
ATOM     50  C   UNL A   1      38.063  30.520  30.629  1.00  0.00     0.029 A 
ATOM     51  C   UNL A   1      39.212  30.183  31.465  1.00  0.00     0.049 A 
ATOM     52  H   UNL A   1      39.703  30.985  33.322  1.00  0.00     0.167 HD
ATOM     53  C   UNL A   1      40.730  32.737  37.148  1.00  0.00     0.031 A 
ATOM     54  C   UNL A   1      40.158  29.277  31.154  1.00  0.00     0.031 A 
ATOM     55  C   UNL A   1      41.763  31.760  36.917  1.00  0.00     0.049 A 
ATOM     56  C   UNL A   1      41.305  29.033  32.092  1.00  0.00     0.074 A 
ATOM     57  C   UNL A   1      42.818  31.409  37.743  1.00  0.00     0.029 A 
ATOM     58  N   UNL A   1      41.869  30.977  35.780  1.00  0.00    -0.354 N 
ATOM     59  N   UNL A   1      41.552  29.583  33.255  1.00  0.00    -0.248 NA
ATOM     60  C   UNL A   1      42.302  28.037  31.669  1.00  0.00     0.031 C 
ATOM     61  C   UNL A   1      43.586  30.440  37.087  1.00  0.00     0.029 A 
ATOM     62  C   UNL A   1      42.983  30.158  35.873  1.00  0.00     0.049 A 
ATOM     63  H   UNL A   1      41.246  31.000  35.017  1.00  0.00     0.167 HD
ATOM     64  C   UNL A   1      42.719  28.987  33.712  1.00  0.00     0.074 A 
ATOM     65  C   UNL A   1      43.126  28.027  32.708  1.00  0.00     0.031 C 
ATOM     66  C   UNL A   1      43.388  29.212  34.868  1.00  0.00     0.031 A 
BRANCH  53  67
ATOM     67  C   UNL A   1      40.796  33.542  38.415  1.00  0.00    -0.014 A 
ATOM     68  C   UNL A   1      40.188  33.091  39.597  1.00  0.00     0.009 A 
ATOM     69  C   UNL A   1      41.513  34.749  38.438  1.00  0.00     0.009 A 
ATOM     70  C   UNL A   1      40.267  33.850  40.767  1.00  0.00     0.001 A 
ATOM     71  C   UNL A   1      41.611  35.494  39.614  1.00  0.00     0.001 A 
ATOM     72  C   UNL A   1      40.980  35.049  40.775  1.00  0.00     0.000 A 
ENDBRANCH  53  67
BRANCH  54  73
ATOM     73  C   UNL A   1      40.071  28.524  29.878  1.00  0.00    -0.014 A 
ATOM     74  C   UNL A   1      40.529  29.095  28.683  1.00  0.00     0.009 A 
ATOM     75  C   UNL A   1      39.517  27.237  29.852  1.00  0.00     0.009 A 
ATOM     76  C   UNL A   1      40.429  28.390  27.481  1.00  0.00     0.001 A 
ATOM     77  C   UNL A   1      39.444  26.523  28.654  1.00  0.00     0.001 A 
ATOM     78  C   UNL A   1      39.895  27.101  27.469  1.00  0.00     0.000 A 
ENDBRANCH  54  73
BRANCH  66  79
ATOM     79  C   UNL A   1      44.616  28.387  35.123  1.00  0.00    -0.014 A 
ATOM     80  C   UNL A   1      45.886  28.830  34.725  1.00  0.00     0.009 A 
ATOM     81  C   UNL A   1      44.502  27.160  35.794  1.00  0.00     0.009 A 
ATOM     82  C   UNL A   1      47.016  28.046  34.971  1.00  0.00     0.001 A 
ATOM     83  C   UNL A   1      45.635  26.388  36.059  1.00  0.00     0.001 A 
ATOM     84  C   UNL A   1      46.890  26.829  35.639  1.00  0.00     0.000 A 
ENDBRANCH  66  79
ENDBRANCH  40  41
ENDBRANCH  32  35
ENDBRANCH  30  31
ENDBRANCH  29  30
ENDBRANCH  28  29
ENDBRANCH  27  28
ENDBRANCH   1  27
TORSDOF 18
ENDMDL
MODEL 3
REMARK VINA RESULT:     -10.1      2.047      6.533
REMARK SMILES CC(C)[C@H]([NH2+]C[C@H]1CC[C@@H](C(=O)NCCCCCCNC(=O)c2ccc(-c3c4nc(c(-c5ccccc5)c5ccc([nH]5)c(-c5ccccc5)c5nc(c(-c6ccccc6)c6ccc3[nH]6)C=C5)C=C4)cc2)CC1)c1ccccc1
REMARK SMILES IDX 15 1 14 2 13 3 11 4 12 5 10 7 7 8 8 9 72 10 9 11 71 12 6 13
REMARK SMILES IDX 5 14 4 17 2 18 1 19 3 20 73 21 74 22 78 23 75 24 77 25 76 26
REMARK SMILES IDX 16 27 17 28 18 29 19 30 20 31 21 32 22 34 23 35 24 36 70 37
REMARK SMILES IDX 25 38 69 39 26 40 27 41 28 42 63 43 29 44 68 45 62 46 64 47
REMARK SMILES IDX 30 48 67 49 61 50 60 51 31 53 53 54 38 55 52 56 39 57 42 58
REMARK SMILES IDX 51 59 65 60 40 61 41 62 50 64 66 65 43 66 32 67 33 68 37 69
REMARK SMILES IDX 34 70 36 71 35 72 54 73 55 74 59 75 56 76 58 77 57 78 44 79
REMARK SMILES IDX 45 80 49 81 46 82 48 83 47 84
REMARK H PARENT 13 6 5 15 5 16 20 33 64 52 42 63
REMARK Flexibility Score: inf
ROOT
ATOM      1  C   UNL A   1      34.798  23.098  26.093  1.00  0.00     0.021 C 
ENDROOT
BRANCH   1   2
ATOM      2  C   UNL A   1      33.270  23.070  26.102  1.00  0.00     0.116 C 
BRANCH   2   3
ATOM      3  N   UNL A   1      32.714  21.804  25.694  1.00  0.00    -0.356 N 
ATOM      4  C   UNL A   1      32.158  21.371  24.536  1.00  0.00     0.223 C 
ATOM      5  O   UNL A   1      31.889  20.163  24.497  1.00  0.00    -0.275 OA
ATOM      6  H   UNL A   1      32.745  21.115  26.397  1.00  0.00     0.163 HD
BRANCH   4   7
ATOM      7  C   UNL A   1      31.876  22.235  23.295  1.00  0.00     0.078 C 
ATOM      8  C   UNL A   1      32.651  25.160  23.096  1.00  0.00     0.044 C 
ATOM      9  C   UNL A   1      33.680  24.021  22.974  1.00  0.00     0.010 C 
ATOM     10  C   UNL A   1      31.275  24.740  23.664  1.00  0.00     0.010 C 
ATOM     11  C   UNL A   1      33.107  22.692  22.522  1.00  0.00     0.014 C 
ATOM     12  C   UNL A   1      30.805  23.314  23.400  1.00  0.00     0.014 C 
BRANCH   8  13
ATOM     13  C   UNL A   1      33.188  26.341  23.959  1.00  0.00     0.264 C 
BRANCH  13  14
ATOM     14  N   UNL A   1      32.517  27.613  23.716  1.00  0.00    -0.340 N 
ATOM     15  H   UNL A   1      33.217  28.354  23.724  1.00  0.00     0.346 HD
ATOM     16  H   UNL A   1      32.046  27.534  22.815  1.00  0.00     0.346 HD
BRANCH  14  17
ATOM     17  C   UNL A   1      31.482  27.937  24.716  1.00  0.00     0.216 C 
BRANCH  17  18
ATOM     18  C   UNL A   1      31.989  28.724  25.973  1.00  0.00     0.046 C 
ATOM     19  C   UNL A   1      32.015  27.934  27.287  1.00  0.00     0.014 C 
ATOM     20  C   UNL A   1      33.354  29.399  25.762  1.00  0.00     0.014 C 
ENDBRANCH  17  18
BRANCH  17  21
ATOM     21  C   UNL A   1      30.298  28.613  24.043  1.00  0.00     0.009 A 
ATOM     22  C   UNL A   1      29.302  27.894  23.366  1.00  0.00     0.010 A 
ATOM     23  C   UNL A   1      30.225  30.016  24.048  1.00  0.00     0.010 A 
ATOM     24  C   UNL A   1      28.286  28.559  22.679  1.00  0.00     0.001 A 
ATOM     25  C   UNL A   1      29.206  30.676  23.366  1.00  0.00     0.001 A 
ATOM     26  C   UNL A   1      28.242  29.951  22.675  1.00  0.00     0.000 A 
ENDBRANCH  17  21
ENDBRANCH  14  17
ENDBRANCH  13  14
ENDBRANCH   8  13
ENDBRANCH   4   7
ENDBRANCH   2   3
ENDBRANCH   1   2
BRANCH   1  27
ATOM     27  C   UNL A   1      35.480  21.729  26.212  1.00  0.00     0.002 C 
BRANCH  27  28
ATOM     28  C   UNL A   1      35.725  20.960  24.902  1.00  0.00     0.002 C 
BRANCH  28  29
ATOM     29  C   UNL A   1      36.979  20.085  24.856  1.00  0.00     0.021 C 
BRANCH  29  30
ATOM     30  C   UNL A   1      38.271  20.722  25.366  1.00  0.00     0.116 C 
BRANCH  30  31
ATOM     31  N   UNL A   1      39.308  19.727  25.573  1.00  0.00    -0.352 N 
ATOM     32  C   UNL A   1      40.620  19.852  25.947  1.00  0.00     0.251 C 
ATOM     33  H   UNL A   1      39.017  18.799  25.417  1.00  0.00     0.163 HD
ATOM     34  O   UNL A   1      41.361  18.870  25.812  1.00  0.00    -0.269 OA
BRANCH  32  35
ATOM     35  C   UNL A   1      41.194  21.101  26.514  1.00  0.00     0.039 A 
ATOM     36  C   UNL A   1      41.060  21.324  27.892  1.00  0.00     0.014 A 
ATOM     37  C   UNL A   1      41.738  22.114  25.719  1.00  0.00     0.014 A 
ATOM     38  C   UNL A   1      41.475  22.532  28.469  1.00  0.00     0.010 A 
ATOM     39  C   UNL A   1      42.204  23.301  26.303  1.00  0.00     0.010 A 
ATOM     40  C   UNL A   1      42.059  23.533  27.680  1.00  0.00    -0.014 A 
BRANCH  40  41
ATOM     41  C   UNL A   1      42.476  24.836  28.272  1.00  0.00     0.031 A 
ATOM     42  C   UNL A   1      41.468  25.939  28.479  1.00  0.00     0.074 A 
ATOM     43  C   UNL A   1      43.762  25.053  28.609  1.00  0.00     0.049 A 
ATOM     44  N   UNL A   1      41.656  27.166  28.901  1.00  0.00    -0.248 NA
ATOM     45  C   UNL A   1      40.067  25.627  28.156  1.00  0.00     0.031 C 
ATOM     46  C   UNL A   1      44.851  24.085  28.480  1.00  0.00     0.029 A 
ATOM     47  N   UNL A   1      44.370  26.171  29.128  1.00  0.00    -0.354 N 
ATOM     48  C   UNL A   1      40.408  27.776  28.873  1.00  0.00     0.074 A 
ATOM     49  C   UNL A   1      39.474  26.794  28.365  1.00  0.00     0.031 C 
ATOM     50  C   UNL A   1      45.988  24.642  28.927  1.00  0.00     0.029 A 
ATOM     51  C   UNL A   1      45.720  26.019  29.333  1.00  0.00     0.049 A 
ATOM     52  H   UNL A   1      43.885  27.002  29.333  1.00  0.00     0.167 HD
ATOM     53  C   UNL A   1      40.060  29.033  29.243  1.00  0.00     0.031 A 
ATOM     54  C   UNL A   1      46.644  26.890  29.782  1.00  0.00     0.031 A 
ATOM     55  C   UNL A   1      40.972  30.017  29.769  1.00  0.00     0.049 A 
ATOM     56  C   UNL A   1      46.244  28.289  30.152  1.00  0.00     0.074 A 
ATOM     57  C   UNL A   1      40.696  31.304  30.204  1.00  0.00     0.029 A 
ATOM     58  N   UNL A   1      42.333  29.824  29.935  1.00  0.00    -0.354 N 
ATOM     59  N   UNL A   1      45.057  28.843  30.123  1.00  0.00    -0.248 NA
ATOM     60  C   UNL A   1      47.317  29.180  30.619  1.00  0.00     0.031 C 
ATOM     61  C   UNL A   1      41.898  31.902  30.596  1.00  0.00     0.029 A 
ATOM     62  C   UNL A   1      42.914  30.973  30.447  1.00  0.00     0.049 A 
ATOM     63  H   UNL A   1      42.817  28.993  29.719  1.00  0.00     0.167 HD
ATOM     64  C   UNL A   1      45.237  30.140  30.587  1.00  0.00     0.074 A 
ATOM     65  C   UNL A   1      46.643  30.287  30.899  1.00  0.00     0.031 C 
ATOM     66  C   UNL A   1      44.313  31.117  30.747  1.00  0.00     0.031 A 
BRANCH  53  67
ATOM     67  C   UNL A   1      38.620  29.429  29.077  1.00  0.00    -0.014 A 
ATOM     68  C   UNL A   1      38.111  29.817  27.827  1.00  0.00     0.009 A 
ATOM     69  C   UNL A   1      37.750  29.372  30.177  1.00  0.00     0.009 A 
ATOM     70  C   UNL A   1      36.768  30.174  27.691  1.00  0.00     0.001 A 
ATOM     71  C   UNL A   1      36.402  29.706  30.033  1.00  0.00     0.001 A 
ATOM     72  C   UNL A   1      35.914  30.116  28.793  1.00  0.00     0.000 A 
ENDBRANCH  53  67
BRANCH  54  73
ATOM     73  C   UNL A   1      48.061  26.468  29.904  1.00  0.00    -0.014 A 
ATOM     74  C   UNL A   1      48.535  25.905  31.097  1.00  0.00     0.009 A 
ATOM     75  C   UNL A   1      48.947  26.641  28.830  1.00  0.00     0.009 A 
ATOM     76  C   UNL A   1      49.874  25.525  31.214  1.00  0.00     0.001 A 
ATOM     77  C   UNL A   1      50.278  26.235  28.941  1.00  0.00     0.001 A 
ATOM     78  C   UNL A   1      50.742  25.683  30.133  1.00  0.00     0.000 A 
ENDBRANCH  54  73
BRANCH  66  79
ATOM     79  C   UNL A   1      44.788  32.425  31.309  1.00  0.00    -0.014 A 
ATOM     80  C   UNL A   1      45.213  33.466  30.471  1.00  0.00     0.009 A 
ATOM     81  C   UNL A   1      44.786  32.627  32.698  1.00  0.00     0.009 A 
ATOM     82  C   UNL A   1      45.652  34.676  31.014  1.00  0.00     0.001 A 
ATOM     83  C   UNL A   1      45.203  33.844  33.238  1.00  0.00     0.001 A 
ATOM     84  C   UNL A   1      45.644  34.865  32.396  1.00  0.00     0.000 A 
ENDBRANCH  66  79
ENDBRANCH  40  41
ENDBRANCH  32  35
ENDBRANCH  30  31
ENDBRANCH  29  30
ENDBRANCH  28  29
ENDBRANCH  27  28
ENDBRANCH   1  27
TORSDOF 18
ENDMDL
