MODEL 1
REMARK VINA RESULT:     -11.6      0.000      0.000
REMARK SMILES O=C(CCCN1C(=O)c2ccc3c4c(ccc(c24)C1=O)C(=O)NC3=O)NCCCCCCNC(=O)c1ccc(-c2c3nc(c(-c4ccccc4)c4ccc([nH]4)c(-c4ccccc4)c4nc(c(-c5ccccc5)c5ccc2[nH]5)C=C4)C=C3)cc1
REMARK SMILES IDX 29 1 28 2 27 3 26 4 1 5 2 6 3 8 4 9 5 10 6 11 19 12 7 13
REMARK SMILES IDX 20 14 17 15 9 16 8 17 16 18 18 19 10 20 15 21 13 22 11 23
REMARK SMILES IDX 14 24 12 25 21 26 24 27 23 28 22 29 25 30 30 32 31 33 32 34
REMARK SMILES IDX 33 35 34 36 35 38 36 39 37 40 83 41 38 42 82 43 39 44 40 45
REMARK SMILES IDX 41 46 76 47 42 48 81 49 75 50 77 51 43 52 80 53 74 54 73 55
REMARK SMILES IDX 44 57 66 58 51 59 65 60 52 61 55 62 64 63 78 64 53 65 54 66
REMARK SMILES IDX 63 68 79 69 56 70 45 71 46 72 50 73 47 74 49 75 48 76 67 77
REMARK SMILES IDX 68 78 72 79 69 80 71 81 70 82 57 83 58 84 62 85 59 86 61 87
REMARK SMILES IDX 60 88
REMARK H PARENT 26 7 23 31 33 37 77 56 55 67
REMARK Flexibility Score: inf
ROOT
ATOM      1  C   UNL A   1      34.478  32.506  28.862  1.00  0.00     0.002 C 
ENDROOT
BRANCH   1   2
ATOM      2  C   UNL A   1      35.275  31.805  27.758  1.00  0.00     0.021 C 
BRANCH   2   3
ATOM      3  C   UNL A   1      34.886  30.345  27.514  1.00  0.00     0.116 C 
BRANCH   3   4
ATOM      4  N   UNL A   1      33.702  30.230  26.684  1.00  0.00    -0.356 N 
ATOM      5  O   UNL A   1      33.012  28.214  27.529  1.00  0.00    -0.275 OA
ATOM      6  C   UNL A   1      32.859  29.149  26.749  1.00  0.00     0.220 C 
ATOM      7  H   UNL A   1      33.497  30.953  26.049  1.00  0.00     0.163 HD
BRANCH   6   8
ATOM      8  C   UNL A   1      31.725  29.166  25.745  1.00  0.00     0.102 C 
BRANCH   8   9
ATOM      9  C   UNL A   1      31.141  27.789  25.434  1.00  0.00     0.032 C 
BRANCH   9  10
ATOM     10  C   UNL A   1      31.552  27.170  24.090  1.00  0.00     0.130 C 
BRANCH  10  11
ATOM     11  N   UNL A   1      32.244  25.880  24.202  1.00  0.00    -0.274 N 
ATOM     12  C   UNL A   1      31.515  24.717  23.969  1.00  0.00     0.261 C 
ATOM     13  C   UNL A   1      33.617  25.900  24.420  1.00  0.00     0.261 C 
ATOM     14  O   UNL A   1      30.330  24.708  23.648  1.00  0.00    -0.269 OA
ATOM     15  C   UNL A   1      32.233  23.428  24.126  1.00  0.00     0.049 A 
ATOM     16  C   UNL A   1      34.303  24.609  24.635  1.00  0.00     0.049 A 
ATOM     17  O   UNL A   1      34.270  26.936  24.456  1.00  0.00    -0.269 OA
ATOM     18  C   UNL A   1      31.542  22.227  23.934  1.00  0.00     0.015 A 
ATOM     19  C   UNL A   1      33.589  23.419  24.477  1.00  0.00     0.009 A 
ATOM     20  C   UNL A   1      35.659  24.589  24.999  1.00  0.00     0.015 A 
ATOM     21  C   UNL A   1      32.199  21.008  24.095  1.00  0.00     0.015 A 
ATOM     22  C   UNL A   1      34.257  22.181  24.665  1.00  0.00     0.009 A 
ATOM     23  C   UNL A   1      36.308  23.376  25.220  1.00  0.00     0.015 A 
ATOM     24  C   UNL A   1      33.548  20.988  24.462  1.00  0.00     0.048 A 
ATOM     25  C   UNL A   1      35.609  22.179  25.046  1.00  0.00     0.048 A 
ATOM     26  C   UNL A   1      34.248  19.693  24.627  1.00  0.00     0.258 C 
ATOM     27  C   UNL A   1      36.304  20.887  25.260  1.00  0.00     0.258 C 
ATOM     28  N   UNL A   1      35.562  19.756  25.018  1.00  0.00    -0.288 N 
ATOM     29  O   UNL A   1      33.677  18.628  24.425  1.00  0.00    -0.269 OA
ATOM     30  O   UNL A   1      37.467  20.840  25.631  1.00  0.00    -0.269 OA
ATOM     31  H   UNL A   1      36.026  18.894  25.137  1.00  0.00     0.173 HD
ENDBRANCH  10  11
ENDBRANCH   9  10
ENDBRANCH   8   9
ENDBRANCH   6   8
ENDBRANCH   3   4
ENDBRANCH   2   3
ENDBRANCH   1   2
BRANCH   1  32
ATOM     32  C   UNL A   1      34.581  34.036  28.871  1.00  0.00     0.002 C 
BRANCH  32  33
ATOM     33  C   UNL A   1      33.253  34.762  29.055  1.00  0.00     0.021 C 
BRANCH  33  34
ATOM     34  C   UNL A   1      33.380  36.121  29.726  1.00  0.00     0.116 C 
BRANCH  34  35
ATOM     35  N   UNL A   1      32.421  36.307  30.806  1.00  0.00    -0.352 N 
ATOM     36  C   UNL A   1      32.469  35.802  32.082  1.00  0.00     0.251 C 
ATOM     37  H   UNL A   1      31.639  36.868  30.594  1.00  0.00     0.163 HD
ATOM     38  O   UNL A   1      31.516  35.928  32.842  1.00  0.00    -0.269 OA
BRANCH  36  39
ATOM     39  C   UNL A   1      33.676  35.069  32.515  1.00  0.00     0.039 A 
ATOM     40  C   UNL A   1      33.553  33.740  32.921  1.00  0.00     0.014 A 
ATOM     41  C   UNL A   1      34.931  35.684  32.473  1.00  0.00     0.014 A 
ATOM     42  C   UNL A   1      34.698  33.006  33.231  1.00  0.00     0.010 A 
ATOM     43  C   UNL A   1      36.075  34.928  32.700  1.00  0.00     0.010 A 
ATOM     44  C   UNL A   1      35.972  33.584  33.090  1.00  0.00    -0.014 A 
BRANCH  44  45
ATOM     45  C   UNL A   1      37.206  32.808  33.367  1.00  0.00     0.031 A 
ATOM     46  C   UNL A   1      37.981  33.063  34.633  1.00  0.00     0.074 A 
ATOM     47  C   UNL A   1      37.658  31.917  32.464  1.00  0.00     0.049 A 
ATOM     48  N   UNL A   1      39.115  32.539  35.026  1.00  0.00    -0.248 NA
ATOM     49  C   UNL A   1      37.421  34.051  35.570  1.00  0.00     0.031 C 
ATOM     50  C   UNL A   1      37.020  31.604  31.184  1.00  0.00     0.029 A 
ATOM     51  N   UNL A   1      38.771  31.112  32.484  1.00  0.00    -0.354 N 
ATOM     52  C   UNL A   1      39.404  33.139  36.245  1.00  0.00     0.074 A 
ATOM     53  C   UNL A   1      38.363  34.109  36.499  1.00  0.00     0.031 C 
ATOM     54  C   UNL A   1      37.737  30.657  30.555  1.00  0.00     0.029 A 
ATOM     55  C   UNL A   1      38.906  30.329  31.362  1.00  0.00     0.049 A 
ATOM     56  H   UNL A   1      39.411  31.097  33.231  1.00  0.00     0.167 HD
ATOM     57  C   UNL A   1      40.428  32.886  37.093  1.00  0.00     0.031 A 
ATOM     58  C   UNL A   1      39.871  29.454  31.019  1.00  0.00     0.031 A 
ATOM     59  C   UNL A   1      41.461  31.917  36.846  1.00  0.00     0.049 A 
ATOM     60  C   UNL A   1      41.017  29.219  31.967  1.00  0.00     0.074 A 
ATOM     61  C   UNL A   1      42.525  31.566  37.659  1.00  0.00     0.029 A 
ATOM     62  N   UNL A   1      41.556  31.140  35.702  1.00  0.00    -0.354 N 
ATOM     63  N   UNL A   1      41.242  29.753  33.142  1.00  0.00    -0.248 NA
ATOM     64  C   UNL A   1      42.035  28.245  31.543  1.00  0.00     0.031 C 
ATOM     65  C   UNL A   1      43.293  30.612  36.984  1.00  0.00     0.029 A 
ATOM     66  C   UNL A   1      42.670  30.322  35.781  1.00  0.00     0.049 A 
ATOM     67  H   UNL A   1      40.926  31.166  34.946  1.00  0.00     0.167 HD
ATOM     68  C   UNL A   1      42.404  29.154  33.614  1.00  0.00     0.074 A 
ATOM     69  C   UNL A   1      42.824  28.202  32.606  1.00  0.00     0.031 C 
ATOM     70  C   UNL A   1      43.065  29.370  34.777  1.00  0.00     0.031 A 
BRANCH  57  71
ATOM     71  C   UNL A   1      40.477  33.666  38.377  1.00  0.00    -0.014 A 
ATOM     72  C   UNL A   1      41.159  34.891  38.453  1.00  0.00     0.009 A 
ATOM     73  C   UNL A   1      39.784  33.203  39.507  1.00  0.00     0.009 A 
ATOM     74  C   UNL A   1      41.172  35.622  39.643  1.00  0.00     0.001 A 
ATOM     75  C   UNL A   1      39.773  33.950  40.686  1.00  0.00     0.001 A 
ATOM     76  C   UNL A   1      40.472  35.155  40.755  1.00  0.00     0.000 A 
ENDBRANCH  57  71
BRANCH  58  77
ATOM     77  C   UNL A   1      39.810  28.732  29.719  1.00  0.00    -0.014 A 
ATOM     78  C   UNL A   1      39.301  27.425  29.647  1.00  0.00     0.009 A 
ATOM     79  C   UNL A   1      40.306  29.328  28.549  1.00  0.00     0.009 A 
ATOM     80  C   UNL A   1      39.336  26.715  28.445  1.00  0.00     0.001 A 
ATOM     81  C   UNL A   1      40.306  28.629  27.340  1.00  0.00     0.001 A 
ATOM     82  C   UNL A   1      39.837  27.319  27.292  1.00  0.00     0.000 A 
ENDBRANCH  58  77
BRANCH  70  83
ATOM     83  C   UNL A   1      44.277  28.524  35.051  1.00  0.00    -0.014 A 
ATOM     84  C   UNL A   1      44.174  27.273  35.676  1.00  0.00     0.009 A 
ATOM     85  C   UNL A   1      45.541  28.975  34.636  1.00  0.00     0.009 A 
ATOM     86  C   UNL A   1      45.318  26.507  35.915  1.00  0.00     0.001 A 
ATOM     87  C   UNL A   1      46.677  28.193  34.845  1.00  0.00     0.001 A 
ATOM     88  C   UNL A   1      46.566  26.965  35.493  1.00  0.00     0.000 A 
ENDBRANCH  70  83
ENDBRANCH  44  45
ENDBRANCH  36  39
ENDBRANCH  34  35
ENDBRANCH  33  34
ENDBRANCH  32  33
ENDBRANCH   1  32
TORSDOF 16
ENDMDL
MODEL 2
REMARK VINA RESULT:     -11.5      5.020     10.639
REMARK SMILES O=C(CCCN1C(=O)c2ccc3c4c(ccc(c24)C1=O)C(=O)NC3=O)NCCCCCCNC(=O)c1ccc(-c2c3nc(c(-c4ccccc4)c4ccc([nH]4)c(-c4ccccc4)c4nc(c(-c5ccccc5)c5ccc2[nH]5)C=C4)C=C3)cc1
REMARK SMILES IDX 29 1 28 2 27 3 26 4 1 5 2 6 3 8 4 9 5 10 6 11 19 12 7 13
REMARK SMILES IDX 20 14 17 15 9 16 8 17 16 18 18 19 10 20 15 21 13 22 11 23
REMARK SMILES IDX 14 24 12 25 21 26 24 27 23 28 22 29 25 30 30 32 31 33 32 34
REMARK SMILES IDX 33 35 34 36 35 38 36 39 37 40 83 41 38 42 82 43 39 44 40 45
REMARK SMILES IDX 41 46 76 47 42 48 81 49 75 50 77 51 43 52 80 53 74 54 73 55
REMARK SMILES IDX 44 57 66 58 51 59 65 60 52 61 55 62 64 63 78 64 53 65 54 66
REMARK SMILES IDX 63 68 79 69 56 70 45 71 46 72 50 73 47 74 49 75 48 76 67 77
REMARK SMILES IDX 68 78 72 79 69 80 71 81 70 82 57 83 58 84 62 85 59 86 61 87
REMARK SMILES IDX 60 88
REMARK H PARENT 26 7 23 31 33 37 77 56 55 67
REMARK Flexibility Score: inf
ROOT
ATOM      1  C   UNL A   1      40.905  23.058  27.142  1.00  0.00     0.002 C 
ENDROOT
BRANCH   1   2
ATOM      2  C   UNL A   1      39.375  23.101  27.103  1.00  0.00     0.021 C 
BRANCH   2   3
ATOM      3  C   UNL A   1      38.745  22.451  25.870  1.00  0.00     0.116 C 
BRANCH   3   4
ATOM      4  N   UNL A   1      37.315  22.265  26.024  1.00  0.00    -0.356 N 
ATOM      5  O   UNL A   1      37.181  20.361  24.754  1.00  0.00    -0.275 OA
ATOM      6  C   UNL A   1      36.638  21.229  25.431  1.00  0.00     0.220 C 
ATOM      7  H   UNL A   1      36.811  22.907  26.574  1.00  0.00     0.163 HD
BRANCH   6   8
ATOM      8  C   UNL A   1      35.137  21.251  25.635  1.00  0.00     0.102 C 
BRANCH   8   9
ATOM      9  C   UNL A   1      34.343  21.705  24.412  1.00  0.00     0.032 C 
BRANCH   9  10
ATOM     10  C   UNL A   1      34.959  22.850  23.594  1.00  0.00     0.130 C 
BRANCH  10  11
ATOM     11  N   UNL A   1      34.273  24.139  23.742  1.00  0.00    -0.274 N 
ATOM     12  C   UNL A   1      34.581  24.929  24.846  1.00  0.00     0.261 C 
ATOM     13  C   UNL A   1      33.438  24.549  22.708  1.00  0.00     0.261 C 
ATOM     14  O   UNL A   1      35.417  24.623  25.691  1.00  0.00    -0.269 OA
ATOM     15  C   UNL A   1      33.844  26.210  24.986  1.00  0.00     0.049 A 
ATOM     16  C   UNL A   1      32.665  25.795  22.894  1.00  0.00     0.049 A 
ATOM     17  O   UNL A   1      33.308  23.916  21.667  1.00  0.00    -0.269 OA
ATOM     18  C   UNL A   1      34.092  27.029  26.093  1.00  0.00     0.015 A 
ATOM     19  C   UNL A   1      32.898  26.583  24.024  1.00  0.00     0.009 A 
ATOM     20  C   UNL A   1      31.707  26.173  21.941  1.00  0.00     0.015 A 
ATOM     21  C   UNL A   1      33.395  28.226  26.247  1.00  0.00     0.015 A 
ATOM     22  C   UNL A   1      32.169  27.789  24.187  1.00  0.00     0.009 A 
ATOM     23  C   UNL A   1      30.963  27.338  22.117  1.00  0.00     0.015 A 
ATOM     24  C   UNL A   1      32.436  28.600  25.300  1.00  0.00     0.048 A 
ATOM     25  C   UNL A   1      31.200  28.143  23.234  1.00  0.00     0.048 A 
ATOM     26  C   UNL A   1      31.699  29.875  25.462  1.00  0.00     0.258 C 
ATOM     27  C   UNL A   1      30.425  29.394  23.412  1.00  0.00     0.258 C 
ATOM     28  N   UNL A   1      30.754  30.157  24.507  1.00  0.00    -0.288 N 
ATOM     29  O   UNL A   1      31.927  30.631  26.399  1.00  0.00    -0.269 OA
ATOM     30  O   UNL A   1      29.545  29.719  22.629  1.00  0.00    -0.269 OA
ATOM     31  H   UNL A   1      30.257  31.001  24.619  1.00  0.00     0.173 HD
ENDBRANCH  10  11
ENDBRANCH   9  10
ENDBRANCH   8   9
ENDBRANCH   6   8
ENDBRANCH   3   4
ENDBRANCH   2   3
ENDBRANCH   1   2
BRANCH   1  32
ATOM     32  C   UNL A   1      41.506  22.010  28.087  1.00  0.00     0.002 C 
BRANCH  32  33
ATOM     33  C   UNL A   1      41.998  20.741  27.399  1.00  0.00     0.021 C 
BRANCH  33  34
ATOM     34  C   UNL A   1      42.013  20.828  25.881  1.00  0.00     0.116 C 
BRANCH  34  35
ATOM     35  N   UNL A   1      43.271  20.375  25.304  1.00  0.00    -0.352 N 
ATOM     36  C   UNL A   1      44.421  21.096  25.098  1.00  0.00     0.251 C 
ATOM     37  H   UNL A   1      43.300  19.431  25.027  1.00  0.00     0.163 HD
ATOM     38  O   UNL A   1      45.359  20.616  24.471  1.00  0.00    -0.269 OA
BRANCH  36  39
ATOM     39  C   UNL A   1      44.499  22.479  25.614  1.00  0.00     0.039 A 
ATOM     40  C   UNL A   1      44.092  23.532  24.795  1.00  0.00     0.014 A 
ATOM     41  C   UNL A   1      44.931  22.723  26.921  1.00  0.00     0.014 A 
ATOM     42  C   UNL A   1      44.062  24.829  25.307  1.00  0.00     0.010 A 
ATOM     43  C   UNL A   1      44.819  24.002  27.455  1.00  0.00     0.010 A 
ATOM     44  C   UNL A   1      44.392  25.070  26.651  1.00  0.00    -0.014 A 
BRANCH  44  45
ATOM     45  C   UNL A   1      44.321  26.435  27.231  1.00  0.00     0.031 A 
ATOM     46  C   UNL A   1      45.587  27.215  27.468  1.00  0.00     0.074 A 
ATOM     47  C   UNL A   1      43.130  26.951  27.591  1.00  0.00     0.049 A 
ATOM     48  N   UNL A   1      45.740  28.389  28.024  1.00  0.00    -0.248 NA
ATOM     49  C   UNL A   1      46.848  26.582  27.046  1.00  0.00     0.031 C 
ATOM     50  C   UNL A   1      41.834  26.285  27.447  1.00  0.00     0.029 A 
ATOM     51  N   UNL A   1      42.817  28.162  28.161  1.00  0.00    -0.354 N 
ATOM     52  C   UNL A   1      47.109  28.630  28.024  1.00  0.00     0.074 A 
ATOM     53  C   UNL A   1      47.747  27.455  27.473  1.00  0.00     0.031 C 
ATOM     54  C   UNL A   1      40.866  27.104  27.892  1.00  0.00     0.029 A 
ATOM     55  C   UNL A   1      41.473  28.332  28.393  1.00  0.00     0.049 A 
ATOM     56  H   UNL A   1      43.492  28.843  28.382  1.00  0.00     0.167 HD
ATOM     57  C   UNL A   1      47.775  29.739  28.421  1.00  0.00     0.031 A 
ATOM     58  C   UNL A   1      40.808  29.358  28.957  1.00  0.00     0.031 A 
ATOM     59  C   UNL A   1      47.143  30.910  28.964  1.00  0.00     0.049 A 
ATOM     60  C   UNL A   1      41.579  30.564  29.422  1.00  0.00     0.074 A 
ATOM     61  C   UNL A   1      47.730  32.097  29.367  1.00  0.00     0.029 A 
ATOM     62  N   UNL A   1      45.779  31.044  29.175  1.00  0.00    -0.354 N 
ATOM     63  N   UNL A   1      42.868  30.797  29.361  1.00  0.00    -0.248 NA
ATOM     64  C   UNL A   1      40.798  31.657  30.020  1.00  0.00     0.031 C 
ATOM     65  C   UNL A   1      46.726  32.931  29.869  1.00  0.00     0.029 A 
ATOM     66  C   UNL A   1      45.508  32.289  29.717  1.00  0.00     0.049 A 
ATOM     67  H   UNL A   1      45.104  30.357  28.970  1.00  0.00     0.167 HD
ATOM     68  C   UNL A   1      43.046  32.075  29.877  1.00  0.00     0.074 A 
ATOM     69  C   UNL A   1      41.732  32.574  30.226  1.00  0.00     0.031 C 
ATOM     70  C   UNL A   1      44.194  32.775  30.045  1.00  0.00     0.031 A 
BRANCH  57  71
ATOM     71  C   UNL A   1      49.271  29.742  28.274  1.00  0.00    -0.014 A 
ATOM     72  C   UNL A   1      50.097  29.211  29.277  1.00  0.00     0.009 A 
ATOM     73  C   UNL A   1      49.860  30.225  27.095  1.00  0.00     0.009 A 
ATOM     74  C   UNL A   1      51.484  29.191  29.116  1.00  0.00     0.001 A 
ATOM     75  C   UNL A   1      51.244  30.175  26.923  1.00  0.00     0.001 A 
ATOM     76  C   UNL A   1      52.055  29.665  27.936  1.00  0.00     0.000 A 
ENDBRANCH  57  71
BRANCH  58  77
ATOM     77  C   UNL A   1      39.329  29.300  29.125  1.00  0.00    -0.014 A 
ATOM     78  C   UNL A   1      38.473  29.670  28.075  1.00  0.00     0.009 A 
ATOM     79  C   UNL A   1      38.766  28.921  30.354  1.00  0.00     0.009 A 
ATOM     80  C   UNL A   1      37.090  29.708  28.267  1.00  0.00     0.001 A 
ATOM     81  C   UNL A   1      37.381  28.926  30.532  1.00  0.00     0.001 A 
ATOM     82  C   UNL A   1      36.546  29.334  29.495  1.00  0.00     0.000 A 
ENDBRANCH  58  77
BRANCH  70  83
ATOM     83  C   UNL A   1      44.078  34.176  30.579  1.00  0.00    -0.014 A 
ATOM     84  C   UNL A   1      44.144  34.447  31.953  1.00  0.00     0.009 A 
ATOM     85  C   UNL A   1      43.941  35.247  29.680  1.00  0.00     0.009 A 
ATOM     86  C   UNL A   1      44.037  35.759  32.420  1.00  0.00     0.001 A 
ATOM     87  C   UNL A   1      43.868  36.559  30.147  1.00  0.00     0.001 A 
ATOM     88  C   UNL A   1      43.905  36.813  31.516  1.00  0.00     0.000 A 
ENDBRANCH  70  83
ENDBRANCH  44  45
ENDBRANCH  36  39
ENDBRANCH  34  35
ENDBRANCH  33  34
ENDBRANCH  32  33
ENDBRANCH   1  32
TORSDOF 16
ENDMDL
MODEL 3
REMARK VINA RESULT:     -11.4      1.635      2.864
REMARK SMILES O=C(CCCN1C(=O)c2ccc3c4c(ccc(c24)C1=O)C(=O)NC3=O)NCCCCCCNC(=O)c1ccc(-c2c3nc(c(-c4ccccc4)c4ccc([nH]4)c(-c4ccccc4)c4nc(c(-c5ccccc5)c5ccc2[nH]5)C=C4)C=C3)cc1
REMARK SMILES IDX 29 1 28 2 27 3 26 4 1 5 2 6 3 8 4 9 5 10 6 11 19 12 7 13
REMARK SMILES IDX 20 14 17 15 9 16 8 17 16 18 18 19 10 20 15 21 13 22 11 23
REMARK SMILES IDX 14 24 12 25 21 26 24 27 23 28 22 29 25 30 30 32 31 33 32 34
REMARK SMILES IDX 33 35 34 36 35 38 36 39 37 40 83 41 38 42 82 43 39 44 40 45
REMARK SMILES IDX 41 46 76 47 42 48 81 49 75 50 77 51 43 52 80 53 74 54 73 55
REMARK SMILES IDX 44 57 66 58 51 59 65 60 52 61 55 62 64 63 78 64 53 65 54 66
REMARK SMILES IDX 63 68 79 69 56 70 45 71 46 72 50 73 47 74 49 75 48 76 67 77
REMARK SMILES IDX 68 78 72 79 69 80 71 81 70 82 57 83 58 84 62 85 59 86 61 87
REMARK SMILES IDX 60 88
REMARK H PARENT 26 7 23 31 33 37 77 56 55 67
REMARK Flexibility Score: inf
ROOT
ATOM      1  C   UNL A   1      35.123  30.208  27.852  1.00  0.00     0.002 C 
ENDROOT
BRANCH   1   2
ATOM      2  C   UNL A   1      33.994  29.698  26.952  1.00  0.00     0.021 C 
BRANCH   2   3
ATOM      3  C   UNL A   1      33.712  28.199  27.061  1.00  0.00     0.116 C 
BRANCH   3   4
ATOM      4  N   UNL A   1      32.756  27.751  26.067  1.00  0.00    -0.356 N 
ATOM      5  O   UNL A   1      31.025  27.416  27.533  1.00  0.00    -0.275 OA
ATOM      6  C   UNL A   1      31.476  27.375  26.392  1.00  0.00     0.220 C 
ATOM      7  H   UNL A   1      33.035  27.715  25.125  1.00  0.00     0.163 HD
BRANCH   6   8
ATOM      8  C   UNL A   1      30.653  26.856  25.232  1.00  0.00     0.102 C 
BRANCH   8   9
ATOM      9  C   UNL A   1      31.054  27.424  23.872  1.00  0.00     0.032 C 
BRANCH   9  10
ATOM     10  C   UNL A   1      31.348  26.394  22.771  1.00  0.00     0.130 C 
BRANCH  10  11
ATOM     11  N   UNL A   1      32.132  25.236  23.215  1.00  0.00    -0.274 N 
ATOM     12  C   UNL A   1      33.457  25.441  23.590  1.00  0.00     0.261 C 
ATOM     13  C   UNL A   1      31.473  24.020  23.344  1.00  0.00     0.261 C 
ATOM     14  O   UNL A   1      34.001  26.541  23.599  1.00  0.00    -0.269 OA
ATOM     15  C   UNL A   1      34.235  24.245  23.999  1.00  0.00     0.049 A 
ATOM     16  C   UNL A   1      32.276  22.828  23.692  1.00  0.00     0.049 A 
ATOM     17  O   UNL A   1      30.267  23.895  23.169  1.00  0.00    -0.269 OA
ATOM     18  C   UNL A   1      35.580  24.387  24.358  1.00  0.00     0.015 A 
ATOM     19  C   UNL A   1      33.627  22.984  24.010  1.00  0.00     0.009 A 
ATOM     20  C   UNL A   1      31.679  21.558  23.694  1.00  0.00     0.015 A 
ATOM     21  C   UNL A   1      36.328  23.271  24.727  1.00  0.00     0.015 A 
ATOM     22  C   UNL A   1      34.390  21.840  24.363  1.00  0.00     0.009 A 
ATOM     23  C   UNL A   1      32.434  20.429  24.004  1.00  0.00     0.015 A 
ATOM     24  C   UNL A   1      35.735  22.004  24.725  1.00  0.00     0.048 A 
ATOM     25  C   UNL A   1      33.781  20.574  24.343  1.00  0.00     0.048 A 
ATOM     26  C   UNL A   1      36.528  20.818  25.123  1.00  0.00     0.258 C 
ATOM     27  C   UNL A   1      34.581  19.376  24.694  1.00  0.00     0.258 C 
ATOM     28  N   UNL A   1      35.884  19.607  25.067  1.00  0.00    -0.288 N 
ATOM     29  O   UNL A   1      37.695  20.921  25.481  1.00  0.00    -0.269 OA
ATOM     30  O   UNL A   1      34.103  18.253  24.651  1.00  0.00    -0.269 OA
ATOM     31  H   UNL A   1      36.414  18.817  25.323  1.00  0.00     0.173 HD
ENDBRANCH  10  11
ENDBRANCH   9  10
ENDBRANCH   8   9
ENDBRANCH   6   8
ENDBRANCH   3   4
ENDBRANCH   2   3
ENDBRANCH   1   2
BRANCH   1  32
ATOM     32  C   UNL A   1      35.297  31.731  27.884  1.00  0.00     0.002 C 
BRANCH  32  33
ATOM     33  C   UNL A   1      33.993  32.520  27.913  1.00  0.00     0.021 C 
BRANCH  33  34
ATOM     34  C   UNL A   1      34.184  34.026  28.002  1.00  0.00     0.116 C 
BRANCH  34  35
ATOM     35  N   UNL A   1      33.485  34.617  29.135  1.00  0.00    -0.352 N 
ATOM     36  C   UNL A   1      33.778  34.497  30.471  1.00  0.00     0.251 C 
ATOM     37  H   UNL A   1      32.703  35.173  28.914  1.00  0.00     0.163 HD
ATOM     38  O   UNL A   1      33.014  34.937  31.323  1.00  0.00    -0.269 OA
BRANCH  36  39
ATOM     39  C   UNL A   1      35.014  33.794  30.871  1.00  0.00     0.039 A 
ATOM     40  C   UNL A   1      34.916  32.643  31.654  1.00  0.00     0.014 A 
ATOM     41  C   UNL A   1      36.261  34.249  30.432  1.00  0.00     0.014 A 
ATOM     42  C   UNL A   1      36.068  31.912  31.949  1.00  0.00     0.010 A 
ATOM     43  C   UNL A   1      37.393  33.474  30.655  1.00  0.00     0.010 A 
ATOM     44  C   UNL A   1      37.311  32.303  31.423  1.00  0.00    -0.014 A 
BRANCH  44  45
ATOM     45  C   UNL A   1      38.541  31.514  31.684  1.00  0.00     0.031 A 
ATOM     46  C   UNL A   1      39.451  31.900  32.820  1.00  0.00     0.074 A 
ATOM     47  C   UNL A   1      38.868  30.489  30.874  1.00  0.00     0.049 A 
ATOM     48  N   UNL A   1      40.601  31.382  33.169  1.00  0.00    -0.248 NA
ATOM     49  C   UNL A   1      39.024  33.031  33.661  1.00  0.00     0.031 C 
ATOM     50  C   UNL A   1      38.090  30.036  29.718  1.00  0.00     0.029 A 
ATOM     51  N   UNL A   1      39.949  29.642  30.897  1.00  0.00    -0.354 N 
ATOM     52  C   UNL A   1      41.035  32.126  34.258  1.00  0.00     0.074 A 
ATOM     53  C   UNL A   1      40.059  33.170  34.475  1.00  0.00     0.031 C 
ATOM     54  C   UNL A   1      38.706  28.980  29.160  1.00  0.00     0.029 A 
ATOM     55  C   UNL A   1      39.941  28.709  29.887  1.00  0.00     0.049 A 
ATOM     56  H   UNL A   1      40.662  29.697  31.572  1.00  0.00     0.167 HD
ATOM     57  C   UNL A   1      42.132  31.942  35.029  1.00  0.00     0.031 A 
ATOM     58  C   UNL A   1      40.835  27.751  29.576  1.00  0.00     0.031 A 
ATOM     59  C   UNL A   1      43.101  30.900  34.819  1.00  0.00     0.049 A 
ATOM     60  C   UNL A   1      42.064  27.592  30.430  1.00  0.00     0.074 A 
ATOM     61  C   UNL A   1      44.231  30.613  35.565  1.00  0.00     0.029 A 
ATOM     62  N   UNL A   1      43.051  29.973  33.791  1.00  0.00    -0.354 N 
ATOM     63  N   UNL A   1      42.428  28.269  31.492  1.00  0.00    -0.248 NA
ATOM     64  C   UNL A   1      43.000  26.523  30.049  1.00  0.00     0.031 C 
ATOM     65  C   UNL A   1      44.893  29.542  34.958  1.00  0.00     0.029 A 
ATOM     66  C   UNL A   1      44.139  29.122  33.874  1.00  0.00     0.049 A 
ATOM     67  H   UNL A   1      42.347  29.926  33.104  1.00  0.00     0.167 HD
ATOM     68  C   UNL A   1      43.612  27.685  31.927  1.00  0.00     0.074 A 
ATOM     69  C   UNL A   1      43.893  26.587  31.026  1.00  0.00     0.031 C 
ATOM     70  C   UNL A   1      44.397  28.025  32.978  1.00  0.00     0.031 A 
BRANCH  57  71
ATOM     71  C   UNL A   1      42.339  32.885  36.181  1.00  0.00    -0.014 A 
ATOM     72  C   UNL A   1      43.004  34.109  36.003  1.00  0.00     0.009 A 
ATOM     73  C   UNL A   1      41.813  32.576  37.445  1.00  0.00     0.009 A 
ATOM     74  C   UNL A   1      43.165  34.991  37.074  1.00  0.00     0.001 A 
ATOM     75  C   UNL A   1      41.947  33.474  38.506  1.00  0.00     0.001 A 
ATOM     76  C   UNL A   1      42.628  34.676  38.321  1.00  0.00     0.000 A 
ENDBRANCH  57  71
BRANCH  58  77
ATOM     77  C   UNL A   1      40.616  26.864  28.401  1.00  0.00    -0.014 A 
ATOM     78  C   UNL A   1      41.168  27.180  27.149  1.00  0.00     0.009 A 
ATOM     79  C   UNL A   1      39.810  25.720  28.514  1.00  0.00     0.009 A 
ATOM     80  C   UNL A   1      40.880  26.399  26.028  1.00  0.00     0.001 A 
ATOM     81  C   UNL A   1      39.553  24.920  27.398  1.00  0.00     0.001 A 
ATOM     82  C   UNL A   1      40.074  25.268  26.154  1.00  0.00     0.000 A 
ENDBRANCH  58  77
BRANCH  70  83
ATOM     83  C   UNL A   1      45.602  27.167  33.248  1.00  0.00    -0.014 A 
ATOM     84  C   UNL A   1      45.522  26.019  34.050  1.00  0.00     0.009 A 
ATOM     85  C   UNL A   1      46.830  27.497  32.651  1.00  0.00     0.009 A 
ATOM     86  C   UNL A   1      46.659  25.239  34.279  1.00  0.00     0.001 A 
ATOM     87  C   UNL A   1      47.954  26.697  32.854  1.00  0.00     0.001 A 
ATOM     88  C   UNL A   1      47.870  25.576  33.676  1.00  0.00     0.000 A 
ENDBRANCH  70  83
ENDBRANCH  44  45
ENDBRANCH  36  39
ENDBRANCH  34  35
ENDBRANCH  33  34
ENDBRANCH  32  33
ENDBRANCH   1  32
TORSDOF 16
ENDMDL
