MODEL 1
REMARK VINA RESULT:     -11.5      0.000      0.000
REMARK SMILES CCCn1ccnc1C[N@@H+]1C[C@@H](C(=O)NCCCCCCNC(=O)c2ccc(-c3c4nc(c(-c5ccccc5)c5ccc([nH]5)c(-c5ccccc5)c5nc(c(-c6ccccc6)c6ccc3[nH]6)C=C5)C=C4)cc2)[C@H](c2ccccc2)C1
REMARK SMILES IDX 17 1 16 2 15 3 13 4 14 5 12 7 10 8 11 9 80 10 73 12 9 13
REMARK SMILES IDX 8 14 4 15 5 16 6 17 7 18 3 19 2 20 1 21 74 22 75 23 79 24
REMARK SMILES IDX 76 25 78 26 77 27 18 28 19 29 20 30 21 31 22 32 23 33 24 35
REMARK SMILES IDX 25 36 26 37 72 38 27 39 71 40 28 41 29 42 30 43 65 44 31 45
REMARK SMILES IDX 70 46 64 47 66 48 32 49 69 50 63 51 62 52 33 54 55 55 40 56
REMARK SMILES IDX 54 57 41 58 44 59 53 60 67 61 42 62 43 63 52 65 68 66 45 67
REMARK SMILES IDX 34 68 35 69 39 70 36 71 38 72 37 73 56 74 57 75 61 76 58 77
REMARK SMILES IDX 60 78 59 79 46 80 47 81 51 82 48 83 50 84 49 85
REMARK H PARENT 15 6 10 11 22 34 66 53 44 64
REMARK Flexibility Score: inf
ROOT
ATOM      1  C   UNL A   1      38.551  21.674  25.649  1.00  0.00     0.021 C 
ENDROOT
BRANCH   1   2
ATOM      2  C   UNL A   1      37.195  22.371  25.477  1.00  0.00     0.116 C 
BRANCH   2   3
ATOM      3  N   UNL A   1      36.244  21.948  26.487  1.00  0.00    -0.356 N 
ATOM      4  C   UNL A   1      34.902  21.730  26.431  1.00  0.00     0.229 C 
ATOM      5  O   UNL A   1      34.350  21.402  27.485  1.00  0.00    -0.275 OA
ATOM      6  H   UNL A   1      36.641  21.791  27.374  1.00  0.00     0.163 HD
BRANCH   4   7
ATOM      7  C   UNL A   1      34.096  21.831  25.142  1.00  0.00     0.146 C 
ATOM      8  N   UNL A   1      32.180  23.038  24.294  1.00  0.00    -0.327 N 
ATOM      9  C   UNL A   1      33.438  23.202  25.034  1.00  0.00     0.277 C 
ATOM     10  C   UNL A   1      31.772  21.642  24.509  1.00  0.00     0.271 C 
ATOM     11  H   UNL A   1      31.458  23.669  24.641  1.00  0.00     0.348 HD
ATOM     12  C   UNL A   1      32.975  20.802  24.971  1.00  0.00     0.092 C 
BRANCH   8  13
ATOM     13  C   UNL A   1      32.276  23.444  22.874  1.00  0.00     0.339 C 
BRANCH  13  14
ATOM     14  C   UNL A   1      32.432  24.911  22.644  1.00  0.00     0.164 A 
ATOM     15  N   UNL A   1      31.453  25.865  22.855  1.00  0.00    -0.330 N 
ATOM     16  C   UNL A   1      31.937  27.041  22.329  1.00  0.00     0.107 A 
ATOM     17  C   UNL A   1      33.208  26.766  21.896  1.00  0.00     0.131 A 
ATOM     18  N   UNL A   1      33.515  25.458  22.124  1.00  0.00    -0.236 NA
BRANCH  15  19
ATOM     19  C   UNL A   1      30.245  25.788  23.665  1.00  0.00     0.123 C 
BRANCH  19  20
ATOM     20  C   UNL A   1      30.169  26.497  25.029  1.00  0.00     0.018 C 
ATOM     21  C   UNL A   1      31.306  26.173  25.993  1.00  0.00     0.006 C 
ENDBRANCH  19  20
ENDBRANCH  15  19
ENDBRANCH  13  14
ENDBRANCH   8  13
BRANCH  12  22
ATOM     22  C   UNL A   1      33.337  19.491  24.282  1.00  0.00    -0.038 A 
ATOM     23  C   UNL A   1      32.511  18.882  23.328  1.00  0.00     0.004 A 
ATOM     24  C   UNL A   1      34.453  18.758  24.724  1.00  0.00     0.004 A 
ATOM     25  C   UNL A   1      32.813  17.623  22.794  1.00  0.00     0.000 A 
ATOM     26  C   UNL A   1      34.743  17.490  24.213  1.00  0.00     0.000 A 
ATOM     27  C   UNL A   1      33.927  16.925  23.241  1.00  0.00     0.000 A 
ENDBRANCH  12  22
ENDBRANCH   4   7
ENDBRANCH   2   3
ENDBRANCH   1   2
BRANCH   1  28
ATOM     28  C   UNL A   1      39.533  22.424  26.546  1.00  0.00     0.002 C 
BRANCH  28  29
ATOM     29  C   UNL A   1      40.522  21.537  27.307  1.00  0.00     0.002 C 
BRANCH  29  30
ATOM     30  C   UNL A   1      41.043  20.309  26.546  1.00  0.00     0.021 C 
BRANCH  30  31
ATOM     31  C   UNL A   1      42.385  19.803  27.050  1.00  0.00     0.116 C 
BRANCH  31  32
ATOM     32  N   UNL A   1      43.352  19.660  25.969  1.00  0.00    -0.352 N 
ATOM     33  C   UNL A   1      43.908  20.640  25.174  1.00  0.00     0.251 C 
ATOM     34  H   UNL A   1      43.649  18.741  25.780  1.00  0.00     0.163 HD
ATOM     35  O   UNL A   1      44.411  20.362  24.095  1.00  0.00    -0.269 OA
BRANCH  33  36
ATOM     36  C   UNL A   1      43.884  22.035  25.646  1.00  0.00     0.039 A 
ATOM     37  C   UNL A   1      43.026  22.969  25.063  1.00  0.00     0.014 A 
ATOM     38  C   UNL A   1      44.733  22.399  26.690  1.00  0.00     0.014 A 
ATOM     39  C   UNL A   1      42.975  24.255  25.592  1.00  0.00     0.010 A 
ATOM     40  C   UNL A   1      44.583  23.620  27.298  1.00  0.00     0.010 A 
ATOM     41  C   UNL A   1      43.744  24.568  26.724  1.00  0.00    -0.014 A 
BRANCH  41  42
ATOM     42  C   UNL A   1      43.594  25.860  27.382  1.00  0.00     0.031 A 
ATOM     43  C   UNL A   1      44.643  26.858  27.043  1.00  0.00     0.074 A 
ATOM     44  C   UNL A   1      42.499  26.217  28.084  1.00  0.00     0.049 A 
ATOM     45  N   UNL A   1      45.553  27.333  27.825  1.00  0.00    -0.248 NA
ATOM     46  C   UNL A   1      44.770  27.293  25.643  1.00  0.00     0.031 C 
ATOM     47  C   UNL A   1      41.238  25.484  28.246  1.00  0.00     0.029 A 
ATOM     48  N   UNL A   1      42.243  27.394  28.716  1.00  0.00    -0.354 N 
ATOM     49  C   UNL A   1      46.262  28.265  27.075  1.00  0.00     0.074 A 
ATOM     50  C   UNL A   1      45.842  28.086  25.707  1.00  0.00     0.031 C 
ATOM     51  C   UNL A   1      40.285  26.322  28.713  1.00  0.00     0.029 A 
ATOM     52  C   UNL A   1      40.909  27.588  29.051  1.00  0.00     0.049 A 
ATOM     53  H   UNL A   1      42.945  28.053  28.920  1.00  0.00     0.167 HD
ATOM     54  C   UNL A   1      46.968  29.265  27.671  1.00  0.00     0.031 A 
ATOM     55  C   UNL A   1      40.355  28.721  29.545  1.00  0.00     0.031 A 
ATOM     56  C   UNL A   1      47.132  29.033  29.083  1.00  0.00     0.049 A 
ATOM     57  C   UNL A   1      41.451  29.534  30.118  1.00  0.00     0.074 A 
ATOM     58  C   UNL A   1      47.724  28.049  29.849  1.00  0.00     0.029 A 
ATOM     59  N   UNL A   1      46.277  29.706  29.924  1.00  0.00    -0.354 N 
ATOM     60  N   UNL A   1      42.123  29.186  31.176  1.00  0.00    -0.248 NA
ATOM     61  C   UNL A   1      42.094  30.521  29.265  1.00  0.00     0.031 C 
ATOM     62  C   UNL A   1      46.846  27.874  30.961  1.00  0.00     0.029 A 
ATOM     63  C   UNL A   1      45.813  28.808  30.848  1.00  0.00     0.049 A 
ATOM     64  H   UNL A   1      46.041  30.661  29.871  1.00  0.00     0.167 HD
ATOM     65  C   UNL A   1      43.433  29.545  30.892  1.00  0.00     0.074 A 
ATOM     66  C   UNL A   1      43.335  30.462  29.758  1.00  0.00     0.031 C 
ATOM     67  C   UNL A   1      44.482  28.845  31.416  1.00  0.00     0.031 A 
BRANCH  54  68
ATOM     68  C   UNL A   1      47.153  30.637  27.076  1.00  0.00    -0.014 A 
ATOM     69  C   UNL A   1      48.433  31.221  27.107  1.00  0.00     0.009 A 
ATOM     70  C   UNL A   1      46.077  31.487  26.757  1.00  0.00     0.009 A 
ATOM     71  C   UNL A   1      48.614  32.594  26.902  1.00  0.00     0.001 A 
ATOM     72  C   UNL A   1      46.259  32.851  26.512  1.00  0.00     0.001 A 
ATOM     73  C   UNL A   1      47.525  33.410  26.612  1.00  0.00     0.000 A 
ENDBRANCH  54  68
BRANCH  55  74
ATOM     74  C   UNL A   1      38.997  29.265  29.343  1.00  0.00    -0.014 A 
ATOM     75  C   UNL A   1      38.547  29.605  28.057  1.00  0.00     0.009 A 
ATOM     76  C   UNL A   1      38.041  29.183  30.373  1.00  0.00     0.009 A 
ATOM     77  C   UNL A   1      37.184  29.804  27.801  1.00  0.00     0.001 A 
ATOM     78  C   UNL A   1      36.680  29.384  30.117  1.00  0.00     0.001 A 
ATOM     79  C   UNL A   1      36.250  29.676  28.826  1.00  0.00     0.000 A 
ENDBRANCH  55  74
BRANCH  67  80
ATOM     80  C   UNL A   1      44.191  27.844  32.509  1.00  0.00    -0.014 A 
ATOM     81  C   UNL A   1      44.007  26.470  32.271  1.00  0.00     0.009 A 
ATOM     82  C   UNL A   1      44.252  28.284  33.839  1.00  0.00     0.009 A 
ATOM     83  C   UNL A   1      43.857  25.572  33.335  1.00  0.00     0.001 A 
ATOM     84  C   UNL A   1      44.125  27.386  34.900  1.00  0.00     0.001 A 
ATOM     85  C   UNL A   1      43.921  26.032  34.649  1.00  0.00     0.000 A 
ENDBRANCH  67  80
ENDBRANCH  41  42
ENDBRANCH  33  36
ENDBRANCH  31  32
ENDBRANCH  30  31
ENDBRANCH  29  30
ENDBRANCH  28  29
ENDBRANCH   1  28
TORSDOF 18
ENDMDL
MODEL 2
REMARK VINA RESULT:     -10.9      2.302      6.152
REMARK SMILES CCCn1ccnc1C[N@@H+]1C[C@@H](C(=O)NCCCCCCNC(=O)c2ccc(-c3c4nc(c(-c5ccccc5)c5ccc([nH]5)c(-c5ccccc5)c5nc(c(-c6ccccc6)c6ccc3[nH]6)C=C5)C=C4)cc2)[C@H](c2ccccc2)C1
REMARK SMILES IDX 17 1 16 2 15 3 13 4 14 5 12 7 10 8 11 9 80 10 73 12 9 13
REMARK SMILES IDX 8 14 4 15 5 16 6 17 7 18 3 19 2 20 1 21 74 22 75 23 79 24
REMARK SMILES IDX 76 25 78 26 77 27 18 28 19 29 20 30 21 31 22 32 23 33 24 35
REMARK SMILES IDX 25 36 26 37 72 38 27 39 71 40 28 41 29 42 30 43 65 44 31 45
REMARK SMILES IDX 70 46 64 47 66 48 32 49 69 50 63 51 62 52 33 54 55 55 40 56
REMARK SMILES IDX 54 57 41 58 44 59 53 60 67 61 42 62 43 63 52 65 68 66 45 67
REMARK SMILES IDX 34 68 35 69 39 70 36 71 38 72 37 73 56 74 57 75 61 76 58 77
REMARK SMILES IDX 60 78 59 79 46 80 47 81 51 82 48 83 50 84 49 85
REMARK H PARENT 15 6 10 11 22 34 66 53 44 64
REMARK Flexibility Score: inf
ROOT
ATOM      1  C   UNL A   1      37.628  23.700  25.797  1.00  0.00     0.021 C 
ENDROOT
BRANCH   1   2
ATOM      2  C   UNL A   1      36.243  23.707  25.137  1.00  0.00     0.116 C 
BRANCH   2   3
ATOM      3  N   UNL A   1      35.193  23.412  26.092  1.00  0.00    -0.356 N 
ATOM      4  C   UNL A   1      33.910  23.855  26.191  1.00  0.00     0.229 C 
ATOM      5  O   UNL A   1      33.255  23.442  27.153  1.00  0.00    -0.275 OA
ATOM      6  H   UNL A   1      35.456  22.778  26.798  1.00  0.00     0.163 HD
BRANCH   4   7
ATOM      7  C   UNL A   1      33.266  24.775  25.163  1.00  0.00     0.146 C 
ATOM      8  N   UNL A   1      33.338  25.155  22.775  1.00  0.00    -0.327 N 
ATOM      9  C   UNL A   1      33.236  24.102  23.795  1.00  0.00     0.277 C 
ATOM     10  C   UNL A   1      34.032  26.274  23.428  1.00  0.00     0.271 C 
ATOM     11  H   UNL A   1      33.872  24.838  21.966  1.00  0.00     0.348 HD
ATOM     12  C   UNL A   1      33.947  26.131  24.958  1.00  0.00     0.092 C 
BRANCH   8  13
ATOM     13  C   UNL A   1      32.039  25.505  22.159  1.00  0.00     0.339 C 
BRANCH  13  14
ATOM     14  C   UNL A   1      31.416  26.763  22.669  1.00  0.00     0.164 A 
ATOM     15  N   UNL A   1      30.264  26.837  23.430  1.00  0.00    -0.330 N 
ATOM     16  C   UNL A   1      29.931  28.170  23.505  1.00  0.00     0.107 A 
ATOM     17  C   UNL A   1      30.932  28.845  22.853  1.00  0.00     0.131 A 
ATOM     18  N   UNL A   1      31.858  27.971  22.370  1.00  0.00    -0.236 NA
BRANCH  15  19
ATOM     19  C   UNL A   1      29.612  25.805  24.225  1.00  0.00     0.123 C 
BRANCH  19  20
ATOM     20  C   UNL A   1      29.796  25.758  25.753  1.00  0.00     0.018 C 
ATOM     21  C   UNL A   1      29.934  24.359  26.346  1.00  0.00     0.006 C 
ENDBRANCH  19  20
ENDBRANCH  15  19
ENDBRANCH  13  14
ENDBRANCH   8  13
BRANCH  12  22
ATOM     22  C   UNL A   1      33.472  27.284  25.835  1.00  0.00    -0.038 A 
ATOM     23  C   UNL A   1      32.559  27.112  26.885  1.00  0.00     0.004 A 
ATOM     24  C   UNL A   1      33.815  28.605  25.495  1.00  0.00     0.004 A 
ATOM     25  C   UNL A   1      32.053  28.203  27.602  1.00  0.00     0.000 A 
ATOM     26  C   UNL A   1      33.291  29.698  26.191  1.00  0.00     0.000 A 
ATOM     27  C   UNL A   1      32.416  29.497  27.252  1.00  0.00     0.000 A 
ENDBRANCH  12  22
ENDBRANCH   4   7
ENDBRANCH   2   3
ENDBRANCH   1   2
BRANCH   1  28
ATOM     28  C   UNL A   1      38.292  22.326  25.851  1.00  0.00     0.002 C 
BRANCH  28  29
ATOM     29  C   UNL A   1      37.706  21.286  24.893  1.00  0.00     0.002 C 
BRANCH  29  30
ATOM     30  C   UNL A   1      38.379  19.906  24.910  1.00  0.00     0.021 C 
BRANCH  30  31
ATOM     31  C   UNL A   1      39.272  19.677  26.118  1.00  0.00     0.116 C 
BRANCH  31  32
ATOM     32  N   UNL A   1      40.522  19.019  25.754  1.00  0.00    -0.352 N 
ATOM     33  C   UNL A   1      41.788  19.557  25.673  1.00  0.00     0.251 C 
ATOM     34  H   UNL A   1      40.452  18.061  25.536  1.00  0.00     0.163 HD
ATOM     35  O   UNL A   1      42.663  19.007  25.021  1.00  0.00    -0.269 OA
BRANCH  33  36
ATOM     36  C   UNL A   1      42.072  20.814  26.387  1.00  0.00     0.039 A 
ATOM     37  C   UNL A   1      42.397  21.974  25.682  1.00  0.00     0.014 A 
ATOM     38  C   UNL A   1      42.003  20.820  27.779  1.00  0.00     0.014 A 
ATOM     39  C   UNL A   1      42.578  23.160  26.388  1.00  0.00     0.010 A 
ATOM     40  C   UNL A   1      42.043  22.010  28.460  1.00  0.00     0.010 A 
ATOM     41  C   UNL A   1      42.380  23.173  27.778  1.00  0.00    -0.014 A 
BRANCH  41  42
ATOM     42  C   UNL A   1      42.418  24.430  28.515  1.00  0.00     0.031 A 
ATOM     43  C   UNL A   1      41.312  25.372  28.202  1.00  0.00     0.074 A 
ATOM     44  C   UNL A   1      43.258  24.665  29.545  1.00  0.00     0.049 A 
ATOM     45  N   UNL A   1      41.399  26.510  27.602  1.00  0.00    -0.248 NA
ATOM     46  C   UNL A   1      39.930  24.949  28.485  1.00  0.00     0.031 C 
ATOM     47  C   UNL A   1      44.188  23.735  30.197  1.00  0.00     0.029 A 
ATOM     48  N   UNL A   1      43.366  25.783  30.314  1.00  0.00    -0.354 N 
ATOM     49  C   UNL A   1      40.113  27.041  27.586  1.00  0.00     0.074 A 
ATOM     50  C   UNL A   1      39.232  25.977  27.998  1.00  0.00     0.031 C 
ATOM     51  C   UNL A   1      44.573  24.244  31.389  1.00  0.00     0.029 A 
ATOM     52  C   UNL A   1      44.066  25.599  31.499  1.00  0.00     0.049 A 
ATOM     53  H   UNL A   1      42.980  26.649  30.051  1.00  0.00     0.167 HD
ATOM     54  C   UNL A   1      39.901  28.380  27.456  1.00  0.00     0.031 A 
ATOM     55  C   UNL A   1      44.195  26.491  32.510  1.00  0.00     0.031 A 
ATOM     56  C   UNL A   1      41.093  29.071  27.036  1.00  0.00     0.049 A 
ATOM     57  C   UNL A   1      43.895  27.831  31.956  1.00  0.00     0.074 A 
ATOM     58  C   UNL A   1      41.917  29.012  25.930  1.00  0.00     0.029 A 
ATOM     59  N   UNL A   1      41.818  29.707  28.016  1.00  0.00    -0.354 N 
ATOM     60  N   UNL A   1      44.653  28.433  31.087  1.00  0.00    -0.248 NA
ATOM     61  C   UNL A   1      42.527  28.317  32.036  1.00  0.00     0.031 C 
ATOM     62  C   UNL A   1      43.236  29.173  26.448  1.00  0.00     0.029 A 
ATOM     63  C   UNL A   1      43.137  29.393  27.825  1.00  0.00     0.049 A 
ATOM     64  H   UNL A   1      41.454  30.284  28.727  1.00  0.00     0.167 HD
ATOM     65  C   UNL A   1      43.766  29.039  30.209  1.00  0.00     0.074 A 
ATOM     66  C   UNL A   1      42.482  29.031  30.907  1.00  0.00     0.031 C 
ATOM     67  C   UNL A   1      44.095  29.228  28.897  1.00  0.00     0.031 A 
BRANCH  54  68
ATOM     68  C   UNL A   1      38.754  29.118  28.097  1.00  0.00    -0.014 A 
ATOM     69  C   UNL A   1      38.559  28.989  29.485  1.00  0.00     0.009 A 
ATOM     70  C   UNL A   1      37.699  29.688  27.360  1.00  0.00     0.009 A 
ATOM     71  C   UNL A   1      37.346  29.344  30.087  1.00  0.00     0.001 A 
ATOM     72  C   UNL A   1      36.502  30.081  27.964  1.00  0.00     0.001 A 
ATOM     73  C   UNL A   1      36.315  29.883  29.324  1.00  0.00     0.000 A 
ENDBRANCH  54  68
BRANCH  55  74
ATOM     74  C   UNL A   1      44.314  26.251  33.963  1.00  0.00    -0.014 A 
ATOM     75  C   UNL A   1      43.170  26.045  34.749  1.00  0.00     0.009 A 
ATOM     76  C   UNL A   1      45.565  25.939  34.527  1.00  0.00     0.009 A 
ATOM     77  C   UNL A   1      43.270  25.498  36.035  1.00  0.00     0.001 A 
ATOM     78  C   UNL A   1      45.664  25.395  35.812  1.00  0.00     0.001 A 
ATOM     79  C   UNL A   1      44.514  25.157  36.559  1.00  0.00     0.000 A 
ENDBRANCH  55  74
BRANCH  67  80
ATOM     80  C   UNL A   1      45.530  29.001  28.487  1.00  0.00    -0.014 A 
ATOM     81  C   UNL A   1      46.501  30.018  28.470  1.00  0.00     0.009 A 
ATOM     82  C   UNL A   1      45.946  27.683  28.251  1.00  0.00     0.009 A 
ATOM     83  C   UNL A   1      47.842  29.724  28.194  1.00  0.00     0.001 A 
ATOM     84  C   UNL A   1      47.287  27.386  27.999  1.00  0.00     0.001 A 
ATOM     85  C   UNL A   1      48.234  28.407  27.963  1.00  0.00     0.000 A 
ENDBRANCH  67  80
ENDBRANCH  41  42
ENDBRANCH  33  36
ENDBRANCH  31  32
ENDBRANCH  30  31
ENDBRANCH  29  30
ENDBRANCH  28  29
ENDBRANCH   1  28
TORSDOF 18
ENDMDL
MODEL 3
REMARK VINA RESULT:     -10.9      2.244      6.097
REMARK SMILES CCCn1ccnc1C[N@@H+]1C[C@@H](C(=O)NCCCCCCNC(=O)c2ccc(-c3c4nc(c(-c5ccccc5)c5ccc([nH]5)c(-c5ccccc5)c5nc(c(-c6ccccc6)c6ccc3[nH]6)C=C5)C=C4)cc2)[C@H](c2ccccc2)C1
REMARK SMILES IDX 17 1 16 2 15 3 13 4 14 5 12 7 10 8 11 9 80 10 73 12 9 13
REMARK SMILES IDX 8 14 4 15 5 16 6 17 7 18 3 19 2 20 1 21 74 22 75 23 79 24
REMARK SMILES IDX 76 25 78 26 77 27 18 28 19 29 20 30 21 31 22 32 23 33 24 35
REMARK SMILES IDX 25 36 26 37 72 38 27 39 71 40 28 41 29 42 30 43 65 44 31 45
REMARK SMILES IDX 70 46 64 47 66 48 32 49 69 50 63 51 62 52 33 54 55 55 40 56
REMARK SMILES IDX 54 57 41 58 44 59 53 60 67 61 42 62 43 63 52 65 68 66 45 67
REMARK SMILES IDX 34 68 35 69 39 70 36 71 38 72 37 73 56 74 57 75 61 76 58 77
REMARK SMILES IDX 60 78 59 79 46 80 47 81 51 82 48 83 50 84 49 85
REMARK H PARENT 15 6 10 11 22 34 66 53 44 64
REMARK Flexibility Score: inf
ROOT
ATOM      1  C   UNL A   1      37.470  23.069  26.532  1.00  0.00     0.021 C 
ENDROOT
BRANCH   1   2
ATOM      2  C   UNL A   1      36.421  23.839  25.720  1.00  0.00     0.116 C 
BRANCH   2   3
ATOM      3  N   UNL A   1      36.501  23.525  24.307  1.00  0.00    -0.356 N 
ATOM      4  C   UNL A   1      35.550  23.474  23.336  1.00  0.00     0.229 C 
ATOM      5  O   UNL A   1      35.926  23.137  22.209  1.00  0.00    -0.275 OA
ATOM      6  H   UNL A   1      37.409  23.308  23.992  1.00  0.00     0.163 HD
BRANCH   4   7
ATOM      7  C   UNL A   1      34.094  23.852  23.577  1.00  0.00     0.146 C 
ATOM      8  N   UNL A   1      31.940  23.528  22.526  1.00  0.00    -0.327 N 
ATOM      9  C   UNL A   1      33.166  22.828  22.932  1.00  0.00     0.277 C 
ATOM     10  C   UNL A   1      32.332  24.931  22.324  1.00  0.00     0.271 C 
ATOM     11  H   UNL A   1      31.561  23.144  21.661  1.00  0.00     0.348 HD
ATOM     12  C   UNL A   1      33.660  25.220  23.043  1.00  0.00     0.092 C 
BRANCH   8  13
ATOM     13  C   UNL A   1      30.812  23.329  23.463  1.00  0.00     0.339 C 
BRANCH  13  14
ATOM     14  C   UNL A   1      31.191  23.267  24.906  1.00  0.00     0.164 A 
ATOM     15  N   UNL A   1      30.978  24.269  25.836  1.00  0.00    -0.330 N 
ATOM     16  C   UNL A   1      31.654  23.894  26.974  1.00  0.00     0.107 A 
ATOM     17  C   UNL A   1      32.180  22.655  26.709  1.00  0.00     0.131 A 
ATOM     18  N   UNL A   1      31.862  22.265  25.444  1.00  0.00    -0.236 NA
BRANCH  15  19
ATOM     19  C   UNL A   1      30.052  25.392  25.790  1.00  0.00     0.123 C 
BRANCH  19  20
ATOM     20  C   UNL A   1      30.323  26.595  24.868  1.00  0.00     0.018 C 
ATOM     21  C   UNL A   1      29.319  26.784  23.735  1.00  0.00     0.006 C 
ENDBRANCH  19  20
ENDBRANCH  15  19
ENDBRANCH  13  14
ENDBRANCH   8  13
BRANCH  12  22
ATOM     22  C   UNL A   1      33.807  26.409  23.986  1.00  0.00    -0.038 A 
ATOM     23  C   UNL A   1      33.857  26.271  25.380  1.00  0.00     0.004 A 
ATOM     24  C   UNL A   1      33.721  27.717  23.476  1.00  0.00     0.004 A 
ATOM     25  C   UNL A   1      33.877  27.385  26.227  1.00  0.00     0.000 A 
ATOM     26  C   UNL A   1      33.714  28.832  24.319  1.00  0.00     0.000 A 
ATOM     27  C   UNL A   1      33.802  28.667  25.696  1.00  0.00     0.000 A 
ENDBRANCH  12  22
ENDBRANCH   4   7
ENDBRANCH   2   3
ENDBRANCH   1   2
BRANCH   1  28
ATOM     28  C   UNL A   1      38.386  22.181  25.692  1.00  0.00     0.002 C 
BRANCH  28  29
ATOM     29  C   UNL A   1      37.742  20.893  25.173  1.00  0.00     0.002 C 
BRANCH  29  30
ATOM     30  C   UNL A   1      38.663  19.666  25.101  1.00  0.00     0.021 C 
BRANCH  30  31
ATOM     31  C   UNL A   1      39.674  19.593  26.233  1.00  0.00     0.116 C 
BRANCH  31  32
ATOM     32  N   UNL A   1      40.948  19.039  25.790  1.00  0.00    -0.352 N 
ATOM     33  C   UNL A   1      42.162  19.675  25.650  1.00  0.00     0.251 C 
ATOM     34  H   UNL A   1      40.939  18.082  25.559  1.00  0.00     0.163 HD
ATOM     35  O   UNL A   1      43.040  19.203  24.942  1.00  0.00    -0.269 OA
BRANCH  33  36
ATOM     36  C   UNL A   1      42.388  20.940  26.370  1.00  0.00     0.039 A 
ATOM     37  C   UNL A   1      42.615  22.126  25.669  1.00  0.00     0.014 A 
ATOM     38  C   UNL A   1      42.365  20.927  27.763  1.00  0.00     0.014 A 
ATOM     39  C   UNL A   1      42.743  23.313  26.384  1.00  0.00     0.010 A 
ATOM     40  C   UNL A   1      42.351  22.110  28.458  1.00  0.00     0.010 A 
ATOM     41  C   UNL A   1      42.590  23.300  27.780  1.00  0.00    -0.014 A 
BRANCH  41  42
ATOM     42  C   UNL A   1      42.572  24.549  28.531  1.00  0.00     0.031 A 
ATOM     43  C   UNL A   1      41.442  25.459  28.203  1.00  0.00     0.074 A 
ATOM     44  C   UNL A   1      43.380  24.799  29.582  1.00  0.00     0.049 A 
ATOM     45  N   UNL A   1      41.506  26.606  27.617  1.00  0.00    -0.248 NA
ATOM     46  C   UNL A   1      40.069  24.988  28.451  1.00  0.00     0.031 C 
ATOM     47  C   UNL A   1      44.325  23.892  30.244  1.00  0.00     0.029 A 
ATOM     48  N   UNL A   1      43.436  25.911  30.364  1.00  0.00    -0.354 N 
ATOM     49  C   UNL A   1      40.205  27.096  27.578  1.00  0.00     0.074 A 
ATOM     50  C   UNL A   1      39.349  25.999  27.959  1.00  0.00     0.031 C 
ATOM     51  C   UNL A   1      44.668  24.399  31.450  1.00  0.00     0.029 A 
ATOM     52  C   UNL A   1      44.115  25.737  31.562  1.00  0.00     0.049 A 
ATOM     53  H   UNL A   1      43.029  26.768  30.101  1.00  0.00     0.167 HD
ATOM     54  C   UNL A   1      39.953  28.428  27.457  1.00  0.00     0.031 A 
ATOM     55  C   UNL A   1      44.193  26.621  32.585  1.00  0.00     0.031 A 
ATOM     56  C   UNL A   1      41.131  29.161  27.071  1.00  0.00     0.049 A 
ATOM     57  C   UNL A   1      43.862  27.957  32.039  1.00  0.00     0.074 A 
ATOM     58  C   UNL A   1      41.980  29.141  25.983  1.00  0.00     0.029 A 
ATOM     59  N   UNL A   1      41.813  29.809  28.073  1.00  0.00    -0.354 N 
ATOM     60  N   UNL A   1      44.620  28.592  31.193  1.00  0.00    -0.248 NA
ATOM     61  C   UNL A   1      42.478  28.398  32.093  1.00  0.00     0.031 C 
ATOM     62  C   UNL A   1      43.282  29.339  26.532  1.00  0.00     0.029 A 
ATOM     63  C   UNL A   1      43.146  29.540  27.908  1.00  0.00     0.049 A 
ATOM     64  H   UNL A   1      41.415  30.366  28.782  1.00  0.00     0.167 HD
ATOM     65  C   UNL A   1      43.733  29.179  30.302  1.00  0.00     0.074 A 
ATOM     66  C   UNL A   1      42.435  29.123  30.971  1.00  0.00     0.031 C 
ATOM     67  C   UNL A   1      44.084  29.394  29.000  1.00  0.00     0.031 A 
BRANCH  54  68
ATOM     68  C   UNL A   1      38.768  29.121  28.080  1.00  0.00    -0.014 A 
ATOM     69  C   UNL A   1      38.586  29.027  29.472  1.00  0.00     0.009 A 
ATOM     70  C   UNL A   1      37.682  29.609  27.330  1.00  0.00     0.009 A 
ATOM     71  C   UNL A   1      37.357  29.333  30.069  1.00  0.00     0.001 A 
ATOM     72  C   UNL A   1      36.467  29.955  27.928  1.00  0.00     0.001 A 
ATOM     73  C   UNL A   1      36.295  29.790  29.295  1.00  0.00     0.000 A 
ENDBRANCH  54  68
BRANCH  55  74
ATOM     74  C   UNL A   1      44.288  26.369  34.037  1.00  0.00    -0.014 A 
ATOM     75  C   UNL A   1      43.256  25.703  34.716  1.00  0.00     0.009 A 
ATOM     76  C   UNL A   1      45.518  26.526  34.703  1.00  0.00     0.009 A 
ATOM     77  C   UNL A   1      43.463  25.169  35.995  1.00  0.00     0.001 A 
ATOM     78  C   UNL A   1      45.724  25.994  35.981  1.00  0.00     0.001 A 
ATOM     79  C   UNL A   1      44.701  25.299  36.619  1.00  0.00     0.000 A 
ENDBRANCH  55  74
BRANCH  67  80
ATOM     80  C   UNL A   1      45.535  29.217  28.619  1.00  0.00    -0.014 A 
ATOM     81  C   UNL A   1      46.103  27.974  28.289  1.00  0.00     0.009 A 
ATOM     82  C   UNL A   1      46.315  30.370  28.446  1.00  0.00     0.009 A 
ATOM     83  C   UNL A   1      47.423  27.888  27.830  1.00  0.00     0.001 A 
ATOM     84  C   UNL A   1      47.623  30.287  27.966  1.00  0.00     0.001 A 
ATOM     85  C   UNL A   1      48.180  29.046  27.665  1.00  0.00     0.000 A 
ENDBRANCH  67  80
ENDBRANCH  41  42
ENDBRANCH  33  36
ENDBRANCH  31  32
ENDBRANCH  30  31
ENDBRANCH  29  30
ENDBRANCH  28  29
ENDBRANCH   1  28
TORSDOF 18
ENDMDL
