MODEL 1
REMARK VINA RESULT:     -10.6      0.000      0.000
REMARK SMILES CC[C@@H](C(=O)NCCCCCCNC(=O)c1ccc(-c2c3nc(c(-c4ccccc4)c4ccc([nH]4)c(-c4ccccc4)c4nc(c(-c5ccccc5)c5ccc2[nH]5)C=C4)C=C3)cc1)[N@@H+]1CCc2ccc(N)cc2C1
REMARK SMILES IDX 9 1 8 2 7 3 6 4 4 5 5 6 3 8 2 9 1 10 64 11 65 12 74 13 66 15
REMARK SMILES IDX 73 16 67 17 72 18 68 19 70 20 69 21 71 22 10 25 11 26 12 27
REMARK SMILES IDX 13 28 14 29 15 31 16 32 17 33 63 34 18 35 62 36 19 37 20 38
REMARK SMILES IDX 21 39 56 40 22 41 61 42 55 43 57 44 23 45 60 46 54 47 53 48
REMARK SMILES IDX 24 50 46 51 31 52 45 53 32 54 35 55 44 56 58 57 33 58 34 59
REMARK SMILES IDX 43 61 59 62 36 63 25 64 26 65 30 66 27 67 29 68 28 69 47 70
REMARK SMILES IDX 48 71 52 72 49 73 51 74 50 75 37 76 38 77 42 78 39 79 41 80
REMARK SMILES IDX 40 81
REMARK H PARENT 6 7 64 14 71 23 71 24 13 30 57 49 35 60
REMARK Flexibility Score: inf
ROOT
ATOM      1  C   UNL A   1      33.919  21.791  24.045  1.00  0.00     0.002 C 
ENDROOT
BRANCH   1   2
ATOM      2  C   UNL A   1      32.946  22.499  23.095  1.00  0.00     0.021 C 
BRANCH   2   3
ATOM      3  C   UNL A   1      33.560  23.619  22.257  1.00  0.00     0.116 C 
BRANCH   3   4
ATOM      4  N   UNL A   1      32.547  24.488  21.689  1.00  0.00    -0.351 N 
ATOM      5  C   UNL A   1      32.563  25.845  21.932  1.00  0.00     0.278 C 
ATOM      6  O   UNL A   1      33.220  26.558  21.171  1.00  0.00    -0.268 OA
ATOM      7  H   UNL A   1      31.840  24.104  21.123  1.00  0.00     0.163 HD
BRANCH   5   8
ATOM      8  C   UNL A   1      31.548  26.441  22.969  1.00  0.00     0.274 C 
BRANCH   8   9
ATOM      9  C   UNL A   1      30.494  27.428  22.414  1.00  0.00     0.072 C 
ATOM     10  C   UNL A   1      30.831  28.910  22.506  1.00  0.00     0.011 C 
ENDBRANCH   8   9
BRANCH   8  11
ATOM     11  N   UNL A   1      32.262  26.858  24.231  1.00  0.00    -0.321 N 
ATOM     12  C   UNL A   1      33.649  26.354  24.417  1.00  0.00     0.267 C 
ATOM     13  C   UNL A   1      31.486  26.754  25.473  1.00  0.00     0.300 C 
ATOM     14  H   UNL A   1      32.361  27.854  24.036  1.00  0.00     0.349 HD
ATOM     15  C   UNL A   1      33.977  25.704  25.796  1.00  0.00     0.097 C 
ATOM     16  C   UNL A   1      31.544  25.356  26.022  1.00  0.00     0.012 A 
ATOM     17  C   UNL A   1      32.827  24.825  26.223  1.00  0.00    -0.033 A 
ATOM     18  C   UNL A   1      30.413  24.576  26.258  1.00  0.00     0.035 A 
ATOM     19  C   UNL A   1      32.968  23.547  26.753  1.00  0.00     0.006 A 
ATOM     20  C   UNL A   1      30.549  23.250  26.662  1.00  0.00     0.032 A 
ATOM     21  C   UNL A   1      31.826  22.768  26.972  1.00  0.00     0.026 A 
BRANCH  20  22
ATOM     22  N   UNL A   1      29.427  22.461  26.862  1.00  0.00    -0.399 N 
ATOM     23  H   UNL A   1      29.430  21.770  27.563  1.00  0.00     0.156 HD
ATOM     24  H   UNL A   1      28.626  22.592  26.303  1.00  0.00     0.156 HD
ENDBRANCH  20  22
ENDBRANCH   8  11
ENDBRANCH   5   8
ENDBRANCH   3   4
ENDBRANCH   2   3
ENDBRANCH   1   2
BRANCH   1  25
ATOM     25  C   UNL A   1      35.377  22.256  23.993  1.00  0.00     0.002 C 
BRANCH  25  26
ATOM     26  C   UNL A   1      36.023  22.581  25.340  1.00  0.00     0.021 C 
BRANCH  26  27
ATOM     27  C   UNL A   1      37.311  23.391  25.273  1.00  0.00     0.116 C 
BRANCH  27  28
ATOM     28  N   UNL A   1      38.508  22.589  25.474  1.00  0.00    -0.352 N 
ATOM     29  C   UNL A   1      39.674  22.929  26.116  1.00  0.00     0.251 C 
ATOM     30  H   UNL A   1      38.479  21.680  25.097  1.00  0.00     0.163 HD
ATOM     31  O   UNL A   1      40.638  22.170  26.116  1.00  0.00    -0.269 OA
BRANCH  29  32
ATOM     32  C   UNL A   1      39.767  24.244  26.778  1.00  0.00     0.039 A 
ATOM     33  C   UNL A   1      39.247  24.389  28.065  1.00  0.00     0.014 A 
ATOM     34  C   UNL A   1      40.430  25.303  26.153  1.00  0.00     0.014 A 
ATOM     35  C   UNL A   1      39.458  25.581  28.757  1.00  0.00     0.010 A 
ATOM     36  C   UNL A   1      40.708  26.458  26.873  1.00  0.00     0.010 A 
ATOM     37  C   UNL A   1      40.225  26.609  28.182  1.00  0.00    -0.014 A 
BRANCH  37  38
ATOM     38  C   UNL A   1      40.527  27.846  28.943  1.00  0.00     0.031 A 
ATOM     39  C   UNL A   1      41.849  27.998  29.641  1.00  0.00     0.074 A 
ATOM     40  C   UNL A   1      39.592  28.809  29.045  1.00  0.00     0.049 A 
ATOM     41  N   UNL A   1      42.300  29.008  30.341  1.00  0.00    -0.248 NA
ATOM     42  C   UNL A   1      42.774  26.856  29.571  1.00  0.00     0.031 C 
ATOM     43  C   UNL A   1      38.245  28.749  28.471  1.00  0.00     0.029 A 
ATOM     44  N   UNL A   1      39.632  30.031  29.668  1.00  0.00    -0.354 N 
ATOM     45  C   UNL A   1      43.548  28.615  30.806  1.00  0.00     0.074 A 
ATOM     46  C   UNL A   1      43.759  27.256  30.359  1.00  0.00     0.031 C 
ATOM     47  C   UNL A   1      37.603  29.899  28.735  1.00  0.00     0.029 A 
ATOM     48  C   UNL A   1      38.481  30.765  29.515  1.00  0.00     0.049 A 
ATOM     49  H   UNL A   1      40.412  30.351  30.175  1.00  0.00     0.167 HD
ATOM     50  C   UNL A   1      44.452  29.329  31.517  1.00  0.00     0.031 A 
ATOM     51  C   UNL A   1      38.172  32.002  29.947  1.00  0.00     0.031 A 
ATOM     52  C   UNL A   1      44.247  30.685  31.947  1.00  0.00     0.049 A 
ATOM     53  C   UNL A   1      39.202  32.788  30.708  1.00  0.00     0.074 A 
ATOM     54  C   UNL A   1      45.125  31.524  32.612  1.00  0.00     0.029 A 
ATOM     55  N   UNL A   1      43.077  31.403  31.754  1.00  0.00    -0.354 N 
ATOM     56  N   UNL A   1      40.416  32.437  31.059  1.00  0.00    -0.248 NA
ATOM     57  C   UNL A   1      38.826  34.149  31.114  1.00  0.00     0.031 C 
ATOM     58  C   UNL A   1      44.468  32.734  32.861  1.00  0.00     0.029 A 
ATOM     59  C   UNL A   1      43.201  32.666  32.305  1.00  0.00     0.049 A 
ATOM     60  H   UNL A   1      42.276  31.064  31.292  1.00  0.00     0.167 HD
ATOM     61  C   UNL A   1      40.956  33.538  31.708  1.00  0.00     0.074 A 
ATOM     62  C   UNL A   1      39.945  34.577  31.681  1.00  0.00     0.031 C 
ATOM     63  C   UNL A   1      42.178  33.680  32.278  1.00  0.00     0.031 A 
BRANCH  50  64
ATOM     64  C   UNL A   1      45.742  28.644  31.874  1.00  0.00    -0.014 A 
ATOM     65  C   UNL A   1      46.864  28.719  31.032  1.00  0.00     0.009 A 
ATOM     66  C   UNL A   1      45.842  27.920  33.072  1.00  0.00     0.009 A 
ATOM     67  C   UNL A   1      48.043  28.047  31.359  1.00  0.00     0.001 A 
ATOM     68  C   UNL A   1      47.032  27.274  33.411  1.00  0.00     0.001 A 
ATOM     69  C   UNL A   1      48.127  27.328  32.549  1.00  0.00     0.000 A 
ENDBRANCH  50  64
BRANCH  51  70
ATOM     70  C   UNL A   1      36.844  32.590  29.631  1.00  0.00    -0.014 A 
ATOM     71  C   UNL A   1      35.786  32.488  30.548  1.00  0.00     0.009 A 
ATOM     72  C   UNL A   1      36.626  33.256  28.416  1.00  0.00     0.009 A 
ATOM     73  C   UNL A   1      34.530  33.020  30.243  1.00  0.00     0.001 A 
ATOM     74  C   UNL A   1      35.378  33.811  28.125  1.00  0.00     0.001 A 
ATOM     75  C   UNL A   1      34.328  33.686  29.035  1.00  0.00     0.000 A 
ENDBRANCH  51  70
BRANCH  63  76
ATOM     76  C   UNL A   1      42.488  35.012  32.900  1.00  0.00    -0.014 A 
ATOM     77  C   UNL A   1      43.237  35.979  32.213  1.00  0.00     0.009 A 
ATOM     78  C   UNL A   1      42.001  35.310  34.182  1.00  0.00     0.009 A 
ATOM     79  C   UNL A   1      43.527  37.205  32.814  1.00  0.00     0.001 A 
ATOM     80  C   UNL A   1      42.267  36.548  34.768  1.00  0.00     0.001 A 
ATOM     81  C   UNL A   1      43.039  37.490  34.089  1.00  0.00     0.000 A 
ENDBRANCH  63  76
ENDBRANCH  37  38
ENDBRANCH  29  32
ENDBRANCH  27  28
ENDBRANCH  26  27
ENDBRANCH  25  26
ENDBRANCH   1  25
TORSDOF 16
ENDMDL
MODEL 2
REMARK VINA RESULT:     -10.5      0.405      6.003
REMARK SMILES CC[C@@H](C(=O)NCCCCCCNC(=O)c1ccc(-c2c3nc(c(-c4ccccc4)c4ccc([nH]4)c(-c4ccccc4)c4nc(c(-c5ccccc5)c5ccc2[nH]5)C=C4)C=C3)cc1)[N@@H+]1CCc2ccc(N)cc2C1
REMARK SMILES IDX 9 1 8 2 7 3 6 4 4 5 5 6 3 8 2 9 1 10 64 11 65 12 74 13 66 15
REMARK SMILES IDX 73 16 67 17 72 18 68 19 70 20 69 21 71 22 10 25 11 26 12 27
REMARK SMILES IDX 13 28 14 29 15 31 16 32 17 33 63 34 18 35 62 36 19 37 20 38
REMARK SMILES IDX 21 39 56 40 22 41 61 42 55 43 57 44 23 45 60 46 54 47 53 48
REMARK SMILES IDX 24 50 46 51 31 52 45 53 32 54 35 55 44 56 58 57 33 58 34 59
REMARK SMILES IDX 43 61 59 62 36 63 25 64 26 65 30 66 27 67 29 68 28 69 47 70
REMARK SMILES IDX 48 71 52 72 49 73 51 74 50 75 37 76 38 77 42 78 39 79 41 80
REMARK SMILES IDX 40 81
REMARK H PARENT 6 7 64 14 71 23 71 24 13 30 57 49 35 60
REMARK Flexibility Score: inf
ROOT
ATOM      1  C   UNL A   1      33.957  21.812  24.058  1.00  0.00     0.002 C 
ENDROOT
BRANCH   1   2
ATOM      2  C   UNL A   1      32.996  22.499  23.082  1.00  0.00     0.021 C 
BRANCH   2   3
ATOM      3  C   UNL A   1      33.607  23.634  22.263  1.00  0.00     0.116 C 
BRANCH   3   4
ATOM      4  N   UNL A   1      32.591  24.493  21.685  1.00  0.00    -0.351 N 
ATOM      5  C   UNL A   1      32.595  25.851  21.925  1.00  0.00     0.278 C 
ATOM      6  O   UNL A   1      33.251  26.568  21.167  1.00  0.00    -0.268 OA
ATOM      7  H   UNL A   1      31.891  24.102  21.116  1.00  0.00     0.163 HD
BRANCH   5   8
ATOM      8  C   UNL A   1      31.568  26.442  22.954  1.00  0.00     0.274 C 
BRANCH   8   9
ATOM      9  C   UNL A   1      30.509  27.418  22.389  1.00  0.00     0.072 C 
ATOM     10  C   UNL A   1      30.837  28.903  22.469  1.00  0.00     0.011 C 
ENDBRANCH   8   9
BRANCH   8  11
ATOM     11  N   UNL A   1      32.270  26.869  24.219  1.00  0.00    -0.321 N 
ATOM     12  C   UNL A   1      33.658  26.373  24.418  1.00  0.00     0.267 C 
ATOM     13  C   UNL A   1      31.485  26.768  25.455  1.00  0.00     0.300 C 
ATOM     14  H   UNL A   1      32.366  27.864  24.019  1.00  0.00     0.349 HD
ATOM     15  C   UNL A   1      33.979  25.732  25.802  1.00  0.00     0.097 C 
ATOM     16  C   UNL A   1      31.546  25.374  26.012  1.00  0.00     0.012 A 
ATOM     17  C   UNL A   1      32.830  24.850  26.226  1.00  0.00    -0.033 A 
ATOM     18  C   UNL A   1      30.418  24.589  26.244  1.00  0.00     0.035 A 
ATOM     19  C   UNL A   1      32.973  23.576  26.764  1.00  0.00     0.006 A 
ATOM     20  C   UNL A   1      30.558  23.265  26.656  1.00  0.00     0.032 A 
ATOM     21  C   UNL A   1      31.834  22.792  26.979  1.00  0.00     0.026 A 
BRANCH  20  22
ATOM     22  N   UNL A   1      29.437  22.472  26.853  1.00  0.00    -0.399 N 
ATOM     23  H   UNL A   1      29.500  21.661  27.407  1.00  0.00     0.156 HD
ATOM     24  H   UNL A   1      28.579  22.721  26.438  1.00  0.00     0.156 HD
ENDBRANCH  20  22
ENDBRANCH   8  11
ENDBRANCH   5   8
ENDBRANCH   3   4
ENDBRANCH   2   3
ENDBRANCH   1   2
BRANCH   1  25
ATOM     25  C   UNL A   1      35.409  22.298  24.035  1.00  0.00     0.002 C 
BRANCH  25  26
ATOM     26  C   UNL A   1      36.017  22.656  25.391  1.00  0.00     0.021 C 
BRANCH  26  27
ATOM     27  C   UNL A   1      37.313  23.454  25.341  1.00  0.00     0.116 C 
BRANCH  27  28
ATOM     28  N   UNL A   1      38.500  22.639  25.546  1.00  0.00    -0.352 N 
ATOM     29  C   UNL A   1      39.675  22.972  26.176  1.00  0.00     0.251 C 
ATOM     30  H   UNL A   1      38.456  21.724  25.184  1.00  0.00     0.163 HD
ATOM     31  O   UNL A   1      40.629  22.200  26.182  1.00  0.00    -0.269 OA
BRANCH  29  32
ATOM     32  C   UNL A   1      39.790  24.296  26.817  1.00  0.00     0.039 A 
ATOM     33  C   UNL A   1      39.303  24.461  28.115  1.00  0.00     0.014 A 
ATOM     34  C   UNL A   1      40.441  25.343  26.160  1.00  0.00     0.014 A 
ATOM     35  C   UNL A   1      39.537  25.662  28.785  1.00  0.00     0.010 A 
ATOM     36  C   UNL A   1      40.743  26.507  26.858  1.00  0.00     0.010 A 
ATOM     37  C   UNL A   1      40.293  26.678  28.176  1.00  0.00    -0.014 A 
BRANCH  37  38
ATOM     38  C   UNL A   1      40.620  27.925  28.911  1.00  0.00     0.031 A 
ATOM     39  C   UNL A   1      39.601  29.022  29.027  1.00  0.00     0.074 A 
ATOM     40  C   UNL A   1      41.852  28.086  29.430  1.00  0.00     0.049 A 
ATOM     41  N   UNL A   1      39.696  30.175  29.640  1.00  0.00    -0.248 NA
ATOM     42  C   UNL A   1      38.316  28.813  28.340  1.00  0.00     0.031 C 
ATOM     43  C   UNL A   1      42.951  27.122  29.325  1.00  0.00     0.029 A 
ATOM     44  N   UNL A   1      42.387  29.120  30.156  1.00  0.00    -0.354 N 
ATOM     45  C   UNL A   1      38.496  30.830  29.397  1.00  0.00     0.074 A 
ATOM     46  C   UNL A   1      37.713  29.975  28.534  1.00  0.00     0.031 C 
ATOM     47  C   UNL A   1      44.015  27.595  29.994  1.00  0.00     0.029 A 
ATOM     48  C   UNL A   1      43.683  28.900  30.555  1.00  0.00     0.049 A 
ATOM     49  H   UNL A   1      41.889  29.942  30.370  1.00  0.00     0.167 HD
ATOM     50  C   UNL A   1      38.071  32.025  29.871  1.00  0.00     0.031 A 
ATOM     51  C   UNL A   1      44.507  29.662  31.299  1.00  0.00     0.031 A 
ATOM     52  C   UNL A   1      38.845  32.867  30.741  1.00  0.00     0.049 A 
ATOM     53  C   UNL A   1      44.003  30.970  31.839  1.00  0.00     0.074 A 
ATOM     54  C   UNL A   1      38.482  34.063  31.335  1.00  0.00     0.029 A 
ATOM     55  N   UNL A   1      40.146  32.600  31.142  1.00  0.00    -0.354 N 
ATOM     56  N   UNL A   1      42.830  31.533  31.679  1.00  0.00    -0.248 NA
ATOM     57  C   UNL A   1      44.931  31.737  32.683  1.00  0.00     0.031 C 
ATOM     58  C   UNL A   1      39.580  34.541  32.058  1.00  0.00     0.029 A 
ATOM     59  C   UNL A   1      40.608  33.618  31.957  1.00  0.00     0.049 A 
ATOM     60  H   UNL A   1      40.663  31.802  30.884  1.00  0.00     0.167 HD
ATOM     61  C   UNL A   1      42.871  32.709  32.415  1.00  0.00     0.074 A 
ATOM     62  C   UNL A   1      44.177  32.765  33.042  1.00  0.00     0.031 C 
ATOM     63  C   UNL A   1      41.915  33.659  32.560  1.00  0.00     0.031 A 
BRANCH  50  64
ATOM     64  C   UNL A   1      36.704  32.485  29.447  1.00  0.00    -0.014 A 
ATOM     65  C   UNL A   1      35.567  32.202  30.223  1.00  0.00     0.009 A 
ATOM     66  C   UNL A   1      36.548  33.218  28.261  1.00  0.00     0.009 A 
ATOM     67  C   UNL A   1      34.299  32.604  29.798  1.00  0.00     0.001 A 
ATOM     68  C   UNL A   1      35.283  33.646  27.853  1.00  0.00     0.001 A 
ATOM     69  C   UNL A   1      34.159  33.327  28.615  1.00  0.00     0.000 A 
ENDBRANCH  50  64
BRANCH  51  70
ATOM     70  C   UNL A   1      45.880  29.185  31.611  1.00  0.00    -0.014 A 
ATOM     71  C   UNL A   1      46.954  29.508  30.766  1.00  0.00     0.009 A 
ATOM     72  C   UNL A   1      46.125  28.408  32.754  1.00  0.00     0.009 A 
ATOM     73  C   UNL A   1      48.240  29.041  31.046  1.00  0.00     0.001 A 
ATOM     74  C   UNL A   1      47.418  27.967  33.046  1.00  0.00     0.001 A 
ATOM     75  C   UNL A   1      48.473  28.275  32.188  1.00  0.00     0.000 A 
ENDBRANCH  51  70
BRANCH  63  76
ATOM     76  C   UNL A   1      42.246  34.828  33.445  1.00  0.00    -0.014 A 
ATOM     77  C   UNL A   1      41.932  34.817  34.812  1.00  0.00     0.009 A 
ATOM     78  C   UNL A   1      42.905  35.943  32.905  1.00  0.00     0.009 A 
ATOM     79  C   UNL A   1      42.236  35.918  35.614  1.00  0.00     0.001 A 
ATOM     80  C   UNL A   1      43.233  37.030  33.715  1.00  0.00     0.001 A 
ATOM     81  C   UNL A   1      42.889  37.022  35.066  1.00  0.00     0.000 A 
ENDBRANCH  63  76
ENDBRANCH  37  38
ENDBRANCH  29  32
ENDBRANCH  27  28
ENDBRANCH  26  27
ENDBRANCH  25  26
ENDBRANCH   1  25
TORSDOF 16
ENDMDL
MODEL 3
REMARK VINA RESULT:     -10.5      3.244      5.029
REMARK SMILES CC[C@@H](C(=O)NCCCCCCNC(=O)c1ccc(-c2c3nc(c(-c4ccccc4)c4ccc([nH]4)c(-c4ccccc4)c4nc(c(-c5ccccc5)c5ccc2[nH]5)C=C4)C=C3)cc1)[N@@H+]1CCc2ccc(N)cc2C1
REMARK SMILES IDX 9 1 8 2 7 3 6 4 4 5 5 6 3 8 2 9 1 10 64 11 65 12 74 13 66 15
REMARK SMILES IDX 73 16 67 17 72 18 68 19 70 20 69 21 71 22 10 25 11 26 12 27
REMARK SMILES IDX 13 28 14 29 15 31 16 32 17 33 63 34 18 35 62 36 19 37 20 38
REMARK SMILES IDX 21 39 56 40 22 41 61 42 55 43 57 44 23 45 60 46 54 47 53 48
REMARK SMILES IDX 24 50 46 51 31 52 45 53 32 54 35 55 44 56 58 57 33 58 34 59
REMARK SMILES IDX 43 61 59 62 36 63 25 64 26 65 30 66 27 67 29 68 28 69 47 70
REMARK SMILES IDX 48 71 52 72 49 73 51 74 50 75 37 76 38 77 42 78 39 79 41 80
REMARK SMILES IDX 40 81
REMARK H PARENT 6 7 64 14 71 23 71 24 13 30 57 49 35 60
REMARK Flexibility Score: inf
ROOT
ATOM      1  C   UNL A   1      35.482  20.158  25.002  1.00  0.00     0.002 C 
ENDROOT
BRANCH   1   2
ATOM      2  C   UNL A   1      34.272  21.098  24.977  1.00  0.00     0.021 C 
BRANCH   2   3
ATOM      3  C   UNL A   1      33.105  20.673  25.866  1.00  0.00     0.116 C 
BRANCH   3   4
ATOM      4  N   UNL A   1      32.475  21.809  26.512  1.00  0.00    -0.351 N 
ATOM      5  C   UNL A   1      31.459  22.502  25.890  1.00  0.00     0.278 C 
ATOM      6  O   UNL A   1      30.304  22.106  26.060  1.00  0.00    -0.268 OA
ATOM      7  H   UNL A   1      32.778  22.089  27.406  1.00  0.00     0.163 HD
BRANCH   5   8
ATOM      8  C   UNL A   1      31.778  23.892  25.237  1.00  0.00     0.274 C 
BRANCH   8   9
ATOM      9  C   UNL A   1      32.918  24.714  25.885  1.00  0.00     0.072 C 
ATOM     10  C   UNL A   1      33.947  25.319  24.940  1.00  0.00     0.011 C 
ENDBRANCH   8   9
BRANCH   8  11
ATOM     11  N   UNL A   1      30.504  24.638  24.925  1.00  0.00    -0.321 N 
ATOM     12  C   UNL A   1      30.398  25.251  23.574  1.00  0.00     0.267 C 
ATOM     13  C   UNL A   1      30.024  25.555  25.966  1.00  0.00     0.300 C 
ATOM     14  H   UNL A   1      29.857  23.850  24.914  1.00  0.00     0.349 HD
ATOM     15  C   UNL A   1      29.949  26.743  23.518  1.00  0.00     0.097 C 
ATOM     16  C   UNL A   1      30.711  26.887  25.861  1.00  0.00     0.012 A 
ATOM     17  C   UNL A   1      30.643  27.519  24.610  1.00  0.00    -0.033 A 
ATOM     18  C   UNL A   1      31.445  27.457  26.899  1.00  0.00     0.035 A 
ATOM     19  C   UNL A   1      31.231  28.767  24.436  1.00  0.00     0.006 A 
ATOM     20  C   UNL A   1      32.148  28.643  26.692  1.00  0.00     0.032 A 
ATOM     21  C   UNL A   1      31.978  29.323  25.481  1.00  0.00     0.026 A 
BRANCH  20  22
ATOM     22  N   UNL A   1      32.908  29.193  27.713  1.00  0.00    -0.399 N 
ATOM     23  H   UNL A   1      33.891  29.179  27.657  1.00  0.00     0.156 HD
ATOM     24  H   UNL A   1      32.465  29.597  28.494  1.00  0.00     0.156 HD
ENDBRANCH  20  22
ENDBRANCH   8  11
ENDBRANCH   5   8
ENDBRANCH   3   4
ENDBRANCH   2   3
ENDBRANCH   1   2
BRANCH   1  25
ATOM     25  C   UNL A   1      36.859  20.826  25.032  1.00  0.00     0.002 C 
BRANCH  25  26
ATOM     26  C   UNL A   1      38.059  19.891  24.880  1.00  0.00     0.021 C 
BRANCH  26  27
ATOM     27  C   UNL A   1      39.229  20.166  25.816  1.00  0.00     0.116 C 
BRANCH  27  28
ATOM     28  N   UNL A   1      40.212  19.095  25.840  1.00  0.00    -0.352 N 
ATOM     29  C   UNL A   1      41.557  19.166  26.112  1.00  0.00     0.251 C 
ATOM     30  H   UNL A   1      39.867  18.196  25.633  1.00  0.00     0.163 HD
ATOM     31  O   UNL A   1      42.278  18.180  25.995  1.00  0.00    -0.269 OA
BRANCH  29  32
ATOM     32  C   UNL A   1      42.136  20.463  26.513  1.00  0.00     0.039 A 
ATOM     33  C   UNL A   1      42.581  21.338  25.521  1.00  0.00     0.014 A 
ATOM     34  C   UNL A   1      42.170  20.834  27.859  1.00  0.00     0.014 A 
ATOM     35  C   UNL A   1      42.993  22.622  25.876  1.00  0.00     0.010 A 
ATOM     36  C   UNL A   1      42.504  22.139  28.202  1.00  0.00     0.010 A 
ATOM     37  C   UNL A   1      42.920  23.045  27.215  1.00  0.00    -0.014 A 
BRANCH  37  38
ATOM     38  C   UNL A   1      43.275  24.435  27.591  1.00  0.00     0.031 A 
ATOM     39  C   UNL A   1      44.707  24.887  27.549  1.00  0.00     0.074 A 
ATOM     40  C   UNL A   1      42.312  25.274  28.018  1.00  0.00     0.049 A 
ATOM     41  N   UNL A   1      45.210  26.062  27.827  1.00  0.00    -0.248 NA
ATOM     42  C   UNL A   1      45.712  23.878  27.175  1.00  0.00     0.031 C 
ATOM     43  C   UNL A   1      40.894  24.934  28.169  1.00  0.00     0.029 A 
ATOM     44  N   UNL A   1      42.379  26.590  28.401  1.00  0.00    -0.354 N 
ATOM     45  C   UNL A   1      46.584  25.929  27.679  1.00  0.00     0.074 A 
ATOM     46  C   UNL A   1      46.842  24.546  27.345  1.00  0.00     0.031 C 
ATOM     47  C   UNL A   1      40.222  26.024  28.575  1.00  0.00     0.029 A 
ATOM     48  C   UNL A   1      41.160  27.129  28.736  1.00  0.00     0.049 A 
ATOM     49  H   UNL A   1      43.221  27.099  28.432  1.00  0.00     0.167 HD
ATOM     50  C   UNL A   1      47.545  26.876  27.785  1.00  0.00     0.031 A 
ATOM     51  C   UNL A   1      40.836  28.378  29.117  1.00  0.00     0.031 A 
ATOM     52  C   UNL A   1      47.285  28.254  28.102  1.00  0.00     0.049 A 
ATOM     53  C   UNL A   1      41.914  29.421  29.197  1.00  0.00     0.074 A 
ATOM     54  C   UNL A   1      48.177  29.310  28.165  1.00  0.00     0.029 A 
ATOM     55  N   UNL A   1      46.035  28.767  28.412  1.00  0.00    -0.354 N 
ATOM     56  N   UNL A   1      43.198  29.302  28.962  1.00  0.00    -0.248 NA
ATOM     57  C   UNL A   1      41.493  30.778  29.575  1.00  0.00     0.031 C 
ATOM     58  C   UNL A   1      47.473  30.453  28.557  1.00  0.00     0.029 A 
ATOM     59  C   UNL A   1      46.134  30.119  28.688  1.00  0.00     0.049 A 
ATOM     60  H   UNL A   1      45.199  28.246  28.432  1.00  0.00     0.167 HD
ATOM     61  C   UNL A   1      43.737  30.568  29.143  1.00  0.00     0.074 A 
ATOM     62  C   UNL A   1      42.634  31.446  29.485  1.00  0.00     0.031 C 
ATOM     63  C   UNL A   1      45.027  30.971  29.038  1.00  0.00     0.031 A 
BRANCH  50  64
ATOM     64  C   UNL A   1      48.966  26.442  27.556  1.00  0.00    -0.014 A 
ATOM     65  C   UNL A   1      49.789  26.050  28.626  1.00  0.00     0.009 A 
ATOM     66  C   UNL A   1      49.489  26.416  26.255  1.00  0.00     0.009 A 
ATOM     67  C   UNL A   1      51.118  25.685  28.402  1.00  0.00     0.001 A 
ATOM     68  C   UNL A   1      50.810  26.020  26.030  1.00  0.00     0.001 A 
ATOM     69  C   UNL A   1      51.626  25.667  27.105  1.00  0.00     0.000 A 
ENDBRANCH  50  64
BRANCH  51  70
ATOM     70  C   UNL A   1      39.420  28.721  29.411  1.00  0.00    -0.014 A 
ATOM     71  C   UNL A   1      38.916  28.604  30.717  1.00  0.00     0.009 A 
ATOM     72  C   UNL A   1      38.564  29.168  28.392  1.00  0.00     0.009 A 
ATOM     73  C   UNL A   1      37.579  28.904  30.990  1.00  0.00     0.001 A 
ATOM     74  C   UNL A   1      37.236  29.494  28.674  1.00  0.00     0.001 A 
ATOM     75  C   UNL A   1      36.741  29.353  29.970  1.00  0.00     0.000 A 
ENDBRANCH  51  70
BRANCH  63  76
ATOM     76  C   UNL A   1      45.306  32.428  29.279  1.00  0.00    -0.014 A 
ATOM     77  C   UNL A   1      45.596  32.910  30.564  1.00  0.00     0.009 A 
ATOM     78  C   UNL A   1      45.304  33.323  28.198  1.00  0.00     0.009 A 
ATOM     79  C   UNL A   1      45.839  34.269  30.770  1.00  0.00     0.001 A 
ATOM     80  C   UNL A   1      45.576  34.677  28.402  1.00  0.00     0.001 A 
ATOM     81  C   UNL A   1      45.832  35.150  29.689  1.00  0.00     0.000 A 
ENDBRANCH  63  76
ENDBRANCH  37  38
ENDBRANCH  29  32
ENDBRANCH  27  28
ENDBRANCH  26  27
ENDBRANCH  25  26
ENDBRANCH   1  25
TORSDOF 16
ENDMDL
