MODEL 1
REMARK VINA RESULT:     -10.7      0.000      0.000
REMARK SMILES C[C@@H](C(=O)NCCCCCCNC(=O)c1ccc(-c2c3nc(c(-c4ccccc4)c4ccc([nH]4)c(-c4ccccc4)c4nc(c(-c5ccccc5)c5ccc2[nH]5)C=C4)C=C3)cc1)c1cccc(C(=O)c2ccccc2)c1
REMARK SMILES IDX 8 1 7 2 6 3 5 4 3 5 4 6 2 8 1 9 63 10 64 11 76 12 65 13
REMARK SMILES IDX 67 14 66 15 68 16 69 17 70 18 71 19 75 20 72 21 74 22 73 23
REMARK SMILES IDX 9 24 10 25 11 26 12 27 13 28 14 30 15 31 16 32 62 33 17 34
REMARK SMILES IDX 61 35 18 36 19 37 20 38 55 39 21 40 60 41 54 42 56 43 22 44
REMARK SMILES IDX 59 45 53 46 52 47 23 49 45 50 30 51 44 52 31 53 34 54 43 55
REMARK SMILES IDX 57 56 32 57 33 58 42 60 58 61 35 62 24 63 25 64 29 65 26 66
REMARK SMILES IDX 28 67 27 68 46 69 47 70 51 71 48 72 50 73 49 74 36 75 37 76
REMARK SMILES IDX 41 77 38 78 40 79 39 80
REMARK H PARENT 5 7 12 29 56 48 34 59
REMARK Flexibility Score: inf
ROOT
ATOM      1  C   UNL A   1      32.199  29.285  24.805  1.00  0.00     0.002 C 
ENDROOT
BRANCH   1   2
ATOM      2  C   UNL A   1      33.036  28.812  23.607  1.00  0.00     0.021 C 
BRANCH   2   3
ATOM      3  C   UNL A   1      33.552  27.374  23.728  1.00  0.00     0.116 C 
BRANCH   3   4
ATOM      4  N   UNL A   1      33.555  26.733  22.430  1.00  0.00    -0.356 N 
ATOM      5  C   UNL A   1      32.906  25.609  22.003  1.00  0.00     0.227 C 
ATOM      6  O   UNL A   1      33.376  25.075  21.000  1.00  0.00    -0.274 OA
ATOM      7  H   UNL A   1      34.111  27.174  21.748  1.00  0.00     0.163 HD
BRANCH   5   8
ATOM      8  C   UNL A   1      31.676  25.104  22.777  1.00  0.00     0.105 C 
ATOM      9  C   UNL A   1      30.627  26.218  22.899  1.00  0.00     0.023 C 
BRANCH   8  10
ATOM     10  C   UNL A   1      31.909  24.466  24.153  1.00  0.00    -0.035 A 
ATOM     11  C   UNL A   1      31.133  24.715  25.292  1.00  0.00     0.004 A 
ATOM     12  C   UNL A   1      32.958  23.528  24.276  1.00  0.00     0.016 A 
ATOM     13  C   UNL A   1      31.386  24.060  26.501  1.00  0.00     0.001 A 
ATOM     14  C   UNL A   1      33.221  22.864  25.485  1.00  0.00     0.023 A 
ATOM     15  C   UNL A   1      32.423  23.137  26.597  1.00  0.00     0.012 A 
BRANCH  14  16
ATOM     16  C   UNL A   1      34.274  21.816  25.614  1.00  0.00     0.193 C 
ATOM     17  O   UNL A   1      33.966  20.627  25.628  1.00  0.00    -0.289 OA
BRANCH  16  18
ATOM     18  C   UNL A   1      35.712  22.160  25.668  1.00  0.00     0.022 A 
ATOM     19  C   UNL A   1      36.070  23.425  26.146  1.00  0.00     0.012 A 
ATOM     20  C   UNL A   1      36.695  21.263  25.238  1.00  0.00     0.012 A 
ATOM     21  C   UNL A   1      37.416  23.776  26.235  1.00  0.00     0.001 A 
ATOM     22  C   UNL A   1      38.041  21.617  25.336  1.00  0.00     0.001 A 
ATOM     23  C   UNL A   1      38.400  22.869  25.838  1.00  0.00     0.000 A 
ENDBRANCH  16  18
ENDBRANCH  14  16
ENDBRANCH   8  10
ENDBRANCH   5   8
ENDBRANCH   3   4
ENDBRANCH   2   3
ENDBRANCH   1   2
BRANCH   1  24
ATOM     24  C   UNL A   1      31.773  28.178  25.771  1.00  0.00     0.002 C 
BRANCH  24  25
ATOM     25  C   UNL A   1      32.237  28.378  27.214  1.00  0.00     0.021 C 
BRANCH  25  26
ATOM     26  C   UNL A   1      33.647  28.940  27.346  1.00  0.00     0.116 C 
BRANCH  26  27
ATOM     27  N   UNL A   1      33.647  30.304  27.852  1.00  0.00    -0.352 N 
ATOM     28  C   UNL A   1      34.622  30.962  28.556  1.00  0.00     0.251 C 
ATOM     29  H   UNL A   1      32.834  30.826  27.663  1.00  0.00     0.163 HD
ATOM     30  O   UNL A   1      34.384  32.045  29.086  1.00  0.00    -0.269 OA
BRANCH  28  31
ATOM     31  C   UNL A   1      35.960  30.352  28.694  1.00  0.00     0.039 A 
ATOM     32  C   UNL A   1      36.852  30.426  27.622  1.00  0.00     0.014 A 
ATOM     33  C   UNL A   1      36.335  29.716  29.880  1.00  0.00     0.014 A 
ATOM     34  C   UNL A   1      38.143  29.914  27.762  1.00  0.00     0.010 A 
ATOM     35  C   UNL A   1      37.645  29.279  30.046  1.00  0.00     0.010 A 
ATOM     36  C   UNL A   1      38.561  29.368  28.987  1.00  0.00    -0.014 A 
BRANCH  36  37
ATOM     37  C   UNL A   1      39.952  28.887  29.179  1.00  0.00     0.031 A 
ATOM     38  C   UNL A   1      40.996  29.800  29.761  1.00  0.00     0.074 A 
ATOM     39  C   UNL A   1      40.289  27.646  28.776  1.00  0.00     0.049 A 
ATOM     40  N   UNL A   1      42.270  29.577  29.957  1.00  0.00    -0.248 NA
ATOM     41  C   UNL A   1      40.555  31.149  30.153  1.00  0.00     0.031 C 
ATOM     42  C   UNL A   1      39.380  26.675  28.164  1.00  0.00     0.029 A 
ATOM     43  N   UNL A   1      41.495  26.991  28.818  1.00  0.00    -0.354 N 
ATOM     44  C   UNL A   1      42.784  30.758  30.480  1.00  0.00     0.074 A 
ATOM     45  C   UNL A   1      41.698  31.711  30.518  1.00  0.00     0.031 C 
ATOM     46  C   UNL A   1      40.051  25.539  27.916  1.00  0.00     0.029 A 
ATOM     47  C   UNL A   1      41.446  25.715  28.308  1.00  0.00     0.049 A 
ATOM     48  H   UNL A   1      42.316  27.395  29.180  1.00  0.00     0.167 HD
ATOM     49  C   UNL A   1      44.042  31.020  30.907  1.00  0.00     0.031 A 
ATOM     50  C   UNL A   1      42.417  24.794  28.163  1.00  0.00     0.031 A 
ATOM     51  C   UNL A   1      45.121  30.069  30.871  1.00  0.00     0.049 A 
ATOM     52  C   UNL A   1      43.813  25.120  28.619  1.00  0.00     0.074 A 
ATOM     53  C   UNL A   1      46.419  30.223  31.329  1.00  0.00     0.029 A 
ATOM     54  N   UNL A   1      45.031  28.790  30.346  1.00  0.00    -0.354 N 
ATOM     55  N   UNL A   1      44.265  26.218  29.173  1.00  0.00    -0.248 NA
ATOM     56  C   UNL A   1      44.828  24.073  28.438  1.00  0.00     0.031 C 
ATOM     57  C   UNL A   1      47.130  29.058  31.024  1.00  0.00     0.029 A 
ATOM     58  C   UNL A   1      46.257  28.154  30.440  1.00  0.00     0.049 A 
ATOM     59  H   UNL A   1      44.215  28.394  29.961  1.00  0.00     0.167 HD
ATOM     60  C   UNL A   1      45.608  25.983  29.439  1.00  0.00     0.074 A 
ATOM     61  C   UNL A   1      45.891  24.632  28.999  1.00  0.00     0.031 C 
ATOM     62  C   UNL A   1      46.525  26.809  29.999  1.00  0.00     0.031 A 
BRANCH  49  63
ATOM     63  C   UNL A   1      44.321  32.398  31.441  1.00  0.00    -0.014 A 
ATOM     64  C   UNL A   1      44.176  32.694  32.806  1.00  0.00     0.009 A 
ATOM     65  C   UNL A   1      44.778  33.404  30.575  1.00  0.00     0.009 A 
ATOM     66  C   UNL A   1      44.447  33.979  33.285  1.00  0.00     0.001 A 
ATOM     67  C   UNL A   1      45.078  34.678  31.062  1.00  0.00     0.001 A 
ATOM     68  C   UNL A   1      44.902  34.967  32.413  1.00  0.00     0.000 A 
ENDBRANCH  49  63
BRANCH  50  69
ATOM     69  C   UNL A   1      42.106  23.467  27.566  1.00  0.00    -0.014 A 
ATOM     70  C   UNL A   1      41.543  22.447  28.347  1.00  0.00     0.009 A 
ATOM     71  C   UNL A   1      42.387  23.208  26.215  1.00  0.00     0.009 A 
ATOM     72  C   UNL A   1      41.298  21.186  27.798  1.00  0.00     0.001 A 
ATOM     73  C   UNL A   1      42.111  21.957  25.659  1.00  0.00     0.001 A 
ATOM     74  C   UNL A   1      41.577  20.943  26.454  1.00  0.00     0.000 A 
ENDBRANCH  50  69
BRANCH  62  75
ATOM     75  C   UNL A   1      47.909  26.263  30.211  1.00  0.00    -0.014 A 
ATOM     76  C   UNL A   1      48.295  25.698  31.437  1.00  0.00     0.009 A 
ATOM     77  C   UNL A   1      48.827  26.274  29.148  1.00  0.00     0.009 A 
ATOM     78  C   UNL A   1      49.585  25.190  31.604  1.00  0.00     0.001 A 
ATOM     79  C   UNL A   1      50.104  25.734  29.308  1.00  0.00     0.001 A 
ATOM     80  C   UNL A   1      50.485  25.203  30.538  1.00  0.00     0.000 A 
ENDBRANCH  62  75
ENDBRANCH  36  37
ENDBRANCH  28  31
ENDBRANCH  26  27
ENDBRANCH  25  26
ENDBRANCH  24  25
ENDBRANCH   1  24
TORSDOF 16
ENDMDL
MODEL 2
REMARK VINA RESULT:     -10.6      2.479      7.284
REMARK SMILES C[C@@H](C(=O)NCCCCCCNC(=O)c1ccc(-c2c3nc(c(-c4ccccc4)c4ccc([nH]4)c(-c4ccccc4)c4nc(c(-c5ccccc5)c5ccc2[nH]5)C=C4)C=C3)cc1)c1cccc(C(=O)c2ccccc2)c1
REMARK SMILES IDX 8 1 7 2 6 3 5 4 3 5 4 6 2 8 1 9 63 10 64 11 76 12 65 13
REMARK SMILES IDX 67 14 66 15 68 16 69 17 70 18 71 19 75 20 72 21 74 22 73 23
REMARK SMILES IDX 9 24 10 25 11 26 12 27 13 28 14 30 15 31 16 32 62 33 17 34
REMARK SMILES IDX 61 35 18 36 19 37 20 38 55 39 21 40 60 41 54 42 56 43 22 44
REMARK SMILES IDX 59 45 53 46 52 47 23 49 45 50 30 51 44 52 31 53 34 54 43 55
REMARK SMILES IDX 57 56 32 57 33 58 42 60 58 61 35 62 24 63 25 64 29 65 26 66
REMARK SMILES IDX 28 67 27 68 46 69 47 70 51 71 48 72 50 73 49 74 36 75 37 76
REMARK SMILES IDX 41 77 38 78 40 79 39 80
REMARK H PARENT 5 7 12 29 56 48 34 59
REMARK Flexibility Score: inf
ROOT
ATOM      1  C   UNL A   1      33.977  24.591  23.243  1.00  0.00     0.002 C 
ENDROOT
BRANCH   1   2
ATOM      2  C   UNL A   1      33.623  26.006  22.763  1.00  0.00     0.021 C 
BRANCH   2   3
ATOM      3  C   UNL A   1      32.481  26.058  21.742  1.00  0.00     0.116 C 
BRANCH   3   4
ATOM      4  N   UNL A   1      31.853  27.362  21.761  1.00  0.00    -0.356 N 
ATOM      5  C   UNL A   1      30.629  27.740  22.235  1.00  0.00     0.227 C 
ATOM      6  O   UNL A   1      30.191  28.798  21.786  1.00  0.00    -0.274 OA
ATOM      7  H   UNL A   1      32.389  28.089  21.370  1.00  0.00     0.163 HD
BRANCH   5   8
ATOM      8  C   UNL A   1      29.906  26.852  23.263  1.00  0.00     0.105 C 
ATOM      9  C   UNL A   1      28.518  27.424  23.579  1.00  0.00     0.023 C 
BRANCH   8  10
ATOM     10  C   UNL A   1      30.640  26.533  24.573  1.00  0.00    -0.035 A 
ATOM     11  C   UNL A   1      31.247  27.483  25.403  1.00  0.00     0.004 A 
ATOM     12  C   UNL A   1      30.674  25.186  24.998  1.00  0.00     0.016 A 
ATOM     13  C   UNL A   1      31.861  27.114  26.603  1.00  0.00     0.001 A 
ATOM     14  C   UNL A   1      31.287  24.803  26.201  1.00  0.00     0.023 A 
ATOM     15  C   UNL A   1      31.879  25.781  27.002  1.00  0.00     0.012 A 
BRANCH  14  16
ATOM     16  C   UNL A   1      31.267  23.399  26.703  1.00  0.00     0.193 C 
ATOM     17  O   UNL A   1      30.453  23.057  27.558  1.00  0.00    -0.289 OA
BRANCH  16  18
ATOM     18  C   UNL A   1      32.171  22.364  26.156  1.00  0.00     0.022 A 
ATOM     19  C   UNL A   1      33.254  21.951  26.940  1.00  0.00     0.012 A 
ATOM     20  C   UNL A   1      31.973  21.819  24.883  1.00  0.00     0.012 A 
ATOM     21  C   UNL A   1      34.112  20.960  26.469  1.00  0.00     0.001 A 
ATOM     22  C   UNL A   1      32.833  20.822  24.419  1.00  0.00     0.001 A 
ATOM     23  C   UNL A   1      33.897  20.391  25.213  1.00  0.00     0.000 A 
ENDBRANCH  16  18
ENDBRANCH  14  16
ENDBRANCH   8  10
ENDBRANCH   5   8
ENDBRANCH   3   4
ENDBRANCH   2   3
ENDBRANCH   1   2
BRANCH   1  24
ATOM     24  C   UNL A   1      34.670  24.528  24.607  1.00  0.00     0.002 C 
BRANCH  24  25
ATOM     25  C   UNL A   1      35.944  23.684  24.635  1.00  0.00     0.021 C 
BRANCH  25  26
ATOM     26  C   UNL A   1      36.582  23.559  26.014  1.00  0.00     0.116 C 
BRANCH  26  27
ATOM     27  N   UNL A   1      37.766  22.716  25.993  1.00  0.00    -0.352 N 
ATOM     28  C   UNL A   1      39.062  23.041  26.301  1.00  0.00     0.251 C 
ATOM     29  H   UNL A   1      37.617  21.781  25.722  1.00  0.00     0.163 HD
ATOM     30  O   UNL A   1      39.979  22.266  26.037  1.00  0.00    -0.269 OA
BRANCH  28  31
ATOM     31  C   UNL A   1      39.356  24.343  26.933  1.00  0.00     0.039 A 
ATOM     32  C   UNL A   1      38.973  24.553  28.260  1.00  0.00     0.014 A 
ATOM     33  C   UNL A   1      40.015  25.348  26.222  1.00  0.00     0.014 A 
ATOM     34  C   UNL A   1      39.305  25.753  28.891  1.00  0.00     0.010 A 
ATOM     35  C   UNL A   1      40.415  26.509  26.876  1.00  0.00     0.010 A 
ATOM     36  C   UNL A   1      40.059  26.726  28.216  1.00  0.00    -0.014 A 
BRANCH  36  37
ATOM     37  C   UNL A   1      40.486  27.976  28.894  1.00  0.00     0.031 A 
ATOM     38  C   UNL A   1      41.879  28.099  29.448  1.00  0.00     0.074 A 
ATOM     39  C   UNL A   1      39.602  28.978  29.063  1.00  0.00     0.049 A 
ATOM     40  N   UNL A   1      42.418  29.088  30.115  1.00  0.00    -0.248 NA
ATOM     41  C   UNL A   1      42.779  26.951  29.246  1.00  0.00     0.031 C 
ATOM     42  C   UNL A   1      38.210  28.969  28.605  1.00  0.00     0.029 A 
ATOM     43  N   UNL A   1      39.742  30.200  29.672  1.00  0.00    -0.354 N 
ATOM     44  C   UNL A   1      43.709  28.677  30.423  1.00  0.00     0.074 A 
ATOM     45  C   UNL A   1      43.855  27.329  29.920  1.00  0.00     0.031 C 
ATOM     46  C   UNL A   1      37.635  30.140  28.922  1.00  0.00     0.029 A 
ATOM     47  C   UNL A   1      38.600  30.964  29.644  1.00  0.00     0.049 A 
ATOM     48  H   UNL A   1      40.582  30.501  30.089  1.00  0.00     0.167 HD
ATOM     49  C   UNL A   1      44.691  29.365  31.051  1.00  0.00     0.031 A 
ATOM     50  C   UNL A   1      38.353  32.187  30.151  1.00  0.00     0.031 A 
ATOM     51  C   UNL A   1      44.545  30.708  31.548  1.00  0.00     0.049 A 
ATOM     52  C   UNL A   1      39.453  32.919  30.870  1.00  0.00     0.074 A 
ATOM     53  C   UNL A   1      45.498  31.510  32.153  1.00  0.00     0.029 A 
ATOM     54  N   UNL A   1      43.373  31.445  31.501  1.00  0.00    -0.354 N 
ATOM     55  N   UNL A   1      40.688  32.542  31.092  1.00  0.00    -0.248 NA
ATOM     56  C   UNL A   1      39.124  34.251  31.397  1.00  0.00     0.031 C 
ATOM     57  C   UNL A   1      44.884  32.710  32.528  1.00  0.00     0.029 A 
ATOM     58  C   UNL A   1      43.569  32.682  32.093  1.00  0.00     0.049 A 
ATOM     59  H   UNL A   1      42.526  31.134  31.107  1.00  0.00     0.167 HD
ATOM     60  C   UNL A   1      41.294  33.602  31.754  1.00  0.00     0.074 A 
ATOM     61  C   UNL A   1      40.294  34.643  31.882  1.00  0.00     0.031 C 
ATOM     62  C   UNL A   1      42.566  33.707  32.213  1.00  0.00     0.031 A 
BRANCH  49  63
ATOM     63  C   UNL A   1      46.011  28.671  31.246  1.00  0.00    -0.014 A 
ATOM     64  C   UNL A   1      47.032  28.763  30.287  1.00  0.00     0.009 A 
ATOM     65  C   UNL A   1      46.253  27.950  32.426  1.00  0.00     0.009 A 
ATOM     66  C   UNL A   1      48.254  28.116  30.488  1.00  0.00     0.001 A 
ATOM     67  C   UNL A   1      47.487  27.331  32.639  1.00  0.00     0.001 A 
ATOM     68  C   UNL A   1      48.482  27.406  31.666  1.00  0.00     0.000 A 
ENDBRANCH  49  63
BRANCH  50  69
ATOM     69  C   UNL A   1      37.010  32.805  29.991  1.00  0.00    -0.014 A 
ATOM     70  C   UNL A   1      36.014  32.609  30.960  1.00  0.00     0.009 A 
ATOM     71  C   UNL A   1      36.711  33.582  28.860  1.00  0.00     0.009 A 
ATOM     72  C   UNL A   1      34.737  33.150  30.784  1.00  0.00     0.001 A 
ATOM     73  C   UNL A   1      35.444  34.149  28.703  1.00  0.00     0.001 A 
ATOM     74  C   UNL A   1      34.455  33.923  29.659  1.00  0.00     0.000 A 
ENDBRANCH  50  69
BRANCH  62  75
ATOM     75  C   UNL A   1      42.962  35.007  32.856  1.00  0.00    -0.014 A 
ATOM     76  C   UNL A   1      43.496  36.065  32.103  1.00  0.00     0.009 A 
ATOM     77  C   UNL A   1      42.755  35.189  34.233  1.00  0.00     0.009 A 
ATOM     78  C   UNL A   1      43.848  37.265  32.724  1.00  0.00     0.001 A 
ATOM     79  C   UNL A   1      43.077  36.402  34.844  1.00  0.00     0.001 A 
ATOM     80  C   UNL A   1      43.633  37.434  34.092  1.00  0.00     0.000 A 
ENDBRANCH  62  75
ENDBRANCH  36  37
ENDBRANCH  28  31
ENDBRANCH  26  27
ENDBRANCH  25  26
ENDBRANCH  24  25
ENDBRANCH   1  24
TORSDOF 16
ENDMDL
MODEL 3
REMARK VINA RESULT:     -10.5      1.783      7.532
REMARK SMILES C[C@@H](C(=O)NCCCCCCNC(=O)c1ccc(-c2c3nc(c(-c4ccccc4)c4ccc([nH]4)c(-c4ccccc4)c4nc(c(-c5ccccc5)c5ccc2[nH]5)C=C4)C=C3)cc1)c1cccc(C(=O)c2ccccc2)c1
REMARK SMILES IDX 8 1 7 2 6 3 5 4 3 5 4 6 2 8 1 9 63 10 64 11 76 12 65 13
REMARK SMILES IDX 67 14 66 15 68 16 69 17 70 18 71 19 75 20 72 21 74 22 73 23
REMARK SMILES IDX 9 24 10 25 11 26 12 27 13 28 14 30 15 31 16 32 62 33 17 34
REMARK SMILES IDX 61 35 18 36 19 37 20 38 55 39 21 40 60 41 54 42 56 43 22 44
REMARK SMILES IDX 59 45 53 46 52 47 23 49 45 50 30 51 44 52 31 53 34 54 43 55
REMARK SMILES IDX 57 56 32 57 33 58 42 60 58 61 35 62 24 63 25 64 29 65 26 66
REMARK SMILES IDX 28 67 27 68 46 69 47 70 51 71 48 72 50 73 49 74 36 75 37 76
REMARK SMILES IDX 41 77 38 78 40 79 39 80
REMARK H PARENT 5 7 12 29 56 48 34 59
REMARK Flexibility Score: inf
ROOT
ATOM      1  C   UNL A   1      36.999  21.966  23.961  1.00  0.00     0.002 C 
ENDROOT
BRANCH   1   2
ATOM      2  C   UNL A   1      36.869  23.303  24.705  1.00  0.00     0.021 C 
BRANCH   2   3
ATOM      3  C   UNL A   1      35.430  23.812  24.842  1.00  0.00     0.116 C 
BRANCH   3   4
ATOM      4  N   UNL A   1      34.838  23.998  23.534  1.00  0.00    -0.356 N 
ATOM      5  C   UNL A   1      33.906  23.247  22.877  1.00  0.00     0.227 C 
ATOM      6  O   UNL A   1      33.868  23.398  21.657  1.00  0.00    -0.274 OA
ATOM      7  H   UNL A   1      35.156  24.788  23.041  1.00  0.00     0.163 HD
BRANCH   5   8
ATOM      8  C   UNL A   1      32.998  22.295  23.676  1.00  0.00     0.105 C 
ATOM      9  C   UNL A   1      32.290  21.315  22.731  1.00  0.00     0.023 C 
BRANCH   8  10
ATOM     10  C   UNL A   1      31.971  22.920  24.630  1.00  0.00    -0.035 A 
ATOM     11  C   UNL A   1      31.399  22.268  25.729  1.00  0.00     0.004 A 
ATOM     12  C   UNL A   1      31.602  24.266  24.412  1.00  0.00     0.016 A 
ATOM     13  C   UNL A   1      30.500  22.922  26.576  1.00  0.00     0.001 A 
ATOM     14  C   UNL A   1      30.700  24.933  25.256  1.00  0.00     0.023 A 
ATOM     15  C   UNL A   1      30.154  24.249  26.343  1.00  0.00     0.012 A 
BRANCH  14  16
ATOM     16  C   UNL A   1      30.356  26.375  25.087  1.00  0.00     0.193 C 
ATOM     17  O   UNL A   1      29.278  26.702  24.599  1.00  0.00    -0.289 OA
BRANCH  16  18
ATOM     18  C   UNL A   1      31.261  27.450  25.550  1.00  0.00     0.022 A 
ATOM     19  C   UNL A   1      31.365  27.678  26.926  1.00  0.00     0.012 A 
ATOM     20  C   UNL A   1      31.984  28.237  24.647  1.00  0.00     0.012 A 
ATOM     21  C   UNL A   1      32.227  28.665  27.402  1.00  0.00     0.001 A 
ATOM     22  C   UNL A   1      32.850  29.219  25.130  1.00  0.00     0.001 A 
ATOM     23  C   UNL A   1      32.974  29.428  26.504  1.00  0.00     0.000 A 
ENDBRANCH  16  18
ENDBRANCH  14  16
ENDBRANCH   8  10
ENDBRANCH   5   8
ENDBRANCH   3   4
ENDBRANCH   2   3
ENDBRANCH   1   2
BRANCH   1  24
ATOM     24  C   UNL A   1      36.609  20.733  24.780  1.00  0.00     0.002 C 
BRANCH  24  25
ATOM     25  C   UNL A   1      37.738  19.723  24.985  1.00  0.00     0.021 C 
BRANCH  25  26
ATOM     26  C   UNL A   1      38.936  20.269  25.753  1.00  0.00     0.116 C 
BRANCH  26  27
ATOM     27  N   UNL A   1      40.035  19.316  25.801  1.00  0.00    -0.352 N 
ATOM     28  C   UNL A   1      41.359  19.541  26.076  1.00  0.00     0.251 C 
ATOM     29  H   UNL A   1      39.794  18.382  25.609  1.00  0.00     0.163 HD
ATOM     30  O   UNL A   1      42.194  18.662  25.877  1.00  0.00    -0.269 OA
BRANCH  28  31
ATOM     31  C   UNL A   1      41.782  20.857  26.597  1.00  0.00     0.039 A 
ATOM     32  C   UNL A   1      42.205  21.837  25.697  1.00  0.00     0.014 A 
ATOM     33  C   UNL A   1      41.752  21.124  27.968  1.00  0.00     0.014 A 
ATOM     34  C   UNL A   1      42.542  23.107  26.168  1.00  0.00     0.010 A 
ATOM     35  C   UNL A   1      42.010  22.411  28.427  1.00  0.00     0.010 A 
ATOM     36  C   UNL A   1      42.413  23.415  27.532  1.00  0.00    -0.014 A 
BRANCH  36  37
ATOM     37  C   UNL A   1      42.695  24.781  28.043  1.00  0.00     0.031 A 
ATOM     38  C   UNL A   1      44.091  25.162  28.455  1.00  0.00     0.074 A 
ATOM     39  C   UNL A   1      41.684  25.658  28.190  1.00  0.00     0.049 A 
ATOM     40  N   UNL A   1      44.521  26.285  28.969  1.00  0.00    -0.248 NA
ATOM     41  C   UNL A   1      45.137  24.139  28.288  1.00  0.00     0.031 C 
ATOM     42  C   UNL A   1      40.280  25.400  27.861  1.00  0.00     0.029 A 
ATOM     43  N   UNL A   1      41.683  26.948  28.660  1.00  0.00    -0.354 N 
ATOM     44  C   UNL A   1      45.878  26.100  29.200  1.00  0.00     0.074 A 
ATOM     45  C   UNL A   1      46.189  24.739  28.822  1.00  0.00     0.031 C 
ATOM     46  C   UNL A   1      39.560  26.506  28.111  1.00  0.00     0.029 A 
ATOM     47  C   UNL A   1      40.439  27.533  28.658  1.00  0.00     0.049 A 
ATOM     48  H   UNL A   1      42.495  27.411  28.968  1.00  0.00     0.167 HD
ATOM     49  C   UNL A   1      46.789  26.987  29.667  1.00  0.00     0.031 A 
ATOM     50  C   UNL A   1      40.048  28.757  29.062  1.00  0.00     0.031 A 
ATOM     51  C   UNL A   1      46.479  28.342  30.040  1.00  0.00     0.049 A 
ATOM     52  C   UNL A   1      41.075  29.714  29.603  1.00  0.00     0.074 A 
ATOM     53  C   UNL A   1      47.342  29.333  30.475  1.00  0.00     0.029 A 
ATOM     54  N   UNL A   1      45.208  28.894  30.025  1.00  0.00    -0.354 N 
ATOM     55  N   UNL A   1      42.365  29.545  29.751  1.00  0.00    -0.248 NA
ATOM     56  C   UNL A   1      40.588  31.036  30.023  1.00  0.00     0.031 C 
ATOM     57  C   UNL A   1      46.582  30.467  30.782  1.00  0.00     0.029 A 
ATOM     58  C   UNL A   1      45.258  30.204  30.472  1.00  0.00     0.049 A 
ATOM     59  H   UNL A   1      44.391  28.424  29.740  1.00  0.00     0.167 HD
ATOM     60  C   UNL A   1      42.852  30.747  30.248  1.00  0.00     0.074 A 
ATOM     61  C   UNL A   1      41.717  31.642  30.361  1.00  0.00     0.031 C 
ATOM     62  C   UNL A   1      44.123  31.083  30.579  1.00  0.00     0.031 A 
BRANCH  49  63
ATOM     63  C   UNL A   1      48.210  26.514  29.811  1.00  0.00    -0.014 A 
ATOM     64  C   UNL A   1      49.138  26.665  28.768  1.00  0.00     0.009 A 
ATOM     65  C   UNL A   1      48.638  25.948  31.022  1.00  0.00     0.009 A 
ATOM     66  C   UNL A   1      50.455  26.225  28.923  1.00  0.00     0.001 A 
ATOM     67  C   UNL A   1      49.963  25.539  31.185  1.00  0.00     0.001 A 
ATOM     68  C   UNL A   1      50.867  25.668  30.133  1.00  0.00     0.000 A 
ENDBRANCH  49  63
BRANCH  50  69
ATOM     69  C   UNL A   1      38.619  29.156  28.962  1.00  0.00    -0.014 A 
ATOM     70  C   UNL A   1      38.103  29.672  27.764  1.00  0.00     0.009 A 
ATOM     71  C   UNL A   1      37.766  29.040  30.072  1.00  0.00     0.009 A 
ATOM     72  C   UNL A   1      36.773  30.093  27.687  1.00  0.00     0.001 A 
ATOM     73  C   UNL A   1      36.428  29.430  29.983  1.00  0.00     0.001 A 
ATOM     74  C   UNL A   1      35.935  29.968  28.794  1.00  0.00     0.000 A 
ENDBRANCH  50  69
BRANCH  62  75
ATOM     75  C   UNL A   1      44.364  32.489  31.052  1.00  0.00    -0.014 A 
ATOM     76  C   UNL A   1      44.643  33.528  30.150  1.00  0.00     0.009 A 
ATOM     77  C   UNL A   1      44.267  32.784  32.421  1.00  0.00     0.009 A 
ATOM     78  C   UNL A   1      44.855  34.828  30.616  1.00  0.00     0.001 A 
ATOM     79  C   UNL A   1      44.446  34.091  32.879  1.00  0.00     0.001 A 
ATOM     80  C   UNL A   1      44.750  35.108  31.978  1.00  0.00     0.000 A 
ENDBRANCH  62  75
ENDBRANCH  36  37
ENDBRANCH  28  31
ENDBRANCH  26  27
ENDBRANCH  25  26
ENDBRANCH  24  25
ENDBRANCH   1  24
TORSDOF 16
ENDMDL
