MODEL 1
REMARK VINA RESULT:     -12.1      0.000      0.000
REMARK SMILES Cc1cccc(NS(=O)(=O)c2ccc(Br)c(C(=O)NCCCCCCNC(=O)c3ccc(-c4c5nc(c(-c6ccccc6)c6ccc([nH]6)c(-c6ccccc6)c6nc(c(-c7ccccc7)c7ccc4[nH]7)C=C6)C=C5)cc3)c2)c1
REMARK SMILES IDX 22 1 21 2 20 3 19 4 17 5 18 6 16 8 11 9 12 10 77 11 13 12
REMARK SMILES IDX 14 13 15 14 8 15 9 16 10 17 7 18 6 20 1 21 2 22 3 23 78 24
REMARK SMILES IDX 4 25 5 26 23 27 24 28 25 29 26 30 27 31 28 33 29 34 30 35
REMARK SMILES IDX 76 36 31 37 75 38 32 39 33 40 34 41 69 42 35 43 74 44 68 45
REMARK SMILES IDX 70 46 36 47 73 48 67 49 66 50 37 52 59 53 44 54 58 55 45 56
REMARK SMILES IDX 48 57 57 58 71 59 46 60 47 61 56 63 72 64 49 65 38 66 39 67
REMARK SMILES IDX 43 68 40 69 42 70 41 71 60 72 61 73 65 74 62 75 64 76 63 77
REMARK SMILES IDX 50 78 51 79 55 80 52 81 54 82 53 83
REMARK H PARENT 19 7 7 19 26 32 70 51 48 62
REMARK Flexibility Score: inf
ROOT
ATOM      1  C   UNL A   1      34.093  27.833  25.301  1.00  0.00     0.002 C 
ENDROOT
BRANCH   1   2
ATOM      2  C   UNL A   1      34.017  28.477  23.918  1.00  0.00     0.021 C 
BRANCH   2   3
ATOM      3  C   UNL A   1      32.879  28.054  23.002  1.00  0.00     0.116 C 
BRANCH   3   4
ATOM      4  N   UNL A   1      33.181  27.161  21.904  1.00  0.00    -0.352 N 
ATOM      5  C   UNL A   1      33.189  25.774  21.887  1.00  0.00     0.252 C 
ATOM      6  O   UNL A   1      33.300  25.201  20.805  1.00  0.00    -0.269 OA
ATOM      7  H   UNL A   1      33.410  27.597  21.052  1.00  0.00     0.163 HD
BRANCH   5   8
ATOM      8  C   UNL A   1      33.233  24.968  23.146  1.00  0.00     0.055 A 
ATOM      9  C   UNL A   1      34.632  23.795  24.748  1.00  0.00     0.088 A 
ATOM     10  C   UNL A   1      33.786  24.189  25.776  1.00  0.00     0.023 A 
ATOM     11  C   UNL A   1      34.424  24.294  23.451  1.00  0.00     0.037 A 
ATOM     12  C   UNL A   1      32.521  24.656  25.429  1.00  0.00     0.018 A 
ATOM     13  C   UNL A   1      32.211  24.888  24.088  1.00  0.00     0.030 A 
ATOM     14  Br  UNL A   1      30.385  24.658  23.587  1.00  0.00    -0.050 Br
BRANCH   9  15
ATOM     15  S   UNL A   1      35.861  22.535  24.992  1.00  0.00     0.261 S 
ATOM     16  O   UNL A   1      36.693  22.993  26.090  1.00  0.00    -0.201 OA
ATOM     17  O   UNL A   1      36.443  22.259  23.697  1.00  0.00    -0.201 OA
BRANCH  15  18
ATOM     18  N   UNL A   1      35.206  21.058  25.520  1.00  0.00    -0.280 N 
ATOM     19  H   UNL A   1      35.487  20.748  26.411  1.00  0.00     0.180 HD
BRANCH  18  20
ATOM     20  C   UNL A   1      34.290  20.212  24.813  1.00  0.00     0.049 A 
ATOM     21  C   UNL A   1      34.213  16.547  23.714  1.00  0.00     0.044 C 
ATOM     22  C   UNL A   1      33.797  17.964  23.982  1.00  0.00    -0.049 A 
ATOM     23  C   UNL A   1      32.540  18.406  23.567  1.00  0.00     0.003 A 
ATOM     24  C   UNL A   1      34.651  18.867  24.634  1.00  0.00     0.030 A 
ATOM     25  C   UNL A   1      32.227  19.762  23.633  1.00  0.00     0.002 A 
ATOM     26  C   UNL A   1      33.146  20.673  24.169  1.00  0.00     0.027 A 
ENDBRANCH  18  20
ENDBRANCH  15  18
ENDBRANCH   9  15
ENDBRANCH   5   8
ENDBRANCH   3   4
ENDBRANCH   2   3
ENDBRANCH   1   2
BRANCH   1  27
ATOM     27  C   UNL A   1      33.496  28.596  26.491  1.00  0.00     0.002 C 
BRANCH  27  28
ATOM     28  C   UNL A   1      33.490  30.120  26.431  1.00  0.00     0.021 C 
BRANCH  28  29
ATOM     29  C   UNL A   1      33.330  30.834  27.758  1.00  0.00     0.116 C 
BRANCH  29  30
ATOM     30  N   UNL A   1      34.373  31.807  28.043  1.00  0.00    -0.352 N 
ATOM     31  C   UNL A   1      35.668  31.632  28.492  1.00  0.00     0.251 C 
ATOM     32  H   UNL A   1      34.113  32.744  27.890  1.00  0.00     0.163 HD
ATOM     33  O   UNL A   1      36.339  32.620  28.782  1.00  0.00    -0.269 OA
BRANCH  31  34
ATOM     34  C   UNL A   1      36.325  30.297  28.428  1.00  0.00     0.039 A 
ATOM     35  C   UNL A   1      36.439  29.615  29.648  1.00  0.00     0.014 A 
ATOM     36  C   UNL A   1      37.160  29.963  27.374  1.00  0.00     0.014 A 
ATOM     37  C   UNL A   1      37.603  28.914  29.921  1.00  0.00     0.010 A 
ATOM     38  C   UNL A   1      38.381  29.429  27.682  1.00  0.00     0.010 A 
ATOM     39  C   UNL A   1      38.619  28.983  28.982  1.00  0.00    -0.014 A 
BRANCH  39  40
ATOM     40  C   UNL A   1      39.980  28.558  29.203  1.00  0.00     0.031 A 
ATOM     41  C   UNL A   1      40.347  27.236  28.686  1.00  0.00     0.074 A 
ATOM     42  C   UNL A   1      40.864  29.473  29.653  1.00  0.00     0.049 A 
ATOM     43  N   UNL A   1      41.432  26.623  28.977  1.00  0.00    -0.248 NA
ATOM     44  C   UNL A   1      39.462  26.461  27.814  1.00  0.00     0.031 C 
ATOM     45  C   UNL A   1      42.320  29.446  29.602  1.00  0.00     0.029 A 
ATOM     46  N   UNL A   1      40.574  30.565  30.470  1.00  0.00    -0.354 N 
ATOM     47  C   UNL A   1      41.539  25.560  28.112  1.00  0.00     0.074 A 
ATOM     48  C   UNL A   1      40.243  25.427  27.500  1.00  0.00     0.031 C 
ATOM     49  C   UNL A   1      42.805  30.279  30.542  1.00  0.00     0.029 A 
ATOM     50  C   UNL A   1      41.671  30.731  31.335  1.00  0.00     0.049 A 
ATOM     51  H   UNL A   1      39.758  31.116  30.445  1.00  0.00     0.167 HD
ATOM     52  C   UNL A   1      42.774  25.029  27.911  1.00  0.00     0.031 A 
ATOM     53  C   UNL A   1      41.517  30.472  32.670  1.00  0.00     0.031 A 
ATOM     54  C   UNL A   1      43.724  25.597  28.866  1.00  0.00     0.049 A 
ATOM     55  C   UNL A   1      42.324  29.269  33.117  1.00  0.00     0.074 A 
ATOM     56  C   UNL A   1      44.653  26.620  28.769  1.00  0.00     0.029 A 
ATOM     57  N   UNL A   1      43.501  25.391  30.224  1.00  0.00    -0.354 N 
ATOM     58  N   UNL A   1      42.694  28.296  32.325  1.00  0.00    -0.248 NA
ATOM     59  C   UNL A   1      42.810  29.092  34.481  1.00  0.00     0.031 C 
ATOM     60  C   UNL A   1      44.901  27.101  30.087  1.00  0.00     0.029 A 
ATOM     61  C   UNL A   1      44.162  26.341  30.978  1.00  0.00     0.049 A 
ATOM     62  H   UNL A   1      42.947  24.667  30.596  1.00  0.00     0.167 HD
ATOM     63  C   UNL A   1      43.482  27.413  33.018  1.00  0.00     0.074 A 
ATOM     64  C   UNL A   1      43.514  27.951  34.367  1.00  0.00     0.031 C 
ATOM     65  C   UNL A   1      44.057  26.320  32.434  1.00  0.00     0.031 A 
BRANCH  52  66
ATOM     66  C   UNL A   1      43.176  24.209  26.713  1.00  0.00    -0.014 A 
ATOM     67  C   UNL A   1      42.827  22.847  26.679  1.00  0.00     0.009 A 
ATOM     68  C   UNL A   1      43.963  24.665  25.640  1.00  0.00     0.009 A 
ATOM     69  C   UNL A   1      43.267  21.990  25.661  1.00  0.00     0.001 A 
ATOM     70  C   UNL A   1      44.406  23.815  24.616  1.00  0.00     0.001 A 
ATOM     71  C   UNL A   1      44.063  22.473  24.631  1.00  0.00     0.000 A 
ENDBRANCH  52  66
BRANCH  53  72
ATOM     72  C   UNL A   1      40.149  30.839  33.160  1.00  0.00    -0.014 A 
ATOM     73  C   UNL A   1      39.727  32.173  32.958  1.00  0.00     0.009 A 
ATOM     74  C   UNL A   1      39.168  29.854  33.345  1.00  0.00     0.009 A 
ATOM     75  C   UNL A   1      38.378  32.473  32.741  1.00  0.00     0.001 A 
ATOM     76  C   UNL A   1      37.813  30.170  33.164  1.00  0.00     0.001 A 
ATOM     77  C   UNL A   1      37.426  31.460  32.800  1.00  0.00     0.000 A 
ENDBRANCH  53  72
BRANCH  65  78
ATOM     78  C   UNL A   1      44.641  25.129  33.165  1.00  0.00    -0.014 A 
ATOM     79  C   UNL A   1      44.009  23.886  33.285  1.00  0.00     0.009 A 
ATOM     80  C   UNL A   1      45.971  25.202  33.643  1.00  0.00     0.009 A 
ATOM     81  C   UNL A   1      44.648  22.796  33.892  1.00  0.00     0.001 A 
ATOM     82  C   UNL A   1      46.636  24.102  34.187  1.00  0.00     0.001 A 
ATOM     83  C   UNL A   1      45.965  22.898  34.328  1.00  0.00     0.000 A 
ENDBRANCH  65  78
ENDBRANCH  39  40
ENDBRANCH  31  34
ENDBRANCH  29  30
ENDBRANCH  28  29
ENDBRANCH  27  28
ENDBRANCH   1  27
TORSDOF 16
ENDMDL
MODEL 2
REMARK VINA RESULT:     -11.6      1.780      2.732
REMARK SMILES Cc1cccc(NS(=O)(=O)c2ccc(Br)c(C(=O)NCCCCCCNC(=O)c3ccc(-c4c5nc(c(-c6ccccc6)c6ccc([nH]6)c(-c6ccccc6)c6nc(c(-c7ccccc7)c7ccc4[nH]7)C=C6)C=C5)cc3)c2)c1
REMARK SMILES IDX 22 1 21 2 20 3 19 4 17 5 18 6 16 8 11 9 12 10 77 11 13 12
REMARK SMILES IDX 14 13 15 14 8 15 9 16 10 17 7 18 6 20 1 21 2 22 3 23 78 24
REMARK SMILES IDX 4 25 5 26 23 27 24 28 25 29 26 30 27 31 28 33 29 34 30 35
REMARK SMILES IDX 76 36 31 37 75 38 32 39 33 40 34 41 69 42 35 43 74 44 68 45
REMARK SMILES IDX 70 46 36 47 73 48 67 49 66 50 37 52 59 53 44 54 58 55 45 56
REMARK SMILES IDX 48 57 57 58 71 59 46 60 47 61 56 63 72 64 49 65 38 66 39 67
REMARK SMILES IDX 43 68 40 69 42 70 41 71 60 72 61 73 65 74 62 75 64 76 63 77
REMARK SMILES IDX 50 78 51 79 55 80 52 81 54 82 53 83
REMARK H PARENT 19 7 7 19 26 32 70 51 48 62
REMARK Flexibility Score: inf
ROOT
ATOM      1  C   UNL A   1      33.241  28.565  25.091  1.00  0.00     0.002 C 
ENDROOT
BRANCH   1   2
ATOM      2  C   UNL A   1      33.079  28.962  23.624  1.00  0.00     0.021 C 
BRANCH   2   3
ATOM      3  C   UNL A   1      34.010  28.317  22.610  1.00  0.00     0.116 C 
BRANCH   3   4
ATOM      4  N   UNL A   1      33.437  27.422  21.628  1.00  0.00    -0.352 N 
ATOM      5  C   UNL A   1      32.889  26.161  21.814  1.00  0.00     0.252 C 
ATOM      6  O   UNL A   1      32.293  25.636  20.874  1.00  0.00    -0.269 OA
ATOM      7  H   UNL A   1      33.435  27.753  20.701  1.00  0.00     0.163 HD
BRANCH   5   8
ATOM      8  C   UNL A   1      33.139  25.365  23.055  1.00  0.00     0.055 A 
ATOM      9  C   UNL A   1      34.798  24.295  24.470  1.00  0.00     0.088 A 
ATOM     10  C   UNL A   1      34.059  24.635  25.594  1.00  0.00     0.023 A 
ATOM     11  C   UNL A   1      34.401  24.774  23.209  1.00  0.00     0.037 A 
ATOM     12  C   UNL A   1      32.731  25.014  25.405  1.00  0.00     0.018 A 
ATOM     13  C   UNL A   1      32.246  25.219  24.113  1.00  0.00     0.030 A 
ATOM     14  Br  UNL A   1      30.393  24.864  23.836  1.00  0.00    -0.050 Br
BRANCH   9  15
ATOM     15  S   UNL A   1      36.131  23.122  24.557  1.00  0.00     0.261 S 
ATOM     16  O   UNL A   1      37.101  23.686  25.478  1.00  0.00    -0.201 OA
ATOM     17  O   UNL A   1      36.506  22.811  23.196  1.00  0.00    -0.201 OA
BRANCH  15  18
ATOM     18  N   UNL A   1      35.670  21.641  25.252  1.00  0.00    -0.280 N 
ATOM     19  H   UNL A   1      36.158  21.367  26.062  1.00  0.00     0.180 HD
BRANCH  18  20
ATOM     20  C   UNL A   1      34.650  20.746  24.790  1.00  0.00     0.049 A 
ATOM     21  C   UNL A   1      34.407  17.000  24.041  1.00  0.00     0.044 C 
ATOM     22  C   UNL A   1      34.034  18.439  24.254  1.00  0.00    -0.049 A 
ATOM     23  C   UNL A   1      32.721  18.855  24.029  1.00  0.00     0.003 A 
ATOM     24  C   UNL A   1      34.984  19.387  24.667  1.00  0.00     0.030 A 
ATOM     25  C   UNL A   1      32.416  20.213  24.032  1.00  0.00     0.002 A 
ATOM     26  C   UNL A   1      33.408  21.159  24.320  1.00  0.00     0.027 A 
ENDBRANCH  18  20
ENDBRANCH  15  18
ENDBRANCH   9  15
ENDBRANCH   5   8
ENDBRANCH   3   4
ENDBRANCH   2   3
ENDBRANCH   1   2
BRANCH   1  27
ATOM     27  C   UNL A   1      33.414  29.681  26.130  1.00  0.00     0.002 C 
BRANCH  27  28
ATOM     28  C   UNL A   1      34.328  29.410  27.321  1.00  0.00     0.021 C 
BRANCH  28  29
ATOM     29  C   UNL A   1      35.010  30.624  27.921  1.00  0.00     0.116 C 
BRANCH  29  30
ATOM     30  N   UNL A   1      34.195  31.829  27.919  1.00  0.00    -0.352 N 
ATOM     31  C   UNL A   1      34.244  32.949  28.728  1.00  0.00     0.251 C 
ATOM     32  H   UNL A   1      33.495  31.850  27.227  1.00  0.00     0.163 HD
ATOM     33  O   UNL A   1      33.367  33.803  28.620  1.00  0.00    -0.269 OA
BRANCH  31  34
ATOM     34  C   UNL A   1      35.441  33.235  29.565  1.00  0.00     0.039 A 
ATOM     35  C   UNL A   1      36.538  33.792  28.890  1.00  0.00     0.014 A 
ATOM     36  C   UNL A   1      35.636  32.590  30.776  1.00  0.00     0.014 A 
ATOM     37  C   UNL A   1      37.815  33.367  29.216  1.00  0.00     0.010 A 
ATOM     38  C   UNL A   1      36.863  32.027  31.000  1.00  0.00     0.010 A 
ATOM     39  C   UNL A   1      37.927  32.360  30.162  1.00  0.00    -0.014 A 
BRANCH  39  40
ATOM     40  C   UNL A   1      39.127  31.607  30.430  1.00  0.00     0.031 A 
ATOM     41  C   UNL A   1      39.241  30.300  29.777  1.00  0.00     0.074 A 
ATOM     42  C   UNL A   1      40.140  32.235  31.063  1.00  0.00     0.049 A 
ATOM     43  N   UNL A   1      40.125  29.422  30.069  1.00  0.00    -0.248 NA
ATOM     44  C   UNL A   1      38.301  29.853  28.747  1.00  0.00     0.031 C 
ATOM     45  C   UNL A   1      41.551  31.872  31.121  1.00  0.00     0.029 A 
ATOM     46  N   UNL A   1      40.018  33.270  31.988  1.00  0.00    -0.354 N 
ATOM     47  C   UNL A   1      40.082  28.463  29.085  1.00  0.00     0.074 A 
ATOM     48  C   UNL A   1      38.860  28.704  28.363  1.00  0.00     0.031 C 
ATOM     49  C   UNL A   1      42.108  32.462  32.195  1.00  0.00     0.029 A 
ATOM     50  C   UNL A   1      41.027  33.079  32.950  1.00  0.00     0.049 A 
ATOM     51  H   UNL A   1      39.353  33.996  31.973  1.00  0.00     0.167 HD
ATOM     52  C   UNL A   1      41.181  27.681  28.914  1.00  0.00     0.031 A 
ATOM     53  C   UNL A   1      40.680  32.721  34.225  1.00  0.00     0.031 A 
ATOM     54  C   UNL A   1      42.128  27.904  30.004  1.00  0.00     0.049 A 
ATOM     55  C   UNL A   1      41.146  31.321  34.573  1.00  0.00     0.074 A 
ATOM     56  C   UNL A   1      43.267  28.685  30.113  1.00  0.00     0.029 A 
ATOM     57  N   UNL A   1      41.723  27.611  31.302  1.00  0.00    -0.354 N 
ATOM     58  N   UNL A   1      41.370  30.380  33.693  1.00  0.00    -0.248 NA
ATOM     59  C   UNL A   1      41.434  30.889  35.936  1.00  0.00     0.031 C 
ATOM     60  C   UNL A   1      43.476  28.950  31.496  1.00  0.00     0.029 A 
ATOM     61  C   UNL A   1      42.497  28.292  32.222  1.00  0.00     0.049 A 
ATOM     62  H   UNL A   1      40.986  27.001  31.534  1.00  0.00     0.167 HD
ATOM     63  C   UNL A   1      41.863  29.267  34.325  1.00  0.00     0.074 A 
ATOM     64  C   UNL A   1      41.873  29.634  35.731  1.00  0.00     0.031 C 
ATOM     65  C   UNL A   1      42.238  28.139  33.650  1.00  0.00     0.031 A 
BRANCH  52  66
ATOM     66  C   UNL A   1      41.513  26.925  27.654  1.00  0.00    -0.014 A 
ATOM     67  C   UNL A   1      41.167  25.563  27.573  1.00  0.00     0.009 A 
ATOM     68  C   UNL A   1      42.233  27.438  26.560  1.00  0.00     0.009 A 
ATOM     69  C   UNL A   1      41.547  24.760  26.489  1.00  0.00     0.001 A 
ATOM     70  C   UNL A   1      42.616  26.642  25.471  1.00  0.00     0.001 A 
ATOM     71  C   UNL A   1      42.279  25.299  25.439  1.00  0.00     0.000 A 
ENDBRANCH  52  66
BRANCH  53  72
ATOM     72  C   UNL A   1      39.385  33.343  34.651  1.00  0.00    -0.014 A 
ATOM     73  C   UNL A   1      38.195  32.730  34.199  1.00  0.00     0.009 A 
ATOM     74  C   UNL A   1      39.323  34.150  35.797  1.00  0.00     0.009 A 
ATOM     75  C   UNL A   1      37.034  32.754  34.981  1.00  0.00     0.001 A 
ATOM     76  C   UNL A   1      38.145  34.199  36.557  1.00  0.00     0.001 A 
ATOM     77  C   UNL A   1      37.026  33.453  36.183  1.00  0.00     0.000 A 
ENDBRANCH  53  72
BRANCH  65  78
ATOM     78  C   UNL A   1      42.460  26.773  34.265  1.00  0.00    -0.014 A 
ATOM     79  C   UNL A   1      41.532  26.107  35.073  1.00  0.00     0.009 A 
ATOM     80  C   UNL A   1      43.610  26.034  33.896  1.00  0.00     0.009 A 
ATOM     81  C   UNL A   1      41.762  24.802  35.530  1.00  0.00     0.001 A 
ATOM     82  C   UNL A   1      43.812  24.711  34.292  1.00  0.00     0.001 A 
ATOM     83  C   UNL A   1      42.893  24.099  35.128  1.00  0.00     0.000 A 
ENDBRANCH  65  78
ENDBRANCH  39  40
ENDBRANCH  31  34
ENDBRANCH  29  30
ENDBRANCH  28  29
ENDBRANCH  27  28
ENDBRANCH   1  27
TORSDOF 16
ENDMDL
MODEL 3
REMARK VINA RESULT:     -11.6      1.668      2.134
REMARK SMILES Cc1cccc(NS(=O)(=O)c2ccc(Br)c(C(=O)NCCCCCCNC(=O)c3ccc(-c4c5nc(c(-c6ccccc6)c6ccc([nH]6)c(-c6ccccc6)c6nc(c(-c7ccccc7)c7ccc4[nH]7)C=C6)C=C5)cc3)c2)c1
REMARK SMILES IDX 22 1 21 2 20 3 19 4 17 5 18 6 16 8 11 9 12 10 77 11 13 12
REMARK SMILES IDX 14 13 15 14 8 15 9 16 10 17 7 18 6 20 1 21 2 22 3 23 78 24
REMARK SMILES IDX 4 25 5 26 23 27 24 28 25 29 26 30 27 31 28 33 29 34 30 35
REMARK SMILES IDX 76 36 31 37 75 38 32 39 33 40 34 41 69 42 35 43 74 44 68 45
REMARK SMILES IDX 70 46 36 47 73 48 67 49 66 50 37 52 59 53 44 54 58 55 45 56
REMARK SMILES IDX 48 57 57 58 71 59 46 60 47 61 56 63 72 64 49 65 38 66 39 67
REMARK SMILES IDX 43 68 40 69 42 70 41 71 60 72 61 73 65 74 62 75 64 76 63 77
REMARK SMILES IDX 50 78 51 79 55 80 52 81 54 82 53 83
REMARK H PARENT 19 7 7 19 26 32 70 51 48 62
REMARK Flexibility Score: inf
ROOT
ATOM      1  C   UNL A   1      33.519  27.687  25.552  1.00  0.00     0.002 C 
ENDROOT
BRANCH   1   2
ATOM      2  C   UNL A   1      33.881  28.137  24.137  1.00  0.00     0.021 C 
BRANCH   2   3
ATOM      3  C   UNL A   1      32.741  28.496  23.197  1.00  0.00     0.116 C 
BRANCH   3   4
ATOM      4  N   UNL A   1      32.472  27.615  22.081  1.00  0.00    -0.352 N 
ATOM      5  C   UNL A   1      31.623  26.519  22.021  1.00  0.00     0.252 C 
ATOM      6  O   UNL A   1      31.401  26.007  20.925  1.00  0.00    -0.269 OA
ATOM      7  H   UNL A   1      32.958  27.821  21.250  1.00  0.00     0.163 HD
BRANCH   5   8
ATOM      8  C   UNL A   1      31.106  25.851  23.255  1.00  0.00     0.055 A 
ATOM      9  C   UNL A   1      31.427  24.070  24.875  1.00  0.00     0.088 A 
ATOM     10  C   UNL A   1      30.941  24.895  25.879  1.00  0.00     0.023 A 
ATOM     11  C   UNL A   1      31.630  24.593  23.586  1.00  0.00     0.037 A 
ATOM     12  C   UNL A   1      30.235  26.033  25.496  1.00  0.00     0.018 A 
ATOM     13  C   UNL A   1      30.197  26.406  24.151  1.00  0.00     0.030 A 
ATOM     14  Br  UNL A   1      28.632  27.328  23.571  1.00  0.00    -0.050 Br
BRANCH   9  15
ATOM     15  S   UNL A   1      31.630  22.323  25.129  1.00  0.00     0.261 S 
ATOM     16  O   UNL A   1      31.874  21.752  23.816  1.00  0.00    -0.201 OA
ATOM     17  O   UNL A   1      30.507  21.880  25.923  1.00  0.00    -0.201 OA
BRANCH  15  18
ATOM     18  N   UNL A   1      33.012  21.938  26.041  1.00  0.00    -0.280 N 
ATOM     19  H   UNL A   1      32.871  21.366  26.829  1.00  0.00     0.180 HD
BRANCH  18  20
ATOM     20  C   UNL A   1      34.361  22.354  25.791  1.00  0.00     0.049 A 
ATOM     21  C   UNL A   1      37.642  20.630  24.836  1.00  0.00     0.044 C 
ATOM     22  C   UNL A   1      36.624  21.692  25.138  1.00  0.00    -0.049 A 
ATOM     23  C   UNL A   1      37.004  23.035  25.139  1.00  0.00     0.003 A 
ATOM     24  C   UNL A   1      35.291  21.365  25.433  1.00  0.00     0.030 A 
ATOM     25  C   UNL A   1      36.121  24.003  25.610  1.00  0.00     0.002 A 
ATOM     26  C   UNL A   1      34.833  23.642  26.024  1.00  0.00     0.027 A 
ENDBRANCH  18  20
ENDBRANCH  15  18
ENDBRANCH   9  15
ENDBRANCH   5   8
ENDBRANCH   3   4
ENDBRANCH   2   3
ENDBRANCH   1   2
BRANCH   1  27
ATOM     27  C   UNL A   1      34.036  28.519  26.733  1.00  0.00     0.002 C 
BRANCH  27  28
ATOM     28  C   UNL A   1      33.984  30.039  26.611  1.00  0.00     0.021 C 
BRANCH  28  29
ATOM     29  C   UNL A   1      33.739  30.797  27.900  1.00  0.00     0.116 C 
BRANCH  29  30
ATOM     30  N   UNL A   1      34.784  31.748  28.243  1.00  0.00    -0.352 N 
ATOM     31  C   UNL A   1      36.091  31.541  28.645  1.00  0.00     0.251 C 
ATOM     32  H   UNL A   1      34.518  32.694  28.175  1.00  0.00     0.163 HD
ATOM     33  O   UNL A   1      36.765  32.505  29.003  1.00  0.00    -0.269 OA
BRANCH  31  34
ATOM     34  C   UNL A   1      36.750  30.221  28.453  1.00  0.00     0.039 A 
ATOM     35  C   UNL A   1      36.744  29.368  29.567  1.00  0.00     0.014 A 
ATOM     36  C   UNL A   1      37.683  30.029  27.447  1.00  0.00     0.014 A 
ATOM     37  C   UNL A   1      37.875  28.619  29.847  1.00  0.00     0.010 A 
ATOM     38  C   UNL A   1      38.868  29.438  27.791  1.00  0.00     0.010 A 
ATOM     39  C   UNL A   1      38.978  28.807  29.029  1.00  0.00    -0.014 A 
BRANCH  39  40
ATOM     40  C   UNL A   1      40.311  28.334  29.317  1.00  0.00     0.031 A 
ATOM     41  C   UNL A   1      40.661  27.007  28.804  1.00  0.00     0.074 A 
ATOM     42  C   UNL A   1      41.199  29.215  29.824  1.00  0.00     0.049 A 
ATOM     43  N   UNL A   1      41.709  26.355  29.145  1.00  0.00    -0.248 NA
ATOM     44  C   UNL A   1      39.798  26.271  27.878  1.00  0.00     0.031 C 
ATOM     45  C   UNL A   1      42.654  29.140  29.849  1.00  0.00     0.029 A 
ATOM     46  N   UNL A   1      40.901  30.308  30.637  1.00  0.00    -0.354 N 
ATOM     47  C   UNL A   1      41.826  25.297  28.274  1.00  0.00     0.074 A 
ATOM     48  C   UNL A   1      40.561  25.214  27.593  1.00  0.00     0.031 C 
ATOM     49  C   UNL A   1      43.115  29.947  30.823  1.00  0.00     0.029 A 
ATOM     50  C   UNL A   1      41.956  30.429  31.561  1.00  0.00     0.049 A 
ATOM     51  H   UNL A   1      40.106  30.886  30.576  1.00  0.00     0.167 HD
ATOM     52  C   UNL A   1      43.052  24.727  28.133  1.00  0.00     0.031 A 
ATOM     53  C   UNL A   1      41.723  30.161  32.883  1.00  0.00     0.031 A 
ATOM     54  C   UNL A   1      43.968  25.254  29.143  1.00  0.00     0.049 A 
ATOM     55  C   UNL A   1      42.465  28.927  33.357  1.00  0.00     0.074 A 
ATOM     56  C   UNL A   1      44.934  26.246  29.108  1.00  0.00     0.029 A 
ATOM     57  N   UNL A   1      43.667  25.042  30.484  1.00  0.00    -0.354 N 
ATOM     58  N   UNL A   1      42.844  27.951  32.574  1.00  0.00    -0.248 NA
ATOM     59  C   UNL A   1      42.872  28.721  34.743  1.00  0.00     0.031 C 
ATOM     60  C   UNL A   1      45.127  26.706  30.442  1.00  0.00     0.029 A 
ATOM     61  C   UNL A   1      44.317  25.961  31.284  1.00  0.00     0.049 A 
ATOM     62  H   UNL A   1      43.071  24.333  30.819  1.00  0.00     0.167 HD
ATOM     63  C   UNL A   1      43.565  27.036  33.298  1.00  0.00     0.074 A 
ATOM     64  C   UNL A   1      43.543  27.559  34.653  1.00  0.00     0.031 C 
ATOM     65  C   UNL A   1      44.135  25.930  32.732  1.00  0.00     0.031 A 
BRANCH  52  66
ATOM     66  C   UNL A   1      43.491  23.907  26.948  1.00  0.00    -0.014 A 
ATOM     67  C   UNL A   1      44.038  24.570  25.834  1.00  0.00     0.009 A 
ATOM     68  C   UNL A   1      43.319  22.518  26.808  1.00  0.00     0.009 A 
ATOM     69  C   UNL A   1      44.358  23.896  24.648  1.00  0.00     0.001 A 
ATOM     70  C   UNL A   1      43.638  21.835  25.626  1.00  0.00     0.001 A 
ATOM     71  C   UNL A   1      44.151  22.527  24.541  1.00  0.00     0.000 A 
ENDBRANCH  52  66
BRANCH  53  72
ATOM     72  C   UNL A   1      40.343  30.569  33.304  1.00  0.00    -0.014 A 
ATOM     73  C   UNL A   1      40.088  31.954  33.424  1.00  0.00     0.009 A 
ATOM     74  C   UNL A   1      39.254  29.707  33.112  1.00  0.00     0.009 A 
ATOM     75  C   UNL A   1      38.817  32.474  33.153  1.00  0.00     0.001 A 
ATOM     76  C   UNL A   1      37.975  30.234  32.878  1.00  0.00     0.001 A 
ATOM     77  C   UNL A   1      37.772  31.614  32.836  1.00  0.00     0.000 A 
ENDBRANCH  53  72
BRANCH  65  78
ATOM     78  C   UNL A   1      44.640  24.713  33.479  1.00  0.00    -0.014 A 
ATOM     79  C   UNL A   1      43.874  23.571  33.741  1.00  0.00     0.009 A 
ATOM     80  C   UNL A   1      46.012  24.636  33.817  1.00  0.00     0.009 A 
ATOM     81  C   UNL A   1      44.432  22.440  34.353  1.00  0.00     0.001 A 
ATOM     82  C   UNL A   1      46.588  23.488  34.364  1.00  0.00     0.001 A 
ATOM     83  C   UNL A   1      45.791  22.392  34.650  1.00  0.00     0.000 A 
ENDBRANCH  65  78
ENDBRANCH  39  40
ENDBRANCH  31  34
ENDBRANCH  29  30
ENDBRANCH  28  29
ENDBRANCH  27  28
ENDBRANCH   1  27
TORSDOF 16
ENDMDL
