MODEL 1
REMARK VINA RESULT:     -12.2      0.000      0.000
REMARK SMILES Cc1c(CC(=O)NCCCCCCNC(=O)c2ccc(-c3c4nc(c(-c5ccccc5)c5ccc([nH]5)c(-c5ccccc5)c5nc(c(-c6ccccc6)c6ccc3[nH]6)C=C5)C=C4)cc2)c2ccccc2n1C(=O)c1ccc(Cl)cc1
REMARK SMILES IDX 10 1 9 2 8 3 7 4 5 5 6 6 4 8 3 9 1 10 2 11 71 12 65 13 70 14
REMARK SMILES IDX 66 15 69 16 67 17 68 18 72 19 73 20 74 21 75 22 80 23 76 24
REMARK SMILES IDX 79 25 77 26 78 27 11 28 12 29 13 30 14 31 15 32 16 34 17 35
REMARK SMILES IDX 18 36 64 37 19 38 63 39 20 40 21 41 22 42 57 43 23 44 62 45
REMARK SMILES IDX 56 46 58 47 24 48 61 49 55 50 54 51 25 53 47 54 32 55 46 56
REMARK SMILES IDX 33 57 36 58 45 59 59 60 34 61 35 62 44 64 60 65 37 66 26 67
REMARK SMILES IDX 27 68 31 69 28 70 30 71 29 72 48 73 49 74 53 75 50 76 52 77
REMARK SMILES IDX 51 78 38 79 39 80 43 81 40 82 42 83 41 84
REMARK H PARENT 7 7 14 33 58 52 36 63
REMARK Flexibility Score: inf
ROOT
ATOM      1  C   UNL A   1      41.174  20.919  27.548  1.00  0.00     0.002 C 
ENDROOT
BRANCH   1   2
ATOM      2  C   UNL A   1      40.388  21.128  26.249  1.00  0.00     0.021 C 
BRANCH   2   3
ATOM      3  C   UNL A   1      39.225  22.108  26.400  1.00  0.00     0.116 C 
BRANCH   3   4
ATOM      4  N   UNL A   1      38.512  22.274  25.150  1.00  0.00    -0.356 N 
ATOM      5  C   UNL A   1      37.219  21.944  24.863  1.00  0.00     0.224 C 
ATOM      6  O   UNL A   1      36.811  22.113  23.711  1.00  0.00    -0.275 OA
ATOM      7  H   UNL A   1      39.027  22.674  24.413  1.00  0.00     0.163 HD
BRANCH   5   8
ATOM      8  C   UNL A   1      36.299  21.437  25.965  1.00  0.00     0.138 C 
BRANCH   8   9
ATOM      9  C   UNL A   1      34.857  21.341  25.551  1.00  0.00    -0.010 A 
ATOM     10  C   UNL A   1      34.045  23.734  26.146  1.00  0.00     0.065 C 
ATOM     11  C   UNL A   1      33.886  22.330  25.647  1.00  0.00     0.028 A 
ATOM     12  N   UNL A   1      32.654  21.796  25.239  1.00  0.00    -0.280 N 
ATOM     13  C   UNL A   1      34.244  20.211  24.942  1.00  0.00     0.004 A 
ATOM     14  C   UNL A   1      32.911  20.538  24.668  1.00  0.00     0.056 A 
ATOM     15  C   UNL A   1      34.735  18.936  24.576  1.00  0.00     0.010 A 
ATOM     16  C   UNL A   1      32.100  19.629  23.953  1.00  0.00     0.027 A 
ATOM     17  C   UNL A   1      33.901  18.017  23.941  1.00  0.00     0.001 A 
ATOM     18  C   UNL A   1      32.601  18.368  23.621  1.00  0.00     0.002 A 
BRANCH  12  19
ATOM     19  C   UNL A   1      31.384  22.426  25.405  1.00  0.00     0.262 C 
ATOM     20  O   UNL A   1      30.506  21.846  26.028  1.00  0.00    -0.268 OA
BRANCH  19  21
ATOM     21  C   UNL A   1      31.015  23.748  24.868  1.00  0.00     0.040 A 
ATOM     22  C   UNL A   1      30.511  24.749  25.706  1.00  0.00     0.015 A 
ATOM     23  C   UNL A   1      31.173  23.973  23.496  1.00  0.00     0.015 A 
ATOM     24  C   UNL A   1      30.075  25.952  25.146  1.00  0.00     0.021 A 
ATOM     25  C   UNL A   1      30.747  25.181  22.945  1.00  0.00     0.021 A 
ATOM     26  C   UNL A   1      30.182  26.156  23.767  1.00  0.00     0.041 A 
ATOM     27  Cl  UNL A   1      29.592  27.616  23.075  1.00  0.00    -0.084 Cl
ENDBRANCH  19  21
ENDBRANCH  12  19
ENDBRANCH   8   9
ENDBRANCH   5   8
ENDBRANCH   3   4
ENDBRANCH   2   3
ENDBRANCH   1   2
BRANCH   1  28
ATOM     28  C   UNL A   1      42.359  19.952  27.432  1.00  0.00     0.002 C 
BRANCH  28  29
ATOM     29  C   UNL A   1      42.301  18.991  26.236  1.00  0.00     0.021 C 
BRANCH  29  30
ATOM     30  C   UNL A   1      43.653  18.377  25.869  1.00  0.00     0.116 C 
BRANCH  30  31
ATOM     31  N   UNL A   1      44.094  18.753  24.542  1.00  0.00    -0.352 N 
ATOM     32  C   UNL A   1      44.578  19.891  23.967  1.00  0.00     0.251 C 
ATOM     33  H   UNL A   1      44.030  18.009  23.902  1.00  0.00     0.163 HD
ATOM     34  O   UNL A   1      44.886  19.804  22.776  1.00  0.00    -0.269 OA
BRANCH  32  35
ATOM     35  C   UNL A   1      44.701  21.214  24.637  1.00  0.00     0.039 A 
ATOM     36  C   UNL A   1      45.528  21.512  25.720  1.00  0.00     0.014 A 
ATOM     37  C   UNL A   1      43.834  22.217  24.161  1.00  0.00     0.014 A 
ATOM     38  C   UNL A   1      45.404  22.728  26.385  1.00  0.00     0.010 A 
ATOM     39  C   UNL A   1      43.722  23.441  24.807  1.00  0.00     0.010 A 
ATOM     40  C   UNL A   1      44.458  23.664  25.964  1.00  0.00    -0.014 A 
BRANCH  40  41
ATOM     41  C   UNL A   1      44.276  24.863  26.775  1.00  0.00     0.031 A 
ATOM     42  C   UNL A   1      45.345  25.898  26.669  1.00  0.00     0.074 A 
ATOM     43  C   UNL A   1      43.180  25.068  27.533  1.00  0.00     0.049 A 
ATOM     44  N   UNL A   1      46.098  26.374  27.607  1.00  0.00    -0.248 NA
ATOM     45  C   UNL A   1      45.663  26.409  25.326  1.00  0.00     0.031 C 
ATOM     46  C   UNL A   1      41.924  24.311  27.560  1.00  0.00     0.029 A 
ATOM     47  N   UNL A   1      42.931  26.095  28.389  1.00  0.00    -0.354 N 
ATOM     48  C   UNL A   1      46.910  27.336  27.007  1.00  0.00     0.074 A 
ATOM     49  C   UNL A   1      46.660  27.255  25.589  1.00  0.00     0.031 C 
ATOM     50  C   UNL A   1      40.975  25.039  28.192  1.00  0.00     0.029 A 
ATOM     51  C   UNL A   1      41.599  26.223  28.755  1.00  0.00     0.049 A 
ATOM     52  H   UNL A   1      43.637  26.697  28.722  1.00  0.00     0.167 HD
ATOM     53  C   UNL A   1      47.644  28.236  27.721  1.00  0.00     0.031 A 
ATOM     54  C   UNL A   1      41.044  27.266  29.416  1.00  0.00     0.031 A 
ATOM     55  C   UNL A   1      47.812  27.837  29.090  1.00  0.00     0.049 A 
ATOM     56  C   UNL A   1      42.135  27.980  30.118  1.00  0.00     0.074 A 
ATOM     57  C   UNL A   1      48.472  26.804  29.722  1.00  0.00     0.029 A 
ATOM     58  N   UNL A   1      46.958  28.366  30.024  1.00  0.00    -0.354 N 
ATOM     59  N   UNL A   1      42.820  27.461  31.097  1.00  0.00    -0.248 NA
ATOM     60  C   UNL A   1      42.759  29.106  29.443  1.00  0.00     0.031 C 
ATOM     61  C   UNL A   1      47.626  26.449  30.812  1.00  0.00     0.029 A 
ATOM     62  C   UNL A   1      46.537  27.323  30.809  1.00  0.00     0.049 A 
ATOM     63  H   UNL A   1      46.698  29.312  30.116  1.00  0.00     0.167 HD
ATOM     64  C   UNL A   1      44.118  27.907  30.897  1.00  0.00     0.074 A 
ATOM     65  C   UNL A   1      44.002  28.986  29.918  1.00  0.00     0.031 C 
ATOM     66  C   UNL A   1      45.194  27.185  31.331  1.00  0.00     0.031 A 
BRANCH  53  67
ATOM     67  C   UNL A   1      47.980  29.624  27.246  1.00  0.00    -0.014 A 
ATOM     68  C   UNL A   1      46.995  30.589  26.965  1.00  0.00     0.009 A 
ATOM     69  C   UNL A   1      49.309  30.078  27.323  1.00  0.00     0.009 A 
ATOM     70  C   UNL A   1      47.313  31.938  26.776  1.00  0.00     0.001 A 
ATOM     71  C   UNL A   1      49.627  31.434  27.170  1.00  0.00     0.001 A 
ATOM     72  C   UNL A   1      48.627  32.364  26.901  1.00  0.00     0.000 A 
ENDBRANCH  53  67
BRANCH  54  73
ATOM     73  C   UNL A   1      39.757  27.921  29.091  1.00  0.00    -0.014 A 
ATOM     74  C   UNL A   1      39.606  28.597  27.864  1.00  0.00     0.009 A 
ATOM     75  C   UNL A   1      38.790  28.141  30.082  1.00  0.00     0.009 A 
ATOM     76  C   UNL A   1      38.552  29.490  27.650  1.00  0.00     0.001 A 
ATOM     77  C   UNL A   1      37.731  29.034  29.866  1.00  0.00     0.001 A 
ATOM     78  C   UNL A   1      37.622  29.719  28.657  1.00  0.00     0.000 A 
ENDBRANCH  54  73
BRANCH  66  79
ATOM     79  C   UNL A   1      44.945  25.960  32.182  1.00  0.00    -0.014 A 
ATOM     80  C   UNL A   1      44.678  24.742  31.538  1.00  0.00     0.009 A 
ATOM     81  C   UNL A   1      44.742  26.035  33.571  1.00  0.00     0.009 A 
ATOM     82  C   UNL A   1      44.196  23.642  32.253  1.00  0.00     0.001 A 
ATOM     83  C   UNL A   1      44.281  24.927  34.292  1.00  0.00     0.001 A 
ATOM     84  C   UNL A   1      43.995  23.735  33.629  1.00  0.00     0.000 A 
ENDBRANCH  66  79
ENDBRANCH  40  41
ENDBRANCH  32  35
ENDBRANCH  30  31
ENDBRANCH  29  30
ENDBRANCH  28  29
ENDBRANCH   1  28
TORSDOF 16
ENDMDL
MODEL 2
REMARK VINA RESULT:     -12.1      1.908      2.827
REMARK SMILES Cc1c(CC(=O)NCCCCCCNC(=O)c2ccc(-c3c4nc(c(-c5ccccc5)c5ccc([nH]5)c(-c5ccccc5)c5nc(c(-c6ccccc6)c6ccc3[nH]6)C=C5)C=C4)cc2)c2ccccc2n1C(=O)c1ccc(Cl)cc1
REMARK SMILES IDX 10 1 9 2 8 3 7 4 5 5 6 6 4 8 3 9 1 10 2 11 71 12 65 13 70 14
REMARK SMILES IDX 66 15 69 16 67 17 68 18 72 19 73 20 74 21 75 22 80 23 76 24
REMARK SMILES IDX 79 25 77 26 78 27 11 28 12 29 13 30 14 31 15 32 16 34 17 35
REMARK SMILES IDX 18 36 64 37 19 38 63 39 20 40 21 41 22 42 57 43 23 44 62 45
REMARK SMILES IDX 56 46 58 47 24 48 61 49 55 50 54 51 25 53 47 54 32 55 46 56
REMARK SMILES IDX 33 57 36 58 45 59 59 60 34 61 35 62 44 64 60 65 37 66 26 67
REMARK SMILES IDX 27 68 31 69 28 70 30 71 29 72 48 73 49 74 53 75 50 76 52 77
REMARK SMILES IDX 51 78 38 79 39 80 43 81 40 82 42 83 41 84
REMARK H PARENT 7 7 14 33 58 52 36 63
REMARK Flexibility Score: inf
ROOT
ATOM      1  C   UNL A   1      40.205  22.090  26.109  1.00  0.00     0.002 C 
ENDROOT
BRANCH   1   2
ATOM      2  C   UNL A   1      38.807  22.586  26.494  1.00  0.00     0.021 C 
BRANCH   2   3
ATOM      3  C   UNL A   1      37.690  21.912  25.698  1.00  0.00     0.116 C 
BRANCH   3   4
ATOM      4  N   UNL A   1      37.637  22.412  24.339  1.00  0.00    -0.356 N 
ATOM      5  C   UNL A   1      36.556  22.493  23.509  1.00  0.00     0.224 C 
ATOM      6  O   UNL A   1      36.731  22.900  22.358  1.00  0.00    -0.275 OA
ATOM      7  H   UNL A   1      38.489  22.733  23.967  1.00  0.00     0.163 HD
BRANCH   5   8
ATOM      8  C   UNL A   1      35.169  22.144  24.027  1.00  0.00     0.138 C 
BRANCH   8   9
ATOM      9  C   UNL A   1      34.276  23.339  24.217  1.00  0.00    -0.010 A 
ATOM     10  C   UNL A   1      34.621  23.775  26.753  1.00  0.00     0.065 C 
ATOM     11  C   UNL A   1      34.032  24.028  25.399  1.00  0.00     0.028 A 
ATOM     12  N   UNL A   1      33.067  25.017  25.155  1.00  0.00    -0.280 N 
ATOM     13  C   UNL A   1      33.551  24.003  23.189  1.00  0.00     0.004 A 
ATOM     14  C   UNL A   1      32.886  25.092  23.764  1.00  0.00     0.056 A 
ATOM     15  C   UNL A   1      33.433  23.773  21.798  1.00  0.00     0.010 A 
ATOM     16  C   UNL A   1      32.180  25.996  22.939  1.00  0.00     0.027 A 
ATOM     17  C   UNL A   1      32.667  24.628  21.006  1.00  0.00     0.001 A 
ATOM     18  C   UNL A   1      32.060  25.735  21.571  1.00  0.00     0.002 A 
BRANCH  12  19
ATOM     19  C   UNL A   1      32.392  25.779  26.156  1.00  0.00     0.262 C 
ATOM     20  O   UNL A   1      31.538  25.237  26.844  1.00  0.00    -0.268 OA
BRANCH  19  21
ATOM     21  C   UNL A   1      32.626  27.206  26.440  1.00  0.00     0.040 A 
ATOM     22  C   UNL A   1      33.854  27.806  26.142  1.00  0.00     0.015 A 
ATOM     23  C   UNL A   1      31.590  27.942  27.025  1.00  0.00     0.015 A 
ATOM     24  C   UNL A   1      34.074  29.133  26.519  1.00  0.00     0.021 A 
ATOM     25  C   UNL A   1      31.812  29.271  27.388  1.00  0.00     0.021 A 
ATOM     26  C   UNL A   1      33.058  29.854  27.153  1.00  0.00     0.041 A 
ATOM     27  Cl  UNL A   1      33.353  31.468  27.667  1.00  0.00    -0.084 Cl
ENDBRANCH  19  21
ENDBRANCH  12  19
ENDBRANCH   8   9
ENDBRANCH   5   8
ENDBRANCH   3   4
ENDBRANCH   2   3
ENDBRANCH   1   2
BRANCH   1  28
ATOM     28  C   UNL A   1      40.720  20.912  26.947  1.00  0.00     0.002 C 
BRANCH  28  29
ATOM     29  C   UNL A   1      41.124  19.668  26.144  1.00  0.00     0.021 C 
BRANCH  29  30
ATOM     30  C   UNL A   1      42.583  19.255  26.335  1.00  0.00     0.116 C 
BRANCH  30  31
ATOM     31  N   UNL A   1      43.392  19.503  25.159  1.00  0.00    -0.352 N 
ATOM     32  C   UNL A   1      44.110  20.559  24.680  1.00  0.00     0.251 C 
ATOM     33  H   UNL A   1      43.432  18.722  24.562  1.00  0.00     0.163 HD
ATOM     34  O   UNL A   1      44.713  20.365  23.622  1.00  0.00    -0.269 OA
BRANCH  32  35
ATOM     35  C   UNL A   1      44.169  21.913  25.294  1.00  0.00     0.039 A 
ATOM     36  C   UNL A   1      44.845  22.255  26.465  1.00  0.00     0.014 A 
ATOM     37  C   UNL A   1      43.401  22.903  24.651  1.00  0.00     0.014 A 
ATOM     38  C   UNL A   1      44.658  23.506  27.045  1.00  0.00     0.010 A 
ATOM     39  C   UNL A   1      43.229  24.161  25.213  1.00  0.00     0.010 A 
ATOM     40  C   UNL A   1      43.801  24.433  26.449  1.00  0.00    -0.014 A 
BRANCH  40  41
ATOM     41  C   UNL A   1      43.536  25.676  27.165  1.00  0.00     0.031 A 
ATOM     42  C   UNL A   1      44.507  26.786  26.939  1.00  0.00     0.074 A 
ATOM     43  C   UNL A   1      42.447  25.850  27.940  1.00  0.00     0.049 A 
ATOM     44  N   UNL A   1      45.240  27.403  27.809  1.00  0.00    -0.248 NA
ATOM     45  C   UNL A   1      44.743  27.207  25.549  1.00  0.00     0.031 C 
ATOM     46  C   UNL A   1      41.264  24.993  28.071  1.00  0.00     0.029 A 
ATOM     47  N   UNL A   1      42.132  26.921  28.718  1.00  0.00    -0.354 N 
ATOM     48  C   UNL A   1      45.948  28.376  27.106  1.00  0.00     0.074 A 
ATOM     49  C   UNL A   1      45.668  28.155  25.708  1.00  0.00     0.031 C 
ATOM     50  C   UNL A   1      40.272  25.689  28.673  1.00  0.00     0.029 A 
ATOM     51  C   UNL A   1      40.804  26.964  29.116  1.00  0.00     0.049 A 
ATOM     52  H   UNL A   1      42.790  27.607  28.976  1.00  0.00     0.167 HD
ATOM     53  C   UNL A   1      46.619  29.392  27.719  1.00  0.00     0.031 A 
ATOM     54  C   UNL A   1      40.177  28.009  29.708  1.00  0.00     0.031 A 
ATOM     55  C   UNL A   1      46.857  29.126  29.109  1.00  0.00     0.049 A 
ATOM     56  C   UNL A   1      41.219  28.869  30.313  1.00  0.00     0.074 A 
ATOM     57  C   UNL A   1      47.622  28.210  29.801  1.00  0.00     0.029 A 
ATOM     58  N   UNL A   1      45.986  29.656  30.026  1.00  0.00    -0.354 N 
ATOM     59  N   UNL A   1      41.973  28.495  31.307  1.00  0.00    -0.248 NA
ATOM     60  C   UNL A   1      41.724  29.984  29.527  1.00  0.00     0.031 C 
ATOM     61  C   UNL A   1      46.840  27.877  30.944  1.00  0.00     0.029 A 
ATOM     62  C   UNL A   1      45.679  28.651  30.906  1.00  0.00     0.049 A 
ATOM     63  H   UNL A   1      45.646  30.581  30.048  1.00  0.00     0.167 HD
ATOM     64  C   UNL A   1      43.221  29.032  31.028  1.00  0.00     0.074 A 
ATOM     65  C   UNL A   1      42.985  30.011  29.969  1.00  0.00     0.031 C 
ATOM     66  C   UNL A   1      44.367  28.443  31.483  1.00  0.00     0.031 A 
BRANCH  53  67
ATOM     67  C   UNL A   1      46.819  30.759  27.121  1.00  0.00    -0.014 A 
ATOM     68  C   UNL A   1      45.745  31.601  26.775  1.00  0.00     0.009 A 
ATOM     69  C   UNL A   1      48.100  31.339  27.137  1.00  0.00     0.009 A 
ATOM     70  C   UNL A   1      45.934  32.951  26.466  1.00  0.00     0.001 A 
ATOM     71  C   UNL A   1      48.288  32.701  26.863  1.00  0.00     0.001 A 
ATOM     72  C   UNL A   1      47.203  33.507  26.532  1.00  0.00     0.000 A 
ENDBRANCH  53  67
BRANCH  54  73
ATOM     73  C   UNL A   1      38.829  28.522  29.374  1.00  0.00    -0.014 A 
ATOM     74  C   UNL A   1      38.566  29.004  28.078  1.00  0.00     0.009 A 
ATOM     75  C   UNL A   1      37.899  28.814  30.383  1.00  0.00     0.009 A 
ATOM     76  C   UNL A   1      37.438  29.783  27.806  1.00  0.00     0.001 A 
ATOM     77  C   UNL A   1      36.766  29.593  30.110  1.00  0.00     0.001 A 
ATOM     78  C   UNL A   1      36.545  30.090  28.826  1.00  0.00     0.000 A 
ENDBRANCH  54  73
BRANCH  66  79
ATOM     79  C   UNL A   1      44.250  27.277  32.439  1.00  0.00    -0.014 A 
ATOM     80  C   UNL A   1      44.392  27.523  33.813  1.00  0.00     0.009 A 
ATOM     81  C   UNL A   1      44.236  25.941  32.001  1.00  0.00     0.009 A 
ATOM     82  C   UNL A   1      44.545  26.470  34.718  1.00  0.00     0.001 A 
ATOM     83  C   UNL A   1      44.367  24.884  32.910  1.00  0.00     0.001 A 
ATOM     84  C   UNL A   1      44.535  25.151  34.267  1.00  0.00     0.000 A 
ENDBRANCH  66  79
ENDBRANCH  40  41
ENDBRANCH  32  35
ENDBRANCH  30  31
ENDBRANCH  29  30
ENDBRANCH  28  29
ENDBRANCH   1  28
TORSDOF 16
ENDMDL
MODEL 3
REMARK VINA RESULT:     -12.0      2.877      7.666
REMARK SMILES Cc1c(CC(=O)NCCCCCCNC(=O)c2ccc(-c3c4nc(c(-c5ccccc5)c5ccc([nH]5)c(-c5ccccc5)c5nc(c(-c6ccccc6)c6ccc3[nH]6)C=C5)C=C4)cc2)c2ccccc2n1C(=O)c1ccc(Cl)cc1
REMARK SMILES IDX 10 1 9 2 8 3 7 4 5 5 6 6 4 8 3 9 1 10 2 11 71 12 65 13 70 14
REMARK SMILES IDX 66 15 69 16 67 17 68 18 72 19 73 20 74 21 75 22 80 23 76 24
REMARK SMILES IDX 79 25 77 26 78 27 11 28 12 29 13 30 14 31 15 32 16 34 17 35
REMARK SMILES IDX 18 36 64 37 19 38 63 39 20 40 21 41 22 42 57 43 23 44 62 45
REMARK SMILES IDX 56 46 58 47 24 48 61 49 55 50 54 51 25 53 47 54 32 55 46 56
REMARK SMILES IDX 33 57 36 58 45 59 59 60 34 61 35 62 44 64 60 65 37 66 26 67
REMARK SMILES IDX 27 68 31 69 28 70 30 71 29 72 48 73 49 74 53 75 50 76 52 77
REMARK SMILES IDX 51 78 38 79 39 80 43 81 40 82 42 83 41 84
REMARK H PARENT 7 7 14 33 58 52 36 63
REMARK Flexibility Score: inf
ROOT
ATOM      1  C   UNL A   1      32.728  29.554  25.085  1.00  0.00     0.002 C 
ENDROOT
BRANCH   1   2
ATOM      2  C   UNL A   1      32.120  28.937  23.820  1.00  0.00     0.021 C 
BRANCH   2   3
ATOM      3  C   UNL A   1      33.124  28.798  22.677  1.00  0.00     0.116 C 
BRANCH   3   4
ATOM      4  N   UNL A   1      33.075  27.474  22.092  1.00  0.00    -0.356 N 
ATOM      5  C   UNL A   1      33.572  26.307  22.596  1.00  0.00     0.224 C 
ATOM      6  O   UNL A   1      33.478  25.285  21.912  1.00  0.00    -0.275 OA
ATOM      7  H   UNL A   1      32.626  27.407  21.219  1.00  0.00     0.163 HD
BRANCH   5   8
ATOM      8  C   UNL A   1      34.170  26.275  23.995  1.00  0.00     0.138 C 
BRANCH   8   9
ATOM      9  C   UNL A   1      33.713  25.105  24.822  1.00  0.00    -0.010 A 
ATOM     10  C   UNL A   1      35.957  23.831  25.100  1.00  0.00     0.065 C 
ATOM     11  C   UNL A   1      34.486  24.046  25.282  1.00  0.00     0.028 A 
ATOM     12  N   UNL A   1      33.650  23.126  25.932  1.00  0.00    -0.280 N 
ATOM     13  C   UNL A   1      32.394  24.906  25.316  1.00  0.00     0.004 A 
ATOM     14  C   UNL A   1      32.391  23.732  26.078  1.00  0.00     0.056 A 
ATOM     15  C   UNL A   1      31.201  25.657  25.194  1.00  0.00     0.010 A 
ATOM     16  C   UNL A   1      31.227  23.359  26.786  1.00  0.00     0.027 A 
ATOM     17  C   UNL A   1      30.036  25.235  25.833  1.00  0.00     0.001 A 
ATOM     18  C   UNL A   1      30.055  24.105  26.632  1.00  0.00     0.002 A 
BRANCH  12  19
ATOM     19  C   UNL A   1      34.028  21.811  26.341  1.00  0.00     0.262 C 
ATOM     20  O   UNL A   1      34.511  21.648  27.453  1.00  0.00    -0.268 OA
BRANCH  19  21
ATOM     21  C   UNL A   1      33.899  20.594  25.520  1.00  0.00     0.040 A 
ATOM     22  C   UNL A   1      32.642  20.112  25.143  1.00  0.00     0.015 A 
ATOM     23  C   UNL A   1      35.069  19.929  25.135  1.00  0.00     0.015 A 
ATOM     24  C   UNL A   1      32.555  18.900  24.452  1.00  0.00     0.021 A 
ATOM     25  C   UNL A   1      34.975  18.726  24.435  1.00  0.00     0.021 A 
ATOM     26  C   UNL A   1      33.720  18.207  24.115  1.00  0.00     0.041 A 
ATOM     27  Cl  UNL A   1      33.607  16.688  23.315  1.00  0.00    -0.084 Cl
ENDBRANCH  19  21
ENDBRANCH  12  19
ENDBRANCH   8   9
ENDBRANCH   5   8
ENDBRANCH   3   4
ENDBRANCH   2   3
ENDBRANCH   1   2
BRANCH   1  28
ATOM     28  C   UNL A   1      32.188  28.978  26.401  1.00  0.00     0.002 C 
BRANCH  28  29
ATOM     29  C   UNL A   1      33.243  28.334  27.312  1.00  0.00     0.021 C 
BRANCH  29  30
ATOM     30  C   UNL A   1      34.639  28.941  27.166  1.00  0.00     0.116 C 
BRANCH  30  31
ATOM     31  N   UNL A   1      35.001  29.782  28.289  1.00  0.00    -0.352 N 
ATOM     32  C   UNL A   1      36.141  30.009  29.003  1.00  0.00     0.251 C 
ATOM     33  H   UNL A   1      34.243  30.317  28.614  1.00  0.00     0.163 HD
ATOM     34  O   UNL A   1      36.057  30.854  29.897  1.00  0.00    -0.269 OA
BRANCH  32  35
ATOM     35  C   UNL A   1      37.429  29.287  28.828  1.00  0.00     0.039 A 
ATOM     36  C   UNL A   1      37.988  28.375  29.723  1.00  0.00     0.014 A 
ATOM     37  C   UNL A   1      38.166  29.634  27.678  1.00  0.00     0.014 A 
ATOM     38  C   UNL A   1      39.291  27.921  29.543  1.00  0.00     0.010 A 
ATOM     39  C   UNL A   1      39.459  29.166  27.482  1.00  0.00     0.010 A 
ATOM     40  C   UNL A   1      40.044  28.368  28.456  1.00  0.00    -0.014 A 
BRANCH  40  41
ATOM     41  C   UNL A   1      41.446  27.968  28.386  1.00  0.00     0.031 A 
ATOM     42  C   UNL A   1      41.731  26.688  27.675  1.00  0.00     0.074 A 
ATOM     43  C   UNL A   1      42.444  28.732  28.874  1.00  0.00     0.049 A 
ATOM     44  N   UNL A   1      42.303  25.623  28.136  1.00  0.00    -0.248 NA
ATOM     45  C   UNL A   1      41.244  26.557  26.293  1.00  0.00     0.031 C 
ATOM     46  C   UNL A   1      42.393  30.116  29.356  1.00  0.00     0.029 A 
ATOM     47  N   UNL A   1      43.770  28.436  28.945  1.00  0.00    -0.354 N 
ATOM     48  C   UNL A   1      42.364  24.720  27.075  1.00  0.00     0.074 A 
ATOM     49  C   UNL A   1      41.622  25.314  25.991  1.00  0.00     0.031 C 
ATOM     50  C   UNL A   1      43.650  30.611  29.429  1.00  0.00     0.029 A 
ATOM     51  C   UNL A   1      44.587  29.535  29.167  1.00  0.00     0.049 A 
ATOM     52  H   UNL A   1      44.120  27.521  28.846  1.00  0.00     0.167 HD
ATOM     53  C   UNL A   1      43.132  23.595  27.103  1.00  0.00     0.031 A 
ATOM     54  C   UNL A   1      45.938  29.563  29.072  1.00  0.00     0.031 A 
ATOM     55  C   UNL A   1      43.526  23.237  28.437  1.00  0.00     0.049 A 
ATOM     56  C   UNL A   1      46.423  28.169  29.201  1.00  0.00     0.074 A 
ATOM     57  C   UNL A   1      42.853  22.801  29.560  1.00  0.00     0.029 A 
ATOM     58  N   UNL A   1      44.764  23.635  28.872  1.00  0.00    -0.354 N 
ATOM     59  N   UNL A   1      46.310  27.467  30.293  1.00  0.00    -0.248 NA
ATOM     60  C   UNL A   1      46.636  27.406  27.983  1.00  0.00     0.031 C 
ATOM     61  C   UNL A   1      43.523  23.429  30.649  1.00  0.00     0.029 A 
ATOM     62  C   UNL A   1      44.593  24.160  30.127  1.00  0.00     0.049 A 
ATOM     63  H   UNL A   1      45.614  23.558  28.379  1.00  0.00     0.167 HD
ATOM     64  C   UNL A   1      46.020  26.182  29.859  1.00  0.00     0.074 A 
ATOM     65  C   UNL A   1      46.322  26.187  28.429  1.00  0.00     0.031 C 
ATOM     66  C   UNL A   1      45.304  25.314  30.634  1.00  0.00     0.031 A 
BRANCH  53  67
ATOM     67  C   UNL A   1      43.762  22.967  25.890  1.00  0.00    -0.014 A 
ATOM     68  C   UNL A   1      44.621  23.675  25.028  1.00  0.00     0.009 A 
ATOM     69  C   UNL A   1      43.716  21.570  25.731  1.00  0.00     0.009 A 
ATOM     70  C   UNL A   1      45.398  23.029  24.062  1.00  0.00     0.001 A 
ATOM     71  C   UNL A   1      44.521  20.916  24.789  1.00  0.00     0.001 A 
ATOM     72  C   UNL A   1      45.365  21.646  23.958  1.00  0.00     0.000 A 
ENDBRANCH  53  67
BRANCH  54  73
ATOM     73  C   UNL A   1      46.746  30.621  28.425  1.00  0.00    -0.014 A 
ATOM     74  C   UNL A   1      47.546  31.471  29.214  1.00  0.00     0.009 A 
ATOM     75  C   UNL A   1      46.514  30.991  27.093  1.00  0.00     0.009 A 
ATOM     76  C   UNL A   1      48.061  32.665  28.704  1.00  0.00     0.001 A 
ATOM     77  C   UNL A   1      47.034  32.188  26.581  1.00  0.00     0.001 A 
ATOM     78  C   UNL A   1      47.794  33.031  27.390  1.00  0.00     0.000 A 
ENDBRANCH  54  73
BRANCH  66  79
ATOM     79  C   UNL A   1      44.967  25.721  32.051  1.00  0.00    -0.014 A 
ATOM     80  C   UNL A   1      45.574  25.025  33.108  1.00  0.00     0.009 A 
ATOM     81  C   UNL A   1      43.911  26.598  32.353  1.00  0.00     0.009 A 
ATOM     82  C   UNL A   1      45.121  25.178  34.421  1.00  0.00     0.001 A 
ATOM     83  C   UNL A   1      43.472  26.769  33.671  1.00  0.00     0.001 A 
ATOM     84  C   UNL A   1      44.069  26.047  34.703  1.00  0.00     0.000 A 
ENDBRANCH  66  79
ENDBRANCH  40  41
ENDBRANCH  32  35
ENDBRANCH  30  31
ENDBRANCH  29  30
ENDBRANCH  28  29
ENDBRANCH   1  28
TORSDOF 16
ENDMDL
