MODEL 1
REMARK VINA RESULT:     -11.0      0.000      0.000
REMARK SMILES C[C@H]1SCCC[C@]1(Nc1ccc(Cl)cc1)C(=O)NCCCCCCNC(=O)c1ccc(-c2c3nc(c(-c4ccccc4)c4ccc([nH]4)c(-c4ccccc4)c4nc(c(-c5ccccc5)c5ccc2[nH]5)C=C4)C=C3)cc1
REMARK SMILES IDX 21 1 20 2 19 3 18 4 16 5 17 6 7 8 1 9 2 10 3 11 4 12 6 13
REMARK SMILES IDX 5 14 8 15 9 17 10 18 15 19 11 20 14 21 12 22 13 23 22 24
REMARK SMILES IDX 23 25 24 26 25 27 26 28 27 30 28 31 29 32 75 33 30 34 74 35
REMARK SMILES IDX 31 36 32 37 33 38 68 39 34 40 73 41 67 42 69 43 35 44 72 45
REMARK SMILES IDX 66 46 65 47 36 49 58 50 43 51 57 52 44 53 47 54 56 55 70 56
REMARK SMILES IDX 45 57 46 58 55 60 71 61 48 62 37 63 38 64 42 65 39 66 41 67
REMARK SMILES IDX 40 68 59 69 60 70 64 71 61 72 63 73 62 74 49 75 50 76 54 77
REMARK SMILES IDX 51 78 53 79 52 80
REMARK H PARENT 18 7 8 16 25 29 69 48 47 59
REMARK Flexibility Score: inf
ROOT
ATOM      1  C   UNL A   1      36.516  22.007  25.318  1.00  0.00     0.002 C 
ENDROOT
BRANCH   1   2
ATOM      2  C   UNL A   1      35.406  22.663  26.138  1.00  0.00     0.021 C 
BRANCH   2   3
ATOM      3  C   UNL A   1      34.026  22.542  25.501  1.00  0.00     0.116 C 
BRANCH   3   4
ATOM      4  N   UNL A   1      33.002  23.051  26.389  1.00  0.00    -0.354 N 
ATOM      5  C   UNL A   1      32.126  24.085  26.269  1.00  0.00     0.246 C 
ATOM      6  O   UNL A   1      31.328  24.182  27.214  1.00  0.00    -0.272 OA
ATOM      7  H   UNL A   1      32.927  22.557  27.237  1.00  0.00     0.163 HD
BRANCH   5   8
ATOM      8  C   UNL A   1      32.102  25.125  25.080  1.00  0.00     0.128 C 
ATOM      9  C   UNL A   1      30.607  23.619  23.473  1.00  0.00     0.022 C 
ATOM     10  C   UNL A   1      31.914  24.370  23.710  1.00  0.00     0.078 C 
ATOM     11  S   UNL A   1      32.040  25.507  22.260  1.00  0.00    -0.156 SA
ATOM     12  C   UNL A   1      33.733  26.061  22.535  1.00  0.00     0.070 C 
ATOM     13  C   UNL A   1      33.522  25.795  25.065  1.00  0.00     0.040 C 
ATOM     14  C   UNL A   1      33.844  26.727  23.895  1.00  0.00     0.014 C 
BRANCH   8  15
ATOM     15  N   UNL A   1      31.084  26.204  25.225  1.00  0.00    -0.370 N 
ATOM     16  H   UNL A   1      30.171  25.973  24.941  1.00  0.00     0.161 HD
BRANCH  15  17
ATOM     17  C   UNL A   1      31.261  27.486  25.706  1.00  0.00     0.035 A 
ATOM     18  C   UNL A   1      31.253  28.630  24.900  1.00  0.00     0.027 A 
ATOM     19  C   UNL A   1      31.664  27.636  27.044  1.00  0.00     0.027 A 
ATOM     20  C   UNL A   1      31.711  29.863  25.383  1.00  0.00     0.022 A 
ATOM     21  C   UNL A   1      32.146  28.858  27.529  1.00  0.00     0.022 A 
ATOM     22  C   UNL A   1      32.187  29.962  26.686  1.00  0.00     0.041 A 
ATOM     23  Cl  UNL A   1      32.873  31.438  27.242  1.00  0.00    -0.084 Cl
ENDBRANCH  15  17
ENDBRANCH   8  15
ENDBRANCH   5   8
ENDBRANCH   3   4
ENDBRANCH   2   3
ENDBRANCH   1   2
BRANCH   1  24
ATOM     24  C   UNL A   1      36.284  20.529  24.984  1.00  0.00     0.002 C 
BRANCH  24  25
ATOM     25  C   UNL A   1      37.543  19.660  24.964  1.00  0.00     0.021 C 
BRANCH  25  26
ATOM     26  C   UNL A   1      38.767  20.295  25.615  1.00  0.00     0.116 C 
BRANCH  26  27
ATOM     27  N   UNL A   1      39.871  19.357  25.729  1.00  0.00    -0.352 N 
ATOM     28  C   UNL A   1      41.181  19.592  26.055  1.00  0.00     0.251 C 
ATOM     29  H   UNL A   1      39.646  18.416  25.544  1.00  0.00     0.163 HD
ATOM     30  O   UNL A   1      42.028  18.722  25.897  1.00  0.00    -0.269 OA
BRANCH  28  31
ATOM     31  C   UNL A   1      41.569  20.911  26.593  1.00  0.00     0.039 A 
ATOM     32  C   UNL A   1      42.058  21.880  25.715  1.00  0.00     0.014 A 
ATOM     33  C   UNL A   1      41.462  21.182  27.960  1.00  0.00     0.014 A 
ATOM     34  C   UNL A   1      42.397  23.142  26.203  1.00  0.00     0.010 A 
ATOM     35  C   UNL A   1      41.730  22.463  28.432  1.00  0.00     0.010 A 
ATOM     36  C   UNL A   1      42.212  23.451  27.561  1.00  0.00    -0.014 A 
BRANCH  36  37
ATOM     37  C   UNL A   1      42.525  24.800  28.087  1.00  0.00     0.031 A 
ATOM     38  C   UNL A   1      43.928  25.139  28.513  1.00  0.00     0.074 A 
ATOM     39  C   UNL A   1      41.536  25.703  28.234  1.00  0.00     0.049 A 
ATOM     40  N   UNL A   1      44.386  26.247  29.036  1.00  0.00    -0.248 NA
ATOM     41  C   UNL A   1      44.942  24.085  28.352  1.00  0.00     0.031 C 
ATOM     42  C   UNL A   1      40.129  25.481  27.895  1.00  0.00     0.029 A 
ATOM     43  N   UNL A   1      41.564  26.990  28.710  1.00  0.00    -0.354 N 
ATOM     44  C   UNL A   1      45.734  26.019  29.281  1.00  0.00     0.074 A 
ATOM     45  C   UNL A   1      46.009  24.651  28.898  1.00  0.00     0.031 C 
ATOM     46  C   UNL A   1      39.434  26.602  28.148  1.00  0.00     0.029 A 
ATOM     47  C   UNL A   1      40.336  27.605  28.705  1.00  0.00     0.049 A 
ATOM     48  H   UNL A   1      42.386  27.429  29.026  1.00  0.00     0.167 HD
ATOM     49  C   UNL A   1      46.664  26.876  29.763  1.00  0.00     0.031 A 
ATOM     50  C   UNL A   1      39.975  28.837  29.110  1.00  0.00     0.031 A 
ATOM     51  C   UNL A   1      46.391  28.238  30.136  1.00  0.00     0.049 A 
ATOM     52  C   UNL A   1      41.025  29.765  29.653  1.00  0.00     0.074 A 
ATOM     53  C   UNL A   1      47.275  29.203  30.582  1.00  0.00     0.029 A 
ATOM     54  N   UNL A   1      45.135  28.825  30.110  1.00  0.00    -0.354 N 
ATOM     55  N   UNL A   1      42.311  29.557  29.812  1.00  0.00    -0.248 NA
ATOM     56  C   UNL A   1      40.576  31.103  30.061  1.00  0.00     0.031 C 
ATOM     57  C   UNL A   1      46.545  30.359  30.880  1.00  0.00     0.029 A 
ATOM     58  C   UNL A   1      45.216  30.132  30.558  1.00  0.00     0.049 A 
ATOM     59  H   UNL A   1      44.308  28.379  29.817  1.00  0.00     0.167 HD
ATOM     60  C   UNL A   1      42.827  30.746  30.311  1.00  0.00     0.074 A 
ATOM     61  C   UNL A   1      41.720  31.675  30.411  1.00  0.00     0.031 C 
ATOM     62  C   UNL A   1      44.104  31.043  30.655  1.00  0.00     0.031 A 
BRANCH  49  63
ATOM     63  C   UNL A   1      48.068  26.359  29.924  1.00  0.00    -0.014 A 
ATOM     64  C   UNL A   1      49.003  26.449  28.881  1.00  0.00     0.009 A 
ATOM     65  C   UNL A   1      48.472  25.807  31.150  1.00  0.00     0.009 A 
ATOM     66  C   UNL A   1      50.302  25.963  29.049  1.00  0.00     0.001 A 
ATOM     67  C   UNL A   1      49.780  25.352  31.327  1.00  0.00     0.001 A 
ATOM     68  C   UNL A   1      50.691  25.421  30.273  1.00  0.00     0.000 A 
ENDBRANCH  49  63
BRANCH  50  69
ATOM     69  C   UNL A   1      38.557  29.269  29.005  1.00  0.00    -0.014 A 
ATOM     70  C   UNL A   1      37.700  29.183  30.112  1.00  0.00     0.009 A 
ATOM     71  C   UNL A   1      38.053  29.768  27.794  1.00  0.00     0.009 A 
ATOM     72  C   UNL A   1      36.359  29.561  30.001  1.00  0.00     0.001 A 
ATOM     73  C   UNL A   1      36.720  30.175  27.694  1.00  0.00     0.001 A 
ATOM     74  C   UNL A   1      35.873  30.061  28.795  1.00  0.00     0.000 A 
ENDBRANCH  50  69
BRANCH  62  75
ATOM     75  C   UNL A   1      44.380  32.439  31.136  1.00  0.00    -0.014 A 
ATOM     76  C   UNL A   1      44.332  32.765  32.500  1.00  0.00     0.009 A 
ATOM     77  C   UNL A   1      44.735  33.434  30.210  1.00  0.00     0.009 A 
ATOM     78  C   UNL A   1      44.599  34.069  32.923  1.00  0.00     0.001 A 
ATOM     79  C   UNL A   1      45.032  34.727  30.639  1.00  0.00     0.001 A 
ATOM     80  C   UNL A   1      44.953  35.047  31.993  1.00  0.00     0.000 A 
ENDBRANCH  62  75
ENDBRANCH  36  37
ENDBRANCH  28  31
ENDBRANCH  26  27
ENDBRANCH  25  26
ENDBRANCH  24  25
ENDBRANCH   1  24
TORSDOF 15
ENDMDL
MODEL 2
REMARK VINA RESULT:     -10.8      3.457      8.769
REMARK SMILES C[C@H]1SCCC[C@]1(Nc1ccc(Cl)cc1)C(=O)NCCCCCCNC(=O)c1ccc(-c2c3nc(c(-c4ccccc4)c4ccc([nH]4)c(-c4ccccc4)c4nc(c(-c5ccccc5)c5ccc2[nH]5)C=C4)C=C3)cc1
REMARK SMILES IDX 21 1 20 2 19 3 18 4 16 5 17 6 7 8 1 9 2 10 3 11 4 12 6 13
REMARK SMILES IDX 5 14 8 15 9 17 10 18 15 19 11 20 14 21 12 22 13 23 22 24
REMARK SMILES IDX 23 25 24 26 25 27 26 28 27 30 28 31 29 32 75 33 30 34 74 35
REMARK SMILES IDX 31 36 32 37 33 38 68 39 34 40 73 41 67 42 69 43 35 44 72 45
REMARK SMILES IDX 66 46 65 47 36 49 58 50 43 51 57 52 44 53 47 54 56 55 70 56
REMARK SMILES IDX 45 57 46 58 55 60 71 61 48 62 37 63 38 64 42 65 39 66 41 67
REMARK SMILES IDX 40 68 59 69 60 70 64 71 61 72 63 73 62 74 49 75 50 76 54 77
REMARK SMILES IDX 51 78 53 79 52 80
REMARK H PARENT 18 7 8 16 25 29 69 48 47 59
REMARK Flexibility Score: inf
ROOT
ATOM      1  C   UNL A   1      32.636  29.368  26.507  1.00  0.00     0.002 C 
ENDROOT
BRANCH   1   2
ATOM      2  C   UNL A   1      33.348  28.392  25.570  1.00  0.00     0.021 C 
BRANCH   2   3
ATOM      3  C   UNL A   1      32.395  27.495  24.787  1.00  0.00     0.116 C 
BRANCH   3   4
ATOM      4  N   UNL A   1      33.059  26.916  23.640  1.00  0.00    -0.354 N 
ATOM      5  C   UNL A   1      33.316  25.625  23.292  1.00  0.00     0.246 C 
ATOM      6  O   UNL A   1      33.848  25.499  22.179  1.00  0.00    -0.272 OA
ATOM      7  H   UNL A   1      33.387  27.579  22.990  1.00  0.00     0.163 HD
BRANCH   5   8
ATOM      8  C   UNL A   1      33.022  24.363  24.196  1.00  0.00     0.128 C 
ATOM      9  C   UNL A   1      30.583  23.932  23.223  1.00  0.00     0.022 C 
ATOM     10  C   UNL A   1      31.471  24.220  24.430  1.00  0.00     0.078 C 
ATOM     11  S   UNL A   1      31.062  22.860  25.612  1.00  0.00    -0.156 SA
ATOM     12  C   UNL A   1      31.935  23.520  27.045  1.00  0.00     0.070 C 
ATOM     13  C   UNL A   1      33.687  24.665  25.586  1.00  0.00     0.040 C 
ATOM     14  C   UNL A   1      33.410  23.680  26.724  1.00  0.00     0.014 C 
BRANCH   8  15
ATOM     15  N   UNL A   1      33.592  23.088  23.678  1.00  0.00    -0.370 N 
ATOM     16  H   UNL A   1      33.025  22.589  23.047  1.00  0.00     0.161 HD
BRANCH  15  17
ATOM     17  C   UNL A   1      34.814  22.517  23.973  1.00  0.00     0.035 A 
ATOM     18  C   UNL A   1      34.966  21.314  24.669  1.00  0.00     0.027 A 
ATOM     19  C   UNL A   1      35.971  23.279  23.731  1.00  0.00     0.027 A 
ATOM     20  C   UNL A   1      36.210  20.923  25.184  1.00  0.00     0.022 A 
ATOM     21  C   UNL A   1      37.212  22.909  24.262  1.00  0.00     0.022 A 
ATOM     22  C   UNL A   1      37.320  21.740  25.005  1.00  0.00     0.041 A 
ATOM     23  Cl  UNL A   1      38.818  21.332  25.747  1.00  0.00    -0.084 Cl
ENDBRANCH  15  17
ENDBRANCH   8  15
ENDBRANCH   5   8
ENDBRANCH   3   4
ENDBRANCH   2   3
ENDBRANCH   1   2
BRANCH   1  24
ATOM     24  C   UNL A   1      31.585  30.258  25.834  1.00  0.00     0.002 C 
BRANCH  24  25
ATOM     25  C   UNL A   1      31.383  31.631  26.479  1.00  0.00     0.021 C 
BRANCH  25  26
ATOM     26  C   UNL A   1      32.621  32.202  27.163  1.00  0.00     0.116 C 
BRANCH  26  27
ATOM     27  N   UNL A   1      32.441  33.594  27.539  1.00  0.00    -0.352 N 
ATOM     28  C   UNL A   1      33.165  34.358  28.417  1.00  0.00     0.251 C 
ATOM     29  H   UNL A   1      31.690  34.056  27.100  1.00  0.00     0.163 HD
ATOM     30  O   UNL A   1      32.750  35.451  28.780  1.00  0.00    -0.269 OA
BRANCH  28  31
ATOM     31  C   UNL A   1      34.451  33.848  28.932  1.00  0.00     0.039 A 
ATOM     32  C   UNL A   1      34.456  33.098  30.110  1.00  0.00     0.014 A 
ATOM     33  C   UNL A   1      35.646  34.120  28.261  1.00  0.00     0.014 A 
ATOM     34  C   UNL A   1      35.659  32.582  30.591  1.00  0.00     0.010 A 
ATOM     35  C   UNL A   1      36.833  33.543  28.702  1.00  0.00     0.010 A 
ATOM     36  C   UNL A   1      36.852  32.778  29.877  1.00  0.00    -0.014 A 
BRANCH  36  37
ATOM     37  C   UNL A   1      38.131  32.199  30.351  1.00  0.00     0.031 A 
ATOM     38  C   UNL A   1      38.627  30.896  29.786  1.00  0.00     0.074 A 
ATOM     39  C   UNL A   1      38.819  32.818  31.330  1.00  0.00     0.049 A 
ATOM     40  N   UNL A   1      39.696  30.213  30.104  1.00  0.00    -0.248 NA
ATOM     41  C   UNL A   1      37.799  30.268  28.744  1.00  0.00     0.031 C 
ATOM     42  C   UNL A   1      38.422  34.066  31.987  1.00  0.00     0.029 A 
ATOM     43  N   UNL A   1      39.997  32.479  31.947  1.00  0.00    -0.354 N 
ATOM     44  C   UNL A   1      39.661  29.069  29.316  1.00  0.00     0.074 A 
ATOM     45  C   UNL A   1      38.439  29.125  28.543  1.00  0.00     0.031 C 
ATOM     46  C   UNL A   1      39.353  34.400  32.894  1.00  0.00     0.029 A 
ATOM     47  C   UNL A   1      40.390  33.373  32.913  1.00  0.00     0.049 A 
ATOM     48  H   UNL A   1      40.511  31.671  31.718  1.00  0.00     0.167 HD
ATOM     49  C   UNL A   1      40.572  28.072  29.230  1.00  0.00     0.031 A 
ATOM     50  C   UNL A   1      41.461  33.363  33.728  1.00  0.00     0.031 A 
ATOM     51  C   UNL A   1      41.790  28.022  29.994  1.00  0.00     0.049 A 
ATOM     52  C   UNL A   1      42.452  32.237  33.620  1.00  0.00     0.074 A 
ATOM     53  C   UNL A   1      42.804  27.085  29.938  1.00  0.00     0.029 A 
ATOM     54  N   UNL A   1      42.154  28.951  30.957  1.00  0.00    -0.354 N 
ATOM     55  N   UNL A   1      42.439  31.199  32.818  1.00  0.00    -0.248 NA
ATOM     56  C   UNL A   1      43.611  32.290  34.521  1.00  0.00     0.031 C 
ATOM     57  C   UNL A   1      43.757  27.414  30.908  1.00  0.00     0.029 A 
ATOM     58  C   UNL A   1      43.366  28.592  31.523  1.00  0.00     0.049 A 
ATOM     59  H   UNL A   1      41.628  29.746  31.204  1.00  0.00     0.167 HD
ATOM     60  C   UNL A   1      43.601  30.491  33.099  1.00  0.00     0.074 A 
ATOM     61  C   UNL A   1      44.302  31.228  34.131  1.00  0.00     0.031 C 
ATOM     62  C   UNL A   1      44.048  29.335  32.551  1.00  0.00     0.031 A 
BRANCH  49  63
ATOM     63  C   UNL A   1      40.279  26.945  28.278  1.00  0.00    -0.014 A 
ATOM     64  C   UNL A   1      40.799  26.936  26.974  1.00  0.00     0.009 A 
ATOM     65  C   UNL A   1      39.501  25.856  28.703  1.00  0.00     0.009 A 
ATOM     66  C   UNL A   1      40.516  25.879  26.104  1.00  0.00     0.001 A 
ATOM     67  C   UNL A   1      39.246  24.786  27.844  1.00  0.00     0.001 A 
ATOM     68  C   UNL A   1      39.745  24.804  26.541  1.00  0.00     0.000 A 
ENDBRANCH  49  63
BRANCH  50  69
ATOM     69  C   UNL A   1      41.660  34.462  34.708  1.00  0.00    -0.014 A 
ATOM     70  C   UNL A   1      42.347  35.629  34.344  1.00  0.00     0.009 A 
ATOM     71  C   UNL A   1      41.166  34.346  36.017  1.00  0.00     0.009 A 
ATOM     72  C   UNL A   1      42.559  36.647  35.277  1.00  0.00     0.001 A 
ATOM     73  C   UNL A   1      41.353  35.378  36.940  1.00  0.00     0.001 A 
ATOM     74  C   UNL A   1      42.058  36.523  36.571  1.00  0.00     0.000 A 
ENDBRANCH  50  69
BRANCH  62  75
ATOM     75  C   UNL A   1      45.374  28.815  33.030  1.00  0.00    -0.014 A 
ATOM     76  C   UNL A   1      45.466  27.952  34.133  1.00  0.00     0.009 A 
ATOM     77  C   UNL A   1      46.545  29.162  32.338  1.00  0.00     0.009 A 
ATOM     78  C   UNL A   1      46.709  27.476  34.554  1.00  0.00     0.001 A 
ATOM     79  C   UNL A   1      47.783  28.659  32.741  1.00  0.00     0.001 A 
ATOM     80  C   UNL A   1      47.865  27.826  33.856  1.00  0.00     0.000 A 
ENDBRANCH  62  75
ENDBRANCH  36  37
ENDBRANCH  28  31
ENDBRANCH  26  27
ENDBRANCH  25  26
ENDBRANCH  24  25
ENDBRANCH   1  24
TORSDOF 15
ENDMDL
MODEL 3
REMARK VINA RESULT:     -10.8      3.516      8.361
REMARK SMILES C[C@H]1SCCC[C@]1(Nc1ccc(Cl)cc1)C(=O)NCCCCCCNC(=O)c1ccc(-c2c3nc(c(-c4ccccc4)c4ccc([nH]4)c(-c4ccccc4)c4nc(c(-c5ccccc5)c5ccc2[nH]5)C=C4)C=C3)cc1
REMARK SMILES IDX 21 1 20 2 19 3 18 4 16 5 17 6 7 8 1 9 2 10 3 11 4 12 6 13
REMARK SMILES IDX 5 14 8 15 9 17 10 18 15 19 11 20 14 21 12 22 13 23 22 24
REMARK SMILES IDX 23 25 24 26 25 27 26 28 27 30 28 31 29 32 75 33 30 34 74 35
REMARK SMILES IDX 31 36 32 37 33 38 68 39 34 40 73 41 67 42 69 43 35 44 72 45
REMARK SMILES IDX 66 46 65 47 36 49 58 50 43 51 57 52 44 53 47 54 56 55 70 56
REMARK SMILES IDX 45 57 46 58 55 60 71 61 48 62 37 63 38 64 42 65 39 66 41 67
REMARK SMILES IDX 40 68 59 69 60 70 64 71 61 72 63 73 62 74 49 75 50 76 54 77
REMARK SMILES IDX 51 78 53 79 52 80
REMARK H PARENT 18 7 8 16 25 29 69 48 47 59
REMARK Flexibility Score: inf
ROOT
ATOM      1  C   UNL A   1      31.893  29.461  26.084  1.00  0.00     0.002 C 
ENDROOT
BRANCH   1   2
ATOM      2  C   UNL A   1      33.319  29.264  25.569  1.00  0.00     0.021 C 
BRANCH   2   3
ATOM      3  C   UNL A   1      33.841  27.843  25.751  1.00  0.00     0.116 C 
BRANCH   3   4
ATOM      4  N   UNL A   1      32.870  27.022  26.441  1.00  0.00    -0.354 N 
ATOM      5  C   UNL A   1      32.353  25.794  26.162  1.00  0.00     0.246 C 
ATOM      6  O   UNL A   1      31.585  25.360  27.033  1.00  0.00    -0.272 OA
ATOM      7  H   UNL A   1      32.517  27.427  27.266  1.00  0.00     0.163 HD
BRANCH   5   8
ATOM      8  C   UNL A   1      32.636  24.965  24.846  1.00  0.00     0.128 C 
ATOM      9  C   UNL A   1      30.760  23.134  25.309  1.00  0.00     0.022 C 
ATOM     10  C   UNL A   1      32.231  23.458  25.065  1.00  0.00     0.078 C 
ATOM     11  S   UNL A   1      32.684  22.395  23.624  1.00  0.00    -0.156 SA
ATOM     12  C   UNL A   1      34.465  22.663  23.679  1.00  0.00     0.070 C 
ATOM     13  C   UNL A   1      34.190  25.015  24.631  1.00  0.00     0.040 C 
ATOM     14  C   UNL A   1      34.771  24.142  23.517  1.00  0.00     0.014 C 
BRANCH   8  15
ATOM     15  N   UNL A   1      31.982  25.509  23.623  1.00  0.00    -0.370 N 
ATOM     16  H   UNL A   1      32.229  25.075  22.775  1.00  0.00     0.161 HD
BRANCH  15  17
ATOM     17  C   UNL A   1      31.077  26.547  23.529  1.00  0.00     0.035 A 
ATOM     18  C   UNL A   1      29.740  26.456  23.931  1.00  0.00     0.027 A 
ATOM     19  C   UNL A   1      31.464  27.693  22.813  1.00  0.00     0.027 A 
ATOM     20  C   UNL A   1      28.801  27.428  23.561  1.00  0.00     0.022 A 
ATOM     21  C   UNL A   1      30.529  28.657  22.417  1.00  0.00     0.022 A 
ATOM     22  C   UNL A   1      29.195  28.507  22.777  1.00  0.00     0.041 A 
ATOM     23  Cl  UNL A   1      28.023  29.631  22.209  1.00  0.00    -0.084 Cl
ENDBRANCH  15  17
ENDBRANCH   8  15
ENDBRANCH   5   8
ENDBRANCH   3   4
ENDBRANCH   2   3
ENDBRANCH   1   2
BRANCH   1  24
ATOM     24  C   UNL A   1      31.177  30.701  25.539  1.00  0.00     0.002 C 
BRANCH  24  25
ATOM     25  C   UNL A   1      31.091  31.883  26.507  1.00  0.00     0.021 C 
BRANCH  25  26
ATOM     26  C   UNL A   1      32.438  32.418  26.981  1.00  0.00     0.116 C 
BRANCH  26  27
ATOM     27  N   UNL A   1      32.336  33.775  27.489  1.00  0.00    -0.352 N 
ATOM     28  C   UNL A   1      33.107  34.413  28.427  1.00  0.00     0.251 C 
ATOM     29  H   UNL A   1      31.607  34.316  27.106  1.00  0.00     0.163 HD
ATOM     30  O   UNL A   1      32.753  35.487  28.897  1.00  0.00    -0.269 OA
BRANCH  28  31
ATOM     31  C   UNL A   1      34.367  33.789  28.875  1.00  0.00     0.039 A 
ATOM     32  C   UNL A   1      35.552  34.106  28.208  1.00  0.00     0.014 A 
ATOM     33  C   UNL A   1      34.374  32.884  29.940  1.00  0.00     0.014 A 
ATOM     34  C   UNL A   1      36.755  33.550  28.641  1.00  0.00     0.010 A 
ATOM     35  C   UNL A   1      35.584  32.388  30.417  1.00  0.00     0.010 A 
ATOM     36  C   UNL A   1      36.784  32.708  29.764  1.00  0.00    -0.014 A 
BRANCH  36  37
ATOM     37  C   UNL A   1      38.060  32.144  30.264  1.00  0.00     0.031 A 
ATOM     38  C   UNL A   1      38.581  30.845  29.713  1.00  0.00     0.074 A 
ATOM     39  C   UNL A   1      38.722  32.774  31.254  1.00  0.00     0.049 A 
ATOM     40  N   UNL A   1      39.651  30.175  30.053  1.00  0.00    -0.248 NA
ATOM     41  C   UNL A   1      37.779  30.204  28.657  1.00  0.00     0.031 C 
ATOM     42  C   UNL A   1      38.299  34.018  31.900  1.00  0.00     0.029 A 
ATOM     43  N   UNL A   1      39.892  32.449  31.894  1.00  0.00    -0.354 N 
ATOM     44  C   UNL A   1      39.644  29.028  29.268  1.00  0.00     0.074 A 
ATOM     45  C   UNL A   1      38.436  29.068  28.471  1.00  0.00     0.031 C 
ATOM     46  C   UNL A   1      39.209  34.366  32.823  1.00  0.00     0.029 A 
ATOM     47  C   UNL A   1      40.256  33.350  32.865  1.00  0.00     0.049 A 
ATOM     48  H   UNL A   1      40.419  31.646  31.678  1.00  0.00     0.167 HD
ATOM     49  C   UNL A   1      40.567  28.041  29.202  1.00  0.00     0.031 A 
ATOM     50  C   UNL A   1      41.312  33.354  33.700  1.00  0.00     0.031 A 
ATOM     51  C   UNL A   1      41.771  28.007  29.989  1.00  0.00     0.049 A 
ATOM     52  C   UNL A   1      42.317  32.240  33.615  1.00  0.00     0.074 A 
ATOM     53  C   UNL A   1      42.796  27.081  29.955  1.00  0.00     0.029 A 
ATOM     54  N   UNL A   1      42.106  28.942  30.956  1.00  0.00    -0.354 N 
ATOM     55  N   UNL A   1      42.331  31.199  32.816  1.00  0.00    -0.248 NA
ATOM     56  C   UNL A   1      43.458  32.308  34.537  1.00  0.00     0.031 C 
ATOM     57  C   UNL A   1      43.726  27.423  30.942  1.00  0.00     0.029 A 
ATOM     58  C   UNL A   1      43.311  28.599  31.546  1.00  0.00     0.049 A 
ATOM     59  H   UNL A   1      41.567  29.732  31.190  1.00  0.00     0.167 HD
ATOM     60  C   UNL A   1      43.495  30.504  33.121  1.00  0.00     0.074 A 
ATOM     61  C   UNL A   1      44.169  31.252  34.163  1.00  0.00     0.031 C 
ATOM     62  C   UNL A   1      43.965  29.352  32.585  1.00  0.00     0.031 A 
BRANCH  49  63
ATOM     63  C   UNL A   1      40.305  26.908  28.248  1.00  0.00    -0.014 A 
ATOM     64  C   UNL A   1      40.800  26.930  26.935  1.00  0.00     0.009 A 
ATOM     65  C   UNL A   1      39.583  25.784  28.681  1.00  0.00     0.009 A 
ATOM     66  C   UNL A   1      40.546  25.867  26.064  1.00  0.00     0.001 A 
ATOM     67  C   UNL A   1      39.357  24.710  27.819  1.00  0.00     0.001 A 
ATOM     68  C   UNL A   1      39.831  24.757  26.507  1.00  0.00     0.000 A 
ENDBRANCH  49  63
BRANCH  50  69
ATOM     69  C   UNL A   1      41.480  34.458  34.681  1.00  0.00    -0.014 A 
ATOM     70  C   UNL A   1      40.931  34.360  35.968  1.00  0.00     0.009 A 
ATOM     71  C   UNL A   1      42.190  35.618  34.334  1.00  0.00     0.009 A 
ATOM     72  C   UNL A   1      41.064  35.412  36.877  1.00  0.00     0.001 A 
ATOM     73  C   UNL A   1      42.349  36.656  35.255  1.00  0.00     0.001 A 
ATOM     74  C   UNL A   1      41.776  36.555  36.522  1.00  0.00     0.000 A 
ENDBRANCH  50  69
BRANCH  62  75
ATOM     75  C   UNL A   1      45.288  28.848  33.090  1.00  0.00    -0.014 A 
ATOM     76  C   UNL A   1      45.364  27.940  34.158  1.00  0.00     0.009 A 
ATOM     77  C   UNL A   1      46.473  29.257  32.458  1.00  0.00     0.009 A 
ATOM     78  C   UNL A   1      46.605  27.481  34.605  1.00  0.00     0.001 A 
ATOM     79  C   UNL A   1      47.709  28.772  32.886  1.00  0.00     0.001 A 
ATOM     80  C   UNL A   1      47.775  27.893  33.966  1.00  0.00     0.000 A 
ENDBRANCH  62  75
ENDBRANCH  36  37
ENDBRANCH  28  31
ENDBRANCH  26  27
ENDBRANCH  25  26
ENDBRANCH  24  25
ENDBRANCH   1  24
TORSDOF 15
ENDMDL
