MODEL 1
REMARK VINA RESULT:      -8.4      0.000      0.000
REMARK SMILES C[C@H](C[NH3+])CS/C=C/C(=O)NCCCCCCNC(=O)c1ccc(-c2c3nc(c(-c4ccccc4)c4ccc([nH]4)c(-c4ccccc4)c4nc(c(-c5ccccc5)c5ccc2[nH]5)C=C4)C=C3)cc1
REMARK SMILES IDX 13 1 12 2 11 3 9 4 10 5 8 7 7 8 6 9 5 10 2 11 1 12 3 13 4 14
REMARK SMILES IDX 14 18 15 19 16 20 17 21 18 22 19 23 20 25 21 26 22 27 68 28
REMARK SMILES IDX 23 29 67 30 24 31 25 32 26 33 61 34 27 35 66 36 60 37 62 38
REMARK SMILES IDX 28 39 65 40 59 41 58 42 29 44 51 45 36 46 50 47 37 48 40 49
REMARK SMILES IDX 49 50 63 51 38 52 39 53 48 55 64 56 41 57 30 58 31 59 35 60
REMARK SMILES IDX 32 61 34 62 33 63 52 64 53 65 57 66 54 67 56 68 55 69 42 70
REMARK SMILES IDX 43 71 47 72 44 73 46 74 45 75
REMARK H PARENT 11 6 4 15 4 16 4 17 18 24 62 43 40 54
REMARK Flexibility Score: inf
ROOT
ATOM      1  C   UNL A   1      39.054  33.503  31.437  1.00  0.00     0.021 C 
ENDROOT
BRANCH   1   2
ATOM      2  C   UNL A   1      38.926  34.188  32.793  1.00  0.00     0.116 C 
BRANCH   2   3
ATOM      3  N   UNL A   1      38.295  33.311  33.758  1.00  0.00    -0.353 N 
ATOM      4  C   UNL A   1      37.001  33.301  34.170  1.00  0.00     0.244 C 
ATOM      5  O   UNL A   1      36.656  32.658  35.157  1.00  0.00    -0.270 OA
ATOM      6  H   UNL A   1      38.881  32.635  34.170  1.00  0.00     0.163 HD
BRANCH   4   7
ATOM      7  C   UNL A   1      35.996  34.073  33.414  1.00  0.00     0.078 C 
ATOM      8  C   UNL A   1      35.239  34.963  34.069  1.00  0.00     0.046 C 
BRANCH   8   9
ATOM      9  S   UNL A   1      34.232  36.122  33.292  1.00  0.00    -0.133 SA
BRANCH   9  10
ATOM     10  C   UNL A   1      33.414  35.104  32.014  1.00  0.00     0.083 C 
BRANCH  10  11
ATOM     11  C   UNL A   1      32.716  35.855  30.852  1.00  0.00     0.051 C 
ATOM     12  C   UNL A   1      33.058  35.120  29.549  1.00  0.00     0.014 C 
BRANCH  11  13
ATOM     13  C   UNL A   1      33.120  37.346  30.790  1.00  0.00     0.262 C 
BRANCH  13  14
ATOM     14  N   UNL A   1      33.535  37.828  29.475  1.00  0.00    -0.357 N 
ATOM     15  H   UNL A   1      32.944  38.614  29.198  1.00  0.00     0.344 HD
ATOM     16  H   UNL A   1      33.441  37.076  28.793  1.00  0.00     0.344 HD
ATOM     17  H   UNL A   1      34.507  38.132  29.515  1.00  0.00     0.344 HD
ENDBRANCH  13  14
ENDBRANCH  11  13
ENDBRANCH  10  11
ENDBRANCH   9  10
ENDBRANCH   8   9
ENDBRANCH   4   7
ENDBRANCH   2   3
ENDBRANCH   1   2
BRANCH   1  18
ATOM     18  C   UNL A   1      38.348  34.246  30.299  1.00  0.00     0.002 C 
BRANCH  18  19
ATOM     19  C   UNL A   1      37.833  33.354  29.163  1.00  0.00     0.002 C 
BRANCH  19  20
ATOM     20  C   UNL A   1      36.325  33.429  28.910  1.00  0.00     0.021 C 
BRANCH  20  21
ATOM     21  C   UNL A   1      35.492  32.533  29.815  1.00  0.00     0.116 C 
BRANCH  21  22
ATOM     22  N   UNL A   1      34.632  31.642  29.056  1.00  0.00    -0.352 N 
ATOM     23  C   UNL A   1      34.975  30.518  28.345  1.00  0.00     0.251 C 
ATOM     24  H   UNL A   1      33.676  31.875  29.048  1.00  0.00     0.163 HD
ATOM     25  O   UNL A   1      34.176  29.984  27.590  1.00  0.00    -0.269 OA
BRANCH  23  26
ATOM     26  C   UNL A   1      36.341  29.969  28.493  1.00  0.00     0.039 A 
ATOM     27  C   UNL A   1      37.244  30.098  27.436  1.00  0.00     0.014 A 
ATOM     28  C   UNL A   1      36.723  29.350  29.685  1.00  0.00     0.014 A 
ATOM     29  C   UNL A   1      38.559  29.655  27.598  1.00  0.00     0.010 A 
ATOM     30  C   UNL A   1      38.049  28.981  29.871  1.00  0.00     0.010 A 
ATOM     31  C   UNL A   1      38.978  29.122  28.827  1.00  0.00    -0.014 A 
BRANCH  31  32
ATOM     32  C   UNL A   1      40.374  28.675  29.051  1.00  0.00     0.031 A 
ATOM     33  C   UNL A   1      41.381  29.641  29.611  1.00  0.00     0.074 A 
ATOM     34  C   UNL A   1      40.757  27.440  28.674  1.00  0.00     0.049 A 
ATOM     35  N   UNL A   1      42.674  29.498  29.757  1.00  0.00    -0.248 NA
ATOM     36  C   UNL A   1      40.868  30.955  30.036  1.00  0.00     0.031 C 
ATOM     37  C   UNL A   1      39.881  26.415  28.103  1.00  0.00     0.029 A 
ATOM     38  N   UNL A   1      41.993  26.844  28.701  1.00  0.00    -0.354 N 
ATOM     39  C   UNL A   1      43.129  30.707  30.266  1.00  0.00     0.074 A 
ATOM     40  C   UNL A   1      41.986  31.588  30.355  1.00  0.00     0.031 C 
ATOM     41  C   UNL A   1      40.603  25.310  27.854  1.00  0.00     0.029 A 
ATOM     42  C   UNL A   1      41.999  25.566  28.195  1.00  0.00     0.049 A 
ATOM     43  H   UNL A   1      42.799  27.289  29.050  1.00  0.00     0.167 HD
ATOM     44  C   UNL A   1      44.383  31.049  30.643  1.00  0.00     0.031 A 
ATOM     45  C   UNL A   1      43.018  24.705  28.011  1.00  0.00     0.031 A 
ATOM     46  C   UNL A   1      45.517  30.168  30.559  1.00  0.00     0.049 A 
ATOM     47  C   UNL A   1      44.411  25.122  28.396  1.00  0.00     0.074 A 
ATOM     48  C   UNL A   1      46.821  30.403  30.955  1.00  0.00     0.029 A 
ATOM     49  N   UNL A   1      45.478  28.882  30.044  1.00  0.00    -0.354 N 
ATOM     50  N   UNL A   1      44.819  26.252  28.921  1.00  0.00    -0.248 NA
ATOM     51  C   UNL A   1      45.483  24.142  28.170  1.00  0.00     0.031 C 
ATOM     52  C   UNL A   1      47.585  29.280  30.626  1.00  0.00     0.029 A 
ATOM     53  C   UNL A   1      46.742  28.320  30.088  1.00  0.00     0.049 A 
ATOM     54  H   UNL A   1      44.672  28.435  29.698  1.00  0.00     0.167 HD
ATOM     55  C   UNL A   1      46.186  26.104  29.125  1.00  0.00     0.074 A 
ATOM     56  C   UNL A   1      46.535  24.774  28.671  1.00  0.00     0.031 C 
ATOM     57  C   UNL A   1      47.070  26.988  29.647  1.00  0.00     0.031 A 
BRANCH  44  58
ATOM     58  C   UNL A   1      44.593  32.443  31.166  1.00  0.00    -0.014 A 
ATOM     59  C   UNL A   1      44.485  32.734  32.536  1.00  0.00     0.009 A 
ATOM     60  C   UNL A   1      44.927  33.479  30.279  1.00  0.00     0.009 A 
ATOM     61  C   UNL A   1      44.662  34.039  32.999  1.00  0.00     0.001 A 
ATOM     62  C   UNL A   1      45.137  34.776  30.750  1.00  0.00     0.001 A 
ATOM     63  C   UNL A   1      44.993  35.058  32.107  1.00  0.00     0.000 A 
ENDBRANCH  44  58
BRANCH  45  64
ATOM     64  C   UNL A   1      42.761  23.355  27.443  1.00  0.00    -0.014 A 
ATOM     65  C   UNL A   1      42.989  23.103  26.082  1.00  0.00     0.009 A 
ATOM     66  C   UNL A   1      42.278  22.315  28.252  1.00  0.00     0.009 A 
ATOM     67  C   UNL A   1      42.714  21.846  25.537  1.00  0.00     0.001 A 
ATOM     68  C   UNL A   1      42.033  21.051  27.712  1.00  0.00     0.001 A 
ATOM     69  C   UNL A   1      42.242  20.820  26.353  1.00  0.00     0.000 A 
ENDBRANCH  45  64
BRANCH  57  70
ATOM     70  C   UNL A   1      48.492  26.533  29.816  1.00  0.00    -0.014 A 
ATOM     71  C   UNL A   1      48.872  25.680  30.862  1.00  0.00     0.009 A 
ATOM     72  C   UNL A   1      49.453  26.914  28.865  1.00  0.00     0.009 A 
ATOM     73  C   UNL A   1      50.192  25.235  30.964  1.00  0.00     0.001 A 
ATOM     74  C   UNL A   1      50.762  26.443  28.952  1.00  0.00     0.001 A 
ATOM     75  C   UNL A   1      51.132  25.609  30.005  1.00  0.00     0.000 A 
ENDBRANCH  57  70
ENDBRANCH  31  32
ENDBRANCH  23  26
ENDBRANCH  21  22
ENDBRANCH  20  21
ENDBRANCH  19  20
ENDBRANCH  18  19
ENDBRANCH   1  18
TORSDOF 18
ENDMDL
MODEL 2
REMARK VINA RESULT:      -8.4      4.976     10.275
REMARK SMILES C[C@H](C[NH3+])CS/C=C/C(=O)NCCCCCCNC(=O)c1ccc(-c2c3nc(c(-c4ccccc4)c4ccc([nH]4)c(-c4ccccc4)c4nc(c(-c5ccccc5)c5ccc2[nH]5)C=C4)C=C3)cc1
REMARK SMILES IDX 13 1 12 2 11 3 9 4 10 5 8 7 7 8 6 9 5 10 2 11 1 12 3 13 4 14
REMARK SMILES IDX 14 18 15 19 16 20 17 21 18 22 19 23 20 25 21 26 22 27 68 28
REMARK SMILES IDX 23 29 67 30 24 31 25 32 26 33 61 34 27 35 66 36 60 37 62 38
REMARK SMILES IDX 28 39 65 40 59 41 58 42 29 44 51 45 36 46 50 47 37 48 40 49
REMARK SMILES IDX 49 50 63 51 38 52 39 53 48 55 64 56 41 57 30 58 31 59 35 60
REMARK SMILES IDX 32 61 34 62 33 63 52 64 53 65 57 66 54 67 56 68 55 69 42 70
REMARK SMILES IDX 43 71 47 72 44 73 46 74 45 75
REMARK H PARENT 11 6 4 15 4 16 4 17 18 24 62 43 40 54
REMARK Flexibility Score: inf
ROOT
ATOM      1  C   UNL A   1      32.418  28.801  23.463  1.00  0.00     0.021 C 
ENDROOT
BRANCH   1   2
ATOM      2  C   UNL A   1      33.310  27.586  23.239  1.00  0.00     0.116 C 
BRANCH   2   3
ATOM      3  N   UNL A   1      33.116  27.039  21.911  1.00  0.00    -0.353 N 
ATOM      4  C   UNL A   1      32.987  25.737  21.545  1.00  0.00     0.244 C 
ATOM      5  O   UNL A   1      33.059  25.402  20.366  1.00  0.00    -0.270 OA
ATOM      6  H   UNL A   1      33.072  27.696  21.179  1.00  0.00     0.163 HD
BRANCH   4   7
ATOM      7  C   UNL A   1      32.755  24.714  22.582  1.00  0.00     0.078 C 
ATOM      8  C   UNL A   1      33.554  23.639  22.619  1.00  0.00     0.046 C 
BRANCH   8   9
ATOM      9  S   UNL A   1      33.588  22.513  23.919  1.00  0.00    -0.133 SA
BRANCH   9  10
ATOM     10  C   UNL A   1      32.545  21.163  23.266  1.00  0.00     0.083 C 
BRANCH  10  11
ATOM     11  C   UNL A   1      32.344  19.922  24.172  1.00  0.00     0.051 C 
ATOM     12  C   UNL A   1      33.323  20.040  25.349  1.00  0.00     0.014 C 
BRANCH  11  13
ATOM     13  C   UNL A   1      32.534  18.595  23.402  1.00  0.00     0.262 C 
BRANCH  13  14
ATOM     14  N   UNL A   1      32.012  18.583  22.038  1.00  0.00    -0.357 N 
ATOM     15  H   UNL A   1      31.957  17.621  21.702  1.00  0.00     0.344 HD
ATOM     16  H   UNL A   1      32.632  19.120  21.432  1.00  0.00     0.344 HD
ATOM     17  H   UNL A   1      31.081  18.999  22.027  1.00  0.00     0.344 HD
ENDBRANCH  13  14
ENDBRANCH  11  13
ENDBRANCH  10  11
ENDBRANCH   9  10
ENDBRANCH   8   9
ENDBRANCH   4   7
ENDBRANCH   2   3
ENDBRANCH   1   2
BRANCH   1  18
ATOM     18  C   UNL A   1      31.391  28.618  24.585  1.00  0.00     0.002 C 
BRANCH  18  19
ATOM     19  C   UNL A   1      31.798  29.209  25.940  1.00  0.00     0.002 C 
BRANCH  19  20
ATOM     20  C   UNL A   1      31.745  30.736  26.027  1.00  0.00     0.021 C 
BRANCH  20  21
ATOM     21  C   UNL A   1      32.573  31.330  27.158  1.00  0.00     0.116 C 
BRANCH  21  22
ATOM     22  N   UNL A   1      32.273  32.734  27.371  1.00  0.00    -0.352 N 
ATOM     23  C   UNL A   1      32.970  33.658  28.112  1.00  0.00     0.251 C 
ATOM     24  H   UNL A   1      31.461  33.070  26.927  1.00  0.00     0.163 HD
ATOM     25  O   UNL A   1      32.488  34.752  28.365  1.00  0.00    -0.269 OA
BRANCH  23  26
ATOM     26  C   UNL A   1      34.313  33.301  28.617  1.00  0.00     0.039 A 
ATOM     27  C   UNL A   1      34.426  32.633  29.838  1.00  0.00     0.014 A 
ATOM     28  C   UNL A   1      35.450  33.609  27.867  1.00  0.00     0.014 A 
ATOM     29  C   UNL A   1      35.684  32.221  30.282  1.00  0.00     0.010 A 
ATOM     30  C   UNL A   1      36.690  33.132  28.272  1.00  0.00     0.010 A 
ATOM     31  C   UNL A   1      36.821  32.440  29.488  1.00  0.00    -0.014 A 
BRANCH  31  32
ATOM     32  C   UNL A   1      38.169  31.984  29.907  1.00  0.00     0.031 A 
ATOM     33  C   UNL A   1      38.691  30.664  29.412  1.00  0.00     0.074 A 
ATOM     34  C   UNL A   1      38.881  32.707  30.792  1.00  0.00     0.049 A 
ATOM     35  N   UNL A   1      39.777  30.021  29.759  1.00  0.00    -0.248 NA
ATOM     36  C   UNL A   1      37.868  29.961  28.414  1.00  0.00     0.031 C 
ATOM     37  C   UNL A   1      38.477  33.995  31.360  1.00  0.00     0.029 A 
ATOM     38  N   UNL A   1      40.092  32.448  31.383  1.00  0.00    -0.354 N 
ATOM     39  C   UNL A   1      39.753  28.831  29.043  1.00  0.00     0.074 A 
ATOM     40  C   UNL A   1      38.523  28.818  28.283  1.00  0.00     0.031 C 
ATOM     41  C   UNL A   1      39.434  34.423  32.200  1.00  0.00     0.029 A 
ATOM     42  C   UNL A   1      40.490  33.417  32.272  1.00  0.00     0.049 A 
ATOM     43  H   UNL A   1      40.627  31.644  31.187  1.00  0.00     0.167 HD
ATOM     44  C   UNL A   1      40.680  27.845  29.007  1.00  0.00     0.031 A 
ATOM     45  C   UNL A   1      41.574  33.479  33.068  1.00  0.00     0.031 A 
ATOM     46  C   UNL A   1      41.904  27.865  29.760  1.00  0.00     0.049 A 
ATOM     47  C   UNL A   1      42.569  32.351  33.045  1.00  0.00     0.074 A 
ATOM     48  C   UNL A   1      42.929  26.935  29.762  1.00  0.00     0.029 A 
ATOM     49  N   UNL A   1      42.268  28.866  30.646  1.00  0.00    -0.354 N 
ATOM     50  N   UNL A   1      42.556  31.254  32.327  1.00  0.00    -0.248 NA
ATOM     51  C   UNL A   1      43.730  32.474  33.937  1.00  0.00     0.031 C 
ATOM     52  C   UNL A   1      43.888  27.346  30.691  1.00  0.00     0.029 A 
ATOM     53  C   UNL A   1      43.492  28.566  31.219  1.00  0.00     0.049 A 
ATOM     54  H   UNL A   1      41.737  29.672  30.839  1.00  0.00     0.167 HD
ATOM     55  C   UNL A   1      43.726  30.576  32.650  1.00  0.00     0.074 A 
ATOM     56  C   UNL A   1      44.424  31.388  33.625  1.00  0.00     0.031 C 
ATOM     57  C   UNL A   1      44.182  29.392  32.176  1.00  0.00     0.031 A 
BRANCH  44  58
ATOM     58  C   UNL A   1      40.390  26.656  28.134  1.00  0.00    -0.014 A 
ATOM     59  C   UNL A   1      39.586  25.596  28.586  1.00  0.00     0.009 A 
ATOM     60  C   UNL A   1      40.910  26.603  26.831  1.00  0.00     0.009 A 
ATOM     61  C   UNL A   1      39.347  24.490  27.769  1.00  0.00     0.001 A 
ATOM     62  C   UNL A   1      40.641  25.511  26.004  1.00  0.00     0.001 A 
ATOM     63  C   UNL A   1      39.869  24.450  26.476  1.00  0.00     0.000 A 
ENDBRANCH  44  58
BRANCH  45  64
ATOM     64  C   UNL A   1      41.785  34.658  33.951  1.00  0.00    -0.014 A 
ATOM     65  C   UNL A   1      41.264  34.671  35.253  1.00  0.00     0.009 A 
ATOM     66  C   UNL A   1      42.497  35.778  33.495  1.00  0.00     0.009 A 
ATOM     67  C   UNL A   1      41.429  35.791  36.072  1.00  0.00     0.001 A 
ATOM     68  C   UNL A   1      42.688  36.885  34.326  1.00  0.00     0.001 A 
ATOM     69  C   UNL A   1      42.145  36.894  35.610  1.00  0.00     0.000 A 
ENDBRANCH  45  64
BRANCH  57  70
ATOM     70  C   UNL A   1      45.527  28.922  32.654  1.00  0.00    -0.014 A 
ATOM     71  C   UNL A   1      45.658  28.081  33.769  1.00  0.00     0.009 A 
ATOM     72  C   UNL A   1      46.676  29.275  31.928  1.00  0.00     0.009 A 
ATOM     73  C   UNL A   1      46.918  27.621  34.158  1.00  0.00     0.001 A 
ATOM     74  C   UNL A   1      47.928  28.788  32.301  1.00  0.00     0.001 A 
ATOM     75  C   UNL A   1      48.049  27.967  33.420  1.00  0.00     0.000 A 
ENDBRANCH  57  70
ENDBRANCH  31  32
ENDBRANCH  23  26
ENDBRANCH  21  22
ENDBRANCH  20  21
ENDBRANCH  19  20
ENDBRANCH  18  19
ENDBRANCH   1  18
TORSDOF 18
ENDMDL
MODEL 3
REMARK VINA RESULT:      -8.1      4.704      9.506
REMARK SMILES C[C@H](C[NH3+])CS/C=C/C(=O)NCCCCCCNC(=O)c1ccc(-c2c3nc(c(-c4ccccc4)c4ccc([nH]4)c(-c4ccccc4)c4nc(c(-c5ccccc5)c5ccc2[nH]5)C=C4)C=C3)cc1
REMARK SMILES IDX 13 1 12 2 11 3 9 4 10 5 8 7 7 8 6 9 5 10 2 11 1 12 3 13 4 14
REMARK SMILES IDX 14 18 15 19 16 20 17 21 18 22 19 23 20 25 21 26 22 27 68 28
REMARK SMILES IDX 23 29 67 30 24 31 25 32 26 33 61 34 27 35 66 36 60 37 62 38
REMARK SMILES IDX 28 39 65 40 59 41 58 42 29 44 51 45 36 46 50 47 37 48 40 49
REMARK SMILES IDX 49 50 63 51 38 52 39 53 48 55 64 56 41 57 30 58 31 59 35 60
REMARK SMILES IDX 32 61 34 62 33 63 52 64 53 65 57 66 54 67 56 68 55 69 42 70
REMARK SMILES IDX 43 71 47 72 44 73 46 74 45 75
REMARK H PARENT 11 6 4 15 4 16 4 17 18 24 62 43 40 54
REMARK Flexibility Score: inf
ROOT
ATOM      1  C   UNL A   1      33.457  28.511  24.856  1.00  0.00     0.021 C 
ENDROOT
BRANCH   1   2
ATOM      2  C   UNL A   1      32.797  27.146  24.703  1.00  0.00     0.116 C 
BRANCH   2   3
ATOM      3  N   UNL A   1      32.665  26.789  23.305  1.00  0.00    -0.353 N 
ATOM      4  C   UNL A   1      31.529  26.657  22.571  1.00  0.00     0.244 C 
ATOM      5  O   UNL A   1      31.550  26.128  21.464  1.00  0.00    -0.270 OA
ATOM      6  H   UNL A   1      33.507  26.618  22.825  1.00  0.00     0.163 HD
BRANCH   4   7
ATOM      7  C   UNL A   1      30.254  27.162  23.115  1.00  0.00     0.078 C 
ATOM      8  C   UNL A   1      29.900  28.429  22.859  1.00  0.00     0.046 C 
BRANCH   8   9
ATOM      9  S   UNL A   1      28.337  29.071  23.183  1.00  0.00    -0.133 SA
BRANCH   9  10
ATOM     10  C   UNL A   1      28.049  30.105  21.704  1.00  0.00     0.083 C 
BRANCH  10  11
ATOM     11  C   UNL A   1      27.866  31.627  21.930  1.00  0.00     0.051 C 
ATOM     12  C   UNL A   1      28.377  32.351  20.677  1.00  0.00     0.014 C 
BRANCH  11  13
ATOM     13  C   UNL A   1      28.583  32.122  23.208  1.00  0.00     0.262 C 
BRANCH  13  14
ATOM     14  N   UNL A   1      29.185  33.449  23.113  1.00  0.00    -0.357 N 
ATOM     15  H   UNL A   1      28.472  34.160  23.283  1.00  0.00     0.344 HD
ATOM     16  H   UNL A   1      29.578  33.579  22.182  1.00  0.00     0.344 HD
ATOM     17  H   UNL A   1      29.924  33.538  23.810  1.00  0.00     0.344 HD
ENDBRANCH  13  14
ENDBRANCH  11  13
ENDBRANCH  10  11
ENDBRANCH   9  10
ENDBRANCH   8   9
ENDBRANCH   4   7
ENDBRANCH   2   3
ENDBRANCH   1   2
BRANCH   1  18
ATOM     18  C   UNL A   1      32.467  29.679  24.889  1.00  0.00     0.002 C 
BRANCH  18  19
ATOM     19  C   UNL A   1      31.770  29.902  26.236  1.00  0.00     0.002 C 
BRANCH  19  20
ATOM     20  C   UNL A   1      31.476  31.363  26.582  1.00  0.00     0.021 C 
BRANCH  20  21
ATOM     21  C   UNL A   1      32.711  32.249  26.670  1.00  0.00     0.116 C 
BRANCH  21  22
ATOM     22  N   UNL A   1      32.410  33.545  27.250  1.00  0.00    -0.352 N 
ATOM     23  C   UNL A   1      33.020  34.174  28.308  1.00  0.00     0.251 C 
ATOM     24  H   UNL A   1      31.669  34.040  26.831  1.00  0.00     0.163 HD
ATOM     25  O   UNL A   1      32.528  35.173  28.813  1.00  0.00    -0.269 OA
BRANCH  23  26
ATOM     26  C   UNL A   1      34.279  33.612  28.843  1.00  0.00     0.039 A 
ATOM     27  C   UNL A   1      35.497  34.060  28.329  1.00  0.00     0.014 A 
ATOM     28  C   UNL A   1      34.244  32.662  29.866  1.00  0.00     0.014 A 
ATOM     29  C   UNL A   1      36.690  33.594  28.885  1.00  0.00     0.010 A 
ATOM     30  C   UNL A   1      35.429  32.258  30.467  1.00  0.00     0.010 A 
ATOM     31  C   UNL A   1      36.664  32.714  29.978  1.00  0.00    -0.014 A 
BRANCH  31  32
ATOM     32  C   UNL A   1      37.909  32.226  30.620  1.00  0.00     0.031 A 
ATOM     33  C   UNL A   1      38.611  31.022  30.057  1.00  0.00     0.074 A 
ATOM     34  C   UNL A   1      38.357  32.805  31.751  1.00  0.00     0.049 A 
ATOM     35  N   UNL A   1      39.629  30.356  30.540  1.00  0.00    -0.248 NA
ATOM     36  C   UNL A   1      38.079  30.479  28.796  1.00  0.00     0.031 C 
ATOM     37  C   UNL A   1      37.756  33.968  32.407  1.00  0.00     0.029 A 
ATOM     38  N   UNL A   1      39.418  32.479  32.558  1.00  0.00    -0.354 N 
ATOM     39  C   UNL A   1      39.841  29.304  29.657  1.00  0.00     0.074 A 
ATOM     40  C   UNL A   1      38.817  29.391  28.640  1.00  0.00     0.031 C 
ATOM     41  C   UNL A   1      38.470  34.270  33.504  1.00  0.00     0.029 A 
ATOM     42  C   UNL A   1      39.543  33.292  33.659  1.00  0.00     0.049 A 
ATOM     43  H   UNL A   1      40.031  31.732  32.367  1.00  0.00     0.167 HD
ATOM     44  C   UNL A   1      40.811  28.361  29.681  1.00  0.00     0.031 A 
ATOM     45  C   UNL A   1      40.414  33.244  34.684  1.00  0.00     0.031 A 
ATOM     46  C   UNL A   1      41.831  28.282  30.692  1.00  0.00     0.049 A 
ATOM     47  C   UNL A   1      41.456  32.161  34.713  1.00  0.00     0.074 A 
ATOM     48  C   UNL A   1      42.885  27.390  30.784  1.00  0.00     0.029 A 
ATOM     49  N   UNL A   1      41.923  29.127  31.787  1.00  0.00    -0.354 N 
ATOM     50  N   UNL A   1      41.675  31.202  33.847  1.00  0.00    -0.248 NA
ATOM     51  C   UNL A   1      42.377  32.157  35.859  1.00  0.00     0.031 C 
ATOM     52  C   UNL A   1      43.582  27.660  31.964  1.00  0.00     0.029 A 
ATOM     53  C   UNL A   1      43.002  28.763  32.573  1.00  0.00     0.049 A 
ATOM     54  H   UNL A   1      41.312  29.875  31.977  1.00  0.00     0.167 HD
ATOM     55  C   UNL A   1      42.781  30.506  34.321  1.00  0.00     0.074 A 
ATOM     56  C   UNL A   1      43.190  31.158  35.548  1.00  0.00     0.031 C 
ATOM     57  C   UNL A   1      43.405  29.431  33.783  1.00  0.00     0.031 A 
BRANCH  44  58
ATOM     58  C   UNL A   1      40.801  27.330  28.587  1.00  0.00    -0.014 A 
ATOM     59  C   UNL A   1      40.088  26.127  28.723  1.00  0.00     0.009 A 
ATOM     60  C   UNL A   1      41.495  27.574  27.391  1.00  0.00     0.009 A 
ATOM     61  C   UNL A   1      40.109  25.173  27.704  1.00  0.00     0.001 A 
ATOM     62  C   UNL A   1      41.486  26.632  26.361  1.00  0.00     0.001 A 
ATOM     63  C   UNL A   1      40.803  25.428  26.522  1.00  0.00     0.000 A 
ENDBRANCH  44  58
BRANCH  45  64
ATOM     64  C   UNL A   1      40.346  34.261  35.768  1.00  0.00    -0.014 A 
ATOM     65  C   UNL A   1      39.510  34.062  36.877  1.00  0.00     0.009 A 
ATOM     66  C   UNL A   1      41.107  35.438  35.697  1.00  0.00     0.009 A 
ATOM     67  C   UNL A   1      39.417  35.030  37.879  1.00  0.00     0.001 A 
ATOM     68  C   UNL A   1      41.036  36.392  36.715  1.00  0.00     0.001 A 
ATOM     69  C   UNL A   1      40.184  36.192  37.800  1.00  0.00     0.000 A 
ENDBRANCH  45  64
BRANCH  57  70
ATOM     70  C   UNL A   1      44.634  28.919  34.480  1.00  0.00    -0.014 A 
ATOM     71  C   UNL A   1      44.573  27.854  35.391  1.00  0.00     0.009 A 
ATOM     72  C   UNL A   1      45.886  29.471  34.161  1.00  0.00     0.009 A 
ATOM     73  C   UNL A   1      45.741  27.368  35.985  1.00  0.00     0.001 A 
ATOM     74  C   UNL A   1      47.052  28.963  34.731  1.00  0.00     0.001 A 
ATOM     75  C   UNL A   1      46.978  27.916  35.648  1.00  0.00     0.000 A 
ENDBRANCH  57  70
ENDBRANCH  31  32
ENDBRANCH  23  26
ENDBRANCH  21  22
ENDBRANCH  20  21
ENDBRANCH  19  20
ENDBRANCH  18  19
ENDBRANCH   1  18
TORSDOF 18
ENDMDL
