MODEL 1
REMARK VINA RESULT:     -12.5      0.000      0.000
REMARK SMILES Cc1ccc(S(=O)(=O)N2c3ccc(C(=O)NCCCCCCNC(=O)c4ccc(-c5c6nc(c(-c7ccccc7)c7ccc([nH]7)c(-c7ccccc7)c7nc(c(-c8ccccc8)c8ccc5[nH]8)C=C7)C=C6)cc4)cc3C[C@H]2C)cc1
REMARK SMILES IDX 19 1 18 2 17 3 16 4 14 5 15 6 13 8 9 9 10 10 77 11 11 12
REMARK SMILES IDX 75 13 76 14 78 15 12 16 74 17 6 18 7 19 8 20 5 21 1 22 2 23
REMARK SMILES IDX 3 24 80 25 4 26 79 27 20 28 21 29 22 30 23 31 24 32 25 34
REMARK SMILES IDX 26 35 27 36 73 37 28 38 72 39 29 40 30 41 31 42 66 43 32 44
REMARK SMILES IDX 71 45 65 46 67 47 33 48 70 49 64 50 63 51 34 53 56 54 41 55
REMARK SMILES IDX 55 56 42 57 45 58 54 59 68 60 43 61 44 62 53 64 69 65 46 66
REMARK SMILES IDX 35 67 36 68 40 69 37 70 39 71 38 72 57 73 58 74 62 75 59 76
REMARK SMILES IDX 61 77 60 78 47 79 48 80 52 81 49 82 51 83 50 84
REMARK H PARENT 16 7 23 33 67 52 45 63
REMARK Flexibility Score: inf
ROOT
ATOM      1  C   UNL A   1      38.664  23.695  26.194  1.00  0.00     0.002 C 
ENDROOT
BRANCH   1   2
ATOM      2  C   UNL A   1      37.161  23.410  26.247  1.00  0.00     0.021 C 
BRANCH   2   3
ATOM      3  C   UNL A   1      36.661  22.120  25.609  1.00  0.00     0.116 C 
BRANCH   3   4
ATOM      4  N   UNL A   1      35.650  21.404  26.357  1.00  0.00    -0.352 N 
ATOM      5  C   UNL A   1      34.294  21.640  26.425  1.00  0.00     0.251 C 
ATOM      6  O   UNL A   1      33.595  20.908  27.124  1.00  0.00    -0.269 OA
ATOM      7  H   UNL A   1      35.976  20.643  26.891  1.00  0.00     0.163 HD
BRANCH   5   8
ATOM      8  C   UNL A   1      33.668  22.801  25.729  1.00  0.00     0.040 A 
ATOM      9  N   UNL A   1      32.202  26.409  24.084  1.00  0.00    -0.263 N 
ATOM     10  C   UNL A   1      32.681  25.107  24.508  1.00  0.00     0.055 A 
ATOM     11  C   UNL A   1      31.980  27.167  25.384  1.00  0.00     0.101 C 
ATOM     12  C   UNL A   1      33.136  24.073  23.712  1.00  0.00     0.028 A 
ATOM     13  C   UNL A   1      32.650  24.969  25.893  1.00  0.00    -0.021 A 
ATOM     14  C   UNL A   1      31.952  26.125  26.521  1.00  0.00     0.063 C 
ATOM     15  C   UNL A   1      33.157  28.132  25.581  1.00  0.00     0.032 C 
ATOM     16  C   UNL A   1      33.575  22.897  24.329  1.00  0.00     0.016 A 
ATOM     17  C   UNL A   1      33.148  23.834  26.522  1.00  0.00     0.019 A 
BRANCH   9  18
ATOM     18  S   UNL A   1      30.862  26.281  23.008  1.00  0.00     0.264 S 
ATOM     19  O   UNL A   1      29.933  25.333  23.574  1.00  0.00    -0.201 OA
ATOM     20  O   UNL A   1      31.401  26.085  21.667  1.00  0.00    -0.201 OA
BRANCH  18  21
ATOM     21  C   UNL A   1      29.991  27.837  22.915  1.00  0.00     0.088 A 
ATOM     22  C   UNL A   1      27.683  31.451  23.348  1.00  0.00     0.044 C 
ATOM     23  C   UNL A   1      28.478  30.196  23.140  1.00  0.00    -0.051 A 
ATOM     24  C   UNL A   1      27.852  28.950  23.228  1.00  0.00     0.005 A 
ATOM     25  C   UNL A   1      29.848  30.250  22.861  1.00  0.00     0.005 A 
ATOM     26  C   UNL A   1      28.604  27.779  23.118  1.00  0.00     0.022 A 
ATOM     27  C   UNL A   1      30.601  29.075  22.740  1.00  0.00     0.022 A 
ENDBRANCH  18  21
ENDBRANCH   9  18
ENDBRANCH   5   8
ENDBRANCH   3   4
ENDBRANCH   2   3
ENDBRANCH   1   2
BRANCH   1  28
ATOM     28  C   UNL A   1      39.615  22.705  26.880  1.00  0.00     0.002 C 
BRANCH  28  29
ATOM     29  C   UNL A   1      40.404  21.745  25.990  1.00  0.00     0.021 C 
BRANCH  29  30
ATOM     30  C   UNL A   1      41.492  20.945  26.686  1.00  0.00     0.116 C 
BRANCH  30  31
ATOM     31  N   UNL A   1      42.429  20.288  25.791  1.00  0.00    -0.352 N 
ATOM     32  C   UNL A   1      43.546  20.792  25.153  1.00  0.00     0.251 C 
ATOM     33  H   UNL A   1      42.238  19.338  25.611  1.00  0.00     0.163 HD
ATOM     34  O   UNL A   1      44.152  20.083  24.353  1.00  0.00    -0.269 OA
BRANCH  32  35
ATOM     35  C   UNL A   1      44.109  22.115  25.535  1.00  0.00     0.039 A 
ATOM     36  C   UNL A   1      44.795  22.195  26.756  1.00  0.00     0.014 A 
ATOM     37  C   UNL A   1      43.807  23.283  24.841  1.00  0.00     0.014 A 
ATOM     38  C   UNL A   1      44.924  23.427  27.394  1.00  0.00     0.010 A 
ATOM     39  C   UNL A   1      43.837  24.487  25.509  1.00  0.00     0.010 A 
ATOM     40  C   UNL A   1      44.327  24.541  26.814  1.00  0.00    -0.014 A 
BRANCH  40  41
ATOM     41  C   UNL A   1      44.064  25.780  27.526  1.00  0.00     0.031 A 
ATOM     42  C   UNL A   1      42.734  26.403  27.468  1.00  0.00     0.074 A 
ATOM     43  C   UNL A   1      45.030  26.291  28.319  1.00  0.00     0.049 A 
ATOM     44  N   UNL A   1      42.504  27.642  27.736  1.00  0.00    -0.248 NA
ATOM     45  C   UNL A   1      41.548  25.674  27.036  1.00  0.00     0.031 C 
ATOM     46  C   UNL A   1      44.900  27.321  29.345  1.00  0.00     0.029 A 
ATOM     47  N   UNL A   1      46.402  26.109  28.188  1.00  0.00    -0.354 N 
ATOM     48  C   UNL A   1      41.141  27.802  27.803  1.00  0.00     0.074 A 
ATOM     49  C   UNL A   1      40.592  26.580  27.264  1.00  0.00     0.031 C 
ATOM     50  C   UNL A   1      46.112  27.849  29.585  1.00  0.00     0.029 A 
ATOM     51  C   UNL A   1      47.030  27.291  28.604  1.00  0.00     0.049 A 
ATOM     52  H   UNL A   1      46.850  25.297  27.860  1.00  0.00     0.167 HD
ATOM     53  C   UNL A   1      40.635  28.893  28.443  1.00  0.00     0.031 A 
ATOM     54  C   UNL A   1      47.758  28.034  27.718  1.00  0.00     0.031 A 
ATOM     55  C   UNL A   1      41.694  29.816  28.850  1.00  0.00     0.049 A 
ATOM     56  C   UNL A   1      47.191  29.418  27.480  1.00  0.00     0.074 A 
ATOM     57  C   UNL A   1      42.331  30.048  30.059  1.00  0.00     0.029 A 
ATOM     58  N   UNL A   1      42.462  30.439  27.873  1.00  0.00    -0.354 N 
ATOM     59  N   UNL A   1      45.965  29.767  27.760  1.00  0.00    -0.248 NA
ATOM     60  C   UNL A   1      47.957  30.512  26.887  1.00  0.00     0.031 C 
ATOM     61  C   UNL A   1      43.532  30.758  29.790  1.00  0.00     0.029 A 
ATOM     62  C   UNL A   1      43.603  30.985  28.426  1.00  0.00     0.049 A 
ATOM     63  H   UNL A   1      42.224  30.486  26.920  1.00  0.00     0.167 HD
ATOM     64  C   UNL A   1      45.765  31.078  27.410  1.00  0.00     0.074 A 
ATOM     65  C   UNL A   1      47.047  31.503  26.875  1.00  0.00     0.031 C 
ATOM     66  C   UNL A   1      44.559  31.694  27.584  1.00  0.00     0.031 A 
BRANCH  53  67
ATOM     67  C   UNL A   1      39.213  28.982  28.949  1.00  0.00    -0.014 A 
ATOM     68  C   UNL A   1      38.216  29.526  28.118  1.00  0.00     0.009 A 
ATOM     69  C   UNL A   1      38.797  28.615  30.240  1.00  0.00     0.009 A 
ATOM     70  C   UNL A   1      36.913  29.771  28.577  1.00  0.00     0.001 A 
ATOM     71  C   UNL A   1      37.507  28.887  30.718  1.00  0.00     0.001 A 
ATOM     72  C   UNL A   1      36.566  29.476  29.888  1.00  0.00     0.000 A 
ENDBRANCH  53  67
BRANCH  54  73
ATOM     73  C   UNL A   1      48.448  27.209  26.684  1.00  0.00    -0.014 A 
ATOM     74  C   UNL A   1      48.050  27.359  25.341  1.00  0.00     0.009 A 
ATOM     75  C   UNL A   1      49.693  26.618  26.949  1.00  0.00     0.009 A 
ATOM     76  C   UNL A   1      48.922  27.047  24.294  1.00  0.00     0.001 A 
ATOM     77  C   UNL A   1      50.558  26.293  25.895  1.00  0.00     0.001 A 
ATOM     78  C   UNL A   1      50.189  26.544  24.574  1.00  0.00     0.000 A 
ENDBRANCH  54  73
BRANCH  66  79
ATOM     79  C   UNL A   1      44.150  33.044  27.040  1.00  0.00    -0.014 A 
ATOM     80  C   UNL A   1      44.010  33.349  25.681  1.00  0.00     0.009 A 
ATOM     81  C   UNL A   1      43.747  34.050  27.952  1.00  0.00     0.009 A 
ATOM     82  C   UNL A   1      43.531  34.598  25.256  1.00  0.00     0.001 A 
ATOM     83  C   UNL A   1      43.224  35.276  27.536  1.00  0.00     0.001 A 
ATOM     84  C   UNL A   1      43.127  35.555  26.182  1.00  0.00     0.000 A 
ENDBRANCH  66  79
ENDBRANCH  40  41
ENDBRANCH  32  35
ENDBRANCH  30  31
ENDBRANCH  29  30
ENDBRANCH  28  29
ENDBRANCH   1  28
TORSDOF 15
ENDMDL
MODEL 2
REMARK VINA RESULT:     -12.4      4.740     10.395
REMARK SMILES Cc1ccc(S(=O)(=O)N2c3ccc(C(=O)NCCCCCCNC(=O)c4ccc(-c5c6nc(c(-c7ccccc7)c7ccc([nH]7)c(-c7ccccc7)c7nc(c(-c8ccccc8)c8ccc5[nH]8)C=C7)C=C6)cc4)cc3C[C@H]2C)cc1
REMARK SMILES IDX 19 1 18 2 17 3 16 4 14 5 15 6 13 8 9 9 10 10 77 11 11 12
REMARK SMILES IDX 75 13 76 14 78 15 12 16 74 17 6 18 7 19 8 20 5 21 1 22 2 23
REMARK SMILES IDX 3 24 80 25 4 26 79 27 20 28 21 29 22 30 23 31 24 32 25 34
REMARK SMILES IDX 26 35 27 36 73 37 28 38 72 39 29 40 30 41 31 42 66 43 32 44
REMARK SMILES IDX 71 45 65 46 67 47 33 48 70 49 64 50 63 51 34 53 56 54 41 55
REMARK SMILES IDX 55 56 42 57 45 58 54 59 68 60 43 61 44 62 53 64 69 65 46 66
REMARK SMILES IDX 35 67 36 68 40 69 37 70 39 71 38 72 57 73 58 74 62 75 59 76
REMARK SMILES IDX 61 77 60 78 47 79 48 80 52 81 49 82 51 83 50 84
REMARK H PARENT 16 7 23 33 67 52 45 63
REMARK Flexibility Score: inf
ROOT
ATOM      1  C   UNL A   1      34.118  30.316  27.624  1.00  0.00     0.002 C 
ENDROOT
BRANCH   1   2
ATOM      2  C   UNL A   1      32.843  30.256  26.779  1.00  0.00     0.021 C 
BRANCH   2   3
ATOM      3  C   UNL A   1      32.952  29.690  25.369  1.00  0.00     0.116 C 
BRANCH   3   4
ATOM      4  N   UNL A   1      31.711  29.613  24.629  1.00  0.00    -0.352 N 
ATOM      5  C   UNL A   1      31.012  28.496  24.223  1.00  0.00     0.251 C 
ATOM      6  O   UNL A   1      29.964  28.643  23.598  1.00  0.00    -0.269 OA
ATOM      7  H   UNL A   1      31.311  30.478  24.380  1.00  0.00     0.163 HD
BRANCH   5   8
ATOM      8  C   UNL A   1      31.535  27.120  24.462  1.00  0.00     0.040 A 
ATOM      9  N   UNL A   1      33.468  23.383  24.877  1.00  0.00    -0.263 N 
ATOM     10  C   UNL A   1      32.732  24.634  24.870  1.00  0.00     0.055 A 
ATOM     11  C   UNL A   1      34.006  23.258  23.460  1.00  0.00     0.101 C 
ATOM     12  C   UNL A   1      32.136  25.271  25.941  1.00  0.00     0.028 A 
ATOM     13  C   UNL A   1      32.671  25.192  23.596  1.00  0.00    -0.021 A 
ATOM     14  C   UNL A   1      33.211  24.244  22.581  1.00  0.00     0.063 C 
ATOM     15  C   UNL A   1      35.492  23.645  23.477  1.00  0.00     0.032 C 
ATOM     16  C   UNL A   1      31.487  26.490  25.719  1.00  0.00     0.016 A 
ATOM     17  C   UNL A   1      32.091  26.434  23.373  1.00  0.00     0.019 A 
BRANCH   9  18
ATOM     18  S   UNL A   1      32.513  22.079  25.476  1.00  0.00     0.264 S 
ATOM     19  O   UNL A   1      31.140  22.341  25.117  1.00  0.00    -0.201 OA
ATOM     20  O   UNL A   1      32.891  21.869  26.868  1.00  0.00    -0.201 OA
BRANCH  18  21
ATOM     21  C   UNL A   1      32.960  20.557  24.658  1.00  0.00     0.088 A 
ATOM     22  C   UNL A   1      34.028  16.599  23.327  1.00  0.00     0.044 C 
ATOM     23  C   UNL A   1      33.682  17.998  23.744  1.00  0.00    -0.051 A 
ATOM     24  C   UNL A   1      34.517  18.690  24.626  1.00  0.00     0.005 A 
ATOM     25  C   UNL A   1      32.529  18.629  23.265  1.00  0.00     0.005 A 
ATOM     26  C   UNL A   1      34.157  19.959  25.081  1.00  0.00     0.022 A 
ATOM     27  C   UNL A   1      32.172  19.906  23.712  1.00  0.00     0.022 A 
ENDBRANCH  18  21
ENDBRANCH   9  18
ENDBRANCH   5   8
ENDBRANCH   3   4
ENDBRANCH   2   3
ENDBRANCH   1   2
BRANCH   1  28
ATOM     28  C   UNL A   1      34.799  31.678  27.814  1.00  0.00     0.002 C 
BRANCH  28  29
ATOM     29  C   UNL A   1      33.916  32.924  27.787  1.00  0.00     0.021 C 
BRANCH  29  30
ATOM     30  C   UNL A   1      34.502  34.162  28.446  1.00  0.00     0.116 C 
BRANCH  30  31
ATOM     31  N   UNL A   1      33.639  34.791  29.431  1.00  0.00    -0.352 N 
ATOM     32  C   UNL A   1      33.633  34.671  30.808  1.00  0.00     0.251 C 
ATOM     33  H   UNL A   1      32.953  35.394  29.061  1.00  0.00     0.163 HD
ATOM     34  O   UNL A   1      32.746  35.222  31.455  1.00  0.00    -0.269 OA
BRANCH  32  35
ATOM     35  C   UNL A   1      34.765  34.019  31.520  1.00  0.00     0.039 A 
ATOM     36  C   UNL A   1      35.927  34.779  31.715  1.00  0.00     0.014 A 
ATOM     37  C   UNL A   1      34.781  32.657  31.805  1.00  0.00     0.014 A 
ATOM     38  C   UNL A   1      37.145  34.135  31.922  1.00  0.00     0.010 A 
ATOM     39  C   UNL A   1      35.992  32.007  31.906  1.00  0.00     0.010 A 
ATOM     40  C   UNL A   1      37.175  32.745  31.889  1.00  0.00    -0.014 A 
BRANCH  40  41
ATOM     41  C   UNL A   1      38.390  31.966  31.721  1.00  0.00     0.031 A 
ATOM     42  C   UNL A   1      38.361  30.690  30.992  1.00  0.00     0.074 A 
ATOM     43  C   UNL A   1      39.559  32.484  32.156  1.00  0.00     0.049 A 
ATOM     44  N   UNL A   1      39.259  29.773  31.103  1.00  0.00    -0.248 NA
ATOM     45  C   UNL A   1      37.261  30.319  30.109  1.00  0.00     0.031 C 
ATOM     46  C   UNL A   1      40.912  32.046  31.832  1.00  0.00     0.029 A 
ATOM     47  N   UNL A   1      39.733  33.407  33.181  1.00  0.00    -0.354 N 
ATOM     48  C   UNL A   1      39.027  28.847  30.116  1.00  0.00     0.074 A 
ATOM     49  C   UNL A   1      37.722  29.177  29.591  1.00  0.00     0.031 C 
ATOM     50  C   UNL A   1      41.754  32.505  32.775  1.00  0.00     0.029 A 
ATOM     51  C   UNL A   1      40.944  33.111  33.820  1.00  0.00     0.049 A 
ATOM     52  H   UNL A   1      39.115  34.137  33.414  1.00  0.00     0.167 HD
ATOM     53  C   UNL A   1      40.029  27.997  29.757  1.00  0.00     0.031 A 
ATOM     54  C   UNL A   1      40.955  32.718  35.129  1.00  0.00     0.031 A 
ATOM     55  C   UNL A   1      41.194  28.144  30.629  1.00  0.00     0.049 A 
ATOM     56  C   UNL A   1      41.477  31.311  35.335  1.00  0.00     0.074 A 
ATOM     57  C   UNL A   1      42.405  28.804  30.485  1.00  0.00     0.029 A 
ATOM     58  N   UNL A   1      41.075  27.828  31.977  1.00  0.00    -0.354 N 
ATOM     59  N   UNL A   1      41.555  30.413  34.392  1.00  0.00    -0.248 NA
ATOM     60  C   UNL A   1      41.930  30.801  36.626  1.00  0.00     0.031 C 
ATOM     61  C   UNL A   1      42.981  28.947  31.776  1.00  0.00     0.029 A 
ATOM     62  C   UNL A   1      42.138  28.344  32.694  1.00  0.00     0.049 A 
ATOM     63  H   UNL A   1      40.337  27.308  32.368  1.00  0.00     0.167 HD
ATOM     64  C   UNL A   1      42.052  29.243  34.907  1.00  0.00     0.074 A 
ATOM     65  C   UNL A   1      42.279  29.540  36.310  1.00  0.00     0.031 C 
ATOM     66  C   UNL A   1      42.223  28.131  34.134  1.00  0.00     0.031 A 
BRANCH  53  67
ATOM     67  C   UNL A   1      40.059  27.242  28.448  1.00  0.00    -0.014 A 
ATOM     68  C   UNL A   1      39.525  25.941  28.388  1.00  0.00     0.009 A 
ATOM     69  C   UNL A   1      40.646  27.715  27.263  1.00  0.00     0.009 A 
ATOM     70  C   UNL A   1      39.653  25.134  27.247  1.00  0.00     0.001 A 
ATOM     71  C   UNL A   1      40.808  26.905  26.130  1.00  0.00     0.001 A 
ATOM     72  C   UNL A   1      40.320  25.607  26.126  1.00  0.00     0.000 A 
ENDBRANCH  53  67
BRANCH  54  73
ATOM     73  C   UNL A   1      39.878  33.354  35.943  1.00  0.00    -0.014 A 
ATOM     74  C   UNL A   1      38.817  32.540  36.390  1.00  0.00     0.009 A 
ATOM     75  C   UNL A   1      40.092  34.584  36.583  1.00  0.00     0.009 A 
ATOM     76  C   UNL A   1      38.075  32.887  37.524  1.00  0.00     0.001 A 
ATOM     77  C   UNL A   1      39.334  34.933  37.709  1.00  0.00     0.001 A 
ATOM     78  C   UNL A   1      38.356  34.069  38.201  1.00  0.00     0.000 A 
ENDBRANCH  54  73
BRANCH  66  79
ATOM     79  C   UNL A   1      42.543  26.735  34.620  1.00  0.00    -0.014 A 
ATOM     80  C   UNL A   1      43.815  26.152  34.593  1.00  0.00     0.009 A 
ATOM     81  C   UNL A   1      41.529  25.995  35.274  1.00  0.00     0.009 A 
ATOM     82  C   UNL A   1      44.053  24.887  35.152  1.00  0.00     0.001 A 
ATOM     83  C   UNL A   1      41.770  24.758  35.876  1.00  0.00     0.001 A 
ATOM     84  C   UNL A   1      43.035  24.197  35.804  1.00  0.00     0.000 A 
ENDBRANCH  66  79
ENDBRANCH  40  41
ENDBRANCH  32  35
ENDBRANCH  30  31
ENDBRANCH  29  30
ENDBRANCH  28  29
ENDBRANCH   1  28
TORSDOF 15
ENDMDL
MODEL 3
REMARK VINA RESULT:     -12.3      2.940      4.877
REMARK SMILES Cc1ccc(S(=O)(=O)N2c3ccc(C(=O)NCCCCCCNC(=O)c4ccc(-c5c6nc(c(-c7ccccc7)c7ccc([nH]7)c(-c7ccccc7)c7nc(c(-c8ccccc8)c8ccc5[nH]8)C=C7)C=C6)cc4)cc3C[C@H]2C)cc1
REMARK SMILES IDX 19 1 18 2 17 3 16 4 14 5 15 6 13 8 9 9 10 10 77 11 11 12
REMARK SMILES IDX 75 13 76 14 78 15 12 16 74 17 6 18 7 19 8 20 5 21 1 22 2 23
REMARK SMILES IDX 3 24 80 25 4 26 79 27 20 28 21 29 22 30 23 31 24 32 25 34
REMARK SMILES IDX 26 35 27 36 73 37 28 38 72 39 29 40 30 41 31 42 66 43 32 44
REMARK SMILES IDX 71 45 65 46 67 47 33 48 70 49 64 50 63 51 34 53 56 54 41 55
REMARK SMILES IDX 55 56 42 57 45 58 54 59 68 60 43 61 44 62 53 64 69 65 46 66
REMARK SMILES IDX 35 67 36 68 40 69 37 70 39 71 38 72 57 73 58 74 62 75 59 76
REMARK SMILES IDX 61 77 60 78 47 79 48 80 52 81 49 82 51 83 50 84
REMARK H PARENT 16 7 23 33 67 52 45 63
REMARK Flexibility Score: inf
ROOT
ATOM      1  C   UNL A   1      35.464  22.150  26.344  1.00  0.00     0.002 C 
ENDROOT
BRANCH   1   2
ATOM      2  C   UNL A   1      34.323  22.918  27.015  1.00  0.00     0.021 C 
BRANCH   2   3
ATOM      3  C   UNL A   1      32.989  22.201  27.186  1.00  0.00     0.116 C 
BRANCH   3   4
ATOM      4  N   UNL A   1      32.739  21.118  26.259  1.00  0.00    -0.352 N 
ATOM      5  C   UNL A   1      32.329  21.180  24.945  1.00  0.00     0.251 C 
ATOM      6  O   UNL A   1      32.173  20.133  24.319  1.00  0.00    -0.269 OA
ATOM      7  H   UNL A   1      32.880  20.212  26.619  1.00  0.00     0.163 HD
BRANCH   5   8
ATOM      8  C   UNL A   1      32.004  22.479  24.289  1.00  0.00     0.040 A 
ATOM      9  N   UNL A   1      31.306  25.950  21.980  1.00  0.00    -0.263 N 
ATOM     10  C   UNL A   1      31.418  24.797  22.853  1.00  0.00     0.055 A 
ATOM     11  C   UNL A   1      32.663  26.034  21.297  1.00  0.00     0.101 C 
ATOM     12  C   UNL A   1      30.424  24.218  23.620  1.00  0.00     0.028 A 
ATOM     13  C   UNL A   1      32.707  24.272  22.857  1.00  0.00    -0.021 A 
ATOM     14  C   UNL A   1      33.640  25.165  22.114  1.00  0.00     0.063 C 
ATOM     15  C   UNL A   1      32.518  25.472  19.875  1.00  0.00     0.032 C 
ATOM     16  C   UNL A   1      30.740  23.090  24.383  1.00  0.00     0.016 A 
ATOM     17  C   UNL A   1      33.017  23.112  23.555  1.00  0.00     0.019 A 
BRANCH   9  18
ATOM     18  S   UNL A   1      30.763  27.349  22.828  1.00  0.00     0.264 S 
ATOM     19  O   UNL A   1      29.430  27.080  23.310  1.00  0.00    -0.201 OA
ATOM     20  O   UNL A   1      31.028  28.502  21.975  1.00  0.00    -0.201 OA
BRANCH  18  21
ATOM     21  C   UNL A   1      31.770  27.626  24.276  1.00  0.00     0.088 A 
ATOM     22  C   UNL A   1      34.170  28.972  27.593  1.00  0.00     0.044 C 
ATOM     23  C   UNL A   1      33.360  28.452  26.442  1.00  0.00    -0.051 A 
ATOM     24  C   UNL A   1      33.798  28.657  25.131  1.00  0.00     0.005 A 
ATOM     25  C   UNL A   1      32.162  27.762  26.658  1.00  0.00     0.005 A 
ATOM     26  C   UNL A   1      33.007  28.249  24.056  1.00  0.00     0.022 A 
ATOM     27  C   UNL A   1      31.373  27.342  25.580  1.00  0.00     0.022 A 
ENDBRANCH  18  21
ENDBRANCH   9  18
ENDBRANCH   5   8
ENDBRANCH   3   4
ENDBRANCH   2   3
ENDBRANCH   1   2
BRANCH   1  28
ATOM     28  C   UNL A   1      36.705  22.937  25.900  1.00  0.00     0.002 C 
BRANCH  28  29
ATOM     29  C   UNL A   1      38.069  22.273  26.080  1.00  0.00     0.021 C 
BRANCH  29  30
ATOM     30  C   UNL A   1      39.272  23.190  25.932  1.00  0.00     0.116 C 
BRANCH  30  31
ATOM     31  N   UNL A   1      40.259  23.071  26.991  1.00  0.00    -0.352 N 
ATOM     32  C   UNL A   1      40.775  24.040  27.832  1.00  0.00     0.251 C 
ATOM     33  H   UNL A   1      40.616  22.164  27.131  1.00  0.00     0.163 HD
ATOM     34  O   UNL A   1      41.683  23.742  28.605  1.00  0.00    -0.269 OA
BRANCH  32  35
ATOM     35  C   UNL A   1      40.145  25.384  27.922  1.00  0.00     0.039 A 
ATOM     36  C   UNL A   1      40.630  26.382  27.063  1.00  0.00     0.014 A 
ATOM     37  C   UNL A   1      39.263  25.728  28.941  1.00  0.00     0.014 A 
ATOM     38  C   UNL A   1      40.452  27.722  27.394  1.00  0.00     0.010 A 
ATOM     39  C   UNL A   1      39.169  27.046  29.332  1.00  0.00     0.010 A 
ATOM     40  C   UNL A   1      39.828  28.032  28.598  1.00  0.00    -0.014 A 
BRANCH  40  41
ATOM     41  C   UNL A   1      39.903  29.335  29.235  1.00  0.00     0.031 A 
ATOM     42  C   UNL A   1      38.872  30.351  28.974  1.00  0.00     0.074 A 
ATOM     43  C   UNL A   1      40.875  29.559  30.145  1.00  0.00     0.049 A 
ATOM     44  N   UNL A   1      39.033  31.614  29.177  1.00  0.00    -0.248 NA
ATOM     45  C   UNL A   1      37.576  30.019  28.395  1.00  0.00     0.031 C 
ATOM     46  C   UNL A   1      40.965  30.644  31.117  1.00  0.00     0.029 A 
ATOM     47  N   UNL A   1      42.114  28.933  30.214  1.00  0.00    -0.354 N 
ATOM     48  C   UNL A   1      37.804  32.212  29.046  1.00  0.00     0.074 A 
ATOM     49  C   UNL A   1      36.954  31.199  28.464  1.00  0.00     0.031 C 
ATOM     50  C   UNL A   1      42.243  30.765  31.514  1.00  0.00     0.029 A 
ATOM     51  C   UNL A   1      43.041  29.873  30.687  1.00  0.00     0.049 A 
ATOM     52  H   UNL A   1      42.306  27.998  29.973  1.00  0.00     0.167 HD
ATOM     53  C   UNL A   1      37.611  33.450  29.581  1.00  0.00     0.031 A 
ATOM     54  C   UNL A   1      44.078  30.276  29.896  1.00  0.00     0.031 A 
ATOM     55  C   UNL A   1      38.855  34.004  30.113  1.00  0.00     0.049 A 
ATOM     56  C   UNL A   1      44.037  31.749  29.547  1.00  0.00     0.074 A 
ATOM     57  C   UNL A   1      39.376  34.100  31.394  1.00  0.00     0.029 A 
ATOM     58  N   UNL A   1      39.903  34.275  29.240  1.00  0.00    -0.354 N 
ATOM     59  N   UNL A   1      42.971  32.496  29.641  1.00  0.00    -0.248 NA
ATOM     60  C   UNL A   1      45.190  32.491  29.043  1.00  0.00     0.031 C 
ATOM     61  C   UNL A   1      40.768  34.361  31.282  1.00  0.00     0.029 A 
ATOM     62  C   UNL A   1      41.081  34.458  29.937  1.00  0.00     0.049 A 
ATOM     63  H   UNL A   1      39.816  34.330  28.262  1.00  0.00     0.167 HD
ATOM     64  C   UNL A   1      43.262  33.773  29.236  1.00  0.00     0.074 A 
ATOM     65  C   UNL A   1      44.669  33.721  28.879  1.00  0.00     0.031 C 
ATOM     66  C   UNL A   1      42.317  34.758  29.222  1.00  0.00     0.031 A 
BRANCH  53  67
ATOM     67  C   UNL A   1      36.247  34.030  29.878  1.00  0.00    -0.014 A 
ATOM     68  C   UNL A   1      35.762  34.016  31.200  1.00  0.00     0.009 A 
ATOM     69  C   UNL A   1      35.367  34.544  28.912  1.00  0.00     0.009 A 
ATOM     70  C   UNL A   1      34.452  34.403  31.519  1.00  0.00     0.001 A 
ATOM     71  C   UNL A   1      34.045  34.901  29.216  1.00  0.00     0.001 A 
ATOM     72  C   UNL A   1      33.583  34.820  30.520  1.00  0.00     0.000 A 
ENDBRANCH  53  67
BRANCH  54  73
ATOM     73  C   UNL A   1      44.581  29.202  28.991  1.00  0.00    -0.014 A 
ATOM     74  C   UNL A   1      45.159  28.058  29.577  1.00  0.00     0.009 A 
ATOM     75  C   UNL A   1      44.149  29.123  27.659  1.00  0.00     0.009 A 
ATOM     76  C   UNL A   1      45.187  26.837  28.895  1.00  0.00     0.001 A 
ATOM     77  C   UNL A   1      44.194  27.901  26.974  1.00  0.00     0.001 A 
ATOM     78  C   UNL A   1      44.674  26.753  27.604  1.00  0.00     0.000 A 
ENDBRANCH  54  73
BRANCH  66  79
ATOM     79  C   UNL A   1      42.450  36.126  28.593  1.00  0.00    -0.014 A 
ATOM     80  C   UNL A   1      41.925  36.487  27.346  1.00  0.00     0.009 A 
ATOM     81  C   UNL A   1      43.025  37.171  29.356  1.00  0.00     0.009 A 
ATOM     82  C   UNL A   1      42.005  37.806  26.872  1.00  0.00     0.001 A 
ATOM     83  C   UNL A   1      43.064  38.494  28.911  1.00  0.00     0.001 A 
ATOM     84  C   UNL A   1      42.562  38.810  27.659  1.00  0.00     0.000 A 
ENDBRANCH  66  79
ENDBRANCH  40  41
ENDBRANCH  32  35
ENDBRANCH  30  31
ENDBRANCH  29  30
ENDBRANCH  28  29
ENDBRANCH   1  28
TORSDOF 15
ENDMDL
