MODEL 1
REMARK VINA RESULT:     -10.5      0.000      0.000
REMARK SMILES O=C(NCCCCCCNC(=O)[C@@H]1C[NH2+]CCN1C(=O)N[C@@H]1CCOC1)c1ccc(-c2c3nc(c(-c4ccccc4)c4ccc([nH]4)c(-c4ccccc4)c4nc(c(-c5ccccc5)c5ccc2[nH]5)C=C4)C=C3)cc1
REMARK SMILES IDX 6 1 5 2 4 3 3 4 1 5 2 6 27 8 28 9 74 10 29 11 73 12 30 13
REMARK SMILES IDX 31 14 32 15 67 16 33 17 72 18 66 19 68 20 34 21 71 22 65 23
REMARK SMILES IDX 64 24 35 26 57 27 42 28 56 29 43 30 46 31 55 32 69 33 44 34
REMARK SMILES IDX 45 35 54 37 70 38 47 39 36 40 37 41 41 42 38 43 40 44 39 45
REMARK SMILES IDX 58 46 59 47 63 48 60 49 62 50 61 51 48 52 49 53 53 54 50 55
REMARK SMILES IDX 52 56 51 57 7 58 8 59 9 60 10 61 11 62 12 64 13 65 14 66
REMARK SMILES IDX 18 67 15 68 17 69 16 70 19 73 20 74 21 75 22 77 23 78 26 79
REMARK SMILES IDX 24 80 25 81
REMARK H PARENT 3 7 68 25 46 36 10 63 15 71 15 72 21 76
REMARK Flexibility Score: inf
ROOT
ATOM      1  C   UNL A   1      31.865  30.548  26.868  1.00  0.00     0.002 C 
ENDROOT
BRANCH   1   2
ATOM      2  C   UNL A   1      31.559  32.043  26.921  1.00  0.00     0.021 C 
BRANCH   2   3
ATOM      3  C   UNL A   1      32.781  32.929  27.095  1.00  0.00     0.116 C 
BRANCH   3   4
ATOM      4  N   UNL A   1      32.461  34.201  27.711  1.00  0.00    -0.352 N 
ATOM      5  O   UNL A   1      32.614  35.814  29.288  1.00  0.00    -0.269 OA
ATOM      6  C   UNL A   1      33.088  34.808  28.770  1.00  0.00     0.251 C 
ATOM      7  H   UNL A   1      31.700  34.690  27.322  1.00  0.00     0.163 HD
BRANCH   6   8
ATOM      8  C   UNL A   1      34.332  34.211  29.304  1.00  0.00     0.039 A 
ATOM      9  C   UNL A   1      35.565  34.489  28.708  1.00  0.00     0.014 A 
ATOM     10  C   UNL A   1      34.254  33.337  30.389  1.00  0.00     0.014 A 
ATOM     11  C   UNL A   1      36.693  33.782  29.101  1.00  0.00     0.010 A 
ATOM     12  C   UNL A   1      35.412  32.705  30.851  1.00  0.00     0.010 A 
ATOM     13  C   UNL A   1      36.637  32.903  30.194  1.00  0.00    -0.014 A 
BRANCH  13  14
ATOM     14  C   UNL A   1      37.888  32.272  30.683  1.00  0.00     0.031 A 
ATOM     15  C   UNL A   1      38.664  32.850  31.833  1.00  0.00     0.074 A 
ATOM     16  C   UNL A   1      38.311  31.143  30.081  1.00  0.00     0.049 A 
ATOM     17  N   UNL A   1      39.770  32.409  32.382  1.00  0.00    -0.248 NA
ATOM     18  C   UNL A   1      38.141  34.081  32.446  1.00  0.00     0.031 C 
ATOM     19  C   UNL A   1      37.643  30.488  28.952  1.00  0.00     0.029 A 
ATOM     20  N   UNL A   1      39.388  30.336  30.341  1.00  0.00    -0.354 N 
ATOM     21  C   UNL A   1      40.081  33.312  33.389  1.00  0.00     0.074 A 
ATOM     22  C   UNL A   1      39.066  34.343  33.360  1.00  0.00     0.031 C 
ATOM     23  C   UNL A   1      38.293  29.355  28.652  1.00  0.00     0.029 A 
ATOM     24  C   UNL A   1      39.463  29.243  29.513  1.00  0.00     0.049 A 
ATOM     25  H   UNL A   1      40.042  30.522  31.052  1.00  0.00     0.167 HD
ATOM     26  C   UNL A   1      41.118  33.280  34.264  1.00  0.00     0.031 A 
ATOM     27  C   UNL A   1      40.384  28.266  29.433  1.00  0.00     0.031 A 
ATOM     28  C   UNL A   1      42.134  32.259  34.281  1.00  0.00     0.049 A 
ATOM     29  C   UNL A   1      41.550  28.290  30.377  1.00  0.00     0.074 A 
ATOM     30  C   UNL A   1      43.214  32.131  35.137  1.00  0.00     0.029 A 
ATOM     31  N   UNL A   1      42.201  31.194  33.395  1.00  0.00    -0.354 N 
ATOM     32  N   UNL A   1      41.812  29.134  31.344  1.00  0.00    -0.248 NA
ATOM     33  C   UNL A   1      42.547  27.225  30.214  1.00  0.00     0.031 C 
ATOM     34  C   UNL A   1      43.965  31.021  34.734  1.00  0.00     0.029 A 
ATOM     35  C   UNL A   1      43.317  30.419  33.668  1.00  0.00     0.049 A 
ATOM     36  H   UNL A   1      41.550  31.014  32.677  1.00  0.00     0.167 HD
ATOM     37  C   UNL A   1      42.993  28.690  31.922  1.00  0.00     0.074 A 
ATOM     38  C   UNL A   1      43.381  27.489  31.211  1.00  0.00     0.031 C 
ATOM     39  C   UNL A   1      43.693  29.230  32.949  1.00  0.00     0.031 A 
BRANCH  26  40
ATOM     40  C   UNL A   1      41.222  34.401  35.263  1.00  0.00    -0.014 A 
ATOM     41  C   UNL A   1      41.941  35.572  34.973  1.00  0.00     0.009 A 
ATOM     42  C   UNL A   1      40.548  34.308  36.491  1.00  0.00     0.009 A 
ATOM     43  C   UNL A   1      42.011  36.610  35.906  1.00  0.00     0.001 A 
ATOM     44  C   UNL A   1      40.595  35.359  37.410  1.00  0.00     0.001 A 
ATOM     45  C   UNL A   1      41.333  36.505  37.120  1.00  0.00     0.000 A 
ENDBRANCH  26  40
BRANCH  27  46
ATOM     46  C   UNL A   1      40.250  27.200  28.407  1.00  0.00    -0.014 A 
ATOM     47  C   UNL A   1      40.831  27.349  27.139  1.00  0.00     0.009 A 
ATOM     48  C   UNL A   1      39.536  26.025  28.694  1.00  0.00     0.009 A 
ATOM     49  C   UNL A   1      40.676  26.354  26.171  1.00  0.00     0.001 A 
ATOM     50  C   UNL A   1      39.412  25.018  27.736  1.00  0.00     0.001 A 
ATOM     51  C   UNL A   1      39.972  25.189  26.472  1.00  0.00     0.000 A 
ENDBRANCH  27  46
BRANCH  39  52
ATOM     52  C   UNL A   1      44.932  28.499  33.384  1.00  0.00    -0.014 A 
ATOM     53  C   UNL A   1      44.879  27.478  34.347  1.00  0.00     0.009 A 
ATOM     54  C   UNL A   1      46.169  28.828  32.808  1.00  0.00     0.009 A 
ATOM     55  C   UNL A   1      46.046  26.829  34.752  1.00  0.00     0.001 A 
ATOM     56  C   UNL A   1      47.329  28.153  33.192  1.00  0.00     0.001 A 
ATOM     57  C   UNL A   1      47.269  27.164  34.171  1.00  0.00     0.000 A 
ENDBRANCH  39  52
ENDBRANCH  13  14
ENDBRANCH   6   8
ENDBRANCH   3   4
ENDBRANCH   2   3
ENDBRANCH   1   2
BRANCH   1  58
ATOM     58  C   UNL A   1      33.328  30.180  27.127  1.00  0.00     0.002 C 
BRANCH  58  59
ATOM     59  C   UNL A   1      33.602  28.680  27.250  1.00  0.00     0.021 C 
BRANCH  59  60
ATOM     60  C   UNL A   1      32.344  27.824  27.247  1.00  0.00     0.116 C 
BRANCH  60  61
ATOM     61  N   UNL A   1      32.441  26.617  26.473  1.00  0.00    -0.354 N 
ATOM     62  C   UNL A   1      31.301  26.192  25.808  1.00  0.00     0.248 C 
ATOM     63  H   UNL A   1      33.284  26.111  26.418  1.00  0.00     0.163 HD
ATOM     64  O   UNL A   1      30.195  26.148  26.339  1.00  0.00    -0.272 OA
BRANCH  62  65
ATOM     65  C   UNL A   1      31.478  26.219  24.310  1.00  0.00     0.231 C 
ATOM     66  C   UNL A   1      32.646  25.354  23.798  1.00  0.00     0.296 C 
ATOM     67  N   UNL A   1      31.211  27.387  23.466  1.00  0.00    -0.302 N 
ATOM     68  N   UNL A   1      32.407  24.888  22.406  1.00  0.00    -0.343 N 
ATOM     69  C   UNL A   1      30.955  26.944  22.071  1.00  0.00     0.183 C 
ATOM     70  C   UNL A   1      32.097  26.041  21.541  1.00  0.00     0.282 C 
ATOM     71  H   UNL A   1      31.622  24.236  22.397  1.00  0.00     0.346 HD
ATOM     72  H   UNL A   1      33.245  24.421  22.059  1.00  0.00     0.346 HD
BRANCH  67  73
ATOM     73  C   UNL A   1      31.418  28.702  23.633  1.00  0.00     0.318 C 
ATOM     74  O   UNL A   1      32.582  29.134  23.705  1.00  0.00    -0.249 OA
ATOM     75  N   UNL A   1      30.576  29.709  23.685  1.00  0.00    -0.333 N 
ATOM     76  H   UNL A   1      31.197  30.463  23.805  1.00  0.00     0.165 HD
BRANCH  75  77
ATOM     77  C   UNL A   1      29.273  30.422  23.676  1.00  0.00     0.112 C 
ATOM     78  C   UNL A   1      28.374  29.633  22.719  1.00  0.00     0.056 C 
ATOM     79  C   UNL A   1      28.976  31.810  23.137  1.00  0.00     0.185 C 
ATOM     80  C   UNL A   1      28.617  30.343  21.400  1.00  0.00     0.162 C 
ATOM     81  O   UNL A   1      28.859  31.717  21.715  1.00  0.00    -0.379 OA
ENDBRANCH  75  77
ENDBRANCH  67  73
ENDBRANCH  62  65
ENDBRANCH  60  61
ENDBRANCH  59  60
ENDBRANCH  58  59
ENDBRANCH   1  58
TORSDOF 15
ENDMDL
MODEL 2
REMARK VINA RESULT:     -10.4      4.011      8.878
REMARK SMILES O=C(NCCCCCCNC(=O)[C@@H]1C[NH2+]CCN1C(=O)N[C@@H]1CCOC1)c1ccc(-c2c3nc(c(-c4ccccc4)c4ccc([nH]4)c(-c4ccccc4)c4nc(c(-c5ccccc5)c5ccc2[nH]5)C=C4)C=C3)cc1
REMARK SMILES IDX 6 1 5 2 4 3 3 4 1 5 2 6 27 8 28 9 74 10 29 11 73 12 30 13
REMARK SMILES IDX 31 14 32 15 67 16 33 17 72 18 66 19 68 20 34 21 71 22 65 23
REMARK SMILES IDX 64 24 35 26 57 27 42 28 56 29 43 30 46 31 55 32 69 33 44 34
REMARK SMILES IDX 45 35 54 37 70 38 47 39 36 40 37 41 41 42 38 43 40 44 39 45
REMARK SMILES IDX 58 46 59 47 63 48 60 49 62 50 61 51 48 52 49 53 53 54 50 55
REMARK SMILES IDX 52 56 51 57 7 58 8 59 9 60 10 61 11 62 12 64 13 65 14 66
REMARK SMILES IDX 18 67 15 68 17 69 16 70 19 73 20 74 21 75 22 77 23 78 26 79
REMARK SMILES IDX 24 80 25 81
REMARK H PARENT 3 7 68 25 46 36 10 63 15 71 15 72 21 76
REMARK Flexibility Score: inf
ROOT
ATOM      1  C   UNL A   1      36.717  20.842  24.628  1.00  0.00     0.002 C 
ENDROOT
BRANCH   1   2
ATOM      2  C   UNL A   1      37.746  19.766  24.964  1.00  0.00     0.021 C 
BRANCH   2   3
ATOM      3  C   UNL A   1      38.956  20.271  25.732  1.00  0.00     0.116 C 
BRANCH   3   4
ATOM      4  N   UNL A   1      40.040  19.309  25.755  1.00  0.00    -0.352 N 
ATOM      5  O   UNL A   1      42.199  18.652  25.899  1.00  0.00    -0.269 OA
ATOM      6  C   UNL A   1      41.357  19.528  26.072  1.00  0.00     0.251 C 
ATOM      7  H   UNL A   1      39.802  18.385  25.513  1.00  0.00     0.163 HD
BRANCH   6   8
ATOM      8  C   UNL A   1      41.758  20.852  26.594  1.00  0.00     0.039 A 
ATOM      9  C   UNL A   1      41.627  21.148  27.954  1.00  0.00     0.014 A 
ATOM     10  C   UNL A   1      42.234  21.818  25.706  1.00  0.00     0.014 A 
ATOM     11  C   UNL A   1      41.831  22.447  28.398  1.00  0.00     0.010 A 
ATOM     12  C   UNL A   1      42.540  23.098  26.176  1.00  0.00     0.010 A 
ATOM     13  C   UNL A   1      42.317  23.430  27.521  1.00  0.00    -0.014 A 
BRANCH  13  14
ATOM     14  C   UNL A   1      42.664  24.771  28.055  1.00  0.00     0.031 A 
ATOM     15  C   UNL A   1      41.616  25.824  28.279  1.00  0.00     0.074 A 
ATOM     16  C   UNL A   1      43.953  25.023  28.359  1.00  0.00     0.049 A 
ATOM     17  N   UNL A   1      41.761  27.040  28.748  1.00  0.00    -0.248 NA
ATOM     18  C   UNL A   1      40.229  25.479  27.930  1.00  0.00     0.031 C 
ATOM     19  C   UNL A   1      45.061  24.079  28.183  1.00  0.00     0.029 A 
ATOM     20  N   UNL A   1      44.547  26.135  28.896  1.00  0.00    -0.354 N 
ATOM     21  C   UNL A   1      40.493  27.606  28.737  1.00  0.00     0.074 A 
ATOM     22  C   UNL A   1      39.593  26.614  28.187  1.00  0.00     0.031 C 
ATOM     23  C   UNL A   1      46.188  24.631  28.651  1.00  0.00     0.029 A 
ATOM     24  C   UNL A   1      45.900  25.991  29.088  1.00  0.00     0.049 A 
ATOM     25  H   UNL A   1      44.054  26.956  29.120  1.00  0.00     0.167 HD
ATOM     26  C   UNL A   1      40.113  28.840  29.152  1.00  0.00     0.031 A 
ATOM     27  C   UNL A   1      46.817  26.863  29.543  1.00  0.00     0.031 A 
ATOM     28  C   UNL A   1      41.015  29.830  29.686  1.00  0.00     0.049 A 
ATOM     29  C   UNL A   1      46.375  28.240  29.940  1.00  0.00     0.074 A 
ATOM     30  C   UNL A   1      40.723  31.102  30.148  1.00  0.00     0.029 A 
ATOM     31  N   UNL A   1      42.384  29.662  29.820  1.00  0.00    -0.354 N 
ATOM     32  N   UNL A   1      45.168  28.747  29.953  1.00  0.00    -0.248 NA
ATOM     33  C   UNL A   1      47.426  29.163  30.386  1.00  0.00     0.031 C 
ATOM     34  C   UNL A   1      41.923  31.723  30.510  1.00  0.00     0.029 A 
ATOM     35  C   UNL A   1      42.955  30.815  30.335  1.00  0.00     0.049 A 
ATOM     36  H   UNL A   1      42.880  28.843  29.586  1.00  0.00     0.167 HD
ATOM     37  C   UNL A   1      45.308  30.043  30.429  1.00  0.00     0.074 A 
ATOM     38  C   UNL A   1      46.716  30.232  30.716  1.00  0.00     0.031 C 
ATOM     39  C   UNL A   1      44.357  30.991  30.611  1.00  0.00     0.031 A 
BRANCH  26  40
ATOM     40  C   UNL A   1      38.659  29.203  29.022  1.00  0.00    -0.014 A 
ATOM     41  C   UNL A   1      37.776  29.085  30.108  1.00  0.00     0.009 A 
ATOM     42  C   UNL A   1      38.173  29.721  27.810  1.00  0.00     0.009 A 
ATOM     43  C   UNL A   1      36.434  29.446  29.973  1.00  0.00     0.001 A 
ATOM     44  C   UNL A   1      36.837  30.109  27.686  1.00  0.00     0.001 A 
ATOM     45  C   UNL A   1      35.967  29.963  28.765  1.00  0.00     0.000 A 
ENDBRANCH  26  40
BRANCH  27  46
ATOM     46  C   UNL A   1      48.246  26.463  29.622  1.00  0.00    -0.014 A 
ATOM     47  C   UNL A   1      49.117  26.700  28.549  1.00  0.00     0.009 A 
ATOM     48  C   UNL A   1      48.746  25.840  30.777  1.00  0.00     0.009 A 
ATOM     49  C   UNL A   1      50.452  26.296  28.621  1.00  0.00     0.001 A 
ATOM     50  C   UNL A   1      50.089  25.469  30.859  1.00  0.00     0.001 A 
ATOM     51  C   UNL A   1      50.937  25.686  29.777  1.00  0.00     0.000 A 
ENDBRANCH  27  46
BRANCH  39  52
ATOM     52  C   UNL A   1      44.809  32.306  31.181  1.00  0.00    -0.014 A 
ATOM     53  C   UNL A   1      45.202  33.367  30.351  1.00  0.00     0.009 A 
ATOM     54  C   UNL A   1      44.826  32.488  32.573  1.00  0.00     0.009 A 
ATOM     55  C   UNL A   1      45.639  34.572  30.905  1.00  0.00     0.001 A 
ATOM     56  C   UNL A   1      45.232  33.705  33.122  1.00  0.00     0.001 A 
ATOM     57  C   UNL A   1      45.649  34.741  32.289  1.00  0.00     0.000 A 
ENDBRANCH  39  52
ENDBRANCH  13  14
ENDBRANCH   6   8
ENDBRANCH   3   4
ENDBRANCH   2   3
ENDBRANCH   1   2
BRANCH   1  58
ATOM     58  C   UNL A   1      35.263  20.452  24.899  1.00  0.00     0.002 C 
BRANCH  58  59
ATOM     59  C   UNL A   1      34.629  21.135  26.113  1.00  0.00     0.021 C 
BRANCH  59  60
ATOM     60  C   UNL A   1      35.343  22.407  26.544  1.00  0.00     0.116 C 
BRANCH  60  61
ATOM     61  N   UNL A   1      34.599  23.617  26.325  1.00  0.00    -0.354 N 
ATOM     62  C   UNL A   1      34.565  24.122  25.035  1.00  0.00     0.248 C 
ATOM     63  H   UNL A   1      34.131  24.070  27.064  1.00  0.00     0.163 HD
ATOM     64  O   UNL A   1      35.567  24.228  24.332  1.00  0.00    -0.272 OA
BRANCH  62  65
ATOM     65  C   UNL A   1      33.172  24.106  24.457  1.00  0.00     0.231 C 
ATOM     66  C   UNL A   1      33.005  24.966  23.191  1.00  0.00     0.296 C 
ATOM     67  N   UNL A   1      31.947  24.009  25.257  1.00  0.00    -0.302 N 
ATOM     68  N   UNL A   1      31.913  24.449  22.323  1.00  0.00    -0.343 N 
ATOM     69  C   UNL A   1      30.845  23.480  24.412  1.00  0.00     0.183 C 
ATOM     70  C   UNL A   1      30.676  24.305  23.111  1.00  0.00     0.282 C 
ATOM     71  H   UNL A   1      32.183  23.541  21.944  1.00  0.00     0.346 HD
ATOM     72  H   UNL A   1      31.752  25.105  21.558  1.00  0.00     0.346 HD
BRANCH  67  73
ATOM     73  C   UNL A   1      31.581  24.534  26.435  1.00  0.00     0.318 C 
ATOM     74  O   UNL A   1      31.450  23.790  27.423  1.00  0.00    -0.249 OA
ATOM     75  N   UNL A   1      31.368  25.780  26.797  1.00  0.00    -0.333 N 
ATOM     76  H   UNL A   1      31.138  25.659  27.747  1.00  0.00     0.165 HD
BRANCH  75  77
ATOM     77  C   UNL A   1      31.259  27.255  26.671  1.00  0.00     0.112 C 
ATOM     78  C   UNL A   1      32.090  27.629  25.439  1.00  0.00     0.056 C 
ATOM     79  C   UNL A   1      31.805  28.313  27.614  1.00  0.00     0.185 C 
ATOM     80  C   UNL A   1      33.448  27.919  26.051  1.00  0.00     0.162 C 
ATOM     81  O   UNL A   1      33.203  28.461  27.352  1.00  0.00    -0.379 OA
ENDBRANCH  75  77
ENDBRANCH  67  73
ENDBRANCH  62  65
ENDBRANCH  60  61
ENDBRANCH  59  60
ENDBRANCH  58  59
ENDBRANCH   1  58
TORSDOF 15
ENDMDL
MODEL 3
REMARK VINA RESULT:     -10.4      4.814      9.901
REMARK SMILES O=C(NCCCCCCNC(=O)[C@@H]1C[NH2+]CCN1C(=O)N[C@@H]1CCOC1)c1ccc(-c2c3nc(c(-c4ccccc4)c4ccc([nH]4)c(-c4ccccc4)c4nc(c(-c5ccccc5)c5ccc2[nH]5)C=C4)C=C3)cc1
REMARK SMILES IDX 6 1 5 2 4 3 3 4 1 5 2 6 27 8 28 9 74 10 29 11 73 12 30 13
REMARK SMILES IDX 31 14 32 15 67 16 33 17 72 18 66 19 68 20 34 21 71 22 65 23
REMARK SMILES IDX 64 24 35 26 57 27 42 28 56 29 43 30 46 31 55 32 69 33 44 34
REMARK SMILES IDX 45 35 54 37 70 38 47 39 36 40 37 41 41 42 38 43 40 44 39 45
REMARK SMILES IDX 58 46 59 47 63 48 60 49 62 50 61 51 48 52 49 53 53 54 50 55
REMARK SMILES IDX 52 56 51 57 7 58 8 59 9 60 10 61 11 62 12 64 13 65 14 66
REMARK SMILES IDX 18 67 15 68 17 69 16 70 19 73 20 74 21 75 22 77 23 78 26 79
REMARK SMILES IDX 24 80 25 81
REMARK H PARENT 3 7 68 25 46 36 10 63 15 71 15 72 21 76
REMARK Flexibility Score: inf
ROOT
ATOM      1  C   UNL A   1      37.421  21.002  24.776  1.00  0.00     0.002 C 
ENDROOT
BRANCH   1   2
ATOM      2  C   UNL A   1      38.256  19.744  25.007  1.00  0.00     0.021 C 
BRANCH   2   3
ATOM      3  C   UNL A   1      39.247  19.851  26.155  1.00  0.00     0.116 C 
BRANCH   3   4
ATOM      4  N   UNL A   1      40.456  19.087  25.916  1.00  0.00    -0.352 N 
ATOM      5  O   UNL A   1      42.678  18.806  25.607  1.00  0.00    -0.269 OA
ATOM      6  C   UNL A   1      41.756  19.522  25.986  1.00  0.00     0.251 C 
ATOM      7  H   UNL A   1      40.329  18.142  25.674  1.00  0.00     0.163 HD
BRANCH   6   8
ATOM      8  C   UNL A   1      42.030  20.883  26.494  1.00  0.00     0.039 A 
ATOM      9  C   UNL A   1      42.256  21.939  25.606  1.00  0.00     0.014 A 
ATOM     10  C   UNL A   1      42.098  21.093  27.872  1.00  0.00     0.014 A 
ATOM     11  C   UNL A   1      42.692  23.164  26.092  1.00  0.00     0.010 A 
ATOM     12  C   UNL A   1      42.436  22.358  28.362  1.00  0.00     0.010 A 
ATOM     13  C   UNL A   1      42.761  23.397  27.475  1.00  0.00    -0.014 A 
BRANCH  13  14
ATOM     14  C   UNL A   1      43.091  24.758  27.966  1.00  0.00     0.031 A 
ATOM     15  C   UNL A   1      44.511  25.188  28.202  1.00  0.00     0.074 A 
ATOM     16  C   UNL A   1      42.078  25.622  28.181  1.00  0.00     0.049 A 
ATOM     17  N   UNL A   1      44.960  26.346  28.620  1.00  0.00    -0.248 NA
ATOM     18  C   UNL A   1      45.566  24.195  27.942  1.00  0.00     0.031 C 
ATOM     19  C   UNL A   1      40.656  25.319  27.990  1.00  0.00     0.029 A 
ATOM     20  N   UNL A   1      42.086  26.931  28.586  1.00  0.00    -0.354 N 
ATOM     21  C   UNL A   1      46.341  26.218  28.687  1.00  0.00     0.074 A 
ATOM     22  C   UNL A   1      46.657  24.860  28.296  1.00  0.00     0.031 C 
ATOM     23  C   UNL A   1      39.935  26.423  28.226  1.00  0.00     0.029 A 
ATOM     24  C   UNL A   1      40.831  27.487  28.659  1.00  0.00     0.049 A 
ATOM     25  H   UNL A   1      42.908  27.424  28.805  1.00  0.00     0.167 HD
ATOM     26  C   UNL A   1      47.262  27.149  29.038  1.00  0.00     0.031 A 
ATOM     27  C   UNL A   1      40.438  28.711  29.052  1.00  0.00     0.031 A 
ATOM     28  C   UNL A   1      46.942  28.496  29.441  1.00  0.00     0.049 A 
ATOM     29  C   UNL A   1      41.476  29.701  29.490  1.00  0.00     0.074 A 
ATOM     30  C   UNL A   1      47.805  29.517  29.800  1.00  0.00     0.029 A 
ATOM     31  N   UNL A   1      45.656  29.005  29.546  1.00  0.00    -0.354 N 
ATOM     32  N   UNL A   1      42.779  29.573  29.517  1.00  0.00    -0.248 NA
ATOM     33  C   UNL A   1      40.985  31.005  29.952  1.00  0.00     0.031 C 
ATOM     34  C   UNL A   1      47.039  30.626  30.175  1.00  0.00     0.029 A 
ATOM     35  C   UNL A   1      45.701  30.318  29.988  1.00  0.00     0.049 A 
ATOM     36  H   UNL A   1      44.832  28.508  29.337  1.00  0.00     0.167 HD
ATOM     37  C   UNL A   1      43.268  30.787  29.978  1.00  0.00     0.074 A 
ATOM     38  C   UNL A   1      42.120  31.645  30.193  1.00  0.00     0.031 C 
ATOM     39  C   UNL A   1      44.552  31.158  30.203  1.00  0.00     0.031 A 
BRANCH  26  40
ATOM     40  C   UNL A   1      48.709  26.738  29.030  1.00  0.00    -0.014 A 
ATOM     41  C   UNL A   1      49.511  26.911  27.890  1.00  0.00     0.009 A 
ATOM     42  C   UNL A   1      49.295  26.217  30.196  1.00  0.00     0.009 A 
ATOM     43  C   UNL A   1      50.858  26.541  27.908  1.00  0.00     0.001 A 
ATOM     44  C   UNL A   1      50.649  25.875  30.220  1.00  0.00     0.001 A 
ATOM     45  C   UNL A   1      51.427  26.029  29.074  1.00  0.00     0.000 A 
ENDBRANCH  26  40
BRANCH  27  46
ATOM     46  C   UNL A   1      38.993  29.056  29.071  1.00  0.00    -0.014 A 
ATOM     47  C   UNL A   1      38.363  29.568  27.927  1.00  0.00     0.009 A 
ATOM     48  C   UNL A   1      38.234  28.872  30.239  1.00  0.00     0.009 A 
ATOM     49  C   UNL A   1      37.011  29.916  27.962  1.00  0.00     0.001 A 
ATOM     50  C   UNL A   1      36.875  29.188  30.260  1.00  0.00     0.001 A 
ATOM     51  C   UNL A   1      36.268  29.721  29.125  1.00  0.00     0.000 A 
ENDBRANCH  27  46
BRANCH  39  52
ATOM     52  C   UNL A   1      44.779  32.566  30.674  1.00  0.00    -0.014 A 
ATOM     53  C   UNL A   1      44.841  32.880  32.041  1.00  0.00     0.009 A 
ATOM     54  C   UNL A   1      44.951  33.593  29.732  1.00  0.00     0.009 A 
ATOM     55  C   UNL A   1      45.031  34.199  32.455  1.00  0.00     0.001 A 
ATOM     56  C   UNL A   1      45.174  34.906  30.149  1.00  0.00     0.001 A 
ATOM     57  C   UNL A   1      45.202  35.209  31.508  1.00  0.00     0.000 A 
ENDBRANCH  39  52
ENDBRANCH  13  14
ENDBRANCH   6   8
ENDBRANCH   3   4
ENDBRANCH   2   3
ENDBRANCH   1   2
BRANCH   1  58
ATOM     58  C   UNL A   1      37.948  22.262  25.467  1.00  0.00     0.002 C 
BRANCH  58  59
ATOM     59  C   UNL A   1      36.985  23.450  25.458  1.00  0.00     0.021 C 
BRANCH  59  60
ATOM     60  C   UNL A   1      36.292  23.669  24.121  1.00  0.00     0.116 C 
BRANCH  60  61
ATOM     61  N   UNL A   1      35.032  24.355  24.202  1.00  0.00    -0.354 N 
ATOM     62  C   UNL A   1      33.941  23.760  23.588  1.00  0.00     0.248 C 
ATOM     63  H   UNL A   1      34.946  25.214  24.677  1.00  0.00     0.163 HD
ATOM     64  O   UNL A   1      33.984  23.298  22.451  1.00  0.00    -0.272 OA
BRANCH  62  65
ATOM     65  C   UNL A   1      32.880  23.360  24.582  1.00  0.00     0.231 C 
ATOM     66  C   UNL A   1      32.444  24.494  25.529  1.00  0.00     0.296 C 
ATOM     67  N   UNL A   1      32.774  22.028  25.187  1.00  0.00    -0.302 N 
ATOM     68  N   UNL A   1      31.047  24.299  26.002  1.00  0.00    -0.343 N 
ATOM     69  C   UNL A   1      31.381  21.806  25.655  1.00  0.00     0.183 C 
ATOM     70  C   UNL A   1      30.901  22.952  26.582  1.00  0.00     0.282 C 
ATOM     71  H   UNL A   1      30.405  24.402  25.216  1.00  0.00     0.346 HD
ATOM     72  H   UNL A   1      30.833  24.998  26.714  1.00  0.00     0.346 HD
BRANCH  67  73
ATOM     73  C   UNL A   1      33.686  21.149  25.627  1.00  0.00     0.318 C 
ATOM     74  O   UNL A   1      34.337  21.404  26.655  1.00  0.00    -0.249 OA
ATOM     75  N   UNL A   1      34.017  19.956  25.186  1.00  0.00    -0.333 N 
ATOM     76  H   UNL A   1      34.714  19.707  25.835  1.00  0.00     0.165 HD
BRANCH  75  77
ATOM     77  C   UNL A   1      33.997  18.748  24.322  1.00  0.00     0.112 C 
ATOM     78  C   UNL A   1      32.540  18.274  24.304  1.00  0.00     0.056 C 
ATOM     79  C   UNL A   1      34.647  17.401  24.591  1.00  0.00     0.185 C 
ATOM     80  C   UNL A   1      32.516  17.284  25.455  1.00  0.00     0.162 C 
ATOM     81  O   UNL A   1      33.812  16.682  25.502  1.00  0.00    -0.379 OA
ENDBRANCH  75  77
ENDBRANCH  67  73
ENDBRANCH  62  65
ENDBRANCH  60  61
ENDBRANCH  59  60
ENDBRANCH  58  59
ENDBRANCH   1  58
TORSDOF 15
ENDMDL
