MODEL 1
REMARK VINA RESULT:     -11.6      0.000      0.000
REMARK SMILES Cc1cccc(NC(=O)C[C@@H]2CCCCO2)c1C(=O)NCCCCCCNC(=O)c1ccc(-c2c3nc(c(-c4ccccc4)c4ccc([nH]4)c(-c4ccccc4)c4nc(c(-c5ccccc5)c5ccc2[nH]5)C=C4)C=C3)cc1
REMARK SMILES IDX 23 1 22 2 21 3 20 4 18 5 19 6 17 8 1 9 2 10 3 11 4 12 6 13
REMARK SMILES IDX 5 14 7 15 8 16 9 18 10 19 11 20 12 21 16 22 13 23 15 24
REMARK SMILES IDX 14 25 24 26 25 27 26 28 27 29 28 30 29 32 30 33 31 34 77 35
REMARK SMILES IDX 32 36 76 37 33 38 34 39 35 40 70 41 36 42 75 43 69 44 71 45
REMARK SMILES IDX 37 46 74 47 68 48 67 49 38 51 60 52 45 53 59 54 46 55 49 56
REMARK SMILES IDX 58 57 72 58 47 59 48 60 57 62 73 63 50 64 39 65 40 66 44 67
REMARK SMILES IDX 41 68 43 69 42 70 61 71 62 72 66 73 63 74 65 75 64 76 51 77
REMARK SMILES IDX 52 78 56 79 53 80 55 81 54 82
REMARK H PARENT 20 7 7 17 27 31 71 50 49 61
REMARK Flexibility Score: inf
ROOT
ATOM      1  C   UNL A   1      32.903  27.466  26.435  1.00  0.00     0.002 C 
ENDROOT
BRANCH   1   2
ATOM      2  C   UNL A   1      32.353  26.062  26.159  1.00  0.00     0.021 C 
BRANCH   2   3
ATOM      3  C   UNL A   1      30.827  25.947  26.266  1.00  0.00     0.116 C 
BRANCH   3   4
ATOM      4  N   UNL A   1      30.312  25.241  25.108  1.00  0.00    -0.352 N 
ATOM      5  C   UNL A   1      30.448  25.445  23.758  1.00  0.00     0.253 C 
ATOM      6  O   UNL A   1      29.867  24.657  23.012  1.00  0.00    -0.269 OA
ATOM      7  H   UNL A   1      29.754  24.462  25.336  1.00  0.00     0.163 HD
BRANCH   5   8
ATOM      8  C   UNL A   1      31.375  26.470  23.189  1.00  0.00     0.066 A 
ATOM      9  C   UNL A   1      29.754  28.446  23.415  1.00  0.00     0.045 C 
ATOM     10  C   UNL A   1      31.124  27.859  23.215  1.00  0.00    -0.036 A 
ATOM     11  C   UNL A   1      32.159  28.752  22.880  1.00  0.00     0.004 A 
ATOM     12  C   UNL A   1      33.395  28.279  22.451  1.00  0.00     0.002 A 
ATOM     13  C   UNL A   1      32.524  26.018  22.494  1.00  0.00     0.054 A 
ATOM     14  C   UNL A   1      33.567  26.915  22.234  1.00  0.00     0.027 A 
BRANCH  13  15
ATOM     15  N   UNL A   1      32.546  24.706  21.966  1.00  0.00    -0.325 N 
ATOM     16  C   UNL A   1      33.029  23.540  22.511  1.00  0.00     0.227 C 
ATOM     17  H   UNL A   1      32.156  24.613  21.067  1.00  0.00     0.169 HD
ATOM     18  O   UNL A   1      32.994  22.510  21.827  1.00  0.00    -0.275 OA
BRANCH  16  19
ATOM     19  C   UNL A   1      33.640  23.494  23.899  1.00  0.00     0.132 C 
BRANCH  19  20
ATOM     20  C   UNL A   1      35.089  24.013  23.977  1.00  0.00     0.127 C 
ATOM     21  C   UNL A   1      36.074  22.987  23.390  1.00  0.00     0.033 C 
ATOM     22  O   UNL A   1      35.536  24.384  25.284  1.00  0.00    -0.378 OA
ATOM     23  C   UNL A   1      36.236  21.770  24.300  1.00  0.00     0.005 C 
ATOM     24  C   UNL A   1      35.708  23.321  26.209  1.00  0.00     0.160 C 
ATOM     25  C   UNL A   1      36.611  22.207  25.709  1.00  0.00     0.029 C 
ENDBRANCH  19  20
ENDBRANCH  16  19
ENDBRANCH  13  15
ENDBRANCH   5   8
ENDBRANCH   3   4
ENDBRANCH   2   3
ENDBRANCH   1   2
BRANCH   1  26
ATOM     26  C   UNL A   1      31.968  28.414  27.204  1.00  0.00     0.002 C 
BRANCH  26  27
ATOM     27  C   UNL A   1      32.357  29.895  27.187  1.00  0.00     0.021 C 
BRANCH  27  28
ATOM     28  C   UNL A   1      33.862  30.137  27.197  1.00  0.00     0.116 C 
BRANCH  28  29
ATOM     29  N   UNL A   1      34.289  31.116  28.188  1.00  0.00    -0.352 N 
ATOM     30  C   UNL A   1      35.409  31.118  28.994  1.00  0.00     0.251 C 
ATOM     31  H   UNL A   1      33.691  31.890  28.299  1.00  0.00     0.163 HD
ATOM     32  O   UNL A   1      35.578  32.026  29.807  1.00  0.00    -0.269 OA
BRANCH  30  33
ATOM     33  C   UNL A   1      36.464  30.098  28.798  1.00  0.00     0.039 A 
ATOM     34  C   UNL A   1      36.753  29.241  29.867  1.00  0.00     0.014 A 
ATOM     35  C   UNL A   1      37.270  30.092  27.660  1.00  0.00     0.014 A 
ATOM     36  C   UNL A   1      37.968  28.561  29.892  1.00  0.00     0.010 A 
ATOM     37  C   UNL A   1      38.509  29.483  27.717  1.00  0.00     0.010 A 
ATOM     38  C   UNL A   1      38.883  28.774  28.861  1.00  0.00    -0.014 A 
BRANCH  38  39
ATOM     39  C   UNL A   1      40.285  28.389  28.957  1.00  0.00     0.031 A 
ATOM     40  C   UNL A   1      40.757  27.108  28.406  1.00  0.00     0.074 A 
ATOM     41  C   UNL A   1      41.165  29.222  29.553  1.00  0.00     0.049 A 
ATOM     42  N   UNL A   1      41.810  26.489  28.824  1.00  0.00    -0.248 NA
ATOM     43  C   UNL A   1      40.038  26.391  27.360  1.00  0.00     0.031 C 
ATOM     44  C   UNL A   1      42.623  29.132  29.560  1.00  0.00     0.029 A 
ATOM     45  N   UNL A   1      40.873  30.202  30.500  1.00  0.00    -0.354 N 
ATOM     46  C   UNL A   1      42.057  25.459  27.952  1.00  0.00     0.074 A 
ATOM     47  C   UNL A   1      40.889  25.394  27.100  1.00  0.00     0.031 C 
ATOM     48  C   UNL A   1      43.090  29.809  30.621  1.00  0.00     0.029 A 
ATOM     49  C   UNL A   1      41.943  30.224  31.412  1.00  0.00     0.049 A 
ATOM     50  H   UNL A   1      40.070  30.771  30.525  1.00  0.00     0.167 HD
ATOM     51  C   UNL A   1      43.272  24.844  27.960  1.00  0.00     0.031 A 
ATOM     52  C   UNL A   1      41.738  29.912  32.726  1.00  0.00     0.031 A 
ATOM     53  C   UNL A   1      44.147  25.345  29.017  1.00  0.00     0.049 A 
ATOM     54  C   UNL A   1      42.495  28.690  33.211  1.00  0.00     0.074 A 
ATOM     55  C   UNL A   1      45.233  26.205  29.052  1.00  0.00     0.029 A 
ATOM     56  N   UNL A   1      43.766  25.158  30.336  1.00  0.00    -0.354 N 
ATOM     57  N   UNL A   1      43.212  27.911  32.450  1.00  0.00    -0.248 NA
ATOM     58  C   UNL A   1      42.401  28.190  34.585  1.00  0.00     0.031 C 
ATOM     59  C   UNL A   1      45.499  26.529  30.414  1.00  0.00     0.029 A 
ATOM     60  C   UNL A   1      44.584  25.857  31.200  1.00  0.00     0.049 A 
ATOM     61  H   UNL A   1      43.007  24.598  30.620  1.00  0.00     0.167 HD
ATOM     62  C   UNL A   1      43.619  26.823  33.174  1.00  0.00     0.074 A 
ATOM     63  C   UNL A   1      43.092  27.042  34.507  1.00  0.00     0.031 C 
ATOM     64  C   UNL A   1      44.316  25.789  32.624  1.00  0.00     0.031 A 
BRANCH  51  65
ATOM     65  C   UNL A   1      43.743  23.941  26.850  1.00  0.00    -0.014 A 
ATOM     66  C   UNL A   1      44.401  24.493  25.736  1.00  0.00     0.009 A 
ATOM     67  C   UNL A   1      43.538  22.552  26.821  1.00  0.00     0.009 A 
ATOM     68  C   UNL A   1      44.738  23.721  24.616  1.00  0.00     0.001 A 
ATOM     69  C   UNL A   1      43.831  21.781  25.689  1.00  0.00     0.001 A 
ATOM     70  C   UNL A   1      44.421  22.370  24.579  1.00  0.00     0.000 A 
ENDBRANCH  51  65
BRANCH  52  71
ATOM     71  C   UNL A   1      40.390  30.312  33.223  1.00  0.00    -0.014 A 
ATOM     72  C   UNL A   1      40.098  31.686  33.348  1.00  0.00     0.009 A 
ATOM     73  C   UNL A   1      39.328  29.397  33.239  1.00  0.00     0.009 A 
ATOM     74  C   UNL A   1      38.777  32.138  33.365  1.00  0.00     0.001 A 
ATOM     75  C   UNL A   1      38.005  29.854  33.279  1.00  0.00     0.001 A 
ATOM     76  C   UNL A   1      37.731  31.221  33.304  1.00  0.00     0.000 A 
ENDBRANCH  52  71
BRANCH  64  77
ATOM     77  C   UNL A   1      44.779  24.594  33.404  1.00  0.00    -0.014 A 
ATOM     78  C   UNL A   1      46.113  24.432  33.805  1.00  0.00     0.009 A 
ATOM     79  C   UNL A   1      43.895  23.525  33.651  1.00  0.00     0.009 A 
ATOM     80  C   UNL A   1      46.530  23.274  34.471  1.00  0.00     0.001 A 
ATOM     81  C   UNL A   1      44.314  22.359  34.295  1.00  0.00     0.001 A 
ATOM     82  C   UNL A   1      45.631  22.238  34.715  1.00  0.00     0.000 A 
ENDBRANCH  64  77
ENDBRANCH  38  39
ENDBRANCH  30  33
ENDBRANCH  28  29
ENDBRANCH  27  28
ENDBRANCH  26  27
ENDBRANCH   1  26
TORSDOF 16
ENDMDL
MODEL 2
REMARK VINA RESULT:     -11.5      3.255      8.763
REMARK SMILES Cc1cccc(NC(=O)C[C@@H]2CCCCO2)c1C(=O)NCCCCCCNC(=O)c1ccc(-c2c3nc(c(-c4ccccc4)c4ccc([nH]4)c(-c4ccccc4)c4nc(c(-c5ccccc5)c5ccc2[nH]5)C=C4)C=C3)cc1
REMARK SMILES IDX 23 1 22 2 21 3 20 4 18 5 19 6 17 8 1 9 2 10 3 11 4 12 6 13
REMARK SMILES IDX 5 14 7 15 8 16 9 18 10 19 11 20 12 21 16 22 13 23 15 24
REMARK SMILES IDX 14 25 24 26 25 27 26 28 27 29 28 30 29 32 30 33 31 34 77 35
REMARK SMILES IDX 32 36 76 37 33 38 34 39 35 40 70 41 36 42 75 43 69 44 71 45
REMARK SMILES IDX 37 46 74 47 68 48 67 49 38 51 60 52 45 53 59 54 46 55 49 56
REMARK SMILES IDX 58 57 72 58 47 59 48 60 57 62 73 63 50 64 39 65 40 66 44 67
REMARK SMILES IDX 41 68 43 69 42 70 61 71 62 72 66 73 63 74 65 75 64 76 51 77
REMARK SMILES IDX 52 78 56 79 53 80 55 81 54 82
REMARK H PARENT 20 7 7 17 27 31 71 50 49 61
REMARK Flexibility Score: inf
ROOT
ATOM      1  C   UNL A   1      38.959  22.628  25.957  1.00  0.00     0.002 C 
ENDROOT
BRANCH   1   2
ATOM      2  C   UNL A   1      38.078  23.675  26.651  1.00  0.00     0.021 C 
BRANCH   2   3
ATOM      3  C   UNL A   1      36.707  23.883  25.995  1.00  0.00     0.116 C 
BRANCH   3   4
ATOM      4  N   UNL A   1      36.825  23.709  24.559  1.00  0.00    -0.352 N 
ATOM      5  C   UNL A   1      36.136  22.938  23.656  1.00  0.00     0.253 C 
ATOM      6  O   UNL A   1      36.488  23.008  22.479  1.00  0.00    -0.269 OA
ATOM      7  H   UNL A   1      37.539  24.251  24.153  1.00  0.00     0.163 HD
BRANCH   5   8
ATOM      8  C   UNL A   1      34.914  22.163  24.029  1.00  0.00     0.066 A 
ATOM      9  C   UNL A   1      36.168  20.118  24.939  1.00  0.00     0.045 C 
ATOM     10  C   UNL A   1      34.938  20.971  24.784  1.00  0.00    -0.036 A 
ATOM     11  C   UNL A   1      33.732  20.450  25.290  1.00  0.00     0.004 A 
ATOM     12  C   UNL A   1      32.516  21.054  24.987  1.00  0.00     0.002 A 
ATOM     13  C   UNL A   1      33.668  22.592  23.509  1.00  0.00     0.054 A 
ATOM     14  C   UNL A   1      32.484  22.108  24.077  1.00  0.00     0.027 A 
BRANCH  13  15
ATOM     15  N   UNL A   1      33.638  23.402  22.350  1.00  0.00    -0.325 N 
ATOM     16  C   UNL A   1      33.237  24.706  22.190  1.00  0.00     0.227 C 
ATOM     17  H   UNL A   1      33.954  22.961  21.528  1.00  0.00     0.169 HD
ATOM     18  O   UNL A   1      33.243  25.191  21.053  1.00  0.00    -0.275 OA
BRANCH  16  19
ATOM     19  C   UNL A   1      32.746  25.544  23.356  1.00  0.00     0.132 C 
BRANCH  19  20
ATOM     20  C   UNL A   1      33.866  26.173  24.207  1.00  0.00     0.127 C 
ATOM     21  C   UNL A   1      33.662  25.863  25.701  1.00  0.00     0.033 C 
ATOM     22  O   UNL A   1      34.036  27.584  24.049  1.00  0.00    -0.378 OA
ATOM     23  C   UNL A   1      32.487  26.645  26.287  1.00  0.00     0.005 C 
ATOM     24  C   UNL A   1      32.989  28.399  24.555  1.00  0.00     0.160 C 
ATOM     25  C   UNL A   1      32.648  28.132  26.011  1.00  0.00     0.029 C 
ENDBRANCH  19  20
ENDBRANCH  16  19
ENDBRANCH  13  15
ENDBRANCH   5   8
ENDBRANCH   3   4
ENDBRANCH   2   3
ENDBRANCH   1   2
BRANCH   1  26
ATOM     26  C   UNL A   1      40.157  22.113  26.772  1.00  0.00     0.002 C 
BRANCH  26  27
ATOM     27  C   UNL A   1      40.451  20.615  26.654  1.00  0.00     0.021 C 
BRANCH  27  28
ATOM     28  C   UNL A   1      41.877  20.236  27.038  1.00  0.00     0.116 C 
BRANCH  28  29
ATOM     29  N   UNL A   1      42.693  19.811  25.907  1.00  0.00    -0.352 N 
ATOM     30  C   UNL A   1      43.578  20.540  25.141  1.00  0.00     0.251 C 
ATOM     31  H   UNL A   1      42.597  18.866  25.652  1.00  0.00     0.163 HD
ATOM     32  O   UNL A   1      44.151  20.008  24.191  1.00  0.00    -0.269 OA
BRANCH  30  33
ATOM     33  C   UNL A   1      43.933  21.923  25.533  1.00  0.00     0.039 A 
ATOM     34  C   UNL A   1      44.814  22.093  26.608  1.00  0.00     0.014 A 
ATOM     35  C   UNL A   1      43.287  23.027  24.979  1.00  0.00     0.014 A 
ATOM     36  C   UNL A   1      44.864  23.319  27.268  1.00  0.00     0.010 A 
ATOM     37  C   UNL A   1      43.272  24.219  25.678  1.00  0.00     0.010 A 
ATOM     38  C   UNL A   1      44.008  24.342  26.859  1.00  0.00    -0.014 A 
BRANCH  38  39
ATOM     39  C   UNL A   1      43.739  25.519  27.673  1.00  0.00     0.031 A 
ATOM     40  C   UNL A   1      42.438  26.206  27.603  1.00  0.00     0.074 A 
ATOM     41  C   UNL A   1      44.692  25.984  28.509  1.00  0.00     0.049 A 
ATOM     42  N   UNL A   1      42.263  27.449  27.899  1.00  0.00    -0.248 NA
ATOM     43  C   UNL A   1      41.226  25.544  27.136  1.00  0.00     0.031 C 
ATOM     44  C   UNL A   1      44.555  26.996  29.552  1.00  0.00     0.029 A 
ATOM     45  N   UNL A   1      46.067  25.788  28.393  1.00  0.00    -0.354 N 
ATOM     46  C   UNL A   1      40.911  27.683  27.924  1.00  0.00     0.074 A 
ATOM     47  C   UNL A   1      40.310  26.487  27.373  1.00  0.00     0.031 C 
ATOM     48  C   UNL A   1      45.765  27.521  29.803  1.00  0.00     0.029 A 
ATOM     49  C   UNL A   1      46.689  26.974  28.824  1.00  0.00     0.049 A 
ATOM     50  H   UNL A   1      46.517  24.973  28.071  1.00  0.00     0.167 HD
ATOM     51  C   UNL A   1      40.431  28.811  28.517  1.00  0.00     0.031 A 
ATOM     52  C   UNL A   1      47.447  27.709  27.959  1.00  0.00     0.031 A 
ATOM     53  C   UNL A   1      41.496  29.694  28.986  1.00  0.00     0.049 A 
ATOM     54  C   UNL A   1      46.927  29.111  27.698  1.00  0.00     0.074 A 
ATOM     55  C   UNL A   1      42.047  29.978  30.225  1.00  0.00     0.029 A 
ATOM     56  N   UNL A   1      42.353  30.251  28.050  1.00  0.00    -0.354 N 
ATOM     57  N   UNL A   1      45.802  29.583  28.156  1.00  0.00    -0.248 NA
ATOM     58  C   UNL A   1      47.596  30.051  26.795  1.00  0.00     0.031 C 
ATOM     59  C   UNL A   1      43.247  30.717  30.019  1.00  0.00     0.029 A 
ATOM     60  C   UNL A   1      43.414  30.890  28.659  1.00  0.00     0.049 A 
ATOM     61  H   UNL A   1      42.221  30.198  27.076  1.00  0.00     0.167 HD
ATOM     62  C   UNL A   1      45.567  30.812  27.601  1.00  0.00     0.074 A 
ATOM     63  C   UNL A   1      46.718  31.067  26.758  1.00  0.00     0.031 C 
ATOM     64  C   UNL A   1      44.423  31.516  27.825  1.00  0.00     0.031 A 
BRANCH  51  65
ATOM     65  C   UNL A   1      38.979  28.996  28.874  1.00  0.00    -0.014 A 
ATOM     66  C   UNL A   1      38.077  29.461  27.900  1.00  0.00     0.009 A 
ATOM     67  C   UNL A   1      38.445  28.769  30.153  1.00  0.00     0.009 A 
ATOM     68  C   UNL A   1      36.749  29.781  28.212  1.00  0.00     0.001 A 
ATOM     69  C   UNL A   1      37.132  29.127  30.484  1.00  0.00     0.001 A 
ATOM     70  C   UNL A   1      36.286  29.645  29.513  1.00  0.00     0.000 A 
ENDBRANCH  51  65
BRANCH  52  71
ATOM     71  C   UNL A   1      48.158  26.879  26.944  1.00  0.00    -0.014 A 
ATOM     72  C   UNL A   1      47.442  26.443  25.810  1.00  0.00     0.009 A 
ATOM     73  C   UNL A   1      49.558  26.817  26.917  1.00  0.00     0.009 A 
ATOM     74  C   UNL A   1      48.110  26.070  24.642  1.00  0.00     0.001 A 
ATOM     75  C   UNL A   1      50.223  26.421  25.751  1.00  0.00     0.001 A 
ATOM     76  C   UNL A   1      49.502  26.085  24.606  1.00  0.00     0.000 A 
ENDBRANCH  52  71
BRANCH  64  77
ATOM     77  C   UNL A   1      44.153  32.868  27.234  1.00  0.00    -0.014 A 
ATOM     78  C   UNL A   1      43.850  33.985  28.025  1.00  0.00     0.009 A 
ATOM     79  C   UNL A   1      44.075  33.026  25.835  1.00  0.00     0.009 A 
ATOM     80  C   UNL A   1      43.535  35.218  27.442  1.00  0.00     0.001 A 
ATOM     81  C   UNL A   1      43.738  34.248  25.252  1.00  0.00     0.001 A 
ATOM     82  C   UNL A   1      43.478  35.349  26.056  1.00  0.00     0.000 A 
ENDBRANCH  64  77
ENDBRANCH  38  39
ENDBRANCH  30  33
ENDBRANCH  28  29
ENDBRANCH  27  28
ENDBRANCH  26  27
ENDBRANCH   1  26
TORSDOF 16
ENDMDL
MODEL 3
REMARK VINA RESULT:     -11.5      1.689      2.893
REMARK SMILES Cc1cccc(NC(=O)C[C@@H]2CCCCO2)c1C(=O)NCCCCCCNC(=O)c1ccc(-c2c3nc(c(-c4ccccc4)c4ccc([nH]4)c(-c4ccccc4)c4nc(c(-c5ccccc5)c5ccc2[nH]5)C=C4)C=C3)cc1
REMARK SMILES IDX 23 1 22 2 21 3 20 4 18 5 19 6 17 8 1 9 2 10 3 11 4 12 6 13
REMARK SMILES IDX 5 14 7 15 8 16 9 18 10 19 11 20 12 21 16 22 13 23 15 24
REMARK SMILES IDX 14 25 24 26 25 27 26 28 27 29 28 30 29 32 30 33 31 34 77 35
REMARK SMILES IDX 32 36 76 37 33 38 34 39 35 40 70 41 36 42 75 43 69 44 71 45
REMARK SMILES IDX 37 46 74 47 68 48 67 49 38 51 60 52 45 53 59 54 46 55 49 56
REMARK SMILES IDX 58 57 72 58 47 59 48 60 57 62 73 63 50 64 39 65 40 66 44 67
REMARK SMILES IDX 41 68 43 69 42 70 61 71 62 72 66 73 63 74 65 75 64 76 51 77
REMARK SMILES IDX 52 78 56 79 53 80 55 81 54 82
REMARK H PARENT 20 7 7 17 27 31 71 50 49 61
REMARK Flexibility Score: inf
ROOT
ATOM      1  C   UNL A   1      33.417  27.877  26.869  1.00  0.00     0.002 C 
ENDROOT
BRANCH   1   2
ATOM      2  C   UNL A   1      34.007  27.311  25.572  1.00  0.00     0.021 C 
BRANCH   2   3
ATOM      3  C   UNL A   1      32.967  26.744  24.597  1.00  0.00     0.116 C 
BRANCH   3   4
ATOM      4  N   UNL A   1      33.615  25.831  23.674  1.00  0.00    -0.352 N 
ATOM      5  C   UNL A   1      34.094  24.552  23.814  1.00  0.00     0.253 C 
ATOM      6  O   UNL A   1      34.609  24.038  22.822  1.00  0.00    -0.269 OA
ATOM      7  H   UNL A   1      33.736  26.202  22.771  1.00  0.00     0.163 HD
BRANCH   5   8
ATOM      8  C   UNL A   1      33.873  23.742  25.050  1.00  0.00     0.066 A 
ATOM      9  C   UNL A   1      36.254  24.011  25.968  1.00  0.00     0.045 C 
ATOM     10  C   UNL A   1      34.798  23.661  26.113  1.00  0.00    -0.036 A 
ATOM     11  C   UNL A   1      34.400  23.077  27.330  1.00  0.00     0.004 A 
ATOM     12  C   UNL A   1      33.137  22.511  27.466  1.00  0.00     0.002 A 
ATOM     13  C   UNL A   1      32.717  22.927  25.116  1.00  0.00     0.054 A 
ATOM     14  C   UNL A   1      32.307  22.414  26.352  1.00  0.00     0.027 A 
BRANCH  13  15
ATOM     15  N   UNL A   1      32.067  22.542  23.920  1.00  0.00    -0.325 N 
ATOM     16  C   UNL A   1      32.245  21.429  23.133  1.00  0.00     0.227 C 
ATOM     17  H   UNL A   1      31.379  23.170  23.600  1.00  0.00     0.169 HD
ATOM     18  O   UNL A   1      31.595  21.336  22.086  1.00  0.00    -0.275 OA
BRANCH  16  19
ATOM     19  C   UNL A   1      33.244  20.344  23.490  1.00  0.00     0.132 C 
BRANCH  19  20
ATOM     20  C   UNL A   1      32.638  19.134  24.225  1.00  0.00     0.127 C 
ATOM     21  C   UNL A   1      33.684  18.458  25.129  1.00  0.00     0.033 C 
ATOM     22  O   UNL A   1      32.047  18.140  23.383  1.00  0.00    -0.378 OA
ATOM     23  C   UNL A   1      34.736  17.706  24.314  1.00  0.00     0.005 C 
ATOM     24  C   UNL A   1      32.944  17.392  22.577  1.00  0.00     0.160 C 
ATOM     25  C   UNL A   1      34.069  16.731  23.355  1.00  0.00     0.029 C 
ENDBRANCH  19  20
ENDBRANCH  16  19
ENDBRANCH  13  15
ENDBRANCH   5   8
ENDBRANCH   3   4
ENDBRANCH   2   3
ENDBRANCH   1   2
BRANCH   1  26
ATOM     26  C   UNL A   1      32.266  28.882  26.700  1.00  0.00     0.002 C 
BRANCH  26  27
ATOM     27  C   UNL A   1      32.517  30.286  27.259  1.00  0.00     0.021 C 
BRANCH  27  28
ATOM     28  C   UNL A   1      33.989  30.678  27.299  1.00  0.00     0.116 C 
BRANCH  28  29
ATOM     29  N   UNL A   1      34.359  31.438  28.488  1.00  0.00    -0.352 N 
ATOM     30  C   UNL A   1      35.403  31.240  29.367  1.00  0.00     0.251 C 
ATOM     31  H   UNL A   1      33.777  32.205  28.692  1.00  0.00     0.163 HD
ATOM     32  O   UNL A   1      35.528  31.974  30.346  1.00  0.00    -0.269 OA
BRANCH  30  33
ATOM     33  C   UNL A   1      36.439  30.226  29.069  1.00  0.00     0.039 A 
ATOM     34  C   UNL A   1      36.712  29.261  30.047  1.00  0.00     0.014 A 
ATOM     35  C   UNL A   1      37.245  30.318  27.935  1.00  0.00     0.014 A 
ATOM     36  C   UNL A   1      37.915  28.560  30.002  1.00  0.00     0.010 A 
ATOM     37  C   UNL A   1      38.474  29.684  27.929  1.00  0.00     0.010 A 
ATOM     38  C   UNL A   1      38.834  28.858  28.997  1.00  0.00    -0.014 A 
BRANCH  38  39
ATOM     39  C   UNL A   1      40.229  28.441  29.052  1.00  0.00     0.031 A 
ATOM     40  C   UNL A   1      40.658  27.157  28.472  1.00  0.00     0.074 A 
ATOM     41  C   UNL A   1      41.142  29.245  29.637  1.00  0.00     0.049 A 
ATOM     42  N   UNL A   1      41.705  26.508  28.855  1.00  0.00    -0.248 NA
ATOM     43  C   UNL A   1      39.896  26.471  27.436  1.00  0.00     0.031 C 
ATOM     44  C   UNL A   1      42.597  29.122  29.606  1.00  0.00     0.029 A 
ATOM     45  N   UNL A   1      40.896  30.218  30.604  1.00  0.00    -0.354 N 
ATOM     46  C   UNL A   1      41.907  25.485  27.963  1.00  0.00     0.074 A 
ATOM     47  C   UNL A   1      40.718  25.459  27.141  1.00  0.00     0.031 C 
ATOM     48  C   UNL A   1      43.105  29.773  30.664  1.00  0.00     0.029 A 
ATOM     49  C   UNL A   1      41.989  30.203  31.490  1.00  0.00     0.049 A 
ATOM     50  H   UNL A   1      40.107  30.804  30.657  1.00  0.00     0.167 HD
ATOM     51  C   UNL A   1      43.108  24.843  27.933  1.00  0.00     0.031 A 
ATOM     52  C   UNL A   1      41.809  29.877  32.803  1.00  0.00     0.031 A 
ATOM     53  C   UNL A   1      44.020  25.309  28.974  1.00  0.00     0.049 A 
ATOM     54  C   UNL A   1      42.550  28.631  33.253  1.00  0.00     0.074 A 
ATOM     55  C   UNL A   1      45.126  26.144  28.994  1.00  0.00     0.029 A 
ATOM     56  N   UNL A   1      43.667  25.112  30.300  1.00  0.00    -0.354 N 
ATOM     57  N   UNL A   1      43.230  27.847  32.464  1.00  0.00    -0.248 NA
ATOM     58  C   UNL A   1      42.478  28.115  34.622  1.00  0.00     0.031 C 
ATOM     59  C   UNL A   1      45.433  26.443  30.352  1.00  0.00     0.029 A 
ATOM     60  C   UNL A   1      44.523  25.781  31.152  1.00  0.00     0.049 A 
ATOM     61  H   UNL A   1      42.903  24.566  30.595  1.00  0.00     0.167 HD
ATOM     62  C   UNL A   1      43.629  26.740  33.163  1.00  0.00     0.074 A 
ATOM     63  C   UNL A   1      43.140  26.952  34.511  1.00  0.00     0.031 C 
ATOM     64  C   UNL A   1      44.288  25.698  32.582  1.00  0.00     0.031 A 
BRANCH  51  65
ATOM     65  C   UNL A   1      43.530  23.945  26.799  1.00  0.00    -0.014 A 
ATOM     66  C   UNL A   1      44.111  24.505  25.647  1.00  0.00     0.009 A 
ATOM     67  C   UNL A   1      43.350  22.552  26.786  1.00  0.00     0.009 A 
ATOM     68  C   UNL A   1      44.396  23.736  24.511  1.00  0.00     0.001 A 
ATOM     69  C   UNL A   1      43.591  21.783  25.640  1.00  0.00     0.001 A 
ATOM     70  C   UNL A   1      44.104  22.379  24.496  1.00  0.00     0.000 A 
ENDBRANCH  51  65
BRANCH  52  71
ATOM     71  C   UNL A   1      40.484  30.300  33.340  1.00  0.00    -0.014 A 
ATOM     72  C   UNL A   1      40.262  31.671  33.584  1.00  0.00     0.009 A 
ATOM     73  C   UNL A   1      39.376  29.443  33.282  1.00  0.00     0.009 A 
ATOM     74  C   UNL A   1      38.965  32.186  33.647  1.00  0.00     0.001 A 
ATOM     75  C   UNL A   1      38.079  29.961  33.367  1.00  0.00     0.001 A 
ATOM     76  C   UNL A   1      37.874  31.332  33.511  1.00  0.00     0.000 A 
ENDBRANCH  52  71
BRANCH  64  77
ATOM     77  C   UNL A   1      44.743  24.483  33.333  1.00  0.00    -0.014 A 
ATOM     78  C   UNL A   1      43.889  23.405  33.604  1.00  0.00     0.009 A 
ATOM     79  C   UNL A   1      46.032  24.446  33.903  1.00  0.00     0.009 A 
ATOM     80  C   UNL A   1      44.323  22.315  34.367  1.00  0.00     0.001 A 
ATOM     81  C   UNL A   1      46.459  23.371  34.684  1.00  0.00     0.001 A 
ATOM     82  C   UNL A   1      45.607  22.299  34.908  1.00  0.00     0.000 A 
ENDBRANCH  64  77
ENDBRANCH  38  39
ENDBRANCH  30  33
ENDBRANCH  28  29
ENDBRANCH  27  28
ENDBRANCH  26  27
ENDBRANCH   1  26
TORSDOF 16
ENDMDL
