MODEL 1
REMARK VINA RESULT:     -10.1      0.000      0.000
REMARK SMILES C[C@@](NC(=O)NCC(N)=O)(C(=O)NCCCCCCNC(=O)c1ccc(-c2c3nc(c(-c4ccccc4)c4ccc([nH]4)c(-c4ccccc4)c4nc(c(-c5ccccc5)c5ccc2[nH]5)C=C4)C=C3)cc1)C(F)(F)F
REMARK SMILES IDX 16 1 15 2 14 3 13 4 11 5 12 6 2 8 1 9 3 10 4 11 5 13 6 14
REMARK SMILES IDX 7 16 8 17 9 18 10 19 71 22 72 23 73 24 74 25 17 26 18 27
REMARK SMILES IDX 19 28 20 29 21 30 22 32 23 33 24 34 70 35 25 36 69 37 26 38
REMARK SMILES IDX 27 39 28 40 63 41 29 42 68 43 62 44 64 45 30 46 67 47 61 48
REMARK SMILES IDX 60 49 31 51 53 52 38 53 52 54 39 55 42 56 51 57 65 58 40 59
REMARK SMILES IDX 41 60 50 62 66 63 43 64 32 65 33 66 37 67 34 68 36 69 35 70
REMARK SMILES IDX 54 71 55 72 59 73 56 74 58 75 57 76 44 77 45 78 49 79 46 80
REMARK SMILES IDX 48 81 47 82
REMARK H PARENT 13 7 3 12 6 15 9 20 9 21 20 31 64 50 42 61
REMARK Flexibility Score: inf
ROOT
ATOM      1  C   UNL A   1      32.174  29.611  27.098  1.00  0.00     0.002 C 
ENDROOT
BRANCH   1   2
ATOM      2  C   UNL A   1      33.497  28.952  26.696  1.00  0.00     0.021 C 
BRANCH   2   3
ATOM      3  C   UNL A   1      33.352  27.470  26.381  1.00  0.00     0.116 C 
BRANCH   3   4
ATOM      4  N   UNL A   1      31.983  27.178  25.997  1.00  0.00    -0.354 N 
ATOM      5  C   UNL A   1      31.485  26.584  24.874  1.00  0.00     0.255 C 
ATOM      6  O   UNL A   1      30.255  26.515  24.812  1.00  0.00    -0.272 OA
ATOM      7  H   UNL A   1      31.302  27.456  26.652  1.00  0.00     0.163 HD
BRANCH   5   8
ATOM      8  C   UNL A   1      32.402  26.167  23.714  1.00  0.00     0.213 C 
ATOM      9  C   UNL A   1      31.437  25.789  22.561  1.00  0.00     0.056 C 
BRANCH   8  10
ATOM     10  N   UNL A   1      33.301  27.259  23.218  1.00  0.00    -0.316 N 
ATOM     11  C   UNL A   1      33.171  28.583  23.062  1.00  0.00     0.316 C 
ATOM     12  H   UNL A   1      34.186  26.928  22.944  1.00  0.00     0.166 HD
ATOM     13  O   UNL A   1      34.214  29.239  23.032  1.00  0.00    -0.249 OA
ATOM     14  N   UNL A   1      32.013  29.224  22.900  1.00  0.00    -0.329 N 
ATOM     15  H   UNL A   1      32.082  30.198  23.030  1.00  0.00     0.165 HD
BRANCH  14  16
ATOM     16  C   UNL A   1      30.674  28.782  22.573  1.00  0.00     0.217 C 
BRANCH  16  17
ATOM     17  C   UNL A   1      29.691  29.887  22.209  1.00  0.00     0.236 C 
ATOM     18  N   UNL A   1      29.466  30.780  23.223  1.00  0.00    -0.368 N 
ATOM     19  O   UNL A   1      29.174  30.022  21.107  1.00  0.00    -0.273 OA
ATOM     20  H   UNL A   1      29.895  30.648  24.100  1.00  0.00     0.159 HD
ATOM     21  H   UNL A   1      28.877  31.555  23.075  1.00  0.00     0.159 HD
ENDBRANCH  16  17
ENDBRANCH  14  16
ENDBRANCH   8  10
BRANCH   8  22
ATOM     22  C   UNL A   1      33.165  24.876  24.091  1.00  0.00     0.420 C 
ATOM     23  F   UNL A   1      32.573  24.190  25.094  1.00  0.00    -0.168 F 
ATOM     24  F   UNL A   1      33.190  24.031  23.024  1.00  0.00    -0.168 F 
ATOM     25  F   UNL A   1      34.451  25.091  24.439  1.00  0.00    -0.168 F 
ENDBRANCH   8  22
ENDBRANCH   5   8
ENDBRANCH   3   4
ENDBRANCH   2   3
ENDBRANCH   1   2
BRANCH   1  26
ATOM     26  C   UNL A   1      31.686  30.701  26.137  1.00  0.00     0.002 C 
BRANCH  26  27
ATOM     27  C   UNL A   1      31.426  32.062  26.784  1.00  0.00     0.021 C 
BRANCH  27  28
ATOM     28  C   UNL A   1      32.683  32.824  27.186  1.00  0.00     0.116 C 
BRANCH  28  29
ATOM     29  N   UNL A   1      32.395  34.183  27.612  1.00  0.00    -0.352 N 
ATOM     30  C   UNL A   1      33.013  34.917  28.592  1.00  0.00     0.251 C 
ATOM     31  H   UNL A   1      31.662  34.636  27.135  1.00  0.00     0.163 HD
ATOM     32  O   UNL A   1      32.557  36.000  28.947  1.00  0.00    -0.269 OA
BRANCH  30  33
ATOM     33  C   UNL A   1      34.222  34.370  29.237  1.00  0.00     0.039 A 
ATOM     34  C   UNL A   1      34.084  33.631  30.413  1.00  0.00     0.014 A 
ATOM     35  C   UNL A   1      35.480  34.553  28.654  1.00  0.00     0.014 A 
ATOM     36  C   UNL A   1      35.208  33.029  30.978  1.00  0.00     0.010 A 
ATOM     37  C   UNL A   1      36.582  33.886  29.175  1.00  0.00     0.010 A 
ATOM     38  C   UNL A   1      36.458  33.123  30.346  1.00  0.00    -0.014 A 
BRANCH  38  39
ATOM     39  C   UNL A   1      37.649  32.432  30.898  1.00  0.00     0.031 A 
ATOM     40  C   UNL A   1      38.314  32.954  32.142  1.00  0.00     0.074 A 
ATOM     41  C   UNL A   1      38.164  31.371  30.250  1.00  0.00     0.049 A 
ATOM     42  N   UNL A   1      39.383  32.511  32.753  1.00  0.00    -0.248 NA
ATOM     43  C   UNL A   1      37.715  34.144  32.766  1.00  0.00     0.031 C 
ATOM     44  C   UNL A   1      37.634  30.794  29.011  1.00  0.00     0.029 A 
ATOM     45  N   UNL A   1      39.252  30.588  30.542  1.00  0.00    -0.354 N 
ATOM     46  C   UNL A   1      39.591  33.374  33.821  1.00  0.00     0.074 A 
ATOM     47  C   UNL A   1      38.574  34.399  33.741  1.00  0.00     0.031 C 
ATOM     48  C   UNL A   1      38.378  29.730  28.670  1.00  0.00     0.029 A 
ATOM     49  C   UNL A   1      39.460  29.575  29.636  1.00  0.00     0.049 A 
ATOM     50  H   UNL A   1      39.828  30.736  31.326  1.00  0.00     0.167 HD
ATOM     51  C   UNL A   1      40.530  33.308  34.795  1.00  0.00     0.031 A 
ATOM     52  C   UNL A   1      40.420  28.632  29.586  1.00  0.00     0.031 A 
ATOM     53  C   UNL A   1      41.540  32.287  34.872  1.00  0.00     0.049 A 
ATOM     54  C   UNL A   1      41.468  28.596  30.663  1.00  0.00     0.074 A 
ATOM     55  C   UNL A   1      42.504  32.101  35.847  1.00  0.00     0.029 A 
ATOM     56  N   UNL A   1      41.719  31.282  33.933  1.00  0.00    -0.354 N 
ATOM     57  N   UNL A   1      41.608  29.376  31.708  1.00  0.00    -0.248 NA
ATOM     58  C   UNL A   1      42.484  27.539  30.559  1.00  0.00     0.031 C 
ATOM     59  C   UNL A   1      43.307  31.021  35.465  1.00  0.00     0.029 A 
ATOM     60  C   UNL A   1      42.800  30.492  34.289  1.00  0.00     0.049 A 
ATOM     61  H   UNL A   1      41.163  31.150  33.132  1.00  0.00     0.167 HD
ATOM     62  C   UNL A   1      42.707  28.887  32.402  1.00  0.00     0.074 A 
ATOM     63  C   UNL A   1      43.185  27.734  31.667  1.00  0.00     0.031 C 
ATOM     64  C   UNL A   1      43.268  29.350  33.546  1.00  0.00     0.031 A 
BRANCH  51  65
ATOM     65  C   UNL A   1      40.514  34.386  35.844  1.00  0.00    -0.014 A 
ATOM     66  C   UNL A   1      39.738  34.260  37.010  1.00  0.00     0.009 A 
ATOM     67  C   UNL A   1      41.304  35.535  35.678  1.00  0.00     0.009 A 
ATOM     68  C   UNL A   1      39.720  35.281  37.962  1.00  0.00     0.001 A 
ATOM     69  C   UNL A   1      41.310  36.538  36.649  1.00  0.00     0.001 A 
ATOM     70  C   UNL A   1      40.509  36.416  37.783  1.00  0.00     0.000 A 
ENDBRANCH  51  65
BRANCH  52  71
ATOM     71  C   UNL A   1      40.426  27.635  28.482  1.00  0.00    -0.014 A 
ATOM     72  C   UNL A   1      41.127  27.891  27.294  1.00  0.00     0.009 A 
ATOM     73  C   UNL A   1      39.732  26.422  28.612  1.00  0.00     0.009 A 
ATOM     74  C   UNL A   1      41.108  26.965  26.248  1.00  0.00     0.001 A 
ATOM     75  C   UNL A   1      39.742  25.484  27.578  1.00  0.00     0.001 A 
ATOM     76  C   UNL A   1      40.422  25.761  26.393  1.00  0.00     0.000 A 
ENDBRANCH  52  71
BRANCH  64  77
ATOM     77  C   UNL A   1      44.440  28.586  34.097  1.00  0.00    -0.014 A 
ATOM     78  C   UNL A   1      45.760  28.927  33.763  1.00  0.00     0.009 A 
ATOM     79  C   UNL A   1      44.218  27.533  34.998  1.00  0.00     0.009 A 
ATOM     80  C   UNL A   1      46.831  28.206  34.295  1.00  0.00     0.001 A 
ATOM     81  C   UNL A   1      45.291  26.836  35.555  1.00  0.00     0.001 A 
ATOM     82  C   UNL A   1      46.596  27.166  35.194  1.00  0.00     0.000 A 
ENDBRANCH  64  77
ENDBRANCH  38  39
ENDBRANCH  30  33
ENDBRANCH  28  29
ENDBRANCH  27  28
ENDBRANCH  26  27
ENDBRANCH   1  26
TORSDOF 17
ENDMDL
MODEL 2
REMARK VINA RESULT:     -10.1      4.325      8.902
REMARK SMILES C[C@@](NC(=O)NCC(N)=O)(C(=O)NCCCCCCNC(=O)c1ccc(-c2c3nc(c(-c4ccccc4)c4ccc([nH]4)c(-c4ccccc4)c4nc(c(-c5ccccc5)c5ccc2[nH]5)C=C4)C=C3)cc1)C(F)(F)F
REMARK SMILES IDX 16 1 15 2 14 3 13 4 11 5 12 6 2 8 1 9 3 10 4 11 5 13 6 14
REMARK SMILES IDX 7 16 8 17 9 18 10 19 71 22 72 23 73 24 74 25 17 26 18 27
REMARK SMILES IDX 19 28 20 29 21 30 22 32 23 33 24 34 70 35 25 36 69 37 26 38
REMARK SMILES IDX 27 39 28 40 63 41 29 42 68 43 62 44 64 45 30 46 67 47 61 48
REMARK SMILES IDX 60 49 31 51 53 52 38 53 52 54 39 55 42 56 51 57 65 58 40 59
REMARK SMILES IDX 41 60 50 62 66 63 43 64 32 65 33 66 37 67 34 68 36 69 35 70
REMARK SMILES IDX 54 71 55 72 59 73 56 74 58 75 57 76 44 77 45 78 49 79 46 80
REMARK SMILES IDX 48 81 47 82
REMARK H PARENT 13 7 3 12 6 15 9 20 9 21 20 31 64 50 42 61
REMARK Flexibility Score: inf
ROOT
ATOM      1  C   UNL A   1      35.709  21.952  25.729  1.00  0.00     0.002 C 
ENDROOT
BRANCH   1   2
ATOM      2  C   UNL A   1      35.791  23.446  26.059  1.00  0.00     0.021 C 
BRANCH   2   3
ATOM      3  C   UNL A   1      34.818  24.289  25.246  1.00  0.00     0.116 C 
BRANCH   3   4
ATOM      4  N   UNL A   1      33.558  24.412  25.956  1.00  0.00    -0.354 N 
ATOM      5  C   UNL A   1      32.578  25.357  25.865  1.00  0.00     0.255 C 
ATOM      6  O   UNL A   1      31.631  25.215  26.642  1.00  0.00    -0.272 OA
ATOM      7  H   UNL A   1      33.383  23.698  26.612  1.00  0.00     0.163 HD
BRANCH   5   8
ATOM      8  C   UNL A   1      32.731  26.585  24.954  1.00  0.00     0.213 C 
ATOM      9  C   UNL A   1      33.685  27.534  25.723  1.00  0.00     0.056 C 
BRANCH   8  10
ATOM     10  N   UNL A   1      33.356  26.289  23.624  1.00  0.00    -0.316 N 
ATOM     11  C   UNL A   1      32.921  25.732  22.485  1.00  0.00     0.316 C 
ATOM     12  H   UNL A   1      34.299  26.565  23.577  1.00  0.00     0.166 HD
ATOM     13  O   UNL A   1      33.545  26.016  21.461  1.00  0.00    -0.249 OA
ATOM     14  N   UNL A   1      31.902  24.878  22.393  1.00  0.00    -0.329 N 
ATOM     15  H   UNL A   1      31.579  24.751  21.472  1.00  0.00     0.165 HD
BRANCH  14  16
ATOM     16  C   UNL A   1      31.173  24.097  23.369  1.00  0.00     0.217 C 
BRANCH  16  17
ATOM     17  C   UNL A   1      31.659  22.666  23.558  1.00  0.00     0.236 C 
ATOM     18  N   UNL A   1      32.006  22.043  22.389  1.00  0.00    -0.368 N 
ATOM     19  O   UNL A   1      31.789  22.114  24.644  1.00  0.00    -0.273 OA
ATOM     20  H   UNL A   1      31.891  22.509  21.529  1.00  0.00     0.159 HD
ATOM     21  H   UNL A   1      32.371  21.128  22.407  1.00  0.00     0.159 HD
ENDBRANCH  16  17
ENDBRANCH  14  16
ENDBRANCH   8  10
BRANCH   8  22
ATOM     22  C   UNL A   1      31.376  27.321  24.839  1.00  0.00     0.420 C 
ATOM     23  F   UNL A   1      31.192  28.236  25.817  1.00  0.00    -0.168 F 
ATOM     24  F   UNL A   1      31.328  28.010  23.667  1.00  0.00    -0.168 F 
ATOM     25  F   UNL A   1      30.311  26.493  24.841  1.00  0.00    -0.168 F 
ENDBRANCH   8  22
ENDBRANCH   5   8
ENDBRANCH   3   4
ENDBRANCH   2   3
ENDBRANCH   1   2
BRANCH   1  26
ATOM     26  C   UNL A   1      36.609  21.504  24.573  1.00  0.00     0.002 C 
BRANCH  26  27
ATOM     27  C   UNL A   1      37.528  20.322  24.892  1.00  0.00     0.021 C 
BRANCH  27  28
ATOM     28  C   UNL A   1      38.764  20.681  25.707  1.00  0.00     0.116 C 
BRANCH  28  29
ATOM     29  N   UNL A   1      39.748  19.612  25.722  1.00  0.00    -0.352 N 
ATOM     30  C   UNL A   1      41.081  19.687  26.036  1.00  0.00     0.251 C 
ATOM     31  H   UNL A   1      39.415  18.719  25.474  1.00  0.00     0.163 HD
ATOM     32  O   UNL A   1      41.824  18.728  25.852  1.00  0.00    -0.269 OA
BRANCH  30  33
ATOM     33  C   UNL A   1      41.616  20.952  26.574  1.00  0.00     0.039 A 
ATOM     34  C   UNL A   1      42.109  21.908  25.684  1.00  0.00     0.014 A 
ATOM     35  C   UNL A   1      41.591  21.205  27.948  1.00  0.00     0.014 A 
ATOM     36  C   UNL A   1      42.528  23.145  26.173  1.00  0.00     0.010 A 
ATOM     37  C   UNL A   1      41.934  22.465  28.422  1.00  0.00     0.010 A 
ATOM     38  C   UNL A   1      42.413  23.445  27.539  1.00  0.00    -0.014 A 
BRANCH  38  39
ATOM     39  C   UNL A   1      42.792  24.780  28.065  1.00  0.00     0.031 A 
ATOM     40  C   UNL A   1      41.740  25.832  28.283  1.00  0.00     0.074 A 
ATOM     41  C   UNL A   1      44.089  25.063  28.292  1.00  0.00     0.049 A 
ATOM     42  N   UNL A   1      41.880  27.065  28.698  1.00  0.00    -0.248 NA
ATOM     43  C   UNL A   1      40.351  25.457  27.970  1.00  0.00     0.031 C 
ATOM     44  C   UNL A   1      45.208  24.141  28.080  1.00  0.00     0.029 A 
ATOM     45  N   UNL A   1      44.686  26.210  28.749  1.00  0.00    -0.354 N 
ATOM     46  C   UNL A   1      40.605  27.615  28.682  1.00  0.00     0.074 A 
ATOM     47  C   UNL A   1      39.714  26.601  28.161  1.00  0.00     0.031 C 
ATOM     48  C   UNL A   1      46.350  24.748  28.440  1.00  0.00     0.029 A 
ATOM     49  C   UNL A   1      46.051  26.112  28.863  1.00  0.00     0.049 A 
ATOM     50  H   UNL A   1      44.183  27.026  28.975  1.00  0.00     0.167 HD
ATOM     51  C   UNL A   1      40.206  28.845  29.084  1.00  0.00     0.031 A 
ATOM     52  C   UNL A   1      46.963  27.022  29.258  1.00  0.00     0.031 A 
ATOM     53  C   UNL A   1      41.094  29.850  29.603  1.00  0.00     0.049 A 
ATOM     54  C   UNL A   1      46.499  28.390  29.674  1.00  0.00     0.074 A 
ATOM     55  C   UNL A   1      40.783  31.108  30.087  1.00  0.00     0.029 A 
ATOM     56  N   UNL A   1      42.472  29.713  29.697  1.00  0.00    -0.354 N 
ATOM     57  N   UNL A   1      45.280  28.870  29.722  1.00  0.00    -0.248 NA
ATOM     58  C   UNL A   1      47.538  29.336  30.103  1.00  0.00     0.031 C 
ATOM     59  C   UNL A   1      41.978  31.756  30.416  1.00  0.00     0.029 A 
ATOM     60  C   UNL A   1      43.027  30.877  30.203  1.00  0.00     0.049 A 
ATOM     61  H   UNL A   1      42.979  28.909  29.443  1.00  0.00     0.167 HD
ATOM     62  C   UNL A   1      45.402  30.163  30.215  1.00  0.00     0.074 A 
ATOM     63  C   UNL A   1      46.811  30.384  30.465  1.00  0.00     0.031 C 
ATOM     64  C   UNL A   1      44.433  31.084  30.442  1.00  0.00     0.031 A 
BRANCH  51  65
ATOM     65  C   UNL A   1      38.743  29.171  28.961  1.00  0.00    -0.014 A 
ATOM     66  C   UNL A   1      38.195  29.632  27.751  1.00  0.00     0.009 A 
ATOM     67  C   UNL A   1      37.892  28.994  30.064  1.00  0.00     0.009 A 
ATOM     68  C   UNL A   1      36.839  29.950  27.663  1.00  0.00     0.001 A 
ATOM     69  C   UNL A   1      36.529  29.280  29.962  1.00  0.00     0.001 A 
ATOM     70  C   UNL A   1      36.007  29.770  28.767  1.00  0.00     0.000 A 
ENDBRANCH  51  65
BRANCH  52  71
ATOM     71  C   UNL A   1      48.406  26.663  29.291  1.00  0.00    -0.014 A 
ATOM     72  C   UNL A   1      49.180  26.714  28.122  1.00  0.00     0.009 A 
ATOM     73  C   UNL A   1      49.016  26.269  30.492  1.00  0.00     0.009 A 
ATOM     74  C   UNL A   1      50.529  26.350  28.150  1.00  0.00     0.001 A 
ATOM     75  C   UNL A   1      50.372  25.938  30.524  1.00  0.00     0.001 A 
ATOM     76  C   UNL A   1      51.124  25.968  29.352  1.00  0.00     0.000 A 
ENDBRANCH  52  71
BRANCH  64  77
ATOM     77  C   UNL A   1      44.858  32.403  31.024  1.00  0.00    -0.014 A 
ATOM     78  C   UNL A   1      44.948  32.598  32.412  1.00  0.00     0.009 A 
ATOM     79  C   UNL A   1      45.215  33.456  30.167  1.00  0.00     0.009 A 
ATOM     80  C   UNL A   1      45.353  33.831  32.926  1.00  0.00     0.001 A 
ATOM     81  C   UNL A   1      45.652  34.676  30.683  1.00  0.00     0.001 A 
ATOM     82  C   UNL A   1      45.710  34.866  32.062  1.00  0.00     0.000 A 
ENDBRANCH  64  77
ENDBRANCH  38  39
ENDBRANCH  30  33
ENDBRANCH  28  29
ENDBRANCH  27  28
ENDBRANCH  26  27
ENDBRANCH   1  26
TORSDOF 17
ENDMDL
MODEL 3
REMARK VINA RESULT:     -10.0      1.657      2.054
REMARK SMILES C[C@@](NC(=O)NCC(N)=O)(C(=O)NCCCCCCNC(=O)c1ccc(-c2c3nc(c(-c4ccccc4)c4ccc([nH]4)c(-c4ccccc4)c4nc(c(-c5ccccc5)c5ccc2[nH]5)C=C4)C=C3)cc1)C(F)(F)F
REMARK SMILES IDX 16 1 15 2 14 3 13 4 11 5 12 6 2 8 1 9 3 10 4 11 5 13 6 14
REMARK SMILES IDX 7 16 8 17 9 18 10 19 71 22 72 23 73 24 74 25 17 26 18 27
REMARK SMILES IDX 19 28 20 29 21 30 22 32 23 33 24 34 70 35 25 36 69 37 26 38
REMARK SMILES IDX 27 39 28 40 63 41 29 42 68 43 62 44 64 45 30 46 67 47 61 48
REMARK SMILES IDX 60 49 31 51 53 52 38 53 52 54 39 55 42 56 51 57 65 58 40 59
REMARK SMILES IDX 41 60 50 62 66 63 43 64 32 65 33 66 37 67 34 68 36 69 35 70
REMARK SMILES IDX 54 71 55 72 59 73 56 74 58 75 57 76 44 77 45 78 49 79 46 80
REMARK SMILES IDX 48 81 47 82
REMARK H PARENT 13 7 3 12 6 15 9 20 9 21 20 31 64 50 42 61
REMARK Flexibility Score: inf
ROOT
ATOM      1  C   UNL A   1      31.713  29.331  27.071  1.00  0.00     0.002 C 
ENDROOT
BRANCH   1   2
ATOM      2  C   UNL A   1      32.720  28.203  26.825  1.00  0.00     0.021 C 
BRANCH   2   3
ATOM      3  C   UNL A   1      32.070  26.827  26.769  1.00  0.00     0.116 C 
BRANCH   3   4
ATOM      4  N   UNL A   1      31.036  26.812  25.749  1.00  0.00    -0.354 N 
ATOM      5  C   UNL A   1      30.593  25.796  24.952  1.00  0.00     0.255 C 
ATOM      6  O   UNL A   1      29.719  26.105  24.138  1.00  0.00    -0.272 OA
ATOM      7  H   UNL A   1      30.581  27.674  25.609  1.00  0.00     0.163 HD
BRANCH   5   8
ATOM      8  C   UNL A   1      31.251  24.409  24.982  1.00  0.00     0.213 C 
ATOM      9  C   UNL A   1      30.738  23.698  23.703  1.00  0.00     0.056 C 
BRANCH   8  10
ATOM     10  N   UNL A   1      32.748  24.437  24.919  1.00  0.00    -0.316 N 
ATOM     11  C   UNL A   1      33.647  25.195  24.278  1.00  0.00     0.316 C 
ATOM     12  H   UNL A   1      33.165  23.739  25.474  1.00  0.00     0.166 HD
ATOM     13  O   UNL A   1      34.781  25.231  24.760  1.00  0.00    -0.249 OA
ATOM     14  N   UNL A   1      33.413  25.870  23.152  1.00  0.00    -0.329 N 
ATOM     15  H   UNL A   1      34.101  26.545  22.949  1.00  0.00     0.165 HD
BRANCH  14  16
ATOM     16  C   UNL A   1      32.356  25.814  22.165  1.00  0.00     0.217 C 
BRANCH  16  17
ATOM     17  C   UNL A   1      32.691  25.054  20.889  1.00  0.00     0.236 C 
ATOM     18  N   UNL A   1      32.206  25.646  19.753  1.00  0.00    -0.368 N 
ATOM     19  O   UNL A   1      33.372  24.038  20.844  1.00  0.00    -0.273 OA
ATOM     20  H   UNL A   1      31.661  26.463  19.817  1.00  0.00     0.159 HD
ATOM     21  H   UNL A   1      32.403  25.254  18.871  1.00  0.00     0.159 HD
ENDBRANCH  16  17
ENDBRANCH  14  16
ENDBRANCH   8  10
BRANCH   8  22
ATOM     22  C   UNL A   1      30.708  23.600  26.183  1.00  0.00     0.420 C 
ATOM     23  F   UNL A   1      29.622  24.170  26.751  1.00  0.00    -0.168 F 
ATOM     24  F   UNL A   1      30.308  22.369  25.762  1.00  0.00    -0.168 F 
ATOM     25  F   UNL A   1      31.622  23.395  27.153  1.00  0.00    -0.168 F 
ENDBRANCH   8  22
ENDBRANCH   5   8
ENDBRANCH   3   4
ENDBRANCH   2   3
ENDBRANCH   1   2
BRANCH   1  26
ATOM     26  C   UNL A   1      31.733  30.445  26.019  1.00  0.00     0.002 C 
BRANCH  26  27
ATOM     27  C   UNL A   1      31.491  31.853  26.565  1.00  0.00     0.021 C 
BRANCH  27  28
ATOM     28  C   UNL A   1      32.715  32.512  27.187  1.00  0.00     0.116 C 
BRANCH  28  29
ATOM     29  N   UNL A   1      32.459  33.882  27.599  1.00  0.00    -0.352 N 
ATOM     30  C   UNL A   1      33.135  34.632  28.527  1.00  0.00     0.251 C 
ATOM     31  H   UNL A   1      31.702  34.329  27.155  1.00  0.00     0.163 HD
ATOM     32  O   UNL A   1      32.705  35.724  28.884  1.00  0.00    -0.269 OA
BRANCH  30  33
ATOM     33  C   UNL A   1      34.375  34.091  29.114  1.00  0.00     0.039 A 
ATOM     34  C   UNL A   1      34.289  33.284  30.250  1.00  0.00     0.014 A 
ATOM     35  C   UNL A   1      35.613  34.349  28.516  1.00  0.00     0.014 A 
ATOM     36  C   UNL A   1      35.444  32.689  30.755  1.00  0.00     0.010 A 
ATOM     37  C   UNL A   1      36.748  33.691  28.975  1.00  0.00     0.010 A 
ATOM     38  C   UNL A   1      36.675  32.861  30.104  1.00  0.00    -0.014 A 
BRANCH  38  39
ATOM     39  C   UNL A   1      37.901  32.181  30.591  1.00  0.00     0.031 A 
ATOM     40  C   UNL A   1      38.697  32.778  31.718  1.00  0.00     0.074 A 
ATOM     41  C   UNL A   1      38.327  31.058  29.982  1.00  0.00     0.049 A 
ATOM     42  N   UNL A   1      39.812  32.353  32.256  1.00  0.00    -0.248 NA
ATOM     43  C   UNL A   1      38.188  34.030  32.301  1.00  0.00     0.031 C 
ATOM     44  C   UNL A   1      37.665  30.402  28.851  1.00  0.00     0.029 A 
ATOM     45  N   UNL A   1      39.422  30.269  30.229  1.00  0.00    -0.354 N 
ATOM     46  C   UNL A   1      40.143  33.290  33.226  1.00  0.00     0.074 A 
ATOM     47  C   UNL A   1      39.144  34.335  33.164  1.00  0.00     0.031 C 
ATOM     48  C   UNL A   1      38.348  29.294  28.526  1.00  0.00     0.029 A 
ATOM     49  C   UNL A   1      39.518  29.184  29.391  1.00  0.00     0.049 A 
ATOM     50  H   UNL A   1      40.076  30.462  30.938  1.00  0.00     0.167 HD
ATOM     51  C   UNL A   1      41.172  33.273  34.106  1.00  0.00     0.031 A 
ATOM     52  C   UNL A   1      40.448  28.213  29.323  1.00  0.00     0.031 A 
ATOM     53  C   UNL A   1      42.163  32.232  34.167  1.00  0.00     0.049 A 
ATOM     54  C   UNL A   1      41.597  28.230  30.293  1.00  0.00     0.074 A 
ATOM     55  C   UNL A   1      43.215  32.095  35.055  1.00  0.00     0.029 A 
ATOM     56  N   UNL A   1      42.228  31.153  33.297  1.00  0.00    -0.354 N 
ATOM     57  N   UNL A   1      41.856  29.084  31.253  1.00  0.00    -0.248 NA
ATOM     58  C   UNL A   1      42.575  27.140  30.175  1.00  0.00     0.031 C 
ATOM     59  C   UNL A   1      43.954  30.966  34.684  1.00  0.00     0.029 A 
ATOM     60  C   UNL A   1      43.322  30.362  33.609  1.00  0.00     0.049 A 
ATOM     61  H   UNL A   1      41.592  30.976  32.568  1.00  0.00     0.167 HD
ATOM     62  C   UNL A   1      43.008  28.619  31.873  1.00  0.00     0.074 A 
ATOM     63  C   UNL A   1      43.387  27.399  31.191  1.00  0.00     0.031 C 
ATOM     64  C   UNL A   1      43.689  29.153  32.917  1.00  0.00     0.031 A 
BRANCH  51  65
ATOM     65  C   UNL A   1      41.283  34.429  35.062  1.00  0.00    -0.014 A 
ATOM     66  C   UNL A   1      40.646  34.405  36.316  1.00  0.00     0.009 A 
ATOM     67  C   UNL A   1      42.054  35.550  34.717  1.00  0.00     0.009 A 
ATOM     68  C   UNL A   1      40.743  35.496  37.181  1.00  0.00     0.001 A 
ATOM     69  C   UNL A   1      42.177  36.625  35.600  1.00  0.00     0.001 A 
ATOM     70  C   UNL A   1      41.512  36.603  36.824  1.00  0.00     0.000 A 
ENDBRANCH  51  65
BRANCH  52  71
ATOM     71  C   UNL A   1      40.323  27.134  28.307  1.00  0.00    -0.014 A 
ATOM     72  C   UNL A   1      40.926  27.267  27.047  1.00  0.00     0.009 A 
ATOM     73  C   UNL A   1      39.602  25.964  28.593  1.00  0.00     0.009 A 
ATOM     74  C   UNL A   1      40.785  26.264  26.085  1.00  0.00     0.001 A 
ATOM     75  C   UNL A   1      39.491  24.948  27.641  1.00  0.00     0.001 A 
ATOM     76  C   UNL A   1      40.073  25.104  26.385  1.00  0.00     0.000 A 
ENDBRANCH  52  71
BRANCH  64  77
ATOM     77  C   UNL A   1      44.894  28.401  33.410  1.00  0.00    -0.014 A 
ATOM     78  C   UNL A   1      46.195  28.769  33.031  1.00  0.00     0.009 A 
ATOM     79  C   UNL A   1      44.725  27.332  34.304  1.00  0.00     0.009 A 
ATOM     80  C   UNL A   1      47.297  28.058  33.510  1.00  0.00     0.001 A 
ATOM     81  C   UNL A   1      45.829  26.645  34.808  1.00  0.00     0.001 A 
ATOM     82  C   UNL A   1      47.114  27.001  34.401  1.00  0.00     0.000 A 
ENDBRANCH  64  77
ENDBRANCH  38  39
ENDBRANCH  30  33
ENDBRANCH  28  29
ENDBRANCH  27  28
ENDBRANCH  26  27
ENDBRANCH   1  26
TORSDOF 17
ENDMDL
