MODEL 1
REMARK VINA RESULT:     -10.8      0.000      0.000
REMARK SMILES C[C@@H](C(=O)NCCCCCCNC(=O)c1ccc(-c2c3nc(c(-c4ccccc4)c4ccc([nH]4)c(-c4ccccc4)c4nc(c(-c5ccccc5)c5ccc2[nH]5)C=C4)C=C3)cc1)c1ccc(O[C@H]2CCCC2=O)cc1F
REMARK SMILES IDX 8 1 7 2 6 3 5 4 3 5 4 6 2 8 1 9 63 10 64 11 75 12 65 13
REMARK SMILES IDX 74 14 76 15 66 16 67 17 68 18 69 19 72 20 70 21 71 22 73 23
REMARK SMILES IDX 9 24 10 25 11 26 12 27 13 28 14 30 15 31 16 32 62 33 17 34
REMARK SMILES IDX 61 35 18 36 19 37 20 38 55 39 21 40 60 41 54 42 56 43 22 44
REMARK SMILES IDX 59 45 53 46 52 47 23 49 45 50 30 51 44 52 31 53 34 54 43 55
REMARK SMILES IDX 57 56 32 57 33 58 42 60 58 61 35 62 24 63 25 64 29 65 26 66
REMARK SMILES IDX 28 67 27 68 46 69 47 70 51 71 48 72 50 73 49 74 36 75 37 76
REMARK SMILES IDX 41 77 38 78 40 79 39 80
REMARK H PARENT 5 7 12 29 56 48 34 59
REMARK Flexibility Score: inf
ROOT
ATOM      1  C   UNL A   1      36.330  21.779  24.508  1.00  0.00     0.002 C 
ENDROOT
BRANCH   1   2
ATOM      2  C   UNL A   1      35.774  22.820  25.489  1.00  0.00     0.021 C 
BRANCH   2   3
ATOM      3  C   UNL A   1      35.664  24.235  24.916  1.00  0.00     0.116 C 
BRANCH   3   4
ATOM      4  N   UNL A   1      34.681  25.017  25.630  1.00  0.00    -0.356 N 
ATOM      5  C   UNL A   1      33.389  25.319  25.325  1.00  0.00     0.227 C 
ATOM      6  O   UNL A   1      32.752  25.896  26.210  1.00  0.00    -0.274 OA
ATOM      7  H   UNL A   1      34.998  25.394  26.482  1.00  0.00     0.163 HD
BRANCH   5   8
ATOM      8  C   UNL A   1      32.759  24.856  23.996  1.00  0.00     0.108 C 
ATOM      9  C   UNL A   1      31.454  25.562  23.610  1.00  0.00     0.023 C 
BRANCH   8  10
ATOM     10  C   UNL A   1      32.476  23.358  23.977  1.00  0.00     0.000 A 
ATOM     11  C   UNL A   1      32.036  22.695  25.126  1.00  0.00     0.011 A 
ATOM     12  C   UNL A   1      32.738  22.592  22.835  1.00  0.00     0.130 A 
ATOM     13  C   UNL A   1      31.866  21.307  25.111  1.00  0.00     0.047 A 
ATOM     14  C   UNL A   1      32.550  21.214  22.811  1.00  0.00     0.086 A 
ATOM     15  F   UNL A   1      33.233  23.177  21.733  1.00  0.00    -0.207 F 
ATOM     16  C   UNL A   1      32.109  20.560  23.952  1.00  0.00     0.123 A 
BRANCH  16  17
ATOM     17  O   UNL A   1      31.926  19.218  24.099  1.00  0.00    -0.483 OA
BRANCH  17  18
ATOM     18  C   UNL A   1      32.985  18.369  24.471  1.00  0.00     0.239 C 
ATOM     19  C   UNL A   1      32.822  17.754  25.868  1.00  0.00     0.054 C 
ATOM     20  C   UNL A   1      33.489  17.205  23.620  1.00  0.00     0.173 C 
ATOM     21  C   UNL A   1      32.968  16.243  25.710  1.00  0.00     0.012 C 
ATOM     22  C   UNL A   1      33.809  16.004  24.465  1.00  0.00     0.080 C 
ATOM     23  O   UNL A   1      33.655  17.241  22.407  1.00  0.00    -0.296 OA
ENDBRANCH  17  18
ENDBRANCH  16  17
ENDBRANCH   8  10
ENDBRANCH   5   8
ENDBRANCH   3   4
ENDBRANCH   2   3
ENDBRANCH   1   2
BRANCH   1  24
ATOM     24  C   UNL A   1      36.204  20.321  24.958  1.00  0.00     0.002 C 
BRANCH  24  25
ATOM     25  C   UNL A   1      37.501  19.511  24.897  1.00  0.00     0.021 C 
BRANCH  25  26
ATOM     26  C   UNL A   1      38.699  20.183  25.554  1.00  0.00     0.116 C 
BRANCH  26  27
ATOM     27  N   UNL A   1      39.828  19.281  25.691  1.00  0.00    -0.352 N 
ATOM     28  C   UNL A   1      41.116  19.563  26.063  1.00  0.00     0.251 C 
ATOM     29  H   UNL A   1      39.643  18.335  25.488  1.00  0.00     0.163 HD
ATOM     30  O   UNL A   1      41.995  18.708  25.946  1.00  0.00    -0.269 OA
BRANCH  28  31
ATOM     31  C   UNL A   1      41.458  20.898  26.594  1.00  0.00     0.039 A 
ATOM     32  C   UNL A   1      41.303  21.142  27.962  1.00  0.00     0.014 A 
ATOM     33  C   UNL A   1      41.903  21.917  25.746  1.00  0.00     0.014 A 
ATOM     34  C   UNL A   1      41.622  22.398  28.482  1.00  0.00     0.010 A 
ATOM     35  C   UNL A   1      42.297  23.140  26.276  1.00  0.00     0.010 A 
ATOM     36  C   UNL A   1      42.136  23.404  27.645  1.00  0.00    -0.014 A 
BRANCH  36  37
ATOM     37  C   UNL A   1      42.454  24.753  28.174  1.00  0.00     0.031 A 
ATOM     38  C   UNL A   1      43.868  25.091  28.562  1.00  0.00     0.074 A 
ATOM     39  C   UNL A   1      41.471  25.657  28.347  1.00  0.00     0.049 A 
ATOM     40  N   UNL A   1      44.345  26.201  29.067  1.00  0.00    -0.248 NA
ATOM     41  C   UNL A   1      44.876  24.032  28.385  1.00  0.00     0.031 C 
ATOM     42  C   UNL A   1      40.055  25.444  28.042  1.00  0.00     0.029 A 
ATOM     43  N   UNL A   1      41.519  26.944  28.823  1.00  0.00    -0.354 N 
ATOM     44  C   UNL A   1      45.695  25.963  29.293  1.00  0.00     0.074 A 
ATOM     45  C   UNL A   1      45.952  24.590  28.919  1.00  0.00     0.031 C 
ATOM     46  C   UNL A   1      39.376  26.573  28.301  1.00  0.00     0.029 A 
ATOM     47  C   UNL A   1      40.300  27.575  28.824  1.00  0.00     0.049 A 
ATOM     48  H   UNL A   1      42.349  27.373  29.133  1.00  0.00     0.167 HD
ATOM     49  C   UNL A   1      46.644  26.815  29.749  1.00  0.00     0.031 A 
ATOM     50  C   UNL A   1      39.965  28.824  29.199  1.00  0.00     0.031 A 
ATOM     51  C   UNL A   1      46.395  28.187  30.099  1.00  0.00     0.049 A 
ATOM     52  C   UNL A   1      41.037  29.753  29.700  1.00  0.00     0.074 A 
ATOM     53  C   UNL A   1      47.299  29.152  30.508  1.00  0.00     0.029 A 
ATOM     54  N   UNL A   1      45.146  28.789  30.079  1.00  0.00    -0.354 N 
ATOM     55  N   UNL A   1      42.322  29.536  29.840  1.00  0.00    -0.248 NA
ATOM     56  C   UNL A   1      40.610  31.108  30.078  1.00  0.00     0.031 C 
ATOM     57  C   UNL A   1      46.589  30.325  30.784  1.00  0.00     0.029 A 
ATOM     58  C   UNL A   1      45.253  30.107  30.489  1.00  0.00     0.049 A 
ATOM     59  H   UNL A   1      44.308  28.345  29.812  1.00  0.00     0.167 HD
ATOM     60  C   UNL A   1      42.863  30.736  30.281  1.00  0.00     0.074 A 
ATOM     61  C   UNL A   1      41.767  31.679  30.378  1.00  0.00     0.031 C 
ATOM     62  C   UNL A   1      44.153  31.033  30.573  1.00  0.00     0.031 A 
BRANCH  49  63
ATOM     63  C   UNL A   1      48.039  26.273  29.908  1.00  0.00    -0.014 A 
ATOM     64  C   UNL A   1      48.944  26.251  28.835  1.00  0.00     0.009 A 
ATOM     65  C   UNL A   1      48.459  25.789  31.158  1.00  0.00     0.009 A 
ATOM     66  C   UNL A   1      50.223  25.714  28.997  1.00  0.00     0.001 A 
ATOM     67  C   UNL A   1      49.748  25.283  31.325  1.00  0.00     0.001 A 
ATOM     68  C   UNL A   1      50.625  25.234  30.243  1.00  0.00     0.000 A 
ENDBRANCH  49  63
BRANCH  50  69
ATOM     69  C   UNL A   1      38.560  29.290  29.073  1.00  0.00    -0.014 A 
ATOM     70  C   UNL A   1      37.674  29.167  30.154  1.00  0.00     0.009 A 
ATOM     71  C   UNL A   1      38.094  29.850  27.873  1.00  0.00     0.009 A 
ATOM     72  C   UNL A   1      36.342  29.568  30.028  1.00  0.00     0.001 A 
ATOM     73  C   UNL A   1      36.768  30.277  27.760  1.00  0.00     0.001 A 
ATOM     74  C   UNL A   1      35.891  30.126  28.833  1.00  0.00     0.000 A 
ENDBRANCH  50  69
BRANCH  62  75
ATOM     75  C   UNL A   1      44.459  32.451  30.969  1.00  0.00    -0.014 A 
ATOM     76  C   UNL A   1      44.763  33.434  30.014  1.00  0.00     0.009 A 
ATOM     77  C   UNL A   1      44.409  32.814  32.325  1.00  0.00     0.009 A 
ATOM     78  C   UNL A   1      45.049  34.741  30.414  1.00  0.00     0.001 A 
ATOM     79  C   UNL A   1      44.663  34.128  32.719  1.00  0.00     0.001 A 
ATOM     80  C   UNL A   1      44.994  35.087  31.764  1.00  0.00     0.000 A 
ENDBRANCH  62  75
ENDBRANCH  36  37
ENDBRANCH  28  31
ENDBRANCH  26  27
ENDBRANCH  25  26
ENDBRANCH  24  25
ENDBRANCH   1  24
TORSDOF 16
ENDMDL
MODEL 2
REMARK VINA RESULT:     -10.8      0.644      5.926
REMARK SMILES C[C@@H](C(=O)NCCCCCCNC(=O)c1ccc(-c2c3nc(c(-c4ccccc4)c4ccc([nH]4)c(-c4ccccc4)c4nc(c(-c5ccccc5)c5ccc2[nH]5)C=C4)C=C3)cc1)c1ccc(O[C@H]2CCCC2=O)cc1F
REMARK SMILES IDX 8 1 7 2 6 3 5 4 3 5 4 6 2 8 1 9 63 10 64 11 75 12 65 13
REMARK SMILES IDX 74 14 76 15 66 16 67 17 68 18 69 19 72 20 70 21 71 22 73 23
REMARK SMILES IDX 9 24 10 25 11 26 12 27 13 28 14 30 15 31 16 32 62 33 17 34
REMARK SMILES IDX 61 35 18 36 19 37 20 38 55 39 21 40 60 41 54 42 56 43 22 44
REMARK SMILES IDX 59 45 53 46 52 47 23 49 45 50 30 51 44 52 31 53 34 54 43 55
REMARK SMILES IDX 57 56 32 57 33 58 42 60 58 61 35 62 24 63 25 64 29 65 26 66
REMARK SMILES IDX 28 67 27 68 46 69 47 70 51 71 48 72 50 73 49 74 36 75 37 76
REMARK SMILES IDX 41 77 38 78 40 79 39 80
REMARK H PARENT 5 7 12 29 56 48 34 59
REMARK Flexibility Score: inf
ROOT
ATOM      1  C   UNL A   1      35.637  22.335  24.716  1.00  0.00     0.002 C 
ENDROOT
BRANCH   1   2
ATOM      2  C   UNL A   1      35.375  23.513  25.664  1.00  0.00     0.021 C 
BRANCH   2   3
ATOM      3  C   UNL A   1      34.979  24.814  24.963  1.00  0.00     0.116 C 
BRANCH   3   4
ATOM      4  N   UNL A   1      33.996  25.546  25.728  1.00  0.00    -0.356 N 
ATOM      5  C   UNL A   1      32.656  25.697  25.545  1.00  0.00     0.227 C 
ATOM      6  O   UNL A   1      32.054  26.273  26.456  1.00  0.00    -0.274 OA
ATOM      7  H   UNL A   1      34.357  26.015  26.516  1.00  0.00     0.163 HD
BRANCH   5   8
ATOM      8  C   UNL A   1      31.948  25.078  24.324  1.00  0.00     0.108 C 
ATOM      9  C   UNL A   1      30.493  25.518  24.120  1.00  0.00     0.023 C 
BRANCH   8  10
ATOM     10  C   UNL A   1      31.950  23.555  24.360  1.00  0.00     0.000 A 
ATOM     11  C   UNL A   1      31.698  22.864  25.549  1.00  0.00     0.011 A 
ATOM     12  C   UNL A   1      32.296  22.810  23.227  1.00  0.00     0.130 A 
ATOM     13  C   UNL A   1      31.790  21.469  25.580  1.00  0.00     0.047 A 
ATOM     14  C   UNL A   1      32.370  21.420  23.251  1.00  0.00     0.086 A 
ATOM     15  F   UNL A   1      32.619  23.435  22.085  1.00  0.00    -0.207 F 
ATOM     16  C   UNL A   1      32.114  20.738  24.431  1.00  0.00     0.123 A 
BRANCH  16  17
ATOM     17  O   UNL A   1      32.193  19.392  24.624  1.00  0.00    -0.483 OA
BRANCH  17  18
ATOM     18  C   UNL A   1      33.249  18.633  24.084  1.00  0.00     0.239 C 
ATOM     19  C   UNL A   1      34.054  17.859  25.137  1.00  0.00     0.054 C 
ATOM     20  C   UNL A   1      33.088  17.631  22.943  1.00  0.00     0.173 C 
ATOM     21  C   UNL A   1      34.085  16.400  24.692  1.00  0.00     0.012 C 
ATOM     22  C   UNL A   1      33.904  16.391  23.181  1.00  0.00     0.080 C 
ATOM     23  O   UNL A   1      32.415  17.813  21.936  1.00  0.00    -0.296 OA
ENDBRANCH  17  18
ENDBRANCH  16  17
ENDBRANCH   8  10
ENDBRANCH   5   8
ENDBRANCH   3   4
ENDBRANCH   2   3
ENDBRANCH   1   2
BRANCH   1  24
ATOM     24  C   UNL A   1      35.867  20.983  25.397  1.00  0.00     0.002 C 
BRANCH  24  25
ATOM     25  C   UNL A   1      37.085  20.204  24.895  1.00  0.00     0.021 C 
BRANCH  25  26
ATOM     26  C   UNL A   1      38.426  20.777  25.333  1.00  0.00     0.116 C 
BRANCH  26  27
ATOM     27  N   UNL A   1      39.428  19.743  25.527  1.00  0.00    -0.352 N 
ATOM     28  C   UNL A   1      40.714  19.864  25.983  1.00  0.00     0.251 C 
ATOM     29  H   UNL A   1      39.143  18.828  25.299  1.00  0.00     0.163 HD
ATOM     30  O   UNL A   1      41.489  18.909  25.908  1.00  0.00    -0.269 OA
BRANCH  28  31
ATOM     31  C   UNL A   1      41.180  21.144  26.554  1.00  0.00     0.039 A 
ATOM     32  C   UNL A   1      41.073  21.349  27.932  1.00  0.00     0.014 A 
ATOM     33  C   UNL A   1      41.694  22.152  25.733  1.00  0.00     0.014 A 
ATOM     34  C   UNL A   1      41.509  22.552  28.489  1.00  0.00     0.010 A 
ATOM     35  C   UNL A   1      42.203  23.316  26.298  1.00  0.00     0.010 A 
ATOM     36  C   UNL A   1      42.091  23.541  27.678  1.00  0.00    -0.014 A 
BRANCH  36  37
ATOM     37  C   UNL A   1      42.534  24.838  28.248  1.00  0.00     0.031 A 
ATOM     38  C   UNL A   1      41.526  25.925  28.507  1.00  0.00     0.074 A 
ATOM     39  C   UNL A   1      43.841  25.056  28.490  1.00  0.00     0.049 A 
ATOM     40  N   UNL A   1      41.715  27.134  28.973  1.00  0.00    -0.248 NA
ATOM     41  C   UNL A   1      40.124  25.624  28.173  1.00  0.00     0.031 C 
ATOM     42  C   UNL A   1      44.922  24.098  28.251  1.00  0.00     0.029 A 
ATOM     43  N   UNL A   1      44.480  26.160  28.995  1.00  0.00    -0.354 N 
ATOM     44  C   UNL A   1      40.465  27.742  28.960  1.00  0.00     0.074 A 
ATOM     45  C   UNL A   1      39.536  26.790  28.392  1.00  0.00     0.031 C 
ATOM     46  C   UNL A   1      46.084  24.641  28.647  1.00  0.00     0.029 A 
ATOM     47  C   UNL A   1      45.836  25.996  29.131  1.00  0.00     0.049 A 
ATOM     48  H   UNL A   1      44.010  26.990  29.239  1.00  0.00     0.167 HD
ATOM     49  C   UNL A   1      40.113  28.973  29.400  1.00  0.00     0.031 A 
ATOM     50  C   UNL A   1      46.774  26.841  29.599  1.00  0.00     0.031 A 
ATOM     51  C   UNL A   1      41.032  29.912  29.986  1.00  0.00     0.049 A 
ATOM     52  C   UNL A   1      46.360  28.203  30.085  1.00  0.00     0.074 A 
ATOM     53  C   UNL A   1      40.766  31.160  30.523  1.00  0.00     0.029 A 
ATOM     54  N   UNL A   1      42.397  29.704  30.110  1.00  0.00    -0.354 N 
ATOM     55  N   UNL A   1      45.163  28.737  30.132  1.00  0.00    -0.248 NA
ATOM     56  C   UNL A   1      47.428  29.072  30.599  1.00  0.00     0.031 C 
ATOM     57  C   UNL A   1      41.978  31.727  30.928  1.00  0.00     0.029 A 
ATOM     58  C   UNL A   1      42.990  30.808  30.698  1.00  0.00     0.049 A 
ATOM     59  H   UNL A   1      42.873  28.890  29.825  1.00  0.00     0.167 HD
ATOM     60  C   UNL A   1      45.329  29.985  30.718  1.00  0.00     0.074 A 
ATOM     61  C   UNL A   1      46.740  30.124  31.015  1.00  0.00     0.031 C 
ATOM     62  C   UNL A   1      44.394  30.928  30.993  1.00  0.00     0.031 A 
BRANCH  49  63
ATOM     63  C   UNL A   1      38.672  29.376  29.246  1.00  0.00    -0.014 A 
ATOM     64  C   UNL A   1      37.750  29.214  30.293  1.00  0.00     0.009 A 
ATOM     65  C   UNL A   1      38.232  29.941  28.038  1.00  0.00     0.009 A 
ATOM     66  C   UNL A   1      36.410  29.565  30.117  1.00  0.00     0.001 A 
ATOM     67  C   UNL A   1      36.899  30.321  27.877  1.00  0.00     0.001 A 
ATOM     68  C   UNL A   1      35.986  30.121  28.911  1.00  0.00     0.000 A 
ENDBRANCH  49  63
BRANCH  50  69
ATOM     69  C   UNL A   1      48.194  26.411  29.677  1.00  0.00    -0.014 A 
ATOM     70  C   UNL A   1      49.063  26.641  28.599  1.00  0.00     0.009 A 
ATOM     71  C   UNL A   1      48.687  25.763  30.820  1.00  0.00     0.009 A 
ATOM     72  C   UNL A   1      50.389  26.204  28.652  1.00  0.00     0.001 A 
ATOM     73  C   UNL A   1      50.021  25.353  30.880  1.00  0.00     0.001 A 
ATOM     74  C   UNL A   1      50.868  25.564  29.793  1.00  0.00     0.000 A 
ENDBRANCH  50  69
BRANCH  62  75
ATOM     75  C   UNL A   1      44.859  32.171  31.700  1.00  0.00    -0.014 A 
ATOM     76  C   UNL A   1      45.271  33.310  30.992  1.00  0.00     0.009 A 
ATOM     77  C   UNL A   1      44.852  32.208  33.104  1.00  0.00     0.009 A 
ATOM     78  C   UNL A   1      45.703  34.448  31.677  1.00  0.00     0.001 A 
ATOM     79  C   UNL A   1      45.254  33.356  33.786  1.00  0.00     0.001 A 
ATOM     80  C   UNL A   1      45.690  34.471  33.072  1.00  0.00     0.000 A 
ENDBRANCH  62  75
ENDBRANCH  36  37
ENDBRANCH  28  31
ENDBRANCH  26  27
ENDBRANCH  25  26
ENDBRANCH  24  25
ENDBRANCH   1  24
TORSDOF 16
ENDMDL
MODEL 3
REMARK VINA RESULT:     -10.3      5.469     10.952
REMARK SMILES C[C@@H](C(=O)NCCCCCCNC(=O)c1ccc(-c2c3nc(c(-c4ccccc4)c4ccc([nH]4)c(-c4ccccc4)c4nc(c(-c5ccccc5)c5ccc2[nH]5)C=C4)C=C3)cc1)c1ccc(O[C@H]2CCCC2=O)cc1F
REMARK SMILES IDX 8 1 7 2 6 3 5 4 3 5 4 6 2 8 1 9 63 10 64 11 75 12 65 13
REMARK SMILES IDX 74 14 76 15 66 16 67 17 68 18 69 19 72 20 70 21 71 22 73 23
REMARK SMILES IDX 9 24 10 25 11 26 12 27 13 28 14 30 15 31 16 32 62 33 17 34
REMARK SMILES IDX 61 35 18 36 19 37 20 38 55 39 21 40 60 41 54 42 56 43 22 44
REMARK SMILES IDX 59 45 53 46 52 47 23 49 45 50 30 51 44 52 31 53 34 54 43 55
REMARK SMILES IDX 57 56 32 57 33 58 42 60 58 61 35 62 24 63 25 64 29 65 26 66
REMARK SMILES IDX 28 67 27 68 46 69 47 70 51 71 48 72 50 73 49 74 36 75 37 76
REMARK SMILES IDX 41 77 38 78 40 79 39 80
REMARK H PARENT 5 7 12 29 56 48 34 59
REMARK Flexibility Score: inf
ROOT
ATOM      1  C   UNL A   1      37.774  33.847  29.418  1.00  0.00     0.002 C 
ENDROOT
BRANCH   1   2
ATOM      2  C   UNL A   1      38.863  34.655  30.137  1.00  0.00     0.021 C 
BRANCH   2   3
ATOM      3  C   UNL A   1      40.290  34.331  29.690  1.00  0.00     0.116 C 
BRANCH   3   4
ATOM      4  N   UNL A   1      40.779  35.307  28.743  1.00  0.00    -0.356 N 
ATOM      5  C   UNL A   1      42.049  35.647  28.388  1.00  0.00     0.227 C 
ATOM      6  O   UNL A   1      42.147  36.428  27.437  1.00  0.00    -0.274 OA
ATOM      7  H   UNL A   1      40.075  35.812  28.274  1.00  0.00     0.163 HD
BRANCH   5   8
ATOM      8  C   UNL A   1      43.265  34.993  29.074  1.00  0.00     0.108 C 
ATOM      9  C   UNL A   1      44.573  35.790  28.981  1.00  0.00     0.023 C 
BRANCH   8  10
ATOM     10  C   UNL A   1      43.557  33.598  28.535  1.00  0.00     0.000 A 
ATOM     11  C   UNL A   1      43.515  32.480  29.374  1.00  0.00     0.011 A 
ATOM     12  C   UNL A   1      43.967  33.411  27.210  1.00  0.00     0.130 A 
ATOM     13  C   UNL A   1      43.871  31.221  28.880  1.00  0.00     0.047 A 
ATOM     14  C   UNL A   1      44.302  32.156  26.711  1.00  0.00     0.086 A 
ATOM     15  F   UNL A   1      44.094  34.466  26.391  1.00  0.00    -0.207 F 
ATOM     16  C   UNL A   1      44.254  31.049  27.544  1.00  0.00     0.123 A 
BRANCH  16  17
ATOM     17  O   UNL A   1      44.598  29.772  27.219  1.00  0.00    -0.483 OA
BRANCH  17  18
ATOM     18  C   UNL A   1      43.624  28.770  27.049  1.00  0.00     0.239 C 
ATOM     19  C   UNL A   1      42.229  29.315  26.713  1.00  0.00     0.054 C 
ATOM     20  C   UNL A   1      43.780  27.573  26.112  1.00  0.00     0.173 C 
ATOM     21  C   UNL A   1      41.765  28.604  25.445  1.00  0.00     0.012 C 
ATOM     22  C   UNL A   1      42.497  27.272  25.387  1.00  0.00     0.080 C 
ATOM     23  O   UNL A   1      44.800  26.908  25.984  1.00  0.00    -0.296 OA
ENDBRANCH  17  18
ENDBRANCH  16  17
ENDBRANCH   8  10
ENDBRANCH   5   8
ENDBRANCH   3   4
ENDBRANCH   2   3
ENDBRANCH   1   2
BRANCH   1  24
ATOM     24  C   UNL A   1      36.628  33.355  30.307  1.00  0.00     0.002 C 
BRANCH  24  25
ATOM     25  C   UNL A   1      35.228  33.543  29.721  1.00  0.00     0.021 C 
BRANCH  25  26
ATOM     26  C   UNL A   1      35.135  33.315  28.218  1.00  0.00     0.116 C 
BRANCH  26  27
ATOM     27  N   UNL A   1      34.231  32.229  27.882  1.00  0.00    -0.352 N 
ATOM     28  C   UNL A   1      34.498  30.890  27.768  1.00  0.00     0.251 C 
ATOM     29  H   UNL A   1      33.297  32.491  27.712  1.00  0.00     0.163 HD
ATOM     30  O   UNL A   1      33.654  30.130  27.290  1.00  0.00    -0.269 OA
BRANCH  28  31
ATOM     31  C   UNL A   1      35.804  30.355  28.205  1.00  0.00     0.039 A 
ATOM     32  C   UNL A   1      35.908  29.782  29.475  1.00  0.00     0.014 A 
ATOM     33  C   UNL A   1      36.929  30.443  27.379  1.00  0.00     0.014 A 
ATOM     34  C   UNL A   1      37.135  29.271  29.905  1.00  0.00     0.010 A 
ATOM     35  C   UNL A   1      38.128  29.861  27.776  1.00  0.00     0.010 A 
ATOM     36  C   UNL A   1      38.251  29.293  29.053  1.00  0.00    -0.014 A 
BRANCH  36  37
ATOM     37  C   UNL A   1      39.570  28.780  29.502  1.00  0.00     0.031 A 
ATOM     38  C   UNL A   1      40.380  29.570  30.494  1.00  0.00     0.074 A 
ATOM     39  C   UNL A   1      40.057  27.635  28.990  1.00  0.00     0.049 A 
ATOM     40  N   UNL A   1      41.564  29.308  30.991  1.00  0.00    -0.248 NA
ATOM     41  C   UNL A   1      39.797  30.835  30.973  1.00  0.00     0.031 C 
ATOM     42  C   UNL A   1      39.387  26.794  27.997  1.00  0.00     0.029 A 
ATOM     43  N   UNL A   1      41.237  26.980  29.239  1.00  0.00    -0.354 N 
ATOM     44  C   UNL A   1      41.875  30.385  31.812  1.00  0.00     0.074 A 
ATOM     45  C   UNL A   1      40.782  31.327  31.708  1.00  0.00     0.031 C 
ATOM     46  C   UNL A   1      40.147  25.715  27.751  1.00  0.00     0.029 A 
ATOM     47  C   UNL A   1      41.373  25.806  28.539  1.00  0.00     0.049 A 
ATOM     48  H   UNL A   1      41.921  27.319  29.861  1.00  0.00     0.167 HD
ATOM     49  C   UNL A   1      42.961  30.568  32.600  1.00  0.00     0.031 A 
ATOM     50  C   UNL A   1      42.370  24.902  28.538  1.00  0.00     0.031 A 
ATOM     51  C   UNL A   1      44.037  29.621  32.722  1.00  0.00     0.049 A 
ATOM     52  C   UNL A   1      43.565  25.125  29.423  1.00  0.00     0.074 A 
ATOM     53  C   UNL A   1      45.150  29.680  33.542  1.00  0.00     0.029 A 
ATOM     54  N   UNL A   1      44.131  28.441  32.000  1.00  0.00    -0.354 N 
ATOM     55  N   UNL A   1      43.812  26.114  30.249  1.00  0.00    -0.248 NA
ATOM     56  C   UNL A   1      44.612  24.094  29.389  1.00  0.00     0.031 C 
ATOM     57  C   UNL A   1      45.944  28.560  33.280  1.00  0.00     0.029 A 
ATOM     58  C   UNL A   1      45.295  27.774  32.341  1.00  0.00     0.049 A 
ATOM     59  H   UNL A   1      43.469  28.125  31.344  1.00  0.00     0.167 HD
ATOM     60  C   UNL A   1      45.019  25.804  30.860  1.00  0.00     0.074 A 
ATOM     61  C   UNL A   1      45.450  24.532  30.316  1.00  0.00     0.031 C 
ATOM     62  C   UNL A   1      45.706  26.506  31.795  1.00  0.00     0.031 A 
BRANCH  49  63
ATOM     63  C   UNL A   1      43.040  31.852  33.380  1.00  0.00    -0.014 A 
ATOM     64  C   UNL A   1      42.563  31.939  34.699  1.00  0.00     0.009 A 
ATOM     65  C   UNL A   1      43.614  32.990  32.791  1.00  0.00     0.009 A 
ATOM     66  C   UNL A   1      42.616  33.150  35.392  1.00  0.00     0.001 A 
ATOM     67  C   UNL A   1      43.696  34.190  33.499  1.00  0.00     0.001 A 
ATOM     68  C   UNL A   1      43.186  34.273  34.793  1.00  0.00     0.000 A 
ENDBRANCH  49  63
BRANCH  50  69
ATOM     69  C   UNL A   1      42.266  23.677  27.704  1.00  0.00    -0.014 A 
ATOM     70  C   UNL A   1      42.761  23.670  26.391  1.00  0.00     0.009 A 
ATOM     71  C   UNL A   1      41.664  22.513  28.209  1.00  0.00     0.009 A 
ATOM     72  C   UNL A   1      42.631  22.532  25.591  1.00  0.00     0.001 A 
ATOM     73  C   UNL A   1      41.562  21.369  27.415  1.00  0.00     0.001 A 
ATOM     74  C   UNL A   1      42.035  21.382  26.104  1.00  0.00     0.000 A 
ENDBRANCH  50  69
BRANCH  62  75
ATOM     75  C   UNL A   1      46.966  25.886  32.332  1.00  0.00    -0.014 A 
ATOM     76  C   UNL A   1      46.963  25.097  33.493  1.00  0.00     0.009 A 
ATOM     77  C   UNL A   1      48.174  26.072  31.639  1.00  0.00     0.009 A 
ATOM     78  C   UNL A   1      48.151  24.540  33.969  1.00  0.00     0.001 A 
ATOM     79  C   UNL A   1      49.354  25.487  32.100  1.00  0.00     0.001 A 
ATOM     80  C   UNL A   1      49.344  24.731  33.271  1.00  0.00     0.000 A 
ENDBRANCH  62  75
ENDBRANCH  36  37
ENDBRANCH  28  31
ENDBRANCH  26  27
ENDBRANCH  25  26
ENDBRANCH  24  25
ENDBRANCH   1  24
TORSDOF 16
ENDMDL
