MODEL 1
REMARK VINA RESULT:     -10.3      0.000      0.000
REMARK SMILES C[C@@H](CC(=O)NCCCCCCNC(=O)c1ccc(-c2c3nc(c(-c4ccccc4)c4ccc([nH]4)c(-c4ccccc4)c4nc(c(-c5ccccc5)c5ccc2[nH]5)C=C4)C=C3)cc1)NC(=O)/C=C/c1cccnc1
REMARK SMILES IDX 8 1 7 2 6 3 4 4 5 5 3 7 2 8 1 9 64 10 65 11 66 13 67 14
REMARK SMILES IDX 68 15 69 16 70 17 74 18 71 19 73 20 72 21 9 22 10 23 11 24
REMARK SMILES IDX 12 25 13 26 14 27 15 29 16 30 17 31 63 32 18 33 62 34 19 35
REMARK SMILES IDX 20 36 21 37 56 38 22 39 61 40 55 41 57 42 23 43 60 44 54 45
REMARK SMILES IDX 53 46 24 48 46 49 31 50 45 51 32 52 35 53 44 54 58 55 33 56
REMARK SMILES IDX 34 57 43 59 59 60 36 61 25 62 26 63 30 64 27 65 29 66 28 67
REMARK SMILES IDX 47 68 48 69 52 70 49 71 51 72 50 73 37 74 38 75 42 76 39 77
REMARK SMILES IDX 41 78 40 79
REMARK H PARENT 6 6 64 12 13 28 57 47 35 58
REMARK Flexibility Score: inf
ROOT
ATOM      1  C   UNL A   1      35.356  22.817  26.557  1.00  0.00     0.021 C 
ENDROOT
BRANCH   1   2
ATOM      2  C   UNL A   1      34.342  21.768  27.022  1.00  0.00     0.116 C 
BRANCH   2   3
ATOM      3  N   UNL A   1      33.196  22.433  27.607  1.00  0.00    -0.356 N 
ATOM      4  C   UNL A   1      32.061  22.887  27.011  1.00  0.00     0.222 C 
ATOM      5  O   UNL A   1      31.360  23.690  27.627  1.00  0.00    -0.275 OA
ATOM      6  H   UNL A   1      33.246  22.577  28.579  1.00  0.00     0.163 HD
BRANCH   4   7
ATOM      7  C   UNL A   1      31.644  22.369  25.653  1.00  0.00     0.124 C 
BRANCH   7   8
ATOM      8  C   UNL A   1      32.395  22.906  24.428  1.00  0.00     0.088 C 
ATOM      9  C   UNL A   1      32.434  24.430  24.348  1.00  0.00     0.031 C 
BRANCH   8  10
ATOM     10  N   UNL A   1      31.925  22.378  23.152  1.00  0.00    -0.350 N 
ATOM     11  C   UNL A   1      32.155  21.181  22.542  1.00  0.00     0.244 C 
ATOM     12  H   UNL A   1      31.343  22.989  22.647  1.00  0.00     0.164 HD
ATOM     13  O   UNL A   1      31.762  21.010  21.388  1.00  0.00    -0.270 OA
BRANCH  11  14
ATOM     14  C   UNL A   1      32.780  20.029  23.253  1.00  0.00     0.072 C 
ATOM     15  C   UNL A   1      32.288  18.790  23.370  1.00  0.00     0.015 C 
BRANCH  15  16
ATOM     16  C   UNL A   1      32.951  17.664  24.016  1.00  0.00    -0.007 A 
ATOM     17  C   UNL A   1      34.253  17.295  23.694  1.00  0.00     0.011 A 
ATOM     18  C   UNL A   1      32.341  17.031  25.097  1.00  0.00     0.119 A 
ATOM     19  C   UNL A   1      34.897  16.334  24.471  1.00  0.00     0.021 A 
ATOM     20  N   UNL A   1      32.938  16.092  25.864  1.00  0.00    -0.264 NA
ATOM     21  C   UNL A   1      34.207  15.772  25.536  1.00  0.00     0.111 A 
ENDBRANCH  15  16
ENDBRANCH  11  14
ENDBRANCH   8  10
ENDBRANCH   7   8
ENDBRANCH   4   7
ENDBRANCH   2   3
ENDBRANCH   1   2
BRANCH   1  22
ATOM     22  C   UNL A   1      36.328  22.300  25.496  1.00  0.00     0.002 C 
BRANCH  22  23
ATOM     23  C   UNL A   1      36.006  20.899  24.975  1.00  0.00     0.002 C 
BRANCH  23  24
ATOM     24  C   UNL A   1      37.200  19.942  24.926  1.00  0.00     0.021 C 
BRANCH  24  25
ATOM     25  C   UNL A   1      38.482  20.500  25.538  1.00  0.00     0.116 C 
BRANCH  25  26
ATOM     26  N   UNL A   1      39.498  19.473  25.688  1.00  0.00    -0.352 N 
ATOM     27  C   UNL A   1      40.820  19.602  26.031  1.00  0.00     0.251 C 
ATOM     28  H   UNL A   1      39.196  18.552  25.518  1.00  0.00     0.163 HD
ATOM     29  O   UNL A   1      41.596  18.666  25.880  1.00  0.00    -0.269 OA
BRANCH  27  30
ATOM     30  C   UNL A   1      41.305  20.884  26.579  1.00  0.00     0.039 A 
ATOM     31  C   UNL A   1      41.865  21.823  25.712  1.00  0.00     0.014 A 
ATOM     32  C   UNL A   1      41.220  21.146  27.950  1.00  0.00     0.014 A 
ATOM     33  C   UNL A   1      42.296  23.051  26.213  1.00  0.00     0.010 A 
ATOM     34  C   UNL A   1      41.584  22.396  28.437  1.00  0.00     0.010 A 
ATOM     35  C   UNL A   1      42.134  23.357  27.575  1.00  0.00    -0.014 A 
BRANCH  35  36
ATOM     36  C   UNL A   1      42.544  24.675  28.118  1.00  0.00     0.031 A 
ATOM     37  C   UNL A   1      41.520  25.755  28.329  1.00  0.00     0.074 A 
ATOM     38  C   UNL A   1      43.846  24.918  28.359  1.00  0.00     0.049 A 
ATOM     39  N   UNL A   1      41.692  26.984  28.744  1.00  0.00    -0.248 NA
ATOM     40  C   UNL A   1      40.124  25.418  28.006  1.00  0.00     0.031 C 
ATOM     41  C   UNL A   1      44.940  23.967  28.153  1.00  0.00     0.029 A 
ATOM     42  N   UNL A   1      44.470  26.048  28.824  1.00  0.00    -0.354 N 
ATOM     43  C   UNL A   1      40.433  27.570  28.714  1.00  0.00     0.074 A 
ATOM     44  C   UNL A   1      39.516  26.580  28.194  1.00  0.00     0.031 C 
ATOM     45  C   UNL A   1      46.096  24.545  28.516  1.00  0.00     0.029 A 
ATOM     46  C   UNL A   1      45.831  25.914  28.941  1.00  0.00     0.049 A 
ATOM     47  H   UNL A   1      43.987  26.875  29.052  1.00  0.00     0.167 HD
ATOM     48  C   UNL A   1      40.069  28.815  29.102  1.00  0.00     0.031 A 
ATOM     49  C   UNL A   1      46.763  26.798  29.342  1.00  0.00     0.031 A 
ATOM     50  C   UNL A   1      40.979  29.796  29.629  1.00  0.00     0.049 A 
ATOM     51  C   UNL A   1      46.335  28.176  29.764  1.00  0.00     0.074 A 
ATOM     52  C   UNL A   1      40.699  31.063  30.110  1.00  0.00     0.029 A 
ATOM     53  N   UNL A   1      42.350  29.618  29.743  1.00  0.00    -0.354 N 
ATOM     54  N   UNL A   1      45.131  28.692  29.798  1.00  0.00    -0.248 NA
ATOM     55  C   UNL A   1      47.396  29.089  30.213  1.00  0.00     0.031 C 
ATOM     56  C   UNL A   1      41.907  31.672  30.465  1.00  0.00     0.029 A 
ATOM     57  C   UNL A   1      42.932  30.762  30.260  1.00  0.00     0.049 A 
ATOM     58  H   UNL A   1      42.835  28.800  29.493  1.00  0.00     0.167 HD
ATOM     59  C   UNL A   1      45.284  29.979  30.297  1.00  0.00     0.074 A 
ATOM     60  C   UNL A   1      46.697  30.159  30.565  1.00  0.00     0.031 C 
ATOM     61  C   UNL A   1      44.340  30.927  30.516  1.00  0.00     0.031 A 
BRANCH  48  62
ATOM     62  C   UNL A   1      38.618  29.188  28.956  1.00  0.00    -0.014 A 
ATOM     63  C   UNL A   1      37.719  29.053  30.025  1.00  0.00     0.009 A 
ATOM     64  C   UNL A   1      38.150  29.705  27.738  1.00  0.00     0.009 A 
ATOM     65  C   UNL A   1      36.372  29.388  29.865  1.00  0.00     0.001 A 
ATOM     66  C   UNL A   1      36.811  30.069  27.590  1.00  0.00     0.001 A 
ATOM     67  C   UNL A   1      35.921  29.900  28.650  1.00  0.00     0.000 A 
ENDBRANCH  48  62
BRANCH  49  68
ATOM     68  C   UNL A   1      48.194  26.400  29.383  1.00  0.00    -0.014 A 
ATOM     69  C   UNL A   1      48.734  25.802  30.532  1.00  0.00     0.009 A 
ATOM     70  C   UNL A   1      49.026  26.609  28.272  1.00  0.00     0.009 A 
ATOM     71  C   UNL A   1      50.082  25.443  30.576  1.00  0.00     0.001 A 
ATOM     72  C   UNL A   1      50.368  26.224  28.308  1.00  0.00     0.001 A 
ATOM     73  C   UNL A   1      50.897  25.650  29.464  1.00  0.00     0.000 A 
ENDBRANCH  49  68
BRANCH  61  74
ATOM     74  C   UNL A   1      44.801  32.232  31.099  1.00  0.00    -0.014 A 
ATOM     75  C   UNL A   1      44.875  32.424  32.488  1.00  0.00     0.009 A 
ATOM     76  C   UNL A   1      45.207  33.269  30.245  1.00  0.00     0.009 A 
ATOM     77  C   UNL A   1      45.313  33.644  33.007  1.00  0.00     0.001 A 
ATOM     78  C   UNL A   1      45.672  34.476  30.767  1.00  0.00     0.001 A 
ATOM     79  C   UNL A   1      45.716  34.665  32.148  1.00  0.00     0.000 A 
ENDBRANCH  61  74
ENDBRANCH  35  36
ENDBRANCH  27  30
ENDBRANCH  25  26
ENDBRANCH  24  25
ENDBRANCH  23  24
ENDBRANCH  22  23
ENDBRANCH   1  22
TORSDOF 17
ENDMDL
MODEL 2
REMARK VINA RESULT:     -10.1      5.681     10.859
REMARK SMILES C[C@@H](CC(=O)NCCCCCCNC(=O)c1ccc(-c2c3nc(c(-c4ccccc4)c4ccc([nH]4)c(-c4ccccc4)c4nc(c(-c5ccccc5)c5ccc2[nH]5)C=C4)C=C3)cc1)NC(=O)/C=C/c1cccnc1
REMARK SMILES IDX 8 1 7 2 6 3 4 4 5 5 3 7 2 8 1 9 64 10 65 11 66 13 67 14
REMARK SMILES IDX 68 15 69 16 70 17 74 18 71 19 73 20 72 21 9 22 10 23 11 24
REMARK SMILES IDX 12 25 13 26 14 27 15 29 16 30 17 31 63 32 18 33 62 34 19 35
REMARK SMILES IDX 20 36 21 37 56 38 22 39 61 40 55 41 57 42 23 43 60 44 54 45
REMARK SMILES IDX 53 46 24 48 46 49 31 50 45 51 32 52 35 53 44 54 58 55 33 56
REMARK SMILES IDX 34 57 43 59 59 60 36 61 25 62 26 63 30 64 27 65 29 66 28 67
REMARK SMILES IDX 47 68 48 69 52 70 49 71 51 72 50 73 37 74 38 75 42 76 39 77
REMARK SMILES IDX 41 78 40 79
REMARK H PARENT 6 6 64 12 13 28 57 47 35 58
REMARK Flexibility Score: inf
ROOT
ATOM      1  C   UNL A   1      34.848  31.303  28.601  1.00  0.00     0.021 C 
ENDROOT
BRANCH   1   2
ATOM      2  C   UNL A   1      34.766  30.167  27.578  1.00  0.00     0.116 C 
BRANCH   2   3
ATOM      3  N   UNL A   1      33.611  29.342  27.867  1.00  0.00    -0.356 N 
ATOM      4  C   UNL A   1      33.059  28.338  27.134  1.00  0.00     0.222 C 
ATOM      5  O   UNL A   1      31.913  27.979  27.407  1.00  0.00    -0.275 OA
ATOM      6  H   UNL A   1      33.161  29.536  28.720  1.00  0.00     0.163 HD
BRANCH   4   7
ATOM      7  C   UNL A   1      33.858  27.644  26.054  1.00  0.00     0.124 C 
BRANCH   7   8
ATOM      8  C   UNL A   1      33.232  26.409  25.393  1.00  0.00     0.088 C 
ATOM      9  C   UNL A   1      33.739  25.084  25.956  1.00  0.00     0.031 C 
BRANCH   8  10
ATOM     10  N   UNL A   1      33.348  26.379  23.939  1.00  0.00    -0.350 N 
ATOM     11  C   UNL A   1      32.603  26.983  22.971  1.00  0.00     0.244 C 
ATOM     12  H   UNL A   1      34.090  25.829  23.600  1.00  0.00     0.164 HD
ATOM     13  O   UNL A   1      32.805  26.696  21.791  1.00  0.00    -0.270 OA
BRANCH  11  14
ATOM     14  C   UNL A   1      31.616  28.058  23.276  1.00  0.00     0.072 C 
ATOM     15  C   UNL A   1      30.359  28.152  22.825  1.00  0.00     0.015 C 
BRANCH  15  16
ATOM     16  C   UNL A   1      29.394  29.181  23.192  1.00  0.00    -0.007 A 
ATOM     17  C   UNL A   1      29.792  30.424  23.675  1.00  0.00     0.011 A 
ATOM     18  C   UNL A   1      28.043  28.991  22.911  1.00  0.00     0.119 A 
ATOM     19  C   UNL A   1      28.838  31.426  23.833  1.00  0.00     0.021 A 
ATOM     20  N   UNL A   1      27.094  29.943  23.061  1.00  0.00    -0.264 NA
ATOM     21  C   UNL A   1      27.518  31.142  23.512  1.00  0.00     0.111 A 
ENDBRANCH  15  16
ENDBRANCH  11  14
ENDBRANCH   8  10
ENDBRANCH   7   8
ENDBRANCH   4   7
ENDBRANCH   2   3
ENDBRANCH   1   2
BRANCH   1  22
ATOM     22  C   UNL A   1      34.447  32.666  28.037  1.00  0.00     0.002 C 
BRANCH  22  23
ATOM     23  C   UNL A   1      34.451  33.799  29.064  1.00  0.00     0.002 C 
BRANCH  23  24
ATOM     24  C   UNL A   1      33.182  34.656  29.080  1.00  0.00     0.021 C 
BRANCH  24  25
ATOM     25  C   UNL A   1      33.372  36.055  29.660  1.00  0.00     0.116 C 
BRANCH  25  26
ATOM     26  N   UNL A   1      32.529  36.273  30.824  1.00  0.00    -0.352 N 
ATOM     27  C   UNL A   1      32.619  35.723  32.076  1.00  0.00     0.251 C 
ATOM     28  H   UNL A   1      31.787  36.907  30.695  1.00  0.00     0.163 HD
ATOM     29  O   UNL A   1      31.692  35.829  32.870  1.00  0.00    -0.269 OA
BRANCH  27  30
ATOM     30  C   UNL A   1      33.842  34.992  32.462  1.00  0.00     0.039 A 
ATOM     31  C   UNL A   1      33.732  33.673  32.906  1.00  0.00     0.014 A 
ATOM     32  C   UNL A   1      35.092  35.616  32.398  1.00  0.00     0.014 A 
ATOM     33  C   UNL A   1      34.884  32.961  33.241  1.00  0.00     0.010 A 
ATOM     34  C   UNL A   1      36.243  34.884  32.663  1.00  0.00     0.010 A 
ATOM     35  C   UNL A   1      36.150  33.554  33.096  1.00  0.00    -0.014 A 
BRANCH  35  36
ATOM     36  C   UNL A   1      37.388  32.797  33.402  1.00  0.00     0.031 A 
ATOM     37  C   UNL A   1      38.135  33.056  34.680  1.00  0.00     0.074 A 
ATOM     38  C   UNL A   1      37.873  31.923  32.499  1.00  0.00     0.049 A 
ATOM     39  N   UNL A   1      39.258  32.534  35.099  1.00  0.00    -0.248 NA
ATOM     40  C   UNL A   1      37.556  34.054  35.595  1.00  0.00     0.031 C 
ATOM     41  C   UNL A   1      37.264  31.615  31.203  1.00  0.00     0.029 A 
ATOM     42  N   UNL A   1      38.997  31.138  32.534  1.00  0.00    -0.354 N 
ATOM     43  C   UNL A   1      39.530  33.151  36.314  1.00  0.00     0.074 A 
ATOM     44  C   UNL A   1      38.481  34.121  36.541  1.00  0.00     0.031 C 
ATOM     45  C   UNL A   1      38.008  30.688  30.580  1.00  0.00     0.029 A 
ATOM     46  C   UNL A   1      39.162  30.365  31.411  1.00  0.00     0.049 A 
ATOM     47  H   UNL A   1      39.625  31.129  33.292  1.00  0.00     0.167 HD
ATOM     48  C   UNL A   1      40.551  32.919  37.173  1.00  0.00     0.031 A 
ATOM     49  C   UNL A   1      40.137  29.497  31.085  1.00  0.00     0.031 A 
ATOM     50  C   UNL A   1      41.587  31.946  36.952  1.00  0.00     0.049 A 
ATOM     51  C   UNL A   1      41.262  29.259  32.052  1.00  0.00     0.074 A 
ATOM     52  C   UNL A   1      42.629  31.590  37.790  1.00  0.00     0.029 A 
ATOM     53  N   UNL A   1      41.713  31.175  35.806  1.00  0.00    -0.354 N 
ATOM     54  N   UNL A   1      41.467  29.798  33.230  1.00  0.00    -0.248 NA
ATOM     55  C   UNL A   1      42.285  28.283  31.650  1.00  0.00     0.031 C 
ATOM     56  C   UNL A   1      43.416  30.641  37.129  1.00  0.00     0.029 A 
ATOM     57  C   UNL A   1      42.830  30.365  35.905  1.00  0.00     0.049 A 
ATOM     58  H   UNL A   1      41.098  31.201  35.038  1.00  0.00     0.167 HD
ATOM     59  C   UNL A   1      42.624  29.209  33.720  1.00  0.00     0.074 A 
ATOM     60  C   UNL A   1      43.069  28.260  32.719  1.00  0.00     0.031 C 
ATOM     61  C   UNL A   1      43.262  29.430  34.896  1.00  0.00     0.031 A 
BRANCH  48  62
ATOM     62  C   UNL A   1      40.598  33.745  38.430  1.00  0.00    -0.014 A 
ATOM     63  C   UNL A   1      41.321  34.947  38.484  1.00  0.00     0.009 A 
ATOM     64  C   UNL A   1      39.890  33.328  39.567  1.00  0.00     0.009 A 
ATOM     65  C   UNL A   1      41.368  35.693  39.665  1.00  0.00     0.001 A 
ATOM     66  C   UNL A   1      39.913  34.090  40.736  1.00  0.00     0.001 A 
ATOM     67  C   UNL A   1      40.660  35.265  40.787  1.00  0.00     0.000 A 
ENDBRANCH  48  62
BRANCH  49  68
ATOM     68  C   UNL A   1      40.082  28.773  29.789  1.00  0.00    -0.014 A 
ATOM     69  C   UNL A   1      40.669  29.324  28.639  1.00  0.00     0.009 A 
ATOM     70  C   UNL A   1      39.446  27.525  29.694  1.00  0.00     0.009 A 
ATOM     71  C   UNL A   1      40.602  28.651  27.418  1.00  0.00     0.001 A 
ATOM     72  C   UNL A   1      39.404  26.841  28.477  1.00  0.00     0.001 A 
ATOM     73  C   UNL A   1      39.974  27.409  27.338  1.00  0.00     0.000 A 
ENDBRANCH  49  68
BRANCH  61  74
ATOM     74  C   UNL A   1      44.491  28.613  35.174  1.00  0.00    -0.014 A 
ATOM     75  C   UNL A   1      44.407  27.360  35.800  1.00  0.00     0.009 A 
ATOM     76  C   UNL A   1      45.747  29.088  34.765  1.00  0.00     0.009 A 
ATOM     77  C   UNL A   1      45.563  26.614  36.042  1.00  0.00     0.001 A 
ATOM     78  C   UNL A   1      46.896  28.327  34.982  1.00  0.00     0.001 A 
ATOM     79  C   UNL A   1      46.804  27.096  35.629  1.00  0.00     0.000 A 
ENDBRANCH  61  74
ENDBRANCH  35  36
ENDBRANCH  27  30
ENDBRANCH  25  26
ENDBRANCH  24  25
ENDBRANCH  23  24
ENDBRANCH  22  23
ENDBRANCH   1  22
TORSDOF 17
ENDMDL
MODEL 3
REMARK VINA RESULT:     -10.1      2.489      7.447
REMARK SMILES C[C@@H](CC(=O)NCCCCCCNC(=O)c1ccc(-c2c3nc(c(-c4ccccc4)c4ccc([nH]4)c(-c4ccccc4)c4nc(c(-c5ccccc5)c5ccc2[nH]5)C=C4)C=C3)cc1)NC(=O)/C=C/c1cccnc1
REMARK SMILES IDX 8 1 7 2 6 3 4 4 5 5 3 7 2 8 1 9 64 10 65 11 66 13 67 14
REMARK SMILES IDX 68 15 69 16 70 17 74 18 71 19 73 20 72 21 9 22 10 23 11 24
REMARK SMILES IDX 12 25 13 26 14 27 15 29 16 30 17 31 63 32 18 33 62 34 19 35
REMARK SMILES IDX 20 36 21 37 56 38 22 39 61 40 55 41 57 42 23 43 60 44 54 45
REMARK SMILES IDX 53 46 24 48 46 49 31 50 45 51 32 52 35 53 44 54 58 55 33 56
REMARK SMILES IDX 34 57 43 59 59 60 36 61 25 62 26 63 30 64 27 65 29 66 28 67
REMARK SMILES IDX 47 68 48 69 52 70 49 71 51 72 50 73 37 74 38 75 42 76 39 77
REMARK SMILES IDX 41 78 40 79
REMARK H PARENT 6 6 64 12 13 28 57 47 35 58
REMARK Flexibility Score: inf
ROOT
ATOM      1  C   UNL A   1      32.626  29.050  24.028  1.00  0.00     0.021 C 
ENDROOT
BRANCH   1   2
ATOM      2  C   UNL A   1      32.026  28.647  22.679  1.00  0.00     0.116 C 
BRANCH   2   3
ATOM      3  N   UNL A   1      32.909  27.706  22.022  1.00  0.00    -0.356 N 
ATOM      4  C   UNL A   1      32.779  26.361  21.864  1.00  0.00     0.222 C 
ATOM      5  O   UNL A   1      33.777  25.711  21.554  1.00  0.00    -0.275 OA
ATOM      6  H   UNL A   1      33.723  28.097  21.632  1.00  0.00     0.163 HD
BRANCH   4   7
ATOM      7  C   UNL A   1      31.428  25.696  22.007  1.00  0.00     0.124 C 
BRANCH   7   8
ATOM      8  C   UNL A   1      31.233  24.733  23.185  1.00  0.00     0.088 C 
ATOM      9  C   UNL A   1      32.186  24.985  24.351  1.00  0.00     0.031 C 
BRANCH   8  10
ATOM     10  N   UNL A   1      31.289  23.321  22.826  1.00  0.00    -0.350 N 
ATOM     11  C   UNL A   1      32.339  22.453  22.776  1.00  0.00     0.244 C 
ATOM     12  H   UNL A   1      30.422  22.928  22.579  1.00  0.00     0.164 HD
ATOM     13  O   UNL A   1      32.166  21.329  22.304  1.00  0.00    -0.270 OA
BRANCH  11  14
ATOM     14  C   UNL A   1      33.670  22.775  23.364  1.00  0.00     0.072 C 
ATOM     15  C   UNL A   1      34.434  21.976  24.119  1.00  0.00     0.015 C 
BRANCH  15  16
ATOM     16  C   UNL A   1      35.763  22.295  24.626  1.00  0.00    -0.007 A 
ATOM     17  C   UNL A   1      36.073  23.553  25.134  1.00  0.00     0.011 A 
ATOM     18  C   UNL A   1      36.711  21.284  24.761  1.00  0.00     0.119 A 
ATOM     19  C   UNL A   1      37.297  23.743  25.771  1.00  0.00     0.021 A 
ATOM     20  N   UNL A   1      37.909  21.440  25.368  1.00  0.00    -0.264 NA
ATOM     21  C   UNL A   1      38.169  22.667  25.867  1.00  0.00     0.111 A 
ENDBRANCH  15  16
ENDBRANCH  11  14
ENDBRANCH   8  10
ENDBRANCH   7   8
ENDBRANCH   4   7
ENDBRANCH   2   3
ENDBRANCH   1   2
BRANCH   1  22
ATOM     22  C   UNL A   1      31.596  29.139  25.155  1.00  0.00     0.002 C 
BRANCH  22  23
ATOM     23  C   UNL A   1      31.578  27.929  26.089  1.00  0.00     0.002 C 
BRANCH  23  24
ATOM     24  C   UNL A   1      32.213  28.168  27.461  1.00  0.00     0.021 C 
BRANCH  24  25
ATOM     25  C   UNL A   1      33.621  28.757  27.412  1.00  0.00     0.116 C 
BRANCH  25  26
ATOM     26  N   UNL A   1      33.623  30.174  27.736  1.00  0.00    -0.352 N 
ATOM     27  C   UNL A   1      34.584  30.918  28.370  1.00  0.00     0.251 C 
ATOM     28  H   UNL A   1      32.820  30.671  27.460  1.00  0.00     0.163 HD
ATOM     29  O   UNL A   1      34.330  32.045  28.778  1.00  0.00    -0.269 OA
BRANCH  27  30
ATOM     30  C   UNL A   1      35.932  30.347  28.568  1.00  0.00     0.039 A 
ATOM     31  C   UNL A   1      36.852  30.407  27.521  1.00  0.00     0.014 A 
ATOM     32  C   UNL A   1      36.274  29.742  29.781  1.00  0.00     0.014 A 
ATOM     33  C   UNL A   1      38.139  29.901  27.707  1.00  0.00     0.010 A 
ATOM     34  C   UNL A   1      37.577  29.304  29.989  1.00  0.00     0.010 A 
ATOM     35  C   UNL A   1      38.519  29.370  28.952  1.00  0.00    -0.014 A 
BRANCH  35  36
ATOM     36  C   UNL A   1      39.896  28.871  29.183  1.00  0.00     0.031 A 
ATOM     37  C   UNL A   1      40.932  29.771  29.796  1.00  0.00     0.074 A 
ATOM     38  C   UNL A   1      40.228  27.629  28.782  1.00  0.00     0.049 A 
ATOM     39  N   UNL A   1      42.197  29.533  30.028  1.00  0.00    -0.248 NA
ATOM     40  C   UNL A   1      40.494  31.125  30.171  1.00  0.00     0.031 C 
ATOM     41  C   UNL A   1      39.325  26.675  28.136  1.00  0.00     0.029 A 
ATOM     42  N   UNL A   1      41.423  26.960  28.854  1.00  0.00    -0.354 N 
ATOM     43  C   UNL A   1      42.710  30.711  30.559  1.00  0.00     0.074 A 
ATOM     44  C   UNL A   1      41.633  31.676  30.567  1.00  0.00     0.031 C 
ATOM     45  C   UNL A   1      39.991  25.535  27.895  1.00  0.00     0.029 A 
ATOM     46  C   UNL A   1      41.374  25.690  28.333  1.00  0.00     0.049 A 
ATOM     47  H   UNL A   1      42.239  27.352  29.242  1.00  0.00     0.167 HD
ATOM     48  C   UNL A   1      43.960  30.960  31.015  1.00  0.00     0.031 A 
ATOM     49  C   UNL A   1      42.336  24.757  28.217  1.00  0.00     0.031 A 
ATOM     50  C   UNL A   1      45.027  29.996  31.016  1.00  0.00     0.049 A 
ATOM     51  C   UNL A   1      43.717  25.059  28.727  1.00  0.00     0.074 A 
ATOM     52  C   UNL A   1      46.311  30.131  31.514  1.00  0.00     0.029 A 
ATOM     53  N   UNL A   1      44.934  28.717  30.489  1.00  0.00    -0.354 N 
ATOM     54  N   UNL A   1      44.169  26.153  29.291  1.00  0.00    -0.248 NA
ATOM     55  C   UNL A   1      44.720  23.993  28.592  1.00  0.00     0.031 C 
ATOM     56  C   UNL A   1      47.011  28.951  31.241  1.00  0.00     0.029 A 
ATOM     57  C   UNL A   1      46.146  28.062  30.626  1.00  0.00     0.049 A 
ATOM     58  H   UNL A   1      44.126  28.332  30.080  1.00  0.00     0.167 HD
ATOM     59  C   UNL A   1      45.497  25.898  29.604  1.00  0.00     0.074 A 
ATOM     60  C   UNL A   1      45.775  24.540  29.179  1.00  0.00     0.031 C 
ATOM     61  C   UNL A   1      46.406  26.713  30.193  1.00  0.00     0.031 A 
BRANCH  48  62
ATOM     62  C   UNL A   1      44.240  32.342  31.541  1.00  0.00    -0.014 A 
ATOM     63  C   UNL A   1      43.956  32.687  32.871  1.00  0.00     0.009 A 
ATOM     64  C   UNL A   1      44.820  33.304  30.700  1.00  0.00     0.009 A 
ATOM     65  C   UNL A   1      44.208  33.981  33.337  1.00  0.00     0.001 A 
ATOM     66  C   UNL A   1      45.099  34.586  31.176  1.00  0.00     0.001 A 
ATOM     67  C   UNL A   1      44.783  34.926  32.490  1.00  0.00     0.000 A 
ENDBRANCH  48  62
BRANCH  49  68
ATOM     68  C   UNL A   1      42.021  23.439  27.608  1.00  0.00    -0.014 A 
ATOM     69  C   UNL A   1      42.305  23.192  26.256  1.00  0.00     0.009 A 
ATOM     70  C   UNL A   1      41.439  22.418  28.376  1.00  0.00     0.009 A 
ATOM     71  C   UNL A   1      41.992  21.960  25.681  1.00  0.00     0.001 A 
ATOM     72  C   UNL A   1      41.152  21.177  27.806  1.00  0.00     0.001 A 
ATOM     73  C   UNL A   1      41.421  20.951  26.456  1.00  0.00     0.000 A 
ENDBRANCH  49  68
BRANCH  61  74
ATOM     74  C   UNL A   1      47.776  26.148  30.437  1.00  0.00    -0.014 A 
ATOM     75  C   UNL A   1      48.737  26.095  29.415  1.00  0.00     0.009 A 
ATOM     76  C   UNL A   1      48.124  25.701  31.722  1.00  0.00     0.009 A 
ATOM     77  C   UNL A   1      50.007  25.572  29.668  1.00  0.00     0.001 A 
ATOM     78  C   UNL A   1      49.403  25.207  31.978  1.00  0.00     0.001 A 
ATOM     79  C   UNL A   1      50.340  25.135  30.948  1.00  0.00     0.000 A 
ENDBRANCH  61  74
ENDBRANCH  35  36
ENDBRANCH  27  30
ENDBRANCH  25  26
ENDBRANCH  24  25
ENDBRANCH  23  24
ENDBRANCH  22  23
ENDBRANCH   1  22
TORSDOF 17
ENDMDL
