MODEL 1
REMARK VINA RESULT:     -10.1      0.000      0.000
REMARK SMILES CCc1ncc(S(=O)(=O)NCc2ccc(C(=O)NCCCCCCNC(=O)c3ccc(-c4c5nc(c(-c6ccccc6)c6ccc([nH]6)c(-c6ccccc6)c6nc(c(-c7ccccc7)c7ccc4[nH]7)C=C6)C=C5)cc3)o2)[nH]1
REMARK SMILES IDX 20 1 19 2 18 3 16 4 17 5 15 7 12 8 13 9 76 10 14 11 11 12
REMARK SMILES IDX 10 13 7 15 8 16 9 17 6 18 3 19 4 20 77 21 5 22 2 24 1 25
REMARK SMILES IDX 21 26 22 27 23 28 24 29 25 30 26 31 27 33 28 34 29 35 75 36
REMARK SMILES IDX 30 37 74 38 31 39 32 40 33 41 68 42 34 43 73 44 67 45 69 46
REMARK SMILES IDX 35 47 72 48 66 49 65 50 36 52 58 53 43 54 57 55 44 56 47 57
REMARK SMILES IDX 56 58 70 59 45 60 46 61 55 63 71 64 48 65 37 66 38 67 42 68
REMARK SMILES IDX 39 69 41 70 40 71 59 72 60 73 64 74 61 75 63 76 62 77 49 78
REMARK SMILES IDX 50 79 54 80 51 81 53 82 52 83
REMARK H PARENT 18 6 10 14 77 23 25 32 69 51 47 62
REMARK Flexibility Score: inf
ROOT
ATOM      1  C   UNL A   1      33.631  22.602  27.467  1.00  0.00     0.021 C 
ENDROOT
BRANCH   1   2
ATOM      2  C   UNL A   1      34.360  21.415  26.839  1.00  0.00     0.116 C 
BRANCH   2   3
ATOM      3  N   UNL A   1      33.451  20.334  26.530  1.00  0.00    -0.349 N 
ATOM      4  C   UNL A   1      32.664  20.097  25.428  1.00  0.00     0.286 C 
ATOM      5  O   UNL A   1      32.153  18.975  25.377  1.00  0.00    -0.266 OA
ATOM      6  H   UNL A   1      33.384  19.647  27.233  1.00  0.00     0.163 HD
BRANCH   4   7
ATOM      7  C   UNL A   1      32.465  21.102  24.400  1.00  0.00     0.191 A 
ATOM      8  C   UNL A   1      31.551  22.984  23.673  1.00  0.00     0.119 A 
ATOM      9  C   UNL A   1      32.455  22.603  22.709  1.00  0.00     0.048 A 
ATOM     10  O   UNL A   1      31.493  22.041  24.651  1.00  0.00    -0.455 OA
ATOM     11  C   UNL A   1      33.067  21.420  23.193  1.00  0.00     0.056 A 
BRANCH   8  12
ATOM     12  C   UNL A   1      30.704  24.186  23.839  1.00  0.00     0.174 C 
BRANCH  12  13
ATOM     13  N   UNL A   1      31.009  25.241  22.861  1.00  0.00    -0.202 NA
ATOM     14  H   UNL A   1      31.999  25.148  22.630  1.00  0.00     0.141 HD
BRANCH  13  15
ATOM     15  S   UNL A   1      30.756  26.854  23.244  1.00  0.00     0.258 S 
ATOM     16  O   UNL A   1      29.742  26.978  24.263  1.00  0.00    -0.205 OA
ATOM     17  O   UNL A   1      30.636  27.573  21.995  1.00  0.00    -0.205 OA
BRANCH  15  18
ATOM     18  C   UNL A   1      32.157  27.562  24.003  1.00  0.00     0.167 A 
ATOM     19  C   UNL A   1      33.354  28.324  25.723  1.00  0.00     0.106 A 
ATOM     20  N   UNL A   1      34.134  28.456  24.669  1.00  0.00    -0.240 NA
ATOM     21  N   UNL A   1      32.153  27.778  25.361  1.00  0.00    -0.332 N 
ATOM     22  C   UNL A   1      33.391  28.016  23.601  1.00  0.00     0.153 A 
ATOM     23  H   UNL A   1      31.409  27.573  25.973  1.00  0.00     0.169 HD
BRANCH  19  24
ATOM     24  C   UNL A   1      33.658  28.685  27.138  1.00  0.00     0.072 C 
ATOM     25  C   UNL A   1      34.160  30.112  27.272  1.00  0.00     0.012 C 
ENDBRANCH  19  24
ENDBRANCH  15  18
ENDBRANCH  13  15
ENDBRANCH  12  13
ENDBRANCH   8  12
ENDBRANCH   4   7
ENDBRANCH   2   3
ENDBRANCH   1   2
BRANCH   1  26
ATOM     26  C   UNL A   1      33.642  23.870  26.599  1.00  0.00     0.002 C 
BRANCH  26  27
ATOM     27  C   UNL A   1      34.658  23.875  25.449  1.00  0.00     0.002 C 
BRANCH  27  28
ATOM     28  C   UNL A   1      36.108  24.155  25.856  1.00  0.00     0.021 C 
BRANCH  28  29
ATOM     29  C   UNL A   1      37.151  23.698  24.842  1.00  0.00     0.116 C 
BRANCH  29  30
ATOM     30  N   UNL A   1      37.968  22.610  25.353  1.00  0.00    -0.352 N 
ATOM     31  C   UNL A   1      39.102  22.665  26.126  1.00  0.00     0.251 C 
ATOM     32  H   UNL A   1      37.666  21.706  25.112  1.00  0.00     0.163 HD
ATOM     33  O   UNL A   1      39.777  21.657  26.307  1.00  0.00    -0.269 OA
BRANCH  31  34
ATOM     34  C   UNL A   1      39.519  23.947  26.733  1.00  0.00     0.039 A 
ATOM     35  C   UNL A   1      40.262  24.848  25.966  1.00  0.00     0.014 A 
ATOM     36  C   UNL A   1      39.202  24.248  28.061  1.00  0.00     0.014 A 
ATOM     37  C   UNL A   1      40.648  26.073  26.514  1.00  0.00     0.010 A 
ATOM     38  C   UNL A   1      39.536  25.492  28.587  1.00  0.00     0.010 A 
ATOM     39  C   UNL A   1      40.269  26.413  27.822  1.00  0.00    -0.014 A 
BRANCH  39  40
ATOM     40  C   UNL A   1      40.646  27.717  28.421  1.00  0.00     0.031 A 
ATOM     41  C   UNL A   1      42.046  27.934  28.924  1.00  0.00     0.074 A 
ATOM     42  C   UNL A   1      39.717  28.678  28.575  1.00  0.00     0.049 A 
ATOM     43  N   UNL A   1      42.546  28.967  29.555  1.00  0.00    -0.248 NA
ATOM     44  C   UNL A   1      43.004  26.837  28.712  1.00  0.00     0.031 C 
ATOM     45  C   UNL A   1      38.318  28.581  28.156  1.00  0.00     0.029 A 
ATOM     46  N   UNL A   1      39.811  29.926  29.138  1.00  0.00    -0.354 N 
ATOM     47  C   UNL A   1      43.865  28.633  29.836  1.00  0.00     0.074 A 
ATOM     48  C   UNL A   1      44.077  27.290  29.344  1.00  0.00     0.031 C 
ATOM     49  C   UNL A   1      37.689  29.729  28.460  1.00  0.00     0.029 A 
ATOM     50  C   UNL A   1      38.629  30.626  29.125  1.00  0.00     0.049 A 
ATOM     51  H   UNL A   1      40.646  30.286  29.515  1.00  0.00     0.167 HD
ATOM     52  C   UNL A   1      44.820  29.383  30.436  1.00  0.00     0.031 A 
ATOM     53  C   UNL A   1      38.335  31.850  29.601  1.00  0.00     0.031 A 
ATOM     54  C   UNL A   1      44.618  30.725  30.910  1.00  0.00     0.049 A 
ATOM     55  C   UNL A   1      39.410  32.662  30.265  1.00  0.00     0.074 A 
ATOM     56  C   UNL A   1      45.538  31.586  31.483  1.00  0.00     0.029 A 
ATOM     57  N   UNL A   1      43.411  31.403  30.863  1.00  0.00    -0.354 N 
ATOM     58  N   UNL A   1      40.665  32.352  30.478  1.00  0.00    -0.248 NA
ATOM     59  C   UNL A   1      39.029  33.997  30.746  1.00  0.00     0.031 C 
ATOM     60  C   UNL A   1      44.876  32.773  31.818  1.00  0.00     0.029 A 
ATOM     61  C   UNL A   1      43.556  32.665  31.411  1.00  0.00     0.049 A 
ATOM     62  H   UNL A   1      42.573  31.040  30.494  1.00  0.00     0.167 HD
ATOM     63  C   UNL A   1      41.230  33.461  31.091  1.00  0.00     0.074 A 
ATOM     64  C   UNL A   1      40.184  34.456  31.207  1.00  0.00     0.031 C 
ATOM     65  C   UNL A   1      42.504  33.642  31.517  1.00  0.00     0.031 A 
BRANCH  52  66
ATOM     66  C   UNL A   1      46.172  28.754  30.622  1.00  0.00    -0.014 A 
ATOM     67  C   UNL A   1      46.458  27.964  31.748  1.00  0.00     0.009 A 
ATOM     68  C   UNL A   1      47.168  28.936  29.649  1.00  0.00     0.009 A 
ATOM     69  C   UNL A   1      47.727  27.403  31.914  1.00  0.00     0.001 A 
ATOM     70  C   UNL A   1      48.426  28.351  29.805  1.00  0.00     0.001 A 
ATOM     71  C   UNL A   1      48.707  27.594  30.942  1.00  0.00     0.000 A 
ENDBRANCH  52  66
BRANCH  53  72
ATOM     72  C   UNL A   1      36.961  32.393  29.449  1.00  0.00    -0.014 A 
ATOM     73  C   UNL A   1      36.010  32.210  30.465  1.00  0.00     0.009 A 
ATOM     74  C   UNL A   1      36.593  33.097  28.292  1.00  0.00     0.009 A 
ATOM     75  C   UNL A   1      34.712  32.703  30.316  1.00  0.00     0.001 A 
ATOM     76  C   UNL A   1      35.301  33.610  28.157  1.00  0.00     0.001 A 
ATOM     77  C   UNL A   1      34.360  33.405  29.164  1.00  0.00     0.000 A 
ENDBRANCH  53  72
BRANCH  65  78
ATOM     78  C   UNL A   1      42.844  34.977  32.116  1.00  0.00    -0.014 A 
ATOM     79  C   UNL A   1      43.481  35.972  31.358  1.00  0.00     0.009 A 
ATOM     80  C   UNL A   1      42.483  35.255  33.443  1.00  0.00     0.009 A 
ATOM     81  C   UNL A   1      43.775  37.211  31.931  1.00  0.00     0.001 A 
ATOM     82  C   UNL A   1      42.757  36.502  34.004  1.00  0.00     0.001 A 
ATOM     83  C   UNL A   1      43.410  37.476  33.250  1.00  0.00     0.000 A 
ENDBRANCH  65  78
ENDBRANCH  39  40
ENDBRANCH  31  34
ENDBRANCH  29  30
ENDBRANCH  28  29
ENDBRANCH  27  28
ENDBRANCH  26  27
ENDBRANCH   1  26
TORSDOF 18
ENDMDL
MODEL 2
REMARK VINA RESULT:      -9.9      2.714      4.115
REMARK SMILES CCc1ncc(S(=O)(=O)NCc2ccc(C(=O)NCCCCCCNC(=O)c3ccc(-c4c5nc(c(-c6ccccc6)c6ccc([nH]6)c(-c6ccccc6)c6nc(c(-c7ccccc7)c7ccc4[nH]7)C=C6)C=C5)cc3)o2)[nH]1
REMARK SMILES IDX 20 1 19 2 18 3 16 4 17 5 15 7 12 8 13 9 76 10 14 11 11 12
REMARK SMILES IDX 10 13 7 15 8 16 9 17 6 18 3 19 4 20 77 21 5 22 2 24 1 25
REMARK SMILES IDX 21 26 22 27 23 28 24 29 25 30 26 31 27 33 28 34 29 35 75 36
REMARK SMILES IDX 30 37 74 38 31 39 32 40 33 41 68 42 34 43 73 44 67 45 69 46
REMARK SMILES IDX 35 47 72 48 66 49 65 50 36 52 58 53 43 54 57 55 44 56 47 57
REMARK SMILES IDX 56 58 70 59 45 60 46 61 55 63 71 64 48 65 37 66 38 67 42 68
REMARK SMILES IDX 39 69 41 70 40 71 59 72 60 73 64 74 61 75 63 76 62 77 49 78
REMARK SMILES IDX 50 79 54 80 51 81 53 82 52 83
REMARK H PARENT 18 6 10 14 77 23 25 32 69 51 47 62
REMARK Flexibility Score: inf
ROOT
ATOM      1  C   UNL A   1      36.589  22.320  23.484  1.00  0.00     0.021 C 
ENDROOT
BRANCH   1   2
ATOM      2  C   UNL A   1      35.142  22.812  23.462  1.00  0.00     0.116 C 
BRANCH   2   3
ATOM      3  N   UNL A   1      34.778  23.452  24.705  1.00  0.00    -0.349 N 
ATOM      4  C   UNL A   1      34.048  24.588  24.962  1.00  0.00     0.286 C 
ATOM      5  O   UNL A   1      33.736  24.759  26.143  1.00  0.00    -0.266 OA
ATOM      6  H   UNL A   1      35.111  22.993  25.511  1.00  0.00     0.163 HD
BRANCH   4   7
ATOM      7  C   UNL A   1      33.670  25.508  23.905  1.00  0.00     0.191 A 
ATOM      8  C   UNL A   1      33.437  27.561  23.106  1.00  0.00     0.119 A 
ATOM      9  C   UNL A   1      33.176  26.712  22.055  1.00  0.00     0.048 A 
ATOM     10  O   UNL A   1      33.652  26.842  24.239  1.00  0.00    -0.455 OA
ATOM     11  C   UNL A   1      33.362  25.400  22.557  1.00  0.00     0.056 A 
BRANCH   8  12
ATOM     12  C   UNL A   1      33.551  29.033  23.205  1.00  0.00     0.174 C 
BRANCH  12  13
ATOM     13  N   UNL A   1      33.258  29.541  24.553  1.00  0.00    -0.202 NA
ATOM     14  H   UNL A   1      33.795  28.968  25.205  1.00  0.00     0.141 HD
BRANCH  13  15
ATOM     15  S   UNL A   1      31.682  29.569  25.127  1.00  0.00     0.258 S 
ATOM     16  O   UNL A   1      31.359  30.874  25.650  1.00  0.00    -0.205 OA
ATOM     17  O   UNL A   1      31.506  28.386  25.940  1.00  0.00    -0.205 OA
BRANCH  15  18
ATOM     18  C   UNL A   1      30.525  29.369  23.838  1.00  0.00     0.167 A 
ATOM     19  C   UNL A   1      29.240  30.060  22.152  1.00  0.00     0.106 A 
ATOM     20  N   UNL A   1      29.047  28.759  22.227  1.00  0.00    -0.240 NA
ATOM     21  N   UNL A   1      30.135  30.465  23.105  1.00  0.00    -0.332 N 
ATOM     22  C   UNL A   1      29.813  28.332  23.284  1.00  0.00     0.153 A 
ATOM     23  H   UNL A   1      30.449  31.388  23.242  1.00  0.00     0.169 HD
BRANCH  19  24
ATOM     24  C   UNL A   1      28.621  31.024  21.197  1.00  0.00     0.072 C 
ATOM     25  C   UNL A   1      28.077  32.258  21.897  1.00  0.00     0.012 C 
ENDBRANCH  19  24
ENDBRANCH  15  18
ENDBRANCH  13  15
ENDBRANCH  12  13
ENDBRANCH   8  12
ENDBRANCH   4   7
ENDBRANCH   2   3
ENDBRANCH   1   2
BRANCH   1  26
ATOM     26  C   UNL A   1      37.014  21.693  24.820  1.00  0.00     0.002 C 
BRANCH  26  27
ATOM     27  C   UNL A   1      36.809  20.177  24.933  1.00  0.00     0.002 C 
BRANCH  27  28
ATOM     28  C   UNL A   1      38.092  19.347  25.037  1.00  0.00     0.021 C 
BRANCH  28  29
ATOM     29  C   UNL A   1      39.224  20.021  25.804  1.00  0.00     0.116 C 
BRANCH  29  30
ATOM     30  N   UNL A   1      40.388  19.159  25.927  1.00  0.00    -0.352 N 
ATOM     31  C   UNL A   1      41.686  19.491  26.225  1.00  0.00     0.251 C 
ATOM     32  H   UNL A   1      40.222  18.201  25.774  1.00  0.00     0.163 HD
ATOM     33  O   UNL A   1      42.582  18.663  26.098  1.00  0.00    -0.269 OA
BRANCH  31  34
ATOM     34  C   UNL A   1      42.009  20.856  26.691  1.00  0.00     0.039 A 
ATOM     35  C   UNL A   1      42.363  21.826  25.749  1.00  0.00     0.014 A 
ATOM     36  C   UNL A   1      41.990  21.172  28.053  1.00  0.00     0.014 A 
ATOM     37  C   UNL A   1      42.652  23.127  26.168  1.00  0.00     0.010 A 
ATOM     38  C   UNL A   1      42.220  22.482  28.463  1.00  0.00     0.010 A 
ATOM     39  C   UNL A   1      42.561  23.470  27.526  1.00  0.00    -0.014 A 
BRANCH  39  40
ATOM     40  C   UNL A   1      42.840  24.850  27.994  1.00  0.00     0.031 A 
ATOM     41  C   UNL A   1      44.244  25.250  28.353  1.00  0.00     0.074 A 
ATOM     42  C   UNL A   1      41.826  25.719  28.162  1.00  0.00     0.049 A 
ATOM     43  N   UNL A   1      44.677  26.376  28.862  1.00  0.00    -0.248 NA
ATOM     44  C   UNL A   1      45.296  24.245  28.135  1.00  0.00     0.031 C 
ATOM     45  C   UNL A   1      40.417  25.444  27.878  1.00  0.00     0.029 A 
ATOM     46  N   UNL A   1      41.829  27.011  28.624  1.00  0.00    -0.354 N 
ATOM     47  C   UNL A   1      46.043  26.205  29.046  1.00  0.00     0.074 A 
ATOM     48  C   UNL A   1      46.361  24.855  28.633  1.00  0.00     0.031 C 
ATOM     49  C   UNL A   1      39.693  26.542  28.154  1.00  0.00     0.029 A 
ATOM     50  C   UNL A   1      40.580  27.581  28.667  1.00  0.00     0.049 A 
ATOM     51  H   UNL A   1      42.647  27.484  28.898  1.00  0.00     0.167 HD
ATOM     52  C   UNL A   1      46.957  27.095  29.503  1.00  0.00     0.031 A 
ATOM     53  C   UNL A   1      40.192  28.803  29.080  1.00  0.00     0.031 A 
ATOM     54  C   UNL A   1      46.647  28.443  29.896  1.00  0.00     0.049 A 
ATOM     55  C   UNL A   1      41.223  29.773  29.584  1.00  0.00     0.074 A 
ATOM     56  C   UNL A   1      47.511  29.437  30.321  1.00  0.00     0.029 A 
ATOM     57  N   UNL A   1      45.373  28.986  29.910  1.00  0.00    -0.354 N 
ATOM     58  N   UNL A   1      42.517  29.612  29.705  1.00  0.00    -0.248 NA
ATOM     59  C   UNL A   1      40.737  31.095  30.002  1.00  0.00     0.031 C 
ATOM     60  C   UNL A   1      46.751  30.572  30.629  1.00  0.00     0.029 A 
ATOM     61  C   UNL A   1      45.423  30.296  30.351  1.00  0.00     0.049 A 
ATOM     62  H   UNL A   1      44.553  28.510  29.644  1.00  0.00     0.167 HD
ATOM     63  C   UNL A   1      43.005  30.820  30.185  1.00  0.00     0.074 A 
ATOM     64  C   UNL A   1      41.869  31.707  30.323  1.00  0.00     0.031 C 
ATOM     65  C   UNL A   1      44.281  31.165  30.481  1.00  0.00     0.031 A 
BRANCH  52  66
ATOM     66  C   UNL A   1      48.380  26.626  29.611  1.00  0.00    -0.014 A 
ATOM     67  C   UNL A   1      48.849  25.987  30.771  1.00  0.00     0.009 A 
ATOM     68  C   UNL A   1      49.259  26.807  28.532  1.00  0.00     0.009 A 
ATOM     69  C   UNL A   1      50.181  25.575  30.861  1.00  0.00     0.001 A 
ATOM     70  C   UNL A   1      50.583  26.369  28.615  1.00  0.00     0.001 A 
ATOM     71  C   UNL A   1      51.044  25.764  29.783  1.00  0.00     0.000 A 
ENDBRANCH  52  66
BRANCH  53  72
ATOM     72  C   UNL A   1      38.760  29.187  29.013  1.00  0.00    -0.014 A 
ATOM     73  C   UNL A   1      37.930  29.024  30.133  1.00  0.00     0.009 A 
ATOM     74  C   UNL A   1      38.214  29.719  27.834  1.00  0.00     0.009 A 
ATOM     75  C   UNL A   1      36.577  29.367  30.067  1.00  0.00     0.001 A 
ATOM     76  C   UNL A   1      36.867  30.082  27.779  1.00  0.00     0.001 A 
ATOM     77  C   UNL A   1      36.049  29.899  28.892  1.00  0.00     0.000 A 
ENDBRANCH  53  72
BRANCH  65  78
ATOM     78  C   UNL A   1      44.521  32.572  30.950  1.00  0.00    -0.014 A 
ATOM     79  C   UNL A   1      44.514  32.893  32.316  1.00  0.00     0.009 A 
ATOM     80  C   UNL A   1      44.798  33.578  30.012  1.00  0.00     0.009 A 
ATOM     81  C   UNL A   1      44.753  34.205  32.730  1.00  0.00     0.001 A 
ATOM     82  C   UNL A   1      45.060  34.882  30.431  1.00  0.00     0.001 A 
ATOM     83  C   UNL A   1      45.030  35.196  31.788  1.00  0.00     0.000 A 
ENDBRANCH  65  78
ENDBRANCH  39  40
ENDBRANCH  31  34
ENDBRANCH  29  30
ENDBRANCH  28  29
ENDBRANCH  27  28
ENDBRANCH  26  27
ENDBRANCH   1  26
TORSDOF 18
ENDMDL
MODEL 3
REMARK VINA RESULT:      -9.9      2.512      3.648
REMARK SMILES CCc1ncc(S(=O)(=O)NCc2ccc(C(=O)NCCCCCCNC(=O)c3ccc(-c4c5nc(c(-c6ccccc6)c6ccc([nH]6)c(-c6ccccc6)c6nc(c(-c7ccccc7)c7ccc4[nH]7)C=C6)C=C5)cc3)o2)[nH]1
REMARK SMILES IDX 20 1 19 2 18 3 16 4 17 5 15 7 12 8 13 9 76 10 14 11 11 12
REMARK SMILES IDX 10 13 7 15 8 16 9 17 6 18 3 19 4 20 77 21 5 22 2 24 1 25
REMARK SMILES IDX 21 26 22 27 23 28 24 29 25 30 26 31 27 33 28 34 29 35 75 36
REMARK SMILES IDX 30 37 74 38 31 39 32 40 33 41 68 42 34 43 73 44 67 45 69 46
REMARK SMILES IDX 35 47 72 48 66 49 65 50 36 52 58 53 43 54 57 55 44 56 47 57
REMARK SMILES IDX 56 58 70 59 45 60 46 61 55 63 71 64 48 65 37 66 38 67 42 68
REMARK SMILES IDX 39 69 41 70 40 71 59 72 60 73 64 74 61 75 63 76 62 77 49 78
REMARK SMILES IDX 50 79 54 80 51 81 53 82 52 83
REMARK H PARENT 18 6 10 14 77 23 25 32 69 51 47 62
REMARK Flexibility Score: inf
ROOT
ATOM      1  C   UNL A   1      35.410  21.779  25.816  1.00  0.00     0.021 C 
ENDROOT
BRANCH   1   2
ATOM      2  C   UNL A   1      34.296  21.504  26.824  1.00  0.00     0.116 C 
BRANCH   2   3
ATOM      3  N   UNL A   1      33.468  20.393  26.414  1.00  0.00    -0.349 N 
ATOM      4  C   UNL A   1      32.530  20.280  25.415  1.00  0.00     0.286 C 
ATOM      5  O   UNL A   1      32.141  19.133  25.184  1.00  0.00    -0.266 OA
ATOM      6  H   UNL A   1      33.599  19.572  26.942  1.00  0.00     0.163 HD
BRANCH   4   7
ATOM      7  C   UNL A   1      32.047  21.439  24.686  1.00  0.00     0.191 A 
ATOM      8  C   UNL A   1      31.149  23.462  24.626  1.00  0.00     0.119 A 
ATOM      9  C   UNL A   1      31.522  23.174  23.334  1.00  0.00     0.048 A 
ATOM     10  O   UNL A   1      31.386  22.389  25.427  1.00  0.00    -0.455 OA
ATOM     11  C   UNL A   1      32.132  21.895  23.380  1.00  0.00     0.056 A 
BRANCH   8  12
ATOM     12  C   UNL A   1      30.598  24.677  25.266  1.00  0.00     0.174 C 
BRANCH  12  13
ATOM     13  N   UNL A   1      29.818  25.510  24.338  1.00  0.00    -0.202 NA
ATOM     14  H   UNL A   1      29.501  24.894  23.588  1.00  0.00     0.141 HD
BRANCH  13  15
ATOM     15  S   UNL A   1      30.517  26.843  23.601  1.00  0.00     0.258 S 
ATOM     16  O   UNL A   1      31.128  26.465  22.349  1.00  0.00    -0.205 OA
ATOM     17  O   UNL A   1      31.282  27.536  24.613  1.00  0.00    -0.205 OA
BRANCH  15  18
ATOM     18  C   UNL A   1      29.317  28.009  23.110  1.00  0.00     0.167 A 
ATOM     19  C   UNL A   1      28.595  29.863  22.104  1.00  0.00     0.106 A 
ATOM     20  N   UNL A   1      27.517  29.299  22.610  1.00  0.00    -0.240 NA
ATOM     21  N   UNL A   1      29.703  29.108  22.377  1.00  0.00    -0.332 N 
ATOM     22  C   UNL A   1      27.960  28.172  23.258  1.00  0.00     0.153 A 
ATOM     23  H   UNL A   1      30.623  29.316  22.096  1.00  0.00     0.169 HD
BRANCH  19  24
ATOM     24  C   UNL A   1      28.684  31.134  21.327  1.00  0.00     0.072 C 
ATOM     25  C   UNL A   1      28.503  32.359  22.207  1.00  0.00     0.012 C 
ENDBRANCH  19  24
ENDBRANCH  15  18
ENDBRANCH  13  15
ENDBRANCH  12  13
ENDBRANCH   8  12
ENDBRANCH   4   7
ENDBRANCH   2   3
ENDBRANCH   1   2
BRANCH   1  26
ATOM     26  C   UNL A   1      35.924  20.523  25.095  1.00  0.00     0.002 C 
BRANCH  26  27
ATOM     27  C   UNL A   1      37.361  20.608  24.564  1.00  0.00     0.002 C 
BRANCH  27  28
ATOM     28  C   UNL A   1      38.285  19.461  24.984  1.00  0.00     0.021 C 
BRANCH  28  29
ATOM     29  C   UNL A   1      39.281  19.817  26.082  1.00  0.00     0.116 C 
BRANCH  29  30
ATOM     30  N   UNL A   1      40.552  19.135  25.905  1.00  0.00    -0.352 N 
ATOM     31  C   UNL A   1      41.826  19.641  25.982  1.00  0.00     0.251 C 
ATOM     32  H   UNL A   1      40.492  18.175  25.702  1.00  0.00     0.163 HD
ATOM     33  O   UNL A   1      42.783  18.967  25.614  1.00  0.00    -0.269 OA
BRANCH  31  34
ATOM     34  C   UNL A   1      42.047  21.009  26.497  1.00  0.00     0.039 A 
ATOM     35  C   UNL A   1      41.999  21.227  27.877  1.00  0.00     0.014 A 
ATOM     36  C   UNL A   1      42.273  22.077  25.623  1.00  0.00     0.014 A 
ATOM     37  C   UNL A   1      42.225  22.508  28.385  1.00  0.00     0.010 A 
ATOM     38  C   UNL A   1      42.557  23.340  26.133  1.00  0.00     0.010 A 
ATOM     39  C   UNL A   1      42.528  23.570  27.518  1.00  0.00    -0.014 A 
BRANCH  39  40
ATOM     40  C   UNL A   1      42.795  24.935  28.034  1.00  0.00     0.031 A 
ATOM     41  C   UNL A   1      44.190  25.326  28.435  1.00  0.00     0.074 A 
ATOM     42  C   UNL A   1      41.776  25.798  28.207  1.00  0.00     0.049 A 
ATOM     43  N   UNL A   1      44.610  26.436  28.988  1.00  0.00    -0.248 NA
ATOM     44  C   UNL A   1      45.248  24.328  28.209  1.00  0.00     0.031 C 
ATOM     45  C   UNL A   1      40.374  25.531  27.885  1.00  0.00     0.029 A 
ATOM     46  N   UNL A   1      41.767  27.075  28.708  1.00  0.00    -0.354 N 
ATOM     47  C   UNL A   1      45.972  26.260  29.196  1.00  0.00     0.074 A 
ATOM     48  C   UNL A   1      46.300  24.924  28.749  1.00  0.00     0.031 C 
ATOM     49  C   UNL A   1      39.642  26.619  28.179  1.00  0.00     0.029 A 
ATOM     50  C   UNL A   1      40.516  27.643  28.742  1.00  0.00     0.049 A 
ATOM     51  H   UNL A   1      42.577  27.540  29.014  1.00  0.00     0.167 HD
ATOM     52  C   UNL A   1      46.874  27.136  29.700  1.00  0.00     0.031 A 
ATOM     53  C   UNL A   1      40.118  28.851  29.184  1.00  0.00     0.031 A 
ATOM     54  C   UNL A   1      46.554  28.471  30.127  1.00  0.00     0.049 A 
ATOM     55  C   UNL A   1      41.136  29.805  29.740  1.00  0.00     0.074 A 
ATOM     56  C   UNL A   1      47.407  29.453  30.602  1.00  0.00     0.029 A 
ATOM     57  N   UNL A   1      45.279  29.013  30.130  1.00  0.00    -0.354 N 
ATOM     58  N   UNL A   1      42.428  29.642  29.884  1.00  0.00    -0.248 NA
ATOM     59  C   UNL A   1      40.639  31.114  30.187  1.00  0.00     0.031 C 
ATOM     60  C   UNL A   1      46.639  30.577  30.928  1.00  0.00     0.029 A 
ATOM     61  C   UNL A   1      45.317  30.309  30.613  1.00  0.00     0.049 A 
ATOM     62  H   UNL A   1      44.465  28.545  29.832  1.00  0.00     0.167 HD
ATOM     63  C   UNL A   1      42.903  30.835  30.411  1.00  0.00     0.074 A 
ATOM     64  C   UNL A   1      41.763  31.716  30.552  1.00  0.00     0.031 C 
ATOM     65  C   UNL A   1      44.172  31.172  30.745  1.00  0.00     0.031 A 
BRANCH  52  66
ATOM     66  C   UNL A   1      48.295  26.666  29.823  1.00  0.00    -0.014 A 
ATOM     67  C   UNL A   1      48.719  25.917  30.934  1.00  0.00     0.009 A 
ATOM     68  C   UNL A   1      49.219  26.956  28.808  1.00  0.00     0.009 A 
ATOM     69  C   UNL A   1      50.049  25.504  31.042  1.00  0.00     0.001 A 
ATOM     70  C   UNL A   1      50.542  26.518  28.906  1.00  0.00     0.001 A 
ATOM     71  C   UNL A   1      50.957  25.802  30.028  1.00  0.00     0.000 A 
ENDBRANCH  52  66
BRANCH  53  72
ATOM     72  C   UNL A   1      38.686  29.236  29.098  1.00  0.00    -0.014 A 
ATOM     73  C   UNL A   1      37.843  29.078  30.208  1.00  0.00     0.009 A 
ATOM     74  C   UNL A   1      38.156  29.763  27.910  1.00  0.00     0.009 A 
ATOM     75  C   UNL A   1      36.492  29.421  30.124  1.00  0.00     0.001 A 
ATOM     76  C   UNL A   1      36.810  30.128  27.837  1.00  0.00     0.001 A 
ATOM     77  C   UNL A   1      35.978  29.949  28.941  1.00  0.00     0.000 A 
ENDBRANCH  53  72
BRANCH  65  78
ATOM     78  C   UNL A   1      44.399  32.564  31.262  1.00  0.00    -0.014 A 
ATOM     79  C   UNL A   1      44.355  32.845  32.636  1.00  0.00     0.009 A 
ATOM     80  C   UNL A   1      44.704  33.597  30.362  1.00  0.00     0.009 A 
ATOM     81  C   UNL A   1      44.583  34.143  33.095  1.00  0.00     0.001 A 
ATOM     82  C   UNL A   1      44.955  34.888  30.827  1.00  0.00     0.001 A 
ATOM     83  C   UNL A   1      44.887  35.162  32.192  1.00  0.00     0.000 A 
ENDBRANCH  65  78
ENDBRANCH  39  40
ENDBRANCH  31  34
ENDBRANCH  29  30
ENDBRANCH  28  29
ENDBRANCH  27  28
ENDBRANCH  26  27
ENDBRANCH   1  26
TORSDOF 18
ENDMDL
