MODEL 1
REMARK VINA RESULT:     -11.4      0.000      0.000
REMARK SMILES CS(=O)(=O)c1ccc(/C=C(/C(=O)NCCCCCCNC(=O)c2ccc(-c3c4nc(c(-c5ccccc5)c5ccc([nH]5)c(-c5ccccc5)c5nc(c(-c6ccccc6)c6ccc3[nH]6)C=C5)C=C4)cc2)c2ccccc2)cc1
REMARK SMILES IDX 16 1 15 2 14 3 13 4 11 5 12 6 10 8 9 9 8 10 5 11 6 12 78 13
REMARK SMILES IDX 7 14 77 15 2 16 1 17 3 18 4 19 71 20 72 21 76 22 73 23 75 24
REMARK SMILES IDX 74 25 17 26 18 27 19 28 20 29 21 30 22 32 23 33 24 34 70 35
REMARK SMILES IDX 25 36 69 37 26 38 27 39 28 40 63 41 29 42 68 43 62 44 64 45
REMARK SMILES IDX 30 46 67 47 61 48 60 49 31 51 53 52 38 53 52 54 39 55 42 56
REMARK SMILES IDX 51 57 65 58 40 59 41 60 50 62 66 63 43 64 32 65 33 66 37 67
REMARK SMILES IDX 34 68 36 69 35 70 54 71 55 72 59 73 56 74 58 75 57 76 44 77
REMARK SMILES IDX 45 78 49 79 46 80 48 81 47 82
REMARK H PARENT 13 7 20 31 64 50 42 61
REMARK Flexibility Score: inf
ROOT
ATOM      1  C   UNL A   1      31.719  28.212  26.006  1.00  0.00     0.002 C 
ENDROOT
BRANCH   1   2
ATOM      2  C   UNL A   1      32.339  26.837  26.310  1.00  0.00     0.021 C 
BRANCH   2   3
ATOM      3  C   UNL A   1      31.591  25.668  25.662  1.00  0.00     0.116 C 
BRANCH   3   4
ATOM      4  N   UNL A   1      31.764  25.712  24.224  1.00  0.00    -0.352 N 
ATOM      5  C   UNL A   1      32.361  24.903  23.311  1.00  0.00     0.251 C 
ATOM      6  O   UNL A   1      32.383  25.325  22.152  1.00  0.00    -0.269 OA
ATOM      7  H   UNL A   1      31.356  26.509  23.816  1.00  0.00     0.163 HD
BRANCH   5   8
ATOM      8  C   UNL A   1      32.891  23.523  23.631  1.00  0.00     0.047 C 
ATOM      9  C   UNL A   1      32.090  22.435  23.689  1.00  0.00     0.022 C 
BRANCH   9  10
ATOM     10  C   UNL A   1      32.461  21.015  23.875  1.00  0.00    -0.025 A 
ATOM     11  C   UNL A   1      33.168  18.300  24.056  1.00  0.00     0.067 A 
ATOM     12  C   UNL A   1      33.426  19.159  25.125  1.00  0.00     0.021 A 
ATOM     13  C   UNL A   1      32.530  18.776  22.909  1.00  0.00     0.021 A 
ATOM     14  C   UNL A   1      33.059  20.507  25.036  1.00  0.00     0.009 A 
ATOM     15  C   UNL A   1      32.176  20.126  22.825  1.00  0.00     0.009 A 
BRANCH  11  16
ATOM     16  S   UNL A   1      33.645  16.590  24.130  1.00  0.00     0.175 S 
ATOM     17  C   UNL A   1      35.086  16.533  25.161  1.00  0.00     0.163 C 
ATOM     18  O   UNL A   1      34.063  16.202  22.799  1.00  0.00    -0.224 OA
ATOM     19  O   UNL A   1      32.568  15.890  24.812  1.00  0.00    -0.224 OA
ENDBRANCH  11  16
ENDBRANCH   9  10
BRANCH   8  20
ATOM     20  C   UNL A   1      34.313  23.442  24.049  1.00  0.00    -0.013 A 
ATOM     21  C   UNL A   1      35.268  23.019  23.108  1.00  0.00     0.009 A 
ATOM     22  C   UNL A   1      34.743  23.826  25.324  1.00  0.00     0.009 A 
ATOM     23  C   UNL A   1      36.625  22.999  23.425  1.00  0.00     0.001 A 
ATOM     24  C   UNL A   1      36.106  23.813  25.638  1.00  0.00     0.001 A 
ATOM     25  C   UNL A   1      37.044  23.405  24.688  1.00  0.00     0.000 A 
ENDBRANCH   8  20
ENDBRANCH   5   8
ENDBRANCH   3   4
ENDBRANCH   2   3
ENDBRANCH   1   2
BRANCH   1  26
ATOM     26  C   UNL A   1      31.746  29.213  27.167  1.00  0.00     0.002 C 
BRANCH  26  27
ATOM     27  C   UNL A   1      31.460  30.667  26.779  1.00  0.00     0.021 C 
BRANCH  27  28
ATOM     28  C   UNL A   1      32.689  31.571  26.757  1.00  0.00     0.116 C 
BRANCH  28  29
ATOM     29  N   UNL A   1      32.380  32.923  27.192  1.00  0.00    -0.352 N 
ATOM     30  C   UNL A   1      33.052  33.720  28.086  1.00  0.00     0.251 C 
ATOM     31  H   UNL A   1      31.576  33.324  26.789  1.00  0.00     0.163 HD
ATOM     32  O   UNL A   1      32.548  34.765  28.484  1.00  0.00    -0.269 OA
BRANCH  30  33
ATOM     33  C   UNL A   1      34.379  33.308  28.587  1.00  0.00     0.039 A 
ATOM     34  C   UNL A   1      34.454  32.547  29.757  1.00  0.00     0.014 A 
ATOM     35  C   UNL A   1      35.547  33.683  27.917  1.00  0.00     0.014 A 
ATOM     36  C   UNL A   1      35.698  32.118  30.228  1.00  0.00     0.010 A 
ATOM     37  C   UNL A   1      36.781  33.206  28.353  1.00  0.00     0.010 A 
ATOM     38  C   UNL A   1      36.867  32.424  29.515  1.00  0.00    -0.014 A 
BRANCH  38  39
ATOM     39  C   UNL A   1      38.193  31.939  29.971  1.00  0.00     0.031 A 
ATOM     40  C   UNL A   1      38.738  30.635  29.459  1.00  0.00     0.074 A 
ATOM     41  C   UNL A   1      38.879  32.641  30.894  1.00  0.00     0.049 A 
ATOM     42  N   UNL A   1      39.843  30.016  29.789  1.00  0.00    -0.248 NA
ATOM     43  C   UNL A   1      37.923  29.923  28.463  1.00  0.00     0.031 C 
ATOM     44  C   UNL A   1      38.445  33.903  31.496  1.00  0.00     0.029 A 
ATOM     45  N   UNL A   1      40.086  32.383  31.494  1.00  0.00    -0.354 N 
ATOM     46  C   UNL A   1      39.846  28.835  29.059  1.00  0.00     0.074 A 
ATOM     47  C   UNL A   1      38.615  28.804  28.299  1.00  0.00     0.031 C 
ATOM     48  C   UNL A   1      39.381  34.319  32.363  1.00  0.00     0.029 A 
ATOM     49  C   UNL A   1      40.463  33.339  32.405  1.00  0.00     0.049 A 
ATOM     50  H   UNL A   1      40.630  31.587  31.291  1.00  0.00     0.167 HD
ATOM     51  C   UNL A   1      40.794  27.869  29.012  1.00  0.00     0.031 A 
ATOM     52  C   UNL A   1      41.554  33.417  33.189  1.00  0.00     0.031 A 
ATOM     53  C   UNL A   1      42.025  27.903  29.753  1.00  0.00     0.049 A 
ATOM     54  C   UNL A   1      42.591  32.332  33.119  1.00  0.00     0.074 A 
ATOM     55  C   UNL A   1      43.074  27.000  29.727  1.00  0.00     0.029 A 
ATOM     56  N   UNL A   1      42.374  28.896  30.655  1.00  0.00    -0.354 N 
ATOM     57  N   UNL A   1      42.605  31.250  32.378  1.00  0.00    -0.248 NA
ATOM     58  C   UNL A   1      43.765  32.484  33.989  1.00  0.00     0.031 C 
ATOM     59  C   UNL A   1      44.041  27.427  30.644  1.00  0.00     0.029 A 
ATOM     60  C   UNL A   1      43.613  28.618  31.206  1.00  0.00     0.049 A 
ATOM     61  H   UNL A   1      41.822  29.683  30.871  1.00  0.00     0.167 HD
ATOM     62  C   UNL A   1      43.800  30.606  32.674  1.00  0.00     0.074 A 
ATOM     63  C   UNL A   1      44.488  31.424  33.651  1.00  0.00     0.031 C 
ATOM     64  C   UNL A   1      44.283  29.442  32.177  1.00  0.00     0.031 A 
BRANCH  51  65
ATOM     65  C   UNL A   1      40.526  26.684  28.126  1.00  0.00    -0.014 A 
ATOM     66  C   UNL A   1      41.015  26.637  26.811  1.00  0.00     0.009 A 
ATOM     67  C   UNL A   1      39.802  25.591  28.622  1.00  0.00     0.009 A 
ATOM     68  C   UNL A   1      40.751  25.532  25.998  1.00  0.00     0.001 A 
ATOM     69  C   UNL A   1      39.561  24.476  27.816  1.00  0.00     0.001 A 
ATOM     70  C   UNL A   1      40.028  24.452  26.503  1.00  0.00     0.000 A 
ENDBRANCH  51  65
BRANCH  52  71
ATOM     71  C   UNL A   1      41.735  34.579  34.096  1.00  0.00    -0.014 A 
ATOM     72  C   UNL A   1      42.383  35.737  33.643  1.00  0.00     0.009 A 
ATOM     73  C   UNL A   1      41.261  34.535  35.416  1.00  0.00     0.009 A 
ATOM     74  C   UNL A   1      42.574  36.822  34.500  1.00  0.00     0.001 A 
ATOM     75  C   UNL A   1      41.433  35.631  36.264  1.00  0.00     0.001 A 
ATOM     76  C   UNL A   1      42.096  36.770  35.809  1.00  0.00     0.000 A 
ENDBRANCH  52  71
BRANCH  64  77
ATOM     77  C   UNL A   1      45.634  29.001  32.661  1.00  0.00    -0.014 A 
ATOM     78  C   UNL A   1      45.767  28.158  33.775  1.00  0.00     0.009 A 
ATOM     79  C   UNL A   1      46.786  29.404  31.968  1.00  0.00     0.009 A 
ATOM     80  C   UNL A   1      47.032  27.751  34.202  1.00  0.00     0.001 A 
ATOM     81  C   UNL A   1      48.047  28.975  32.382  1.00  0.00     0.001 A 
ATOM     82  C   UNL A   1      48.170  28.157  33.504  1.00  0.00     0.000 A 
ENDBRANCH  64  77
ENDBRANCH  38  39
ENDBRANCH  30  33
ENDBRANCH  28  29
ENDBRANCH  27  28
ENDBRANCH  26  27
ENDBRANCH   1  26
TORSDOF 16
ENDMDL
MODEL 2
REMARK VINA RESULT:     -11.4      2.135      6.537
REMARK SMILES CS(=O)(=O)c1ccc(/C=C(/C(=O)NCCCCCCNC(=O)c2ccc(-c3c4nc(c(-c5ccccc5)c5ccc([nH]5)c(-c5ccccc5)c5nc(c(-c6ccccc6)c6ccc3[nH]6)C=C5)C=C4)cc2)c2ccccc2)cc1
REMARK SMILES IDX 16 1 15 2 14 3 13 4 11 5 12 6 10 8 9 9 8 10 5 11 6 12 78 13
REMARK SMILES IDX 7 14 77 15 2 16 1 17 3 18 4 19 71 20 72 21 76 22 73 23 75 24
REMARK SMILES IDX 74 25 17 26 18 27 19 28 20 29 21 30 22 32 23 33 24 34 70 35
REMARK SMILES IDX 25 36 69 37 26 38 27 39 28 40 63 41 29 42 68 43 62 44 64 45
REMARK SMILES IDX 30 46 67 47 61 48 60 49 31 51 53 52 38 53 52 54 39 55 42 56
REMARK SMILES IDX 51 57 65 58 40 59 41 60 50 62 66 63 43 64 32 65 33 66 37 67
REMARK SMILES IDX 34 68 36 69 35 70 54 71 55 72 59 73 56 74 58 75 57 76 44 77
REMARK SMILES IDX 45 78 49 79 46 80 48 81 47 82
REMARK H PARENT 13 7 20 31 64 50 42 61
REMARK Flexibility Score: inf
ROOT
ATOM      1  C   UNL A   1      31.685  27.947  24.838  1.00  0.00     0.002 C 
ENDROOT
BRANCH   1   2
ATOM      2  C   UNL A   1      30.535  26.984  24.500  1.00  0.00     0.021 C 
BRANCH   2   3
ATOM      3  C   UNL A   1      30.997  25.554  24.200  1.00  0.00     0.116 C 
BRANCH   3   4
ATOM      4  N   UNL A   1      31.634  25.508  22.899  1.00  0.00    -0.352 N 
ATOM      5  C   UNL A   1      32.551  24.692  22.316  1.00  0.00     0.251 C 
ATOM      6  O   UNL A   1      32.928  25.027  21.190  1.00  0.00    -0.269 OA
ATOM      7  H   UNL A   1      31.334  26.230  22.303  1.00  0.00     0.163 HD
BRANCH   5   8
ATOM      8  C   UNL A   1      33.032  23.396  22.928  1.00  0.00     0.047 C 
ATOM      9  C   UNL A   1      32.260  22.287  22.977  1.00  0.00     0.022 C 
BRANCH   9  10
ATOM     10  C   UNL A   1      32.614  20.925  23.434  1.00  0.00    -0.025 A 
ATOM     11  C   UNL A   1      33.278  18.285  24.135  1.00  0.00     0.067 A 
ATOM     12  C   UNL A   1      33.625  19.338  24.982  1.00  0.00     0.021 A 
ATOM     13  C   UNL A   1      32.571  18.533  22.957  1.00  0.00     0.021 A 
ATOM     14  C   UNL A   1      33.280  20.649  24.635  1.00  0.00     0.009 A 
ATOM     15  C   UNL A   1      32.240  19.847  22.614  1.00  0.00     0.009 A 
BRANCH  11  16
ATOM     16  S   UNL A   1      33.724  16.612  24.537  1.00  0.00     0.175 S 
ATOM     17  C   UNL A   1      32.469  16.028  25.644  1.00  0.00     0.163 C 
ATOM     18  O   UNL A   1      34.959  16.667  25.292  1.00  0.00    -0.224 OA
ATOM     19  O   UNL A   1      33.634  15.852  23.301  1.00  0.00    -0.224 OA
ENDBRANCH  11  16
ENDBRANCH   9  10
BRANCH   8  20
ATOM     20  C   UNL A   1      34.339  23.443  23.632  1.00  0.00    -0.013 A 
ATOM     21  C   UNL A   1      35.481  22.975  22.960  1.00  0.00     0.009 A 
ATOM     22  C   UNL A   1      34.481  23.988  24.913  1.00  0.00     0.009 A 
ATOM     23  C   UNL A   1      36.743  23.067  23.545  1.00  0.00     0.001 A 
ATOM     24  C   UNL A   1      35.749  24.087  25.495  1.00  0.00     0.001 A 
ATOM     25  C   UNL A   1      36.877  23.632  24.810  1.00  0.00     0.000 A 
ENDBRANCH   8  20
ENDBRANCH   5   8
ENDBRANCH   3   4
ENDBRANCH   2   3
ENDBRANCH   1   2
BRANCH   1  26
ATOM     26  C   UNL A   1      33.004  27.275  25.240  1.00  0.00     0.002 C 
BRANCH  26  27
ATOM     27  C   UNL A   1      33.979  28.169  26.011  1.00  0.00     0.021 C 
BRANCH  27  28
ATOM     28  C   UNL A   1      33.521  28.542  27.419  1.00  0.00     0.116 C 
BRANCH  28  29
ATOM     29  N   UNL A   1      33.505  29.980  27.625  1.00  0.00    -0.352 N 
ATOM     30  C   UNL A   1      34.476  30.789  28.164  1.00  0.00     0.251 C 
ATOM     31  H   UNL A   1      32.684  30.440  27.338  1.00  0.00     0.163 HD
ATOM     32  O   UNL A   1      34.226  31.957  28.441  1.00  0.00    -0.269 OA
BRANCH  30  33
ATOM     33  C   UNL A   1      35.823  30.244  28.430  1.00  0.00     0.039 A 
ATOM     34  C   UNL A   1      36.783  30.290  27.415  1.00  0.00     0.014 A 
ATOM     35  C   UNL A   1      36.135  29.673  29.668  1.00  0.00     0.014 A 
ATOM     36  C   UNL A   1      38.073  29.811  27.659  1.00  0.00     0.010 A 
ATOM     37  C   UNL A   1      37.436  29.250  29.928  1.00  0.00     0.010 A 
ATOM     38  C   UNL A   1      38.415  29.311  28.925  1.00  0.00    -0.014 A 
BRANCH  38  39
ATOM     39  C   UNL A   1      39.791  28.841  29.218  1.00  0.00     0.031 A 
ATOM     40  C   UNL A   1      40.770  29.751  29.906  1.00  0.00     0.074 A 
ATOM     41  C   UNL A   1      40.181  27.618  28.809  1.00  0.00     0.049 A 
ATOM     42  N   UNL A   1      42.032  29.545  30.189  1.00  0.00    -0.248 NA
ATOM     43  C   UNL A   1      40.272  31.075  30.310  1.00  0.00     0.031 C 
ATOM     44  C   UNL A   1      39.339  26.652  28.101  1.00  0.00     0.029 A 
ATOM     45  N   UNL A   1      41.392  26.984  28.924  1.00  0.00    -0.354 N 
ATOM     46  C   UNL A   1      42.482  30.717  30.782  1.00  0.00     0.074 A 
ATOM     47  C   UNL A   1      41.371  31.644  30.784  1.00  0.00     0.031 C 
ATOM     48  C   UNL A   1      40.053  25.540  27.864  1.00  0.00     0.029 A 
ATOM     49  C   UNL A   1      41.409  25.727  28.370  1.00  0.00     0.049 A 
ATOM     50  H   UNL A   1      42.175  27.391  29.362  1.00  0.00     0.167 HD
ATOM     51  C   UNL A   1      43.704  30.992  31.295  1.00  0.00     0.031 A 
ATOM     52  C   UNL A   1      42.406  24.827  28.276  1.00  0.00     0.031 A 
ATOM     53  C   UNL A   1      44.806  30.069  31.309  1.00  0.00     0.049 A 
ATOM     54  C   UNL A   1      43.754  25.158  28.851  1.00  0.00     0.074 A 
ATOM     55  C   UNL A   1      46.066  30.236  31.857  1.00  0.00     0.029 A 
ATOM     56  N   UNL A   1      44.778  28.801  30.749  1.00  0.00    -0.354 N 
ATOM     57  N   UNL A   1      44.146  26.250  29.461  1.00  0.00    -0.248 NA
ATOM     58  C   UNL A   1      44.795  24.127  28.729  1.00  0.00     0.031 C 
ATOM     59  C   UNL A   1      46.813  29.082  31.594  1.00  0.00     0.029 A 
ATOM     60  C   UNL A   1      46.004  28.182  30.921  1.00  0.00     0.049 A 
ATOM     61  H   UNL A   1      44.000  28.400  30.296  1.00  0.00     0.167 HD
ATOM     62  C   UNL A   1      45.469  26.028  29.819  1.00  0.00     0.074 A 
ATOM     63  C   UNL A   1      45.809  24.694  29.368  1.00  0.00     0.031 C 
ATOM     64  C   UNL A   1      46.326  26.855  30.466  1.00  0.00     0.031 A 
BRANCH  51  65
ATOM     65  C   UNL A   1      43.914  32.362  31.879  1.00  0.00    -0.014 A 
ATOM     66  C   UNL A   1      44.367  33.427  31.085  1.00  0.00     0.009 A 
ATOM     67  C   UNL A   1      43.626  32.595  33.232  1.00  0.00     0.009 A 
ATOM     68  C   UNL A   1      44.564  34.691  31.646  1.00  0.00     0.001 A 
ATOM     69  C   UNL A   1      43.800  33.867  33.783  1.00  0.00     0.001 A 
ATOM     70  C   UNL A   1      44.277  34.910  32.992  1.00  0.00     0.000 A 
ENDBRANCH  51  65
BRANCH  52  71
ATOM     71  C   UNL A   1      42.161  23.514  27.627  1.00  0.00    -0.014 A 
ATOM     72  C   UNL A   1      41.753  22.411  28.392  1.00  0.00     0.009 A 
ATOM     73  C   UNL A   1      42.335  23.357  26.244  1.00  0.00     0.009 A 
ATOM     74  C   UNL A   1      41.544  21.170  27.788  1.00  0.00     0.001 A 
ATOM     75  C   UNL A   1      42.102  22.120  25.639  1.00  0.00     0.001 A 
ATOM     76  C   UNL A   1      41.715  21.026  26.412  1.00  0.00     0.000 A 
ENDBRANCH  52  71
BRANCH  64  77
ATOM     77  C   UNL A   1      47.702  26.328  30.751  1.00  0.00    -0.014 A 
ATOM     78  C   UNL A   1      48.019  25.760  31.994  1.00  0.00     0.009 A 
ATOM     79  C   UNL A   1      48.681  26.365  29.747  1.00  0.00     0.009 A 
ATOM     80  C   UNL A   1      49.303  25.266  32.235  1.00  0.00     0.001 A 
ATOM     81  C   UNL A   1      49.956  25.848  29.982  1.00  0.00     0.001 A 
ATOM     82  C   UNL A   1      50.268  25.307  31.228  1.00  0.00     0.000 A 
ENDBRANCH  64  77
ENDBRANCH  38  39
ENDBRANCH  30  33
ENDBRANCH  28  29
ENDBRANCH  27  28
ENDBRANCH  26  27
ENDBRANCH   1  26
TORSDOF 16
ENDMDL
MODEL 3
REMARK VINA RESULT:     -11.0      1.940      6.406
REMARK SMILES CS(=O)(=O)c1ccc(/C=C(/C(=O)NCCCCCCNC(=O)c2ccc(-c3c4nc(c(-c5ccccc5)c5ccc([nH]5)c(-c5ccccc5)c5nc(c(-c6ccccc6)c6ccc3[nH]6)C=C5)C=C4)cc2)c2ccccc2)cc1
REMARK SMILES IDX 16 1 15 2 14 3 13 4 11 5 12 6 10 8 9 9 8 10 5 11 6 12 78 13
REMARK SMILES IDX 7 14 77 15 2 16 1 17 3 18 4 19 71 20 72 21 76 22 73 23 75 24
REMARK SMILES IDX 74 25 17 26 18 27 19 28 20 29 21 30 22 32 23 33 24 34 70 35
REMARK SMILES IDX 25 36 69 37 26 38 27 39 28 40 63 41 29 42 68 43 62 44 64 45
REMARK SMILES IDX 30 46 67 47 61 48 60 49 31 51 53 52 38 53 52 54 39 55 42 56
REMARK SMILES IDX 51 57 65 58 40 59 41 60 50 62 66 63 43 64 32 65 33 66 37 67
REMARK SMILES IDX 34 68 36 69 35 70 54 71 55 72 59 73 56 74 58 75 57 76 44 77
REMARK SMILES IDX 45 78 49 79 46 80 48 81 47 82
REMARK H PARENT 13 7 20 31 64 50 42 61
REMARK Flexibility Score: inf
ROOT
ATOM      1  C   UNL A   1      31.623  26.378  25.959  1.00  0.00     0.002 C 
ENDROOT
BRANCH   1   2
ATOM      2  C   UNL A   1      30.353  26.334  25.092  1.00  0.00     0.021 C 
BRANCH   2   3
ATOM      3  C   UNL A   1      30.308  25.144  24.128  1.00  0.00     0.116 C 
BRANCH   3   4
ATOM      4  N   UNL A   1      31.173  25.399  22.993  1.00  0.00    -0.352 N 
ATOM      5  C   UNL A   1      32.306  24.824  22.512  1.00  0.00     0.251 C 
ATOM      6  O   UNL A   1      32.824  25.388  21.544  1.00  0.00    -0.269 OA
ATOM      7  H   UNL A   1      30.872  26.161  22.449  1.00  0.00     0.163 HD
BRANCH   5   8
ATOM      8  C   UNL A   1      32.877  23.525  23.034  1.00  0.00     0.047 C 
ATOM      9  C   UNL A   1      32.140  22.394  23.122  1.00  0.00     0.022 C 
BRANCH   9  10
ATOM     10  C   UNL A   1      32.571  21.029  23.499  1.00  0.00    -0.025 A 
ATOM     11  C   UNL A   1      33.372  18.391  24.050  1.00  0.00     0.067 A 
ATOM     12  C   UNL A   1      33.731  19.423  24.918  1.00  0.00     0.021 A 
ATOM     13  C   UNL A   1      32.587  18.658  22.927  1.00  0.00     0.021 A 
ATOM     14  C   UNL A   1      33.318  20.733  24.648  1.00  0.00     0.009 A 
ATOM     15  C   UNL A   1      32.188  19.972  22.658  1.00  0.00     0.009 A 
BRANCH  11  16
ATOM     16  S   UNL A   1      33.902  16.723  24.354  1.00  0.00     0.175 S 
ATOM     17  C   UNL A   1      32.683  16.015  25.428  1.00  0.00     0.163 C 
ATOM     18  O   UNL A   1      35.137  16.796  25.109  1.00  0.00    -0.224 OA
ATOM     19  O   UNL A   1      33.844  16.031  23.077  1.00  0.00    -0.224 OA
ENDBRANCH  11  16
ENDBRANCH   9  10
BRANCH   8  20
ATOM     20  C   UNL A   1      34.243  23.588  23.611  1.00  0.00    -0.013 A 
ATOM     21  C   UNL A   1      34.408  24.150  24.889  1.00  0.00     0.009 A 
ATOM     22  C   UNL A   1      35.359  23.055  22.955  1.00  0.00     0.009 A 
ATOM     23  C   UNL A   1      35.657  24.164  25.509  1.00  0.00     0.001 A 
ATOM     24  C   UNL A   1      36.609  23.062  23.583  1.00  0.00     0.001 A 
ATOM     25  C   UNL A   1      36.756  23.611  24.858  1.00  0.00     0.000 A 
ENDBRANCH   8  20
ENDBRANCH   5   8
ENDBRANCH   3   4
ENDBRANCH   2   3
ENDBRANCH   1   2
BRANCH   1  26
ATOM     26  C   UNL A   1      32.660  27.430  25.546  1.00  0.00     0.002 C 
BRANCH  26  27
ATOM     27  C   UNL A   1      32.577  28.758  26.304  1.00  0.00     0.021 C 
BRANCH  27  28
ATOM     28  C   UNL A   1      33.925  29.416  26.581  1.00  0.00     0.116 C 
BRANCH  28  29
ATOM     29  N   UNL A   1      33.778  30.727  27.191  1.00  0.00    -0.352 N 
ATOM     30  C   UNL A   1      34.529  31.311  28.182  1.00  0.00     0.251 C 
ATOM     31  H   UNL A   1      33.036  31.273  26.845  1.00  0.00     0.163 HD
ATOM     32  O   UNL A   1      34.152  32.349  28.714  1.00  0.00    -0.269 OA
BRANCH  30  33
ATOM     33  C   UNL A   1      35.788  30.675  28.622  1.00  0.00     0.039 A 
ATOM     34  C   UNL A   1      36.986  31.048  28.005  1.00  0.00     0.014 A 
ATOM     35  C   UNL A   1      35.788  29.702  29.626  1.00  0.00     0.014 A 
ATOM     36  C   UNL A   1      38.191  30.483  28.431  1.00  0.00     0.010 A 
ATOM     37  C   UNL A   1      36.995  29.184  30.090  1.00  0.00     0.010 A 
ATOM     38  C   UNL A   1      38.206  29.566  29.493  1.00  0.00    -0.014 A 
BRANCH  38  39
ATOM     39  C   UNL A   1      39.479  28.990  29.992  1.00  0.00     0.031 A 
ATOM     40  C   UNL A   1      40.164  29.594  31.186  1.00  0.00     0.074 A 
ATOM     41  C   UNL A   1      40.051  27.965  29.332  1.00  0.00     0.049 A 
ATOM     42  N   UNL A   1      41.312  29.273  31.728  1.00  0.00    -0.248 NA
ATOM     43  C   UNL A   1      39.482  30.719  31.842  1.00  0.00     0.031 C 
ATOM     44  C   UNL A   1      39.506  27.312  28.141  1.00  0.00     0.029 A 
ATOM     45  N   UNL A   1      41.227  27.298  29.570  1.00  0.00    -0.354 N 
ATOM     46  C   UNL A   1      41.499  30.168  32.773  1.00  0.00     0.074 A 
ATOM     47  C   UNL A   1      40.367  31.069  32.765  1.00  0.00     0.031 C 
ATOM     48  C   UNL A   1      40.335  26.325  27.764  1.00  0.00     0.029 A 
ATOM     49  C   UNL A   1      41.484  26.298  28.664  1.00  0.00     0.049 A 
ATOM     50  H   UNL A   1      41.829  27.515  30.318  1.00  0.00     0.167 HD
ATOM     51  C   UNL A   1      42.511  30.225  33.670  1.00  0.00     0.031 A 
ATOM     52  C   UNL A   1      42.530  25.455  28.566  1.00  0.00     0.031 A 
ATOM     53  C   UNL A   1      43.629  29.322  33.691  1.00  0.00     0.049 A 
ATOM     54  C   UNL A   1      43.642  25.541  29.572  1.00  0.00     0.074 A 
ATOM     55  C   UNL A   1      44.676  29.265  34.595  1.00  0.00     0.029 A 
ATOM     56  N   UNL A   1      43.846  28.315  32.764  1.00  0.00    -0.354 N 
ATOM     57  N   UNL A   1      43.773  26.357  30.590  1.00  0.00    -0.248 NA
ATOM     58  C   UNL A   1      44.747  24.585  29.418  1.00  0.00     0.031 C 
ATOM     59  C   UNL A   1      45.547  28.247  34.191  1.00  0.00     0.029 A 
ATOM     60  C   UNL A   1      45.019  27.644  33.062  1.00  0.00     0.049 A 
ATOM     61  H   UNL A   1      43.252  28.109  32.005  1.00  0.00     0.167 HD
ATOM     62  C   UNL A   1      44.960  25.994  31.213  1.00  0.00     0.074 A 
ATOM     63  C   UNL A   1      45.504  24.879  30.466  1.00  0.00     0.031 C 
ATOM     64  C   UNL A   1      45.546  26.537  32.308  1.00  0.00     0.031 A 
BRANCH  51  65
ATOM     65  C   UNL A   1      42.455  31.316  34.704  1.00  0.00    -0.014 A 
ATOM     66  C   UNL A   1      41.824  31.110  35.941  1.00  0.00     0.009 A 
ATOM     67  C   UNL A   1      43.064  32.553  34.448  1.00  0.00     0.009 A 
ATOM     68  C   UNL A   1      41.773  32.136  36.887  1.00  0.00     0.001 A 
ATOM     69  C   UNL A   1      43.034  33.568  35.407  1.00  0.00     0.001 A 
ATOM     70  C   UNL A   1      42.381  33.362  36.621  1.00  0.00     0.000 A 
ENDBRANCH  51  65
BRANCH  52  71
ATOM     71  C   UNL A   1      42.566  24.441  27.482  1.00  0.00    -0.014 A 
ATOM     72  C   UNL A   1      43.164  24.742  26.249  1.00  0.00     0.009 A 
ATOM     73  C   UNL A   1      42.005  23.169  27.675  1.00  0.00     0.009 A 
ATOM     74  C   UNL A   1      43.179  23.798  25.222  1.00  0.00     0.001 A 
ATOM     75  C   UNL A   1      42.043  22.219  26.653  1.00  0.00     0.001 A 
ATOM     76  C   UNL A   1      42.622  22.536  25.425  1.00  0.00     0.000 A 
ENDBRANCH  52  71
BRANCH  64  77
ATOM     77  C   UNL A   1      46.826  25.910  32.780  1.00  0.00    -0.014 A 
ATOM     78  C   UNL A   1      48.067  26.327  32.276  1.00  0.00     0.009 A 
ATOM     79  C   UNL A   1      46.789  24.918  33.771  1.00  0.00     0.009 A 
ATOM     80  C   UNL A   1      49.247  25.739  32.736  1.00  0.00     0.001 A 
ATOM     81  C   UNL A   1      47.971  24.349  34.247  1.00  0.00     0.001 A 
ATOM     82  C   UNL A   1      49.198  24.753  33.723  1.00  0.00     0.000 A 
ENDBRANCH  64  77
ENDBRANCH  38  39
ENDBRANCH  30  33
ENDBRANCH  28  29
ENDBRANCH  27  28
ENDBRANCH  26  27
ENDBRANCH   1  26
TORSDOF 16
ENDMDL
