MODEL 1
REMARK VINA RESULT:     -11.8      0.000      0.000
REMARK SMILES O=C(NCCCCCCNC(=O)[C@@H]1Cc2ccccc2CN1C(=O)COc1ccccc1)c1ccc(-c2c3nc(c(-c4ccccc4)c4ccc([nH]4)c(-c4ccccc4)c4nc(c(-c5ccccc5)c5ccc2[nH]5)C=C4)C=C3)cc1
REMARK SMILES IDX 7 1 6 2 5 3 4 4 3 5 1 6 2 7 33 9 34 10 80 11 35 12 79 13
REMARK SMILES IDX 36 14 37 15 38 16 73 17 39 18 78 19 72 20 74 21 40 22 77 23
REMARK SMILES IDX 71 24 70 25 41 27 63 28 48 29 62 30 49 31 52 32 61 33 75 34
REMARK SMILES IDX 50 35 51 36 60 38 76 39 53 40 42 41 43 42 47 43 44 44 46 45
REMARK SMILES IDX 45 46 64 47 65 48 69 49 66 50 68 51 67 52 54 53 55 54 59 55
REMARK SMILES IDX 56 56 58 57 57 58 8 59 9 60 10 61 11 62 12 64 13 65 14 66
REMARK SMILES IDX 22 67 15 68 21 69 16 70 20 71 17 72 19 73 18 74 23 75 24 76
REMARK SMILES IDX 25 77 26 78 27 79 28 80 32 81 29 82 31 83 30 84
REMARK H PARENT 3 8 74 26 52 37 10 63
REMARK Flexibility Score: inf
ROOT
ATOM      1  C   UNL A   1      37.451  22.083  24.803  1.00  0.00     0.002 C 
ENDROOT
BRANCH   1   2
ATOM      2  C   UNL A   1      36.927  20.651  24.654  1.00  0.00     0.002 C 
BRANCH   2   3
ATOM      3  C   UNL A   1      37.954  19.571  24.991  1.00  0.00     0.021 C 
BRANCH   3   4
ATOM      4  C   UNL A   1      39.131  20.080  25.816  1.00  0.00     0.116 C 
BRANCH   4   5
ATOM      5  N   UNL A   1      40.207  19.103  25.864  1.00  0.00    -0.352 N 
ATOM      6  O   UNL A   1      42.354  18.414  25.745  1.00  0.00    -0.269 OA
ATOM      7  C   UNL A   1      41.554  19.318  25.978  1.00  0.00     0.251 C 
ATOM      8  H   UNL A   1      39.930  18.160  25.807  1.00  0.00     0.163 HD
BRANCH   7   9
ATOM      9  C   UNL A   1      42.040  20.651  26.378  1.00  0.00     0.039 A 
ATOM     10  C   UNL A   1      42.339  21.613  25.406  1.00  0.00     0.014 A 
ATOM     11  C   UNL A   1      42.178  20.947  27.735  1.00  0.00     0.014 A 
ATOM     12  C   UNL A   1      42.877  22.836  25.787  1.00  0.00     0.010 A 
ATOM     13  C   UNL A   1      42.647  22.202  28.117  1.00  0.00     0.010 A 
ATOM     14  C   UNL A   1      43.014  23.149  27.146  1.00  0.00    -0.014 A 
BRANCH  14  15
ATOM     15  C   UNL A   1      43.474  24.496  27.557  1.00  0.00     0.031 A 
ATOM     16  C   UNL A   1      42.492  25.545  27.983  1.00  0.00     0.074 A 
ATOM     17  C   UNL A   1      44.787  24.779  27.489  1.00  0.00     0.049 A 
ATOM     18  N   UNL A   1      42.707  26.803  28.276  1.00  0.00    -0.248 NA
ATOM     19  C   UNL A   1      41.084  25.133  28.083  1.00  0.00     0.031 C 
ATOM     20  C   UNL A   1      45.834  23.836  27.088  1.00  0.00     0.029 A 
ATOM     21  N   UNL A   1      45.464  25.944  27.739  1.00  0.00    -0.354 N 
ATOM     22  C   UNL A   1      41.460  27.340  28.567  1.00  0.00     0.074 A 
ATOM     23  C   UNL A   1      40.492  26.278  28.393  1.00  0.00     0.031 C 
ATOM     24  C   UNL A   1      47.020  24.460  27.122  1.00  0.00     0.029 A 
ATOM     25  C   UNL A   1      46.809  25.857  27.479  1.00  0.00     0.049 A 
ATOM     26  H   UNL A   1      45.029  26.763  28.070  1.00  0.00     0.167 HD
ATOM     27  C   UNL A   1      41.153  28.606  28.939  1.00  0.00     0.031 A 
ATOM     28  C   UNL A   1      47.765  26.804  27.483  1.00  0.00     0.031 A 
ATOM     29  C   UNL A   1      42.124  29.660  29.086  1.00  0.00     0.049 A 
ATOM     30  C   UNL A   1      47.397  28.212  27.843  1.00  0.00     0.074 A 
ATOM     31  C   UNL A   1      41.923  30.965  29.498  1.00  0.00     0.029 A 
ATOM     32  N   UNL A   1      43.478  29.531  28.809  1.00  0.00    -0.354 N 
ATOM     33  N   UNL A   1      46.222  28.697  28.163  1.00  0.00    -0.248 NA
ATOM     34  C   UNL A   1      48.483  29.199  27.851  1.00  0.00     0.031 C 
ATOM     35  C   UNL A   1      43.142  31.645  29.403  1.00  0.00     0.029 A 
ATOM     36  C   UNL A   1      44.117  30.743  29.005  1.00  0.00     0.049 A 
ATOM     37  H   UNL A   1      43.919  28.701  28.516  1.00  0.00     0.167 HD
ATOM     38  C   UNL A   1      46.430  30.042  28.436  1.00  0.00     0.074 A 
ATOM     39  C   UNL A   1      47.845  30.294  28.248  1.00  0.00     0.031 C 
ATOM     40  C   UNL A   1      45.527  30.980  28.815  1.00  0.00     0.031 A 
BRANCH  27  41
ATOM     41  C   UNL A   1      39.699  28.930  29.155  1.00  0.00    -0.014 A 
ATOM     42  C   UNL A   1      39.089  28.783  30.411  1.00  0.00     0.009 A 
ATOM     43  C   UNL A   1      38.927  29.397  28.079  1.00  0.00     0.009 A 
ATOM     44  C   UNL A   1      37.726  29.047  30.571  1.00  0.00     0.001 A 
ATOM     45  C   UNL A   1      37.573  29.692  28.251  1.00  0.00     0.001 A 
ATOM     46  C   UNL A   1      36.971  29.503  29.493  1.00  0.00     0.000 A 
ENDBRANCH  27  41
BRANCH  28  47
ATOM     47  C   UNL A   1      49.151  26.431  27.102  1.00  0.00    -0.014 A 
ATOM     48  C   UNL A   1      50.064  25.984  28.068  1.00  0.00     0.009 A 
ATOM     49  C   UNL A   1      49.546  26.459  25.754  1.00  0.00     0.009 A 
ATOM     50  C   UNL A   1      51.347  25.580  27.691  1.00  0.00     0.001 A 
ATOM     51  C   UNL A   1      50.818  26.026  25.378  1.00  0.00     0.001 A 
ATOM     52  C   UNL A   1      51.720  25.592  26.348  1.00  0.00     0.000 A 
ENDBRANCH  28  47
BRANCH  40  53
ATOM     53  C   UNL A   1      46.042  32.362  29.102  1.00  0.00    -0.014 A 
ATOM     54  C   UNL A   1      46.537  32.714  30.366  1.00  0.00     0.009 A 
ATOM     55  C   UNL A   1      46.104  33.303  28.060  1.00  0.00     0.009 A 
ATOM     56  C   UNL A   1      47.072  33.985  30.584  1.00  0.00     0.001 A 
ATOM     57  C   UNL A   1      46.666  34.561  28.273  1.00  0.00     0.001 A 
ATOM     58  C   UNL A   1      47.146  34.903  29.537  1.00  0.00     0.000 A 
ENDBRANCH  40  53
ENDBRANCH  14  15
ENDBRANCH   7   9
ENDBRANCH   4   5
ENDBRANCH   3   4
ENDBRANCH   2   3
ENDBRANCH   1   2
BRANCH   1  59
ATOM     59  C   UNL A   1      36.498  23.160  24.269  1.00  0.00     0.021 C 
BRANCH  59  60
ATOM     60  C   UNL A   1      35.811  23.962  25.380  1.00  0.00     0.116 C 
BRANCH  60  61
ATOM     61  N   UNL A   1      34.625  23.251  25.817  1.00  0.00    -0.354 N 
ATOM     62  C   UNL A   1      33.324  23.665  25.797  1.00  0.00     0.243 C 
ATOM     63  H   UNL A   1      34.780  22.348  26.178  1.00  0.00     0.163 HD
ATOM     64  O   UNL A   1      32.527  23.085  26.535  1.00  0.00    -0.273 OA
BRANCH  62  65
ATOM     65  C   UNL A   1      32.908  24.803  24.845  1.00  0.00     0.179 C 
ATOM     66  C   UNL A   1      31.964  25.742  25.630  1.00  0.00     0.071 C 
ATOM     67  N   UNL A   1      32.265  24.288  23.600  1.00  0.00    -0.323 N 
ATOM     68  C   UNL A   1      31.475  26.833  24.724  1.00  0.00    -0.040 A 
ATOM     69  C   UNL A   1      31.054  24.965  23.118  1.00  0.00     0.156 C 
ATOM     70  C   UNL A   1      31.444  28.175  25.108  1.00  0.00     0.004 A 
ATOM     71  C   UNL A   1      31.047  26.440  23.448  1.00  0.00    -0.025 A 
ATOM     72  C   UNL A   1      30.999  29.138  24.206  1.00  0.00     0.000 A 
ATOM     73  C   UNL A   1      30.597  27.412  22.552  1.00  0.00     0.006 A 
ATOM     74  C   UNL A   1      30.580  28.759  22.930  1.00  0.00     0.000 A 
BRANCH  67  75
ATOM     75  C   UNL A   1      32.799  23.312  22.767  1.00  0.00     0.261 C 
ATOM     76  O   UNL A   1      33.807  23.537  22.086  1.00  0.00    -0.271 OA
BRANCH  75  77
ATOM     77  C   UNL A   1      32.168  21.911  22.716  1.00  0.00     0.329 C 
BRANCH  77  78
ATOM     78  O   UNL A   1      32.139  21.162  23.926  1.00  0.00    -0.484 OA
BRANCH  78  79
ATOM     79  C   UNL A   1      32.591  19.874  23.816  1.00  0.00     0.120 A 
ATOM     80  C   UNL A   1      33.610  19.500  24.691  1.00  0.00     0.046 A 
ATOM     81  C   UNL A   1      32.156  18.972  22.843  1.00  0.00     0.046 A 
ATOM     82  C   UNL A   1      34.171  18.223  24.613  1.00  0.00     0.004 A 
ATOM     83  C   UNL A   1      32.719  17.698  22.763  1.00  0.00     0.004 A 
ATOM     84  C   UNL A   1      33.725  17.322  23.648  1.00  0.00     0.000 A 
ENDBRANCH  78  79
ENDBRANCH  77  78
ENDBRANCH  75  77
ENDBRANCH  67  75
ENDBRANCH  62  65
ENDBRANCH  60  61
ENDBRANCH  59  60
ENDBRANCH   1  59
TORSDOF 17
ENDMDL
MODEL 2
REMARK VINA RESULT:     -11.8      4.511      9.070
REMARK SMILES O=C(NCCCCCCNC(=O)[C@@H]1Cc2ccccc2CN1C(=O)COc1ccccc1)c1ccc(-c2c3nc(c(-c4ccccc4)c4ccc([nH]4)c(-c4ccccc4)c4nc(c(-c5ccccc5)c5ccc2[nH]5)C=C4)C=C3)cc1
REMARK SMILES IDX 7 1 6 2 5 3 4 4 3 5 1 6 2 7 33 9 34 10 80 11 35 12 79 13
REMARK SMILES IDX 36 14 37 15 38 16 73 17 39 18 78 19 72 20 74 21 40 22 77 23
REMARK SMILES IDX 71 24 70 25 41 27 63 28 48 29 62 30 49 31 52 32 61 33 75 34
REMARK SMILES IDX 50 35 51 36 60 38 76 39 53 40 42 41 43 42 47 43 44 44 46 45
REMARK SMILES IDX 45 46 64 47 65 48 69 49 66 50 68 51 67 52 54 53 55 54 59 55
REMARK SMILES IDX 56 56 58 57 57 58 8 59 9 60 10 61 11 62 12 64 13 65 14 66
REMARK SMILES IDX 22 67 15 68 21 69 16 70 20 71 17 72 19 73 18 74 23 75 24 76
REMARK SMILES IDX 25 77 26 78 27 79 28 80 32 81 29 82 31 83 30 84
REMARK H PARENT 3 8 74 26 52 37 10 63
REMARK Flexibility Score: inf
ROOT
ATOM      1  C   UNL A   1      33.558  29.987  27.229  1.00  0.00     0.002 C 
ENDROOT
BRANCH   1   2
ATOM      2  C   UNL A   1      32.048  30.185  27.067  1.00  0.00     0.002 C 
BRANCH   2   3
ATOM      3  C   UNL A   1      31.626  31.640  26.865  1.00  0.00     0.021 C 
BRANCH   3   4
ATOM      4  C   UNL A   1      32.795  32.618  26.826  1.00  0.00     0.116 C 
BRANCH   4   5
ATOM      5  N   UNL A   1      32.496  33.831  27.569  1.00  0.00    -0.352 N 
ATOM      6  O   UNL A   1      32.596  35.222  29.346  1.00  0.00    -0.269 OA
ATOM      7  C   UNL A   1      33.119  34.329  28.681  1.00  0.00     0.251 C 
ATOM      8  H   UNL A   1      31.745  34.368  27.225  1.00  0.00     0.163 HD
BRANCH   7   9
ATOM      9  C   UNL A   1      34.426  33.778  29.083  1.00  0.00     0.039 A 
ATOM     10  C   UNL A   1      35.601  34.228  28.469  1.00  0.00     0.014 A 
ATOM     11  C   UNL A   1      34.478  32.820  30.097  1.00  0.00     0.014 A 
ATOM     12  C   UNL A   1      36.818  33.643  28.794  1.00  0.00     0.010 A 
ATOM     13  C   UNL A   1      35.710  32.289  30.475  1.00  0.00     0.010 A 
ATOM     14  C   UNL A   1      36.885  32.685  29.815  1.00  0.00    -0.014 A 
BRANCH  14  15
ATOM     15  C   UNL A   1      38.197  32.148  30.246  1.00  0.00     0.031 A 
ATOM     16  C   UNL A   1      38.725  30.865  29.680  1.00  0.00     0.074 A 
ATOM     17  C   UNL A   1      38.883  32.807  31.198  1.00  0.00     0.049 A 
ATOM     18  N   UNL A   1      39.801  30.199  30.015  1.00  0.00    -0.248 NA
ATOM     19  C   UNL A   1      37.938  30.243  28.605  1.00  0.00     0.031 C 
ATOM     20  C   UNL A   1      38.466  34.065  31.822  1.00  0.00     0.029 A 
ATOM     21  N   UNL A   1      40.066  32.502  31.819  1.00  0.00    -0.354 N 
ATOM     22  C   UNL A   1      39.806  29.065  29.214  1.00  0.00     0.074 A 
ATOM     23  C   UNL A   1      38.615  29.123  28.393  1.00  0.00     0.031 C 
ATOM     24  C   UNL A   1      39.380  34.425  32.734  1.00  0.00     0.029 A 
ATOM     25  C   UNL A   1      40.407  33.393  32.806  1.00  0.00     0.049 A 
ATOM     26  H   UNL A   1      40.617  31.721  31.581  1.00  0.00     0.167 HD
ATOM     27  C   UNL A   1      40.719  28.065  29.173  1.00  0.00     0.031 A 
ATOM     28  C   UNL A   1      41.409  33.365  33.703  1.00  0.00     0.031 A 
ATOM     29  C   UNL A   1      41.889  28.009  30.012  1.00  0.00     0.049 A 
ATOM     30  C   UNL A   1      42.379  32.222  33.680  1.00  0.00     0.074 A 
ATOM     31  C   UNL A   1      42.898  27.062  30.022  1.00  0.00     0.029 A 
ATOM     32  N   UNL A   1      42.196  28.931  31.003  1.00  0.00    -0.354 N 
ATOM     33  N   UNL A   1      42.401  31.180  32.885  1.00  0.00    -0.248 NA
ATOM     34  C   UNL A   1      43.464  32.253  34.668  1.00  0.00     0.031 C 
ATOM     35  C   UNL A   1      43.777  27.372  31.064  1.00  0.00     0.029 A 
ATOM     36  C   UNL A   1      43.358  28.554  31.655  1.00  0.00     0.049 A 
ATOM     37  H   UNL A   1      41.666  29.733  31.213  1.00  0.00     0.167 HD
ATOM     38  C   UNL A   1      43.515  30.442  33.259  1.00  0.00     0.074 A 
ATOM     39  C   UNL A   1      44.146  31.160  34.349  1.00  0.00     0.031 C 
ATOM     40  C   UNL A   1      43.976  29.278  32.738  1.00  0.00     0.031 A 
BRANCH  27  41
ATOM     41  C   UNL A   1      40.454  26.924  28.228  1.00  0.00    -0.014 A 
ATOM     42  C   UNL A   1      41.001  26.895  26.935  1.00  0.00     0.009 A 
ATOM     43  C   UNL A   1      39.646  25.854  28.645  1.00  0.00     0.009 A 
ATOM     44  C   UNL A   1      40.699  25.846  26.062  1.00  0.00     0.001 A 
ATOM     45  C   UNL A   1      39.374  24.791  27.782  1.00  0.00     0.001 A 
ATOM     46  C   UNL A   1      39.889  24.794  26.487  1.00  0.00     0.000 A 
ENDBRANCH  27  41
BRANCH  28  47
ATOM     47  C   UNL A   1      41.507  34.454  34.709  1.00  0.00    -0.014 A 
ATOM     48  C   UNL A   1      40.892  34.329  35.962  1.00  0.00     0.009 A 
ATOM     49  C   UNL A   1      42.277  35.598  34.439  1.00  0.00     0.009 A 
ATOM     50  C   UNL A   1      41.040  35.333  36.922  1.00  0.00     0.001 A 
ATOM     51  C   UNL A   1      42.447  36.584  35.411  1.00  0.00     0.001 A 
ATOM     52  C   UNL A   1      41.824  36.453  36.651  1.00  0.00     0.000 A 
ENDBRANCH  28  47
BRANCH  40  53
ATOM     53  C   UNL A   1      45.252  28.723  33.304  1.00  0.00    -0.014 A 
ATOM     54  C   UNL A   1      45.247  27.790  34.351  1.00  0.00     0.009 A 
ATOM     55  C   UNL A   1      46.478  29.084  32.719  1.00  0.00     0.009 A 
ATOM     56  C   UNL A   1      46.446  27.240  34.810  1.00  0.00     0.001 A 
ATOM     57  C   UNL A   1      47.670  28.510  33.160  1.00  0.00     0.001 A 
ATOM     58  C   UNL A   1      47.653  27.592  34.209  1.00  0.00     0.000 A 
ENDBRANCH  40  53
ENDBRANCH  14  15
ENDBRANCH   7   9
ENDBRANCH   4   5
ENDBRANCH   3   4
ENDBRANCH   2   3
ENDBRANCH   1   2
BRANCH   1  59
ATOM     59  C   UNL A   1      34.061  28.605  26.793  1.00  0.00     0.021 C 
BRANCH  59  60
ATOM     60  C   UNL A   1      33.350  28.070  25.546  1.00  0.00     0.116 C 
BRANCH  60  61
ATOM     61  N   UNL A   1      34.061  28.517  24.364  1.00  0.00    -0.354 N 
ATOM     62  C   UNL A   1      33.646  28.512  23.063  1.00  0.00     0.243 C 
ATOM     63  H   UNL A   1      34.966  28.873  24.521  1.00  0.00     0.163 HD
ATOM     64  O   UNL A   1      34.509  28.582  22.187  1.00  0.00    -0.273 OA
BRANCH  62  65
ATOM     65  C   UNL A   1      32.138  28.449  22.751  1.00  0.00     0.179 C 
ATOM     66  C   UNL A   1      31.424  29.418  23.721  1.00  0.00     0.071 C 
ATOM     67  N   UNL A   1      31.599  27.062  22.858  1.00  0.00    -0.323 N 
ATOM     68  C   UNL A   1      29.942  29.343  23.502  1.00  0.00    -0.040 A 
ATOM     69  C   UNL A   1      30.315  26.872  23.545  1.00  0.00     0.156 C 
ATOM     70  C   UNL A   1      29.134  30.478  23.413  1.00  0.00     0.004 A 
ATOM     71  C   UNL A   1      29.392  28.059  23.383  1.00  0.00    -0.025 A 
ATOM     72  C   UNL A   1      27.768  30.335  23.186  1.00  0.00     0.000 A 
ATOM     73  C   UNL A   1      28.020  27.924  23.161  1.00  0.00     0.006 A 
ATOM     74  C   UNL A   1      27.213  29.060  23.056  1.00  0.00     0.000 A 
BRANCH  67  75
ATOM     75  C   UNL A   1      32.134  25.943  22.230  1.00  0.00     0.261 C 
ATOM     76  O   UNL A   1      32.196  25.874  20.996  1.00  0.00    -0.271 OA
BRANCH  75  77
ATOM     77  C   UNL A   1      32.705  24.787  23.067  1.00  0.00     0.329 C 
BRANCH  77  78
ATOM     78  O   UNL A   1      33.864  24.128  22.568  1.00  0.00    -0.484 OA
BRANCH  78  79
ATOM     79  C   UNL A   1      34.844  23.908  23.499  1.00  0.00     0.120 A 
ATOM     80  C   UNL A   1      35.838  22.996  23.143  1.00  0.00     0.046 A 
ATOM     81  C   UNL A   1      34.850  24.466  24.778  1.00  0.00     0.046 A 
ATOM     82  C   UNL A   1      36.848  22.666  24.051  1.00  0.00     0.004 A 
ATOM     83  C   UNL A   1      35.856  24.134  25.686  1.00  0.00     0.004 A 
ATOM     84  C   UNL A   1      36.856  23.236  25.323  1.00  0.00     0.000 A 
ENDBRANCH  78  79
ENDBRANCH  77  78
ENDBRANCH  75  77
ENDBRANCH  67  75
ENDBRANCH  62  65
ENDBRANCH  60  61
ENDBRANCH  59  60
ENDBRANCH   1  59
TORSDOF 17
ENDMDL
MODEL 3
REMARK VINA RESULT:     -11.7      1.481      2.176
REMARK SMILES O=C(NCCCCCCNC(=O)[C@@H]1Cc2ccccc2CN1C(=O)COc1ccccc1)c1ccc(-c2c3nc(c(-c4ccccc4)c4ccc([nH]4)c(-c4ccccc4)c4nc(c(-c5ccccc5)c5ccc2[nH]5)C=C4)C=C3)cc1
REMARK SMILES IDX 7 1 6 2 5 3 4 4 3 5 1 6 2 7 33 9 34 10 80 11 35 12 79 13
REMARK SMILES IDX 36 14 37 15 38 16 73 17 39 18 78 19 72 20 74 21 40 22 77 23
REMARK SMILES IDX 71 24 70 25 41 27 63 28 48 29 62 30 49 31 52 32 61 33 75 34
REMARK SMILES IDX 50 35 51 36 60 38 76 39 53 40 42 41 43 42 47 43 44 44 46 45
REMARK SMILES IDX 45 46 64 47 65 48 69 49 66 50 68 51 67 52 54 53 55 54 59 55
REMARK SMILES IDX 56 56 58 57 57 58 8 59 9 60 10 61 11 62 12 64 13 65 14 66
REMARK SMILES IDX 22 67 15 68 21 69 16 70 20 71 17 72 19 73 18 74 23 75 24 76
REMARK SMILES IDX 25 77 26 78 27 79 28 80 32 81 29 82 31 83 30 84
REMARK H PARENT 3 8 74 26 52 37 10 63
REMARK Flexibility Score: inf
ROOT
ATOM      1  C   UNL A   1      36.238  21.666  24.688  1.00  0.00     0.002 C 
ENDROOT
BRANCH   1   2
ATOM      2  C   UNL A   1      36.428  20.175  24.986  1.00  0.00     0.002 C 
BRANCH   2   3
ATOM      3  C   UNL A   1      37.839  19.657  24.709  1.00  0.00     0.021 C 
BRANCH   3   4
ATOM      4  C   UNL A   1      38.877  20.137  25.717  1.00  0.00     0.116 C 
BRANCH   4   5
ATOM      5  N   UNL A   1      40.011  19.230  25.783  1.00  0.00    -0.352 N 
ATOM      6  O   UNL A   1      42.204  18.691  25.805  1.00  0.00    -0.269 OA
ATOM      7  C   UNL A   1      41.325  19.519  26.037  1.00  0.00     0.251 C 
ATOM      8  H   UNL A   1      39.807  18.279  25.625  1.00  0.00     0.163 HD
BRANCH   7   9
ATOM      9  C   UNL A   1      41.680  20.840  26.585  1.00  0.00     0.039 A 
ATOM     10  C   UNL A   1      41.561  21.089  27.957  1.00  0.00     0.014 A 
ATOM     11  C   UNL A   1      42.156  21.829  25.722  1.00  0.00     0.014 A 
ATOM     12  C   UNL A   1      41.817  22.362  28.452  1.00  0.00     0.010 A 
ATOM     13  C   UNL A   1      42.484  23.083  26.234  1.00  0.00     0.010 A 
ATOM     14  C   UNL A   1      42.302  23.363  27.599  1.00  0.00    -0.014 A 
BRANCH  14  15
ATOM     15  C   UNL A   1      42.690  24.683  28.146  1.00  0.00     0.031 A 
ATOM     16  C   UNL A   1      41.661  25.745  28.389  1.00  0.00     0.074 A 
ATOM     17  C   UNL A   1      43.993  24.932  28.370  1.00  0.00     0.049 A 
ATOM     18  N   UNL A   1      41.834  26.987  28.766  1.00  0.00    -0.248 NA
ATOM     19  C   UNL A   1      40.257  25.369  28.171  1.00  0.00     0.031 C 
ATOM     20  C   UNL A   1      45.083  23.973  28.169  1.00  0.00     0.029 A 
ATOM     21  N   UNL A   1      44.624  26.070  28.800  1.00  0.00    -0.354 N 
ATOM     22  C   UNL A   1      40.565  27.549  28.803  1.00  0.00     0.074 A 
ATOM     23  C   UNL A   1      39.636  26.519  28.389  1.00  0.00     0.031 C 
ATOM     24  C   UNL A   1      46.246  24.563  28.477  1.00  0.00     0.029 A 
ATOM     25  C   UNL A   1      45.992  25.954  28.830  1.00  0.00     0.049 A 
ATOM     26  H   UNL A   1      44.145  26.890  29.060  1.00  0.00     0.167 HD
ATOM     27  C   UNL A   1      40.211  28.811  29.146  1.00  0.00     0.031 A 
ATOM     28  C   UNL A   1      46.943  26.874  29.072  1.00  0.00     0.031 A 
ATOM     29  C   UNL A   1      41.149  29.833  29.535  1.00  0.00     0.049 A 
ATOM     30  C   UNL A   1      46.536  28.280  29.396  1.00  0.00     0.074 A 
ATOM     31  C   UNL A   1      40.891  31.130  29.940  1.00  0.00     0.029 A 
ATOM     32  N   UNL A   1      42.528  29.675  29.549  1.00  0.00    -0.354 N 
ATOM     33  N   UNL A   1      45.329  28.787  29.474  1.00  0.00    -0.248 NA
ATOM     34  C   UNL A   1      47.614  29.236  29.670  1.00  0.00     0.031 C 
ATOM     35  C   UNL A   1      42.116  31.779  30.132  1.00  0.00     0.029 A 
ATOM     36  C   UNL A   1      43.135  30.863  29.920  1.00  0.00     0.049 A 
ATOM     37  H   UNL A   1      43.004  28.844  29.327  1.00  0.00     0.167 HD
ATOM     38  C   UNL A   1      45.501  30.117  29.832  1.00  0.00     0.074 A 
ATOM     39  C   UNL A   1      46.928  30.335  29.960  1.00  0.00     0.031 C 
ATOM     40  C   UNL A   1      44.557  31.067  30.043  1.00  0.00     0.031 A 
BRANCH  27  41
ATOM     41  C   UNL A   1      38.751  29.168  29.058  1.00  0.00    -0.014 A 
ATOM     42  C   UNL A   1      37.905  29.092  30.175  1.00  0.00     0.009 A 
ATOM     43  C   UNL A   1      38.216  29.595  27.832  1.00  0.00     0.009 A 
ATOM     44  C   UNL A   1      36.543  29.384  30.053  1.00  0.00     0.001 A 
ATOM     45  C   UNL A   1      36.863  29.920  27.721  1.00  0.00     0.001 A 
ATOM     46  C   UNL A   1      36.025  29.800  28.828  1.00  0.00     0.000 A 
ENDBRANCH  27  41
BRANCH  28  47
ATOM     47  C   UNL A   1      48.371  26.475  28.983  1.00  0.00    -0.014 A 
ATOM     48  C   UNL A   1      49.067  26.568  27.769  1.00  0.00     0.009 A 
ATOM     49  C   UNL A   1      49.063  26.060  30.133  1.00  0.00     0.009 A 
ATOM     50  C   UNL A   1      50.425  26.247  27.709  1.00  0.00     0.001 A 
ATOM     51  C   UNL A   1      50.426  25.769  30.076  1.00  0.00     0.001 A 
ATOM     52  C   UNL A   1      51.105  25.858  28.862  1.00  0.00     0.000 A 
ENDBRANCH  28  47
BRANCH  40  53
ATOM     53  C   UNL A   1      45.026  32.425  30.483  1.00  0.00    -0.014 A 
ATOM     54  C   UNL A   1      45.352  33.426  29.555  1.00  0.00     0.009 A 
ATOM     55  C   UNL A   1      45.065  32.729  31.854  1.00  0.00     0.009 A 
ATOM     56  C   UNL A   1      45.720  34.700  29.993  1.00  0.00     0.001 A 
ATOM     57  C   UNL A   1      45.404  34.011  32.287  1.00  0.00     0.001 A 
ATOM     58  C   UNL A   1      45.736  34.994  31.356  1.00  0.00     0.000 A 
ENDBRANCH  40  53
ENDBRANCH  14  15
ENDBRANCH   7   9
ENDBRANCH   4   5
ENDBRANCH   3   4
ENDBRANCH   2   3
ENDBRANCH   1   2
BRANCH   1  59
ATOM     59  C   UNL A   1      35.793  22.497  25.897  1.00  0.00     0.021 C 
BRANCH  59  60
ATOM     60  C   UNL A   1      35.404  23.934  25.532  1.00  0.00     0.116 C 
BRANCH  60  61
ATOM     61  N   UNL A   1      35.144  24.009  24.107  1.00  0.00    -0.354 N 
ATOM     62  C   UNL A   1      34.085  24.579  23.460  1.00  0.00     0.243 C 
ATOM     63  H   UNL A   1      35.823  23.592  23.528  1.00  0.00     0.163 HD
ATOM     64  O   UNL A   1      33.862  24.222  22.303  1.00  0.00    -0.273 OA
BRANCH  62  65
ATOM     65  C   UNL A   1      33.244  25.648  24.183  1.00  0.00     0.179 C 
ATOM     66  C   UNL A   1      34.209  26.487  25.052  1.00  0.00     0.071 C 
ATOM     67  N   UNL A   1      32.148  25.046  24.999  1.00  0.00    -0.323 N 
ATOM     68  C   UNL A   1      33.427  27.502  25.831  1.00  0.00    -0.040 A 
ATOM     69  C   UNL A   1      31.922  25.575  26.349  1.00  0.00     0.156 C 
ATOM     70  C   UNL A   1      33.820  28.838  25.937  1.00  0.00     0.004 A 
ATOM     71  C   UNL A   1      32.258  27.046  26.457  1.00  0.00    -0.025 A 
ATOM     72  C   UNL A   1      33.032  29.732  26.658  1.00  0.00     0.000 A 
ATOM     73  C   UNL A   1      31.478  27.948  27.182  1.00  0.00     0.006 A 
ATOM     74  C   UNL A   1      31.862  29.289  27.276  1.00  0.00     0.000 A 
BRANCH  67  75
ATOM     75  C   UNL A   1      31.218  24.124  24.533  1.00  0.00     0.261 C 
ATOM     76  O   UNL A   1      30.337  24.456  23.730  1.00  0.00    -0.271 OA
BRANCH  75  77
ATOM     77  C   UNL A   1      31.300  22.654  24.976  1.00  0.00     0.329 C 
BRANCH  77  78
ATOM     78  O   UNL A   1      32.594  22.068  25.064  1.00  0.00    -0.484 OA
BRANCH  78  79
ATOM     79  C   UNL A   1      32.643  20.735  24.757  1.00  0.00     0.120 A 
ATOM     80  C   UNL A   1      32.380  20.397  23.429  1.00  0.00     0.046 A 
ATOM     81  C   UNL A   1      32.850  19.722  25.695  1.00  0.00     0.046 A 
ATOM     82  C   UNL A   1      32.353  19.057  23.036  1.00  0.00     0.004 A 
ATOM     83  C   UNL A   1      32.819  18.383  25.303  1.00  0.00     0.004 A 
ATOM     84  C   UNL A   1      32.572  18.050  23.974  1.00  0.00     0.000 A 
ENDBRANCH  78  79
ENDBRANCH  77  78
ENDBRANCH  75  77
ENDBRANCH  67  75
ENDBRANCH  62  65
ENDBRANCH  60  61
ENDBRANCH  59  60
ENDBRANCH   1  59
TORSDOF 17
ENDMDL
