MODEL 1
REMARK VINA RESULT:     -10.8      0.000      0.000
REMARK SMILES O=C(NCCCCCCNC(=O)[C@H]([C@@H]1CCOC1)[C@@H]1CCS(=O)(=O)C1)c1ccc(-c2c3nc(c(-c4ccccc4)c4ccc([nH]4)c(-c4ccccc4)c4nc(c(-c5ccccc5)c5ccc2[nH]5)C=C4)C=C3)cc1
REMARK SMILES IDX 6 1 5 2 4 3 3 4 1 5 2 6 26 8 27 9 73 10 28 11 72 12 29 13
REMARK SMILES IDX 30 14 31 15 66 16 32 17 71 18 65 19 67 20 33 21 70 22 64 23
REMARK SMILES IDX 63 24 34 26 56 27 41 28 55 29 42 30 45 31 54 32 68 33 43 34
REMARK SMILES IDX 44 35 53 37 69 38 46 39 35 40 36 41 40 42 37 43 39 44 38 45
REMARK SMILES IDX 57 46 58 47 62 48 59 49 61 50 60 51 47 52 48 53 52 54 49 55
REMARK SMILES IDX 51 56 50 57 7 58 8 59 9 60 10 61 11 62 12 64 13 65 19 66
REMARK SMILES IDX 20 67 25 68 21 69 22 70 23 71 24 72 14 73 15 74 18 75 16 76
REMARK SMILES IDX 17 77
REMARK H PARENT 3 7 67 25 45 36 10 63
REMARK Flexibility Score: inf
ROOT
ATOM      1  C   UNL A   1      31.752  30.193  25.756  1.00  0.00     0.002 C 
ENDROOT
BRANCH   1   2
ATOM      2  C   UNL A   1      31.456  31.498  26.501  1.00  0.00     0.021 C 
BRANCH   2   3
ATOM      3  C   UNL A   1      32.668  32.120  27.189  1.00  0.00     0.116 C 
BRANCH   3   4
ATOM      4  N   UNL A   1      32.453  33.532  27.463  1.00  0.00    -0.352 N 
ATOM      5  O   UNL A   1      32.603  35.412  28.704  1.00  0.00    -0.269 OA
ATOM      6  C   UNL A   1      33.086  34.334  28.376  1.00  0.00     0.251 C 
ATOM      7  H   UNL A   1      31.760  33.971  26.918  1.00  0.00     0.163 HD
BRANCH   6   8
ATOM      8  C   UNL A   1      34.372  33.892  28.949  1.00  0.00     0.039 A 
ATOM      9  C   UNL A   1      34.383  33.114  30.111  1.00  0.00     0.014 A 
ATOM     10  C   UNL A   1      35.565  34.209  28.295  1.00  0.00     0.014 A 
ATOM     11  C   UNL A   1      35.592  32.728  30.673  1.00  0.00     0.010 A 
ATOM     12  C   UNL A   1      36.775  33.747  28.814  1.00  0.00     0.010 A 
ATOM     13  C   UNL A   1      36.794  32.999  30.003  1.00  0.00    -0.014 A 
BRANCH  13  14
ATOM     14  C   UNL A   1      38.042  32.361  30.479  1.00  0.00     0.031 A 
ATOM     15  C   UNL A   1      38.556  31.094  29.865  1.00  0.00     0.074 A 
ATOM     16  C   UNL A   1      38.694  32.946  31.504  1.00  0.00     0.049 A 
ATOM     17  N   UNL A   1      39.605  30.390  30.205  1.00  0.00    -0.248 NA
ATOM     18  C   UNL A   1      37.796  30.538  28.735  1.00  0.00     0.031 C 
ATOM     19  C   UNL A   1      38.273  34.178  32.178  1.00  0.00     0.029 A 
ATOM     20  N   UNL A   1      39.843  32.589  32.159  1.00  0.00    -0.354 N 
ATOM     21  C   UNL A   1      39.620  29.296  29.350  1.00  0.00     0.074 A 
ATOM     22  C   UNL A   1      38.470  29.422  28.481  1.00  0.00     0.031 C 
ATOM     23  C   UNL A   1      39.163  34.487  33.131  1.00  0.00     0.029 A 
ATOM     24  C   UNL A   1      40.170  33.437  33.189  1.00  0.00     0.049 A 
ATOM     25  H   UNL A   1      40.382  31.802  31.917  1.00  0.00     0.167 HD
ATOM     26  C   UNL A   1      40.516  28.282  29.305  1.00  0.00     0.031 A 
ATOM     27  C   UNL A   1      41.146  33.358  34.111  1.00  0.00     0.031 A 
ATOM     28  C   UNL A   1      41.656  28.173  30.178  1.00  0.00     0.049 A 
ATOM     29  C   UNL A   1      42.085  32.190  34.065  1.00  0.00     0.074 A 
ATOM     30  C   UNL A   1      42.657  27.216  30.168  1.00  0.00     0.029 A 
ATOM     31  N   UNL A   1      41.939  29.038  31.225  1.00  0.00    -0.354 N 
ATOM     32  N   UNL A   1      42.132  31.205  33.202  1.00  0.00    -0.248 NA
ATOM     33  C   UNL A   1      43.101  32.117  35.123  1.00  0.00     0.031 C 
ATOM     34  C   UNL A   1      43.499  27.456  31.257  1.00  0.00     0.029 A 
ATOM     35  C   UNL A   1      43.066  28.604  31.902  1.00  0.00     0.049 A 
ATOM     36  H   UNL A   1      41.415  29.840  31.452  1.00  0.00     0.167 HD
ATOM     37  C   UNL A   1      43.191  30.403  33.603  1.00  0.00     0.074 A 
ATOM     38  C   UNL A   1      43.777  31.034  34.768  1.00  0.00     0.031 C 
ATOM     39  C   UNL A   1      43.632  29.243  33.060  1.00  0.00     0.031 A 
BRANCH  26  40
ATOM     40  C   UNL A   1      40.288  27.176  28.312  1.00  0.00    -0.014 A 
ATOM     41  C   UNL A   1      40.843  27.215  27.025  1.00  0.00     0.009 A 
ATOM     42  C   UNL A   1      39.579  26.029  28.711  1.00  0.00     0.009 A 
ATOM     43  C   UNL A   1      40.679  26.136  26.152  1.00  0.00     0.001 A 
ATOM     44  C   UNL A   1      39.440  24.943  27.846  1.00  0.00     0.001 A 
ATOM     45  C   UNL A   1      39.986  24.999  26.566  1.00  0.00     0.000 A 
ENDBRANCH  26  40
BRANCH  27  46
ATOM     46  C   UNL A   1      41.240  34.378  35.191  1.00  0.00    -0.014 A 
ATOM     47  C   UNL A   1      40.500  34.242  36.374  1.00  0.00     0.009 A 
ATOM     48  C   UNL A   1      42.061  35.506  35.030  1.00  0.00     0.009 A 
ATOM     49  C   UNL A   1      40.552  35.235  37.356  1.00  0.00     0.001 A 
ATOM     50  C   UNL A   1      42.141  36.476  36.029  1.00  0.00     0.001 A 
ATOM     51  C   UNL A   1      41.374  36.348  37.184  1.00  0.00     0.000 A 
ENDBRANCH  27  46
BRANCH  39  52
ATOM     52  C   UNL A   1      44.818  28.591  33.712  1.00  0.00    -0.014 A 
ATOM     53  C   UNL A   1      46.128  28.942  33.352  1.00  0.00     0.009 A 
ATOM     54  C   UNL A   1      44.619  27.651  34.735  1.00  0.00     0.009 A 
ATOM     55  C   UNL A   1      47.217  28.344  33.988  1.00  0.00     0.001 A 
ATOM     56  C   UNL A   1      45.709  27.081  35.392  1.00  0.00     0.001 A 
ATOM     57  C   UNL A   1      47.006  27.421  35.013  1.00  0.00     0.000 A 
ENDBRANCH  39  52
ENDBRANCH  13  14
ENDBRANCH   6   8
ENDBRANCH   3   4
ENDBRANCH   2   3
ENDBRANCH   1   2
BRANCH   1  58
ATOM     58  C   UNL A   1      32.487  29.126  26.571  1.00  0.00     0.002 C 
BRANCH  58  59
ATOM     59  C   UNL A   1      31.632  27.913  26.932  1.00  0.00     0.021 C 
BRANCH  59  60
ATOM     60  C   UNL A   1      32.187  26.550  26.469  1.00  0.00     0.116 C 
BRANCH  60  61
ATOM     61  N   UNL A   1      31.294  25.476  26.870  1.00  0.00    -0.356 N 
ATOM     62  C   UNL A   1      31.179  24.153  26.631  1.00  0.00     0.223 C 
ATOM     63  H   UNL A   1      30.589  25.798  27.477  1.00  0.00     0.163 HD
ATOM     64  O   UNL A   1      30.209  23.619  27.192  1.00  0.00    -0.275 OA
BRANCH  62  65
ATOM     65  C   UNL A   1      32.147  23.240  25.829  1.00  0.00     0.088 C 
BRANCH  65  66
ATOM     66  C   UNL A   1      31.943  23.126  24.272  1.00  0.00     0.018 C 
ATOM     67  C   UNL A   1      32.889  22.238  23.437  1.00  0.00     0.021 C 
ATOM     68  C   UNL A   1      31.825  24.356  23.390  1.00  0.00     0.141 C 
ATOM     69  C   UNL A   1      34.034  23.079  22.861  1.00  0.00     0.137 C 
ATOM     70  S   UNL A   1      33.447  24.759  22.832  1.00  0.00     0.150 S 
ATOM     71  O   UNL A   1      34.098  25.533  23.865  1.00  0.00    -0.229 OA
ATOM     72  O   UNL A   1      33.356  25.236  21.467  1.00  0.00    -0.229 OA
ENDBRANCH  65  66
BRANCH  65  73
ATOM     73  C   UNL A   1      33.424  22.979  26.695  1.00  0.00     0.030 C 
ATOM     74  C   UNL A   1      34.732  23.653  26.341  1.00  0.00     0.035 C 
ATOM     75  C   UNL A   1      33.838  21.536  26.925  1.00  0.00     0.164 C 
ATOM     76  C   UNL A   1      35.666  22.532  25.924  1.00  0.00     0.160 C 
ATOM     77  O   UNL A   1      34.951  21.298  26.068  1.00  0.00    -0.381 OA
ENDBRANCH  65  73
ENDBRANCH  62  65
ENDBRANCH  60  61
ENDBRANCH  59  60
ENDBRANCH  58  59
ENDBRANCH   1  58
TORSDOF 15
ENDMDL
MODEL 2
REMARK VINA RESULT:     -10.8      3.746      8.912
REMARK SMILES O=C(NCCCCCCNC(=O)[C@H]([C@@H]1CCOC1)[C@@H]1CCS(=O)(=O)C1)c1ccc(-c2c3nc(c(-c4ccccc4)c4ccc([nH]4)c(-c4ccccc4)c4nc(c(-c5ccccc5)c5ccc2[nH]5)C=C4)C=C3)cc1
REMARK SMILES IDX 6 1 5 2 4 3 3 4 1 5 2 6 26 8 27 9 73 10 28 11 72 12 29 13
REMARK SMILES IDX 30 14 31 15 66 16 32 17 71 18 65 19 67 20 33 21 70 22 64 23
REMARK SMILES IDX 63 24 34 26 56 27 41 28 55 29 42 30 45 31 54 32 68 33 43 34
REMARK SMILES IDX 44 35 53 37 69 38 46 39 35 40 36 41 40 42 37 43 39 44 38 45
REMARK SMILES IDX 57 46 58 47 62 48 59 49 61 50 60 51 47 52 48 53 52 54 49 55
REMARK SMILES IDX 51 56 50 57 7 58 8 59 9 60 10 61 11 62 12 64 13 65 19 66
REMARK SMILES IDX 20 67 25 68 21 69 22 70 23 71 24 72 14 73 15 74 18 75 16 76
REMARK SMILES IDX 17 77
REMARK H PARENT 3 7 67 25 45 36 10 63
REMARK Flexibility Score: inf
ROOT
ATOM      1  C   UNL A   1      36.138  21.024  25.044  1.00  0.00     0.002 C 
ENDROOT
BRANCH   1   2
ATOM      2  C   UNL A   1      37.349  20.094  24.923  1.00  0.00     0.021 C 
BRANCH   2   3
ATOM      3  C   UNL A   1      38.601  20.592  25.640  1.00  0.00     0.116 C 
BRANCH   3   4
ATOM      4  N   UNL A   1      39.592  19.536  25.767  1.00  0.00    -0.352 N 
ATOM      5  O   UNL A   1      41.692  18.709  25.808  1.00  0.00    -0.269 OA
ATOM      6  C   UNL A   1      40.933  19.647  26.025  1.00  0.00     0.251 C 
ATOM      7  H   UNL A   1      39.254  18.619  25.654  1.00  0.00     0.163 HD
BRANCH   6   8
ATOM      8  C   UNL A   1      41.455  20.908  26.587  1.00  0.00     0.039 A 
ATOM      9  C   UNL A   1      41.965  21.890  25.732  1.00  0.00     0.014 A 
ATOM     10  C   UNL A   1      41.384  21.132  27.964  1.00  0.00     0.014 A 
ATOM     11  C   UNL A   1      42.489  23.061  26.259  1.00  0.00     0.010 A 
ATOM     12  C   UNL A   1      41.832  22.346  28.485  1.00  0.00     0.010 A 
ATOM     13  C   UNL A   1      42.383  23.319  27.634  1.00  0.00    -0.014 A 
BRANCH  13  14
ATOM     14  C   UNL A   1      42.710  24.672  28.139  1.00  0.00     0.031 A 
ATOM     15  C   UNL A   1      41.644  25.702  28.362  1.00  0.00     0.074 A 
ATOM     16  C   UNL A   1      44.007  24.959  28.371  1.00  0.00     0.049 A 
ATOM     17  N   UNL A   1      41.778  26.943  28.753  1.00  0.00    -0.248 NA
ATOM     18  C   UNL A   1      40.253  25.296  28.109  1.00  0.00     0.031 C 
ATOM     19  C   UNL A   1      45.124  24.028  28.177  1.00  0.00     0.029 A 
ATOM     20  N   UNL A   1      44.608  26.106  28.817  1.00  0.00    -0.354 N 
ATOM     21  C   UNL A   1      40.497  27.476  28.769  1.00  0.00     0.074 A 
ATOM     22  C   UNL A   1      39.597  26.428  28.339  1.00  0.00     0.031 C 
ATOM     23  C   UNL A   1      46.268  24.632  28.527  1.00  0.00     0.029 A 
ATOM     24  C   UNL A   1      45.977  26.011  28.891  1.00  0.00     0.049 A 
ATOM     25  H   UNL A   1      44.109  26.919  29.060  1.00  0.00     0.167 HD
ATOM     26  C   UNL A   1      40.116  28.731  29.109  1.00  0.00     0.031 A 
ATOM     27  C   UNL A   1      46.903  26.943  29.176  1.00  0.00     0.031 A 
ATOM     28  C   UNL A   1      41.027  29.762  29.536  1.00  0.00     0.049 A 
ATOM     29  C   UNL A   1      46.448  28.336  29.493  1.00  0.00     0.074 A 
ATOM     30  C   UNL A   1      40.730  31.045  29.963  1.00  0.00     0.029 A 
ATOM     31  N   UNL A   1      42.407  29.635  29.573  1.00  0.00    -0.354 N 
ATOM     32  N   UNL A   1      45.227  28.803  29.579  1.00  0.00    -0.248 NA
ATOM     33  C   UNL A   1      47.497  29.333  29.745  1.00  0.00     0.031 C 
ATOM     34  C   UNL A   1      41.934  31.719  30.183  1.00  0.00     0.029 A 
ATOM     35  C   UNL A   1      42.978  30.835  29.962  1.00  0.00     0.049 A 
ATOM     36  H   UNL A   1      42.905  28.815  29.355  1.00  0.00     0.167 HD
ATOM     37  C   UNL A   1      45.359  30.144  29.910  1.00  0.00     0.074 A 
ATOM     38  C   UNL A   1      46.778  30.407  30.039  1.00  0.00     0.031 C 
ATOM     39  C   UNL A   1      44.392  31.077  30.082  1.00  0.00     0.031 A 
BRANCH  26  40
ATOM     40  C   UNL A   1      38.660  29.086  28.997  1.00  0.00    -0.014 A 
ATOM     41  C   UNL A   1      37.785  28.966  30.087  1.00  0.00     0.009 A 
ATOM     42  C   UNL A   1      38.178  29.642  27.799  1.00  0.00     0.009 A 
ATOM     43  C   UNL A   1      36.455  29.379  29.974  1.00  0.00     0.001 A 
ATOM     44  C   UNL A   1      36.856  30.078  27.698  1.00  0.00     0.001 A 
ATOM     45  C   UNL A   1      35.994  29.942  28.784  1.00  0.00     0.000 A 
ENDBRANCH  26  40
BRANCH  27  46
ATOM     46  C   UNL A   1      48.350  26.604  29.108  1.00  0.00    -0.014 A 
ATOM     47  C   UNL A   1      49.079  26.796  27.925  1.00  0.00     0.009 A 
ATOM     48  C   UNL A   1      49.006  26.067  30.228  1.00  0.00     0.009 A 
ATOM     49  C   UNL A   1      50.423  26.420  27.856  1.00  0.00     0.001 A 
ATOM     50  C   UNL A   1      50.358  25.729  30.167  1.00  0.00     0.001 A 
ATOM     51  C   UNL A   1      51.061  25.891  28.977  1.00  0.00     0.000 A 
ENDBRANCH  27  46
BRANCH  39  52
ATOM     52  C   UNL A   1      44.838  32.464  30.447  1.00  0.00    -0.014 A 
ATOM     53  C   UNL A   1      45.042  32.833  31.785  1.00  0.00     0.009 A 
ATOM     54  C   UNL A   1      45.105  33.397  29.433  1.00  0.00     0.009 A 
ATOM     55  C   UNL A   1      45.482  34.119  32.102  1.00  0.00     0.001 A 
ATOM     56  C   UNL A   1      45.577  34.671  29.751  1.00  0.00     0.001 A 
ATOM     57  C   UNL A   1      45.757  35.033  31.085  1.00  0.00     0.000 A 
ENDBRANCH  39  52
ENDBRANCH  13  14
ENDBRANCH   6   8
ENDBRANCH   3   4
ENDBRANCH   2   3
ENDBRANCH   1   2
BRANCH   1  58
ATOM     58  C   UNL A   1      36.413  22.499  24.739  1.00  0.00     0.002 C 
BRANCH  58  59
ATOM     59  C   UNL A   1      35.770  23.473  25.723  1.00  0.00     0.021 C 
BRANCH  59  60
ATOM     60  C   UNL A   1      34.563  24.265  25.180  1.00  0.00     0.116 C 
BRANCH  60  61
ATOM     61  N   UNL A   1      33.399  24.061  26.027  1.00  0.00    -0.356 N 
ATOM     62  C   UNL A   1      32.325  24.782  26.411  1.00  0.00     0.223 C 
ATOM     63  H   UNL A   1      33.393  23.159  26.424  1.00  0.00     0.163 HD
ATOM     64  O   UNL A   1      31.570  24.186  27.195  1.00  0.00    -0.275 OA
BRANCH  62  65
ATOM     65  C   UNL A   1      31.900  26.195  25.925  1.00  0.00     0.088 C 
BRANCH  65  66
ATOM     66  C   UNL A   1      30.662  26.307  24.960  1.00  0.00     0.018 C 
ATOM     67  C   UNL A   1      30.519  25.327  23.777  1.00  0.00     0.021 C 
ATOM     68  C   UNL A   1      30.271  27.623  24.312  1.00  0.00     0.141 C 
ATOM     69  C   UNL A   1      31.109  25.944  22.503  1.00  0.00     0.137 C 
ATOM     70  S   UNL A   1      31.094  27.706  22.755  1.00  0.00     0.150 S 
ATOM     71  O   UNL A   1      32.437  28.189  22.983  1.00  0.00    -0.229 OA
ATOM     72  O   UNL A   1      30.207  28.342  21.802  1.00  0.00    -0.229 OA
ENDBRANCH  65  66
BRANCH  65  73
ATOM     73  C   UNL A   1      32.530  27.265  26.878  1.00  0.00     0.030 C 
ATOM     74  C   UNL A   1      31.641  28.244  27.612  1.00  0.00     0.035 C 
ATOM     75  C   UNL A   1      33.623  28.156  26.314  1.00  0.00     0.164 C 
ATOM     76  C   UNL A   1      31.978  29.608  27.037  1.00  0.00     0.160 C 
ATOM     77  O   UNL A   1      33.019  29.422  26.069  1.00  0.00    -0.381 OA
ENDBRANCH  65  73
ENDBRANCH  62  65
ENDBRANCH  60  61
ENDBRANCH  59  60
ENDBRANCH  58  59
ENDBRANCH   1  58
TORSDOF 15
ENDMDL
MODEL 3
REMARK VINA RESULT:     -10.8      1.472      6.418
REMARK SMILES O=C(NCCCCCCNC(=O)[C@H]([C@@H]1CCOC1)[C@@H]1CCS(=O)(=O)C1)c1ccc(-c2c3nc(c(-c4ccccc4)c4ccc([nH]4)c(-c4ccccc4)c4nc(c(-c5ccccc5)c5ccc2[nH]5)C=C4)C=C3)cc1
REMARK SMILES IDX 6 1 5 2 4 3 3 4 1 5 2 6 26 8 27 9 73 10 28 11 72 12 29 13
REMARK SMILES IDX 30 14 31 15 66 16 32 17 71 18 65 19 67 20 33 21 70 22 64 23
REMARK SMILES IDX 63 24 34 26 56 27 41 28 55 29 42 30 45 31 54 32 68 33 43 34
REMARK SMILES IDX 44 35 53 37 69 38 46 39 35 40 36 41 40 42 37 43 39 44 38 45
REMARK SMILES IDX 57 46 58 47 62 48 59 49 61 50 60 51 47 52 48 53 52 54 49 55
REMARK SMILES IDX 51 56 50 57 7 58 8 59 9 60 10 61 11 62 12 64 13 65 19 66
REMARK SMILES IDX 20 67 25 68 21 69 22 70 23 71 24 72 14 73 15 74 18 75 16 76
REMARK SMILES IDX 17 77
REMARK H PARENT 3 7 67 25 45 36 10 63
REMARK Flexibility Score: inf
ROOT
ATOM      1  C   UNL A   1      32.012  29.779  25.403  1.00  0.00     0.002 C 
ENDROOT
BRANCH   1   2
ATOM      2  C   UNL A   1      31.580  30.990  26.236  1.00  0.00     0.021 C 
BRANCH   2   3
ATOM      3  C   UNL A   1      32.693  31.604  27.080  1.00  0.00     0.116 C 
BRANCH   3   4
ATOM      4  N   UNL A   1      32.446  33.014  27.336  1.00  0.00    -0.352 N 
ATOM      5  O   UNL A   1      32.578  34.919  28.540  1.00  0.00    -0.269 OA
ATOM      6  C   UNL A   1      33.082  33.849  28.217  1.00  0.00     0.251 C 
ATOM      7  H   UNL A   1      31.726  33.424  26.804  1.00  0.00     0.163 HD
BRANCH   6   8
ATOM      8  C   UNL A   1      34.396  33.454  28.760  1.00  0.00     0.039 A 
ATOM      9  C   UNL A   1      34.468  32.803  29.995  1.00  0.00     0.014 A 
ATOM     10  C   UNL A   1      35.551  33.685  28.010  1.00  0.00     0.014 A 
ATOM     11  C   UNL A   1      35.704  32.463  30.526  1.00  0.00     0.010 A 
ATOM     12  C   UNL A   1      36.786  33.265  28.506  1.00  0.00     0.010 A 
ATOM     13  C   UNL A   1      36.868  32.647  29.765  1.00  0.00    -0.014 A 
BRANCH  13  14
ATOM     14  C   UNL A   1      38.137  32.046  30.235  1.00  0.00     0.031 A 
ATOM     15  C   UNL A   1      39.036  32.768  31.192  1.00  0.00     0.074 A 
ATOM     16  C   UNL A   1      38.472  30.832  29.754  1.00  0.00     0.049 A 
ATOM     17  N   UNL A   1      40.201  32.395  31.656  1.00  0.00    -0.248 NA
ATOM     18  C   UNL A   1      38.580  34.076  31.687  1.00  0.00     0.031 C 
ATOM     19  C   UNL A   1      37.669  30.047  28.810  1.00  0.00     0.029 A 
ATOM     20  N   UNL A   1      39.569  30.044  29.987  1.00  0.00    -0.354 N 
ATOM     21  C   UNL A   1      40.631  33.429  32.477  1.00  0.00     0.074 A 
ATOM     22  C   UNL A   1      39.608  34.452  32.440  1.00  0.00     0.031 C 
ATOM     23  C   UNL A   1      38.286  28.883  28.566  1.00  0.00     0.029 A 
ATOM     24  C   UNL A   1      39.561  28.873  29.270  1.00  0.00     0.049 A 
ATOM     25  H   UNL A   1      40.291  30.293  30.607  1.00  0.00     0.167 HD
ATOM     26  C   UNL A   1      41.780  33.510  33.188  1.00  0.00     0.031 A 
ATOM     27  C   UNL A   1      40.496  27.913  29.153  1.00  0.00     0.031 A 
ATOM     28  C   UNL A   1      42.787  32.481  33.214  1.00  0.00     0.049 A 
ATOM     29  C   UNL A   1      41.780  28.064  29.912  1.00  0.00     0.074 A 
ATOM     30  C   UNL A   1      43.956  32.443  33.954  1.00  0.00     0.029 A 
ATOM     31  N   UNL A   1      42.755  31.321  32.454  1.00  0.00    -0.354 N 
ATOM     32  N   UNL A   1      42.138  29.011  30.744  1.00  0.00    -0.248 NA
ATOM     33  C   UNL A   1      42.793  27.020  29.712  1.00  0.00     0.031 C 
ATOM     34  C   UNL A   1      44.668  31.299  33.584  1.00  0.00     0.029 A 
ATOM     35  C   UNL A   1      43.911  30.589  32.667  1.00  0.00     0.049 A 
ATOM     36  H   UNL A   1      42.021  31.059  31.854  1.00  0.00     0.167 HD
ATOM     37  C   UNL A   1      43.410  28.670  31.178  1.00  0.00     0.074 A 
ATOM     38  C   UNL A   1      43.748  27.414  30.541  1.00  0.00     0.031 C 
ATOM     39  C   UNL A   1      44.230  29.342  32.022  1.00  0.00     0.031 A 
BRANCH  26  40
ATOM     40  C   UNL A   1      42.044  34.767  33.970  1.00  0.00    -0.014 A 
ATOM     41  C   UNL A   1      41.711  34.874  35.329  1.00  0.00     0.009 A 
ATOM     42  C   UNL A   1      42.727  35.830  33.353  1.00  0.00     0.009 A 
ATOM     43  C   UNL A   1      42.042  36.026  36.047  1.00  0.00     0.001 A 
ATOM     44  C   UNL A   1      43.079  36.967  34.081  1.00  0.00     0.001 A 
ATOM     45  C   UNL A   1      42.731  37.067  35.426  1.00  0.00     0.000 A 
ENDBRANCH  26  40
BRANCH  27  46
ATOM     46  C   UNL A   1      40.277  26.764  28.233  1.00  0.00    -0.014 A 
ATOM     47  C   UNL A   1      40.799  26.776  26.932  1.00  0.00     0.009 A 
ATOM     48  C   UNL A   1      39.524  25.655  28.651  1.00  0.00     0.009 A 
ATOM     49  C   UNL A   1      40.539  25.717  26.058  1.00  0.00     0.001 A 
ATOM     50  C   UNL A   1      39.299  24.581  27.789  1.00  0.00     0.001 A 
ATOM     51  C   UNL A   1      39.793  24.621  26.488  1.00  0.00     0.000 A 
ENDBRANCH  27  46
BRANCH  39  52
ATOM     52  C   UNL A   1      45.565  28.720  32.318  1.00  0.00    -0.014 A 
ATOM     53  C   UNL A   1      46.699  29.041  31.557  1.00  0.00     0.009 A 
ATOM     54  C   UNL A   1      45.697  27.840  33.403  1.00  0.00     0.009 A 
ATOM     55  C   UNL A   1      47.936  28.472  31.863  1.00  0.00     0.001 A 
ATOM     56  C   UNL A   1      46.941  27.300  33.726  1.00  0.00     0.001 A 
ATOM     57  C   UNL A   1      48.058  27.610  32.952  1.00  0.00     0.000 A 
ENDBRANCH  39  52
ENDBRANCH  13  14
ENDBRANCH   6   8
ENDBRANCH   3   4
ENDBRANCH   2   3
ENDBRANCH   1   2
BRANCH   1  58
ATOM     58  C   UNL A   1      30.968  29.262  24.412  1.00  0.00     0.002 C 
BRANCH  58  59
ATOM     59  C   UNL A   1      31.517  28.973  23.016  1.00  0.00     0.021 C 
BRANCH  59  60
ATOM     60  C   UNL A   1      32.937  28.373  22.974  1.00  0.00     0.116 C 
BRANCH  60  61
ATOM     61  N   UNL A   1      33.021  27.338  21.957  1.00  0.00    -0.356 N 
ATOM     62  C   UNL A   1      33.076  25.990  21.929  1.00  0.00     0.223 C 
ATOM     63  H   UNL A   1      33.042  27.722  21.050  1.00  0.00     0.163 HD
ATOM     64  O   UNL A   1      33.167  25.510  20.788  1.00  0.00    -0.275 OA
BRANCH  62  65
ATOM     65  C   UNL A   1      32.950  25.004  23.123  1.00  0.00     0.088 C 
BRANCH  65  66
ATOM     66  C   UNL A   1      31.521  24.452  23.484  1.00  0.00     0.018 C 
ATOM     67  C   UNL A   1      30.325  25.421  23.578  1.00  0.00     0.021 C 
ATOM     68  C   UNL A   1      31.290  23.567  24.696  1.00  0.00     0.141 C 
ATOM     69  C   UNL A   1      30.120  25.872  25.030  1.00  0.00     0.137 C 
ATOM     70  S   UNL A   1      30.878  24.622  26.046  1.00  0.00     0.150 S 
ATOM     71  O   UNL A   1      32.109  25.121  26.616  1.00  0.00    -0.229 OA
ATOM     72  O   UNL A   1      29.877  23.959  26.857  1.00  0.00    -0.229 OA
ENDBRANCH  65  66
BRANCH  65  73
ATOM     73  C   UNL A   1      34.364  24.409  23.434  1.00  0.00     0.030 C 
ATOM     74  C   UNL A   1      34.660  22.957  23.128  1.00  0.00     0.035 C 
ATOM     75  C   UNL A   1      34.906  24.575  24.842  1.00  0.00     0.164 C 
ATOM     76  C   UNL A   1      34.880  22.295  24.476  1.00  0.00     0.160 C 
ATOM     77  O   UNL A   1      34.758  23.310  25.480  1.00  0.00    -0.381 OA
ENDBRANCH  65  73
ENDBRANCH  62  65
ENDBRANCH  60  61
ENDBRANCH  59  60
ENDBRANCH  58  59
ENDBRANCH   1  58
TORSDOF 15
ENDMDL
