MODEL 1
REMARK VINA RESULT:     -11.0      0.000      0.000
REMARK SMILES COc1ccc(OC)c(NC(=O)[C@@H]2[C@@H](C(=O)NCCCCCCNC(=O)c3ccc(-c4c5nc(c(-c6ccccc6)c6ccc([nH]6)c(-c6ccccc6)c6nc(c(-c7ccccc7)c7ccc4[nH]7)C=C6)C=C5)cc3)[C@H]3C=C[C@@H]2C3)c1
REMARK SMILES IDX 20 1 19 2 18 3 17 4 15 5 16 6 14 8 13 9 78 10 75 11 77 12
REMARK SMILES IDX 79 13 76 14 11 15 10 16 12 18 9 19 3 20 4 21 80 22 5 23 6 24
REMARK SMILES IDX 2 25 1 26 7 27 8 28 21 29 22 30 23 31 24 32 25 33 26 35
REMARK SMILES IDX 27 36 28 37 74 38 29 39 73 40 30 41 31 42 32 43 67 44 33 45
REMARK SMILES IDX 72 46 66 47 68 48 34 49 71 50 65 51 64 52 35 54 57 55 42 56
REMARK SMILES IDX 56 57 43 58 46 59 55 60 69 61 44 62 45 63 54 65 70 66 47 67
REMARK SMILES IDX 36 68 37 69 41 70 38 71 40 72 39 73 58 74 59 75 63 76 60 77
REMARK SMILES IDX 62 78 61 79 48 80 49 81 53 82 50 83 52 84 51 85
REMARK H PARENT 17 7 10 17 24 34 68 53 46 64
REMARK Flexibility Score: inf
ROOT
ATOM      1  C   UNL A   1      36.058  21.951  24.793  1.00  0.00     0.002 C 
ENDROOT
BRANCH   1   2
ATOM      2  C   UNL A   1      35.885  22.812  26.042  1.00  0.00     0.021 C 
BRANCH   2   3
ATOM      3  C   UNL A   1      34.677  23.737  26.080  1.00  0.00     0.116 C 
BRANCH   3   4
ATOM      4  N   UNL A   1      34.655  24.730  25.041  1.00  0.00    -0.356 N 
ATOM      5  C   UNL A   1      34.015  25.922  24.977  1.00  0.00     0.224 C 
ATOM      6  O   UNL A   1      34.201  26.573  23.939  1.00  0.00    -0.275 OA
ATOM      7  H   UNL A   1      35.191  24.508  24.246  1.00  0.00     0.163 HD
BRANCH   5   8
ATOM      8  C   UNL A   1      33.144  26.548  26.070  1.00  0.00     0.098 C 
ATOM      9  C   UNL A   1      31.720  26.829  25.495  1.00  0.00     0.099 C 
ATOM     10  C   UNL A   1      31.296  28.113  26.257  1.00  0.00     0.025 C 
ATOM     11  C   UNL A   1      33.441  27.856  26.854  1.00  0.00     0.025 C 
ATOM     12  C   UNL A   1      32.044  29.266  25.649  1.00  0.00    -0.027 C 
ATOM     13  C   UNL A   1      32.092  28.010  27.572  1.00  0.00     0.017 C 
ATOM     14  C   UNL A   1      33.320  29.129  26.026  1.00  0.00    -0.027 C 
BRANCH   9  15
ATOM     15  C   UNL A   1      30.695  25.760  25.786  1.00  0.00     0.229 C 
ATOM     16  N   UNL A   1      30.584  24.594  25.095  1.00  0.00    -0.323 N 
ATOM     17  H   UNL A   1      29.800  24.071  25.380  1.00  0.00     0.170 HD
ATOM     18  O   UNL A   1      29.875  25.921  26.701  1.00  0.00    -0.274 OA
BRANCH  16  19
ATOM     19  C   UNL A   1      31.309  23.946  24.073  1.00  0.00     0.087 A 
ATOM     20  C   UNL A   1      32.493  21.879  23.541  1.00  0.00     0.121 A 
ATOM     21  C   UNL A   1      33.105  22.487  22.456  1.00  0.00     0.050 A 
ATOM     22  C   UNL A   1      31.631  22.608  24.362  1.00  0.00     0.076 A 
ATOM     23  C   UNL A   1      32.720  23.775  22.098  1.00  0.00     0.052 A 
ATOM     24  C   UNL A   1      31.760  24.466  22.853  1.00  0.00     0.142 A 
BRANCH  20  25
ATOM     25  O   UNL A   1      32.821  20.579  23.811  1.00  0.00    -0.497 OA
ATOM     26  C   UNL A   1      32.366  20.191  25.108  1.00  0.00     0.278 C 
ENDBRANCH  20  25
BRANCH  24  27
ATOM     27  O   UNL A   1      31.295  25.603  22.247  1.00  0.00    -0.495 OA
ATOM     28  C   UNL A   1      32.046  25.916  21.074  1.00  0.00     0.278 C 
ENDBRANCH  24  27
ENDBRANCH  16  19
ENDBRANCH   9  15
ENDBRANCH   5   8
ENDBRANCH   3   4
ENDBRANCH   2   3
ENDBRANCH   1   2
BRANCH   1  29
ATOM     29  C   UNL A   1      36.093  20.433  24.990  1.00  0.00     0.002 C 
BRANCH  29  30
ATOM     30  C   UNL A   1      37.444  19.732  24.816  1.00  0.00     0.021 C 
BRANCH  30  31
ATOM     31  C   UNL A   1      38.589  20.221  25.698  1.00  0.00     0.116 C 
BRANCH  31  32
ATOM     32  N   UNL A   1      39.744  19.344  25.683  1.00  0.00    -0.352 N 
ATOM     33  C   UNL A   1      41.047  19.597  26.033  1.00  0.00     0.251 C 
ATOM     34  H   UNL A   1      39.565  18.426  25.374  1.00  0.00     0.163 HD
ATOM     35  O   UNL A   1      41.904  18.739  25.849  1.00  0.00    -0.269 OA
BRANCH  33  36
ATOM     36  C   UNL A   1      41.436  20.906  26.604  1.00  0.00     0.039 A 
ATOM     37  C   UNL A   1      41.955  21.878  25.742  1.00  0.00     0.014 A 
ATOM     38  C   UNL A   1      41.325  21.177  27.971  1.00  0.00     0.014 A 
ATOM     39  C   UNL A   1      42.314  23.132  26.239  1.00  0.00     0.010 A 
ATOM     40  C   UNL A   1      41.619  22.452  28.455  1.00  0.00     0.010 A 
ATOM     41  C   UNL A   1      42.122  23.440  27.596  1.00  0.00    -0.014 A 
BRANCH  41  42
ATOM     42  C   UNL A   1      42.446  24.790  28.125  1.00  0.00     0.031 A 
ATOM     43  C   UNL A   1      43.852  25.128  28.541  1.00  0.00     0.074 A 
ATOM     44  C   UNL A   1      41.464  25.701  28.275  1.00  0.00     0.049 A 
ATOM     45  N   UNL A   1      44.319  26.241  29.049  1.00  0.00    -0.248 NA
ATOM     46  C   UNL A   1      44.863  24.068  28.388  1.00  0.00     0.031 C 
ATOM     47  C   UNL A   1      40.053  25.489  27.942  1.00  0.00     0.029 A 
ATOM     48  N   UNL A   1      41.504  26.989  28.746  1.00  0.00    -0.354 N 
ATOM     49  C   UNL A   1      45.667  26.010  29.293  1.00  0.00     0.074 A 
ATOM     50  C   UNL A   1      45.935  24.638  28.920  1.00  0.00     0.031 C 
ATOM     51  C   UNL A   1      39.370  26.618  28.189  1.00  0.00     0.029 A 
ATOM     52  C   UNL A   1      40.282  27.619  28.734  1.00  0.00     0.049 A 
ATOM     53  H   UNL A   1      42.329  27.422  29.064  1.00  0.00     0.167 HD
ATOM     54  C   UNL A   1      46.602  26.866  29.769  1.00  0.00     0.031 A 
ATOM     55  C   UNL A   1      39.936  28.860  29.118  1.00  0.00     0.031 A 
ATOM     56  C   UNL A   1      46.341  28.236  30.126  1.00  0.00     0.049 A 
ATOM     57  C   UNL A   1      40.992  29.788  29.651  1.00  0.00     0.074 A 
ATOM     58  C   UNL A   1      47.236  29.200  30.559  1.00  0.00     0.029 A 
ATOM     59  N   UNL A   1      45.092  28.834  30.095  1.00  0.00    -0.354 N 
ATOM     60  N   UNL A   1      42.277  29.576  29.806  1.00  0.00    -0.248 NA
ATOM     61  C   UNL A   1      40.551  31.132  30.048  1.00  0.00     0.031 C 
ATOM     62  C   UNL A   1      46.518  30.367  30.841  1.00  0.00     0.029 A 
ATOM     63  C   UNL A   1      45.188  30.148  30.525  1.00  0.00     0.049 A 
ATOM     64  H   UNL A   1      44.259  28.392  29.810  1.00  0.00     0.167 HD
ATOM     65  C   UNL A   1      42.801  30.770  30.283  1.00  0.00     0.074 A 
ATOM     66  C   UNL A   1      41.700  31.705  30.378  1.00  0.00     0.031 C 
ATOM     67  C   UNL A   1      44.082  31.068  30.610  1.00  0.00     0.031 A 
BRANCH  54  68
ATOM     68  C   UNL A   1      48.001  26.341  29.944  1.00  0.00    -0.014 A 
ATOM     69  C   UNL A   1      48.945  26.415  28.907  1.00  0.00     0.009 A 
ATOM     70  C   UNL A   1      48.394  25.802  31.179  1.00  0.00     0.009 A 
ATOM     71  C   UNL A   1      50.241  25.927  29.091  1.00  0.00     0.001 A 
ATOM     72  C   UNL A   1      49.699  25.343  31.371  1.00  0.00     0.001 A 
ATOM     73  C   UNL A   1      50.618  25.397  30.324  1.00  0.00     0.000 A 
ENDBRANCH  54  68
BRANCH  55  74
ATOM     74  C   UNL A   1      38.526  29.317  28.993  1.00  0.00    -0.014 A 
ATOM     75  C   UNL A   1      37.666  29.281  30.103  1.00  0.00     0.009 A 
ATOM     76  C   UNL A   1      38.025  29.769  27.763  1.00  0.00     0.009 A 
ATOM     77  C   UNL A   1      36.327  29.656  29.973  1.00  0.00     0.001 A 
ATOM     78  C   UNL A   1      36.693  30.172  27.644  1.00  0.00     0.001 A 
ATOM     79  C   UNL A   1      35.843  30.105  28.746  1.00  0.00     0.000 A 
ENDBRANCH  55  74
BRANCH  67  80
ATOM     80  C   UNL A   1      44.369  32.475  31.053  1.00  0.00    -0.014 A 
ATOM     81  C   UNL A   1      44.702  33.481  30.133  1.00  0.00     0.009 A 
ATOM     82  C   UNL A   1      44.279  32.802  32.415  1.00  0.00     0.009 A 
ATOM     83  C   UNL A   1      44.979  34.777  30.575  1.00  0.00     0.001 A 
ATOM     84  C   UNL A   1      44.525  34.105  32.850  1.00  0.00     0.001 A 
ATOM     85  C   UNL A   1      44.886  35.088  31.930  1.00  0.00     0.000 A 
ENDBRANCH  67  80
ENDBRANCH  41  42
ENDBRANCH  33  36
ENDBRANCH  31  32
ENDBRANCH  30  31
ENDBRANCH  29  30
ENDBRANCH   1  29
TORSDOF 17
ENDMDL
MODEL 2
REMARK VINA RESULT:     -10.7      1.221      3.215
REMARK SMILES COc1ccc(OC)c(NC(=O)[C@@H]2[C@@H](C(=O)NCCCCCCNC(=O)c3ccc(-c4c5nc(c(-c6ccccc6)c6ccc([nH]6)c(-c6ccccc6)c6nc(c(-c7ccccc7)c7ccc4[nH]7)C=C6)C=C5)cc3)[C@H]3C=C[C@@H]2C3)c1
REMARK SMILES IDX 20 1 19 2 18 3 17 4 15 5 16 6 14 8 13 9 78 10 75 11 77 12
REMARK SMILES IDX 79 13 76 14 11 15 10 16 12 18 9 19 3 20 4 21 80 22 5 23 6 24
REMARK SMILES IDX 2 25 1 26 7 27 8 28 21 29 22 30 23 31 24 32 25 33 26 35
REMARK SMILES IDX 27 36 28 37 74 38 29 39 73 40 30 41 31 42 32 43 67 44 33 45
REMARK SMILES IDX 72 46 66 47 68 48 34 49 71 50 65 51 64 52 35 54 57 55 42 56
REMARK SMILES IDX 56 57 43 58 46 59 55 60 69 61 44 62 45 63 54 65 70 66 47 67
REMARK SMILES IDX 36 68 37 69 41 70 38 71 40 72 39 73 58 74 59 75 63 76 60 77
REMARK SMILES IDX 62 78 61 79 48 80 49 81 53 82 50 83 52 84 51 85
REMARK H PARENT 17 7 10 17 24 34 68 53 46 64
REMARK Flexibility Score: inf
ROOT
ATOM      1  C   UNL A   1      35.417  18.127  24.749  1.00  0.00     0.002 C 
ENDROOT
BRANCH   1   2
ATOM      2  C   UNL A   1      34.012  18.271  24.168  1.00  0.00     0.021 C 
BRANCH   2   3
ATOM      3  C   UNL A   1      32.998  19.046  24.999  1.00  0.00     0.116 C 
BRANCH   3   4
ATOM      4  N   UNL A   1      32.358  20.126  24.299  1.00  0.00    -0.356 N 
ATOM      5  C   UNL A   1      32.363  21.458  24.545  1.00  0.00     0.224 C 
ATOM      6  O   UNL A   1      31.716  22.151  23.747  1.00  0.00    -0.275 OA
ATOM      7  H   UNL A   1      31.829  19.855  23.514  1.00  0.00     0.163 HD
BRANCH   5   8
ATOM      8  C   UNL A   1      33.122  22.174  25.666  1.00  0.00     0.098 C 
ATOM      9  C   UNL A   1      32.744  23.689  25.656  1.00  0.00     0.099 C 
ATOM     10  C   UNL A   1      34.060  24.368  26.121  1.00  0.00     0.025 C 
ATOM     11  C   UNL A   1      34.664  22.227  25.852  1.00  0.00     0.025 C 
ATOM     12  C   UNL A   1      35.015  24.342  24.960  1.00  0.00    -0.027 C 
ATOM     13  C   UNL A   1      34.728  23.273  26.974  1.00  0.00     0.017 C 
ATOM     14  C   UNL A   1      35.397  23.068  24.815  1.00  0.00    -0.027 C 
BRANCH   9  15
ATOM     15  C   UNL A   1      31.656  24.078  26.629  1.00  0.00     0.229 C 
ATOM     16  N   UNL A   1      31.143  25.331  26.745  1.00  0.00    -0.323 N 
ATOM     17  H   UNL A   1      30.507  25.400  27.494  1.00  0.00     0.170 HD
ATOM     18  O   UNL A   1      31.180  23.230  27.396  1.00  0.00    -0.274 OA
BRANCH  16  19
ATOM     19  C   UNL A   1      31.293  26.557  26.064  1.00  0.00     0.087 A 
ATOM     20  C   UNL A   1      31.769  28.927  26.410  1.00  0.00     0.121 A 
ATOM     21  C   UNL A   1      31.294  29.225  25.143  1.00  0.00     0.050 A 
ATOM     22  C   UNL A   1      31.738  27.613  26.881  1.00  0.00     0.076 A 
ATOM     23  C   UNL A   1      30.948  28.184  24.288  1.00  0.00     0.052 A 
ATOM     24  C   UNL A   1      31.033  26.851  24.719  1.00  0.00     0.142 A 
BRANCH  20  25
ATOM     25  O   UNL A   1      32.192  29.966  27.193  1.00  0.00    -0.497 OA
ATOM     26  C   UNL A   1      31.827  31.223  26.620  1.00  0.00     0.278 C 
ENDBRANCH  20  25
BRANCH  24  27
ATOM     27  O   UNL A   1      30.913  25.935  23.709  1.00  0.00    -0.495 OA
ATOM     28  C   UNL A   1      31.930  26.105  22.723  1.00  0.00     0.278 C 
ENDBRANCH  24  27
ENDBRANCH  16  19
ENDBRANCH   9  15
ENDBRANCH   5   8
ENDBRANCH   3   4
ENDBRANCH   2   3
ENDBRANCH   1   2
BRANCH   1  29
ATOM     29  C   UNL A   1      36.226  19.413  24.947  1.00  0.00     0.002 C 
BRANCH  29  30
ATOM     30  C   UNL A   1      37.714  19.369  24.587  1.00  0.00     0.021 C 
BRANCH  30  31
ATOM     31  C   UNL A   1      38.693  19.836  25.661  1.00  0.00     0.116 C 
BRANCH  31  32
ATOM     32  N   UNL A   1      39.920  19.065  25.697  1.00  0.00    -0.352 N 
ATOM     33  C   UNL A   1      41.192  19.449  26.041  1.00  0.00     0.251 C 
ATOM     34  H   UNL A   1      39.825  18.120  25.437  1.00  0.00     0.163 HD
ATOM     35  O   UNL A   1      42.123  18.662  25.907  1.00  0.00    -0.269 OA
BRANCH  33  36
ATOM     36  C   UNL A   1      41.459  20.816  26.544  1.00  0.00     0.039 A 
ATOM     37  C   UNL A   1      41.244  21.077  27.901  1.00  0.00     0.014 A 
ATOM     38  C   UNL A   1      41.886  21.843  25.697  1.00  0.00     0.014 A 
ATOM     39  C   UNL A   1      41.503  22.348  28.416  1.00  0.00     0.010 A 
ATOM     40  C   UNL A   1      42.210  23.092  26.225  1.00  0.00     0.010 A 
ATOM     41  C   UNL A   1      42.017  23.360  27.588  1.00  0.00    -0.014 A 
BRANCH  41  42
ATOM     42  C   UNL A   1      42.352  24.699  28.138  1.00  0.00     0.031 A 
ATOM     43  C   UNL A   1      43.757  25.013  28.576  1.00  0.00     0.074 A 
ATOM     44  C   UNL A   1      41.380  25.621  28.286  1.00  0.00     0.049 A 
ATOM     45  N   UNL A   1      44.232  26.114  29.104  1.00  0.00    -0.248 NA
ATOM     46  C   UNL A   1      44.756  23.942  28.424  1.00  0.00     0.031 C 
ATOM     47  C   UNL A   1      39.971  25.432  27.932  1.00  0.00     0.029 A 
ATOM     48  N   UNL A   1      41.431  26.902  28.774  1.00  0.00    -0.354 N 
ATOM     49  C   UNL A   1      45.573  25.861  29.363  1.00  0.00     0.074 A 
ATOM     50  C   UNL A   1      45.827  24.490  28.977  1.00  0.00     0.031 C 
ATOM     51  C   UNL A   1      39.299  26.567  28.185  1.00  0.00     0.029 A 
ATOM     52  C   UNL A   1      40.218  27.549  28.754  1.00  0.00     0.049 A 
ATOM     53  H   UNL A   1      42.257  27.320  29.108  1.00  0.00     0.167 HD
ATOM     54  C   UNL A   1      46.513  26.699  29.862  1.00  0.00     0.031 A 
ATOM     55  C   UNL A   1      39.883  28.790  29.149  1.00  0.00     0.031 A 
ATOM     56  C   UNL A   1      46.265  28.068  30.232  1.00  0.00     0.049 A 
ATOM     57  C   UNL A   1      40.944  29.697  29.707  1.00  0.00     0.074 A 
ATOM     58  C   UNL A   1      47.167  29.014  30.689  1.00  0.00     0.029 A 
ATOM     59  N   UNL A   1      45.025  28.683  30.192  1.00  0.00    -0.354 N 
ATOM     60  N   UNL A   1      42.224  29.466  29.876  1.00  0.00    -0.248 NA
ATOM     61  C   UNL A   1      40.515  31.042  30.114  1.00  0.00     0.031 C 
ATOM     62  C   UNL A   1      46.461  30.188  30.975  1.00  0.00     0.029 A 
ATOM     63  C   UNL A   1      45.132  29.990  30.639  1.00  0.00     0.049 A 
ATOM     64  H   UNL A   1      44.190  28.255  29.891  1.00  0.00     0.167 HD
ATOM     65  C   UNL A   1      42.758  30.647  30.375  1.00  0.00     0.074 A 
ATOM     66  C   UNL A   1      41.667  31.596  30.467  1.00  0.00     0.031 C 
ATOM     67  C   UNL A   1      44.038  30.924  30.721  1.00  0.00     0.031 A 
BRANCH  54  68
ATOM     68  C   UNL A   1      47.902  26.153  30.048  1.00  0.00    -0.014 A 
ATOM     69  C   UNL A   1      48.790  26.026  28.967  1.00  0.00     0.009 A 
ATOM     70  C   UNL A   1      48.346  25.799  31.332  1.00  0.00     0.009 A 
ATOM     71  C   UNL A   1      50.078  25.523  29.162  1.00  0.00     0.001 A 
ATOM     72  C   UNL A   1      49.645  25.325  31.529  1.00  0.00     0.001 A 
ATOM     73  C   UNL A   1      50.505  25.178  30.443  1.00  0.00     0.000 A 
ENDBRANCH  54  68
BRANCH  55  74
ATOM     74  C   UNL A   1      38.481  29.267  29.011  1.00  0.00    -0.014 A 
ATOM     75  C   UNL A   1      38.027  29.802  27.794  1.00  0.00     0.009 A 
ATOM     76  C   UNL A   1      37.595  29.215  30.099  1.00  0.00     0.009 A 
ATOM     77  C   UNL A   1      36.728  30.302  27.681  1.00  0.00     0.001 A 
ATOM     78  C   UNL A   1      36.288  29.688  29.973  1.00  0.00     0.001 A 
ATOM     79  C   UNL A   1      35.859  30.241  28.768  1.00  0.00     0.000 A 
ENDBRANCH  55  74
BRANCH  67  80
ATOM     80  C   UNL A   1      44.337  32.321  31.186  1.00  0.00    -0.014 A 
ATOM     81  C   UNL A   1      44.681  33.338  30.281  1.00  0.00     0.009 A 
ATOM     82  C   UNL A   1      44.249  32.629  32.553  1.00  0.00     0.009 A 
ATOM     83  C   UNL A   1      44.970  34.624  30.742  1.00  0.00     0.001 A 
ATOM     84  C   UNL A   1      44.506  33.923  33.007  1.00  0.00     0.001 A 
ATOM     85  C   UNL A   1      44.878  34.916  32.102  1.00  0.00     0.000 A 
ENDBRANCH  67  80
ENDBRANCH  41  42
ENDBRANCH  33  36
ENDBRANCH  31  32
ENDBRANCH  30  31
ENDBRANCH  29  30
ENDBRANCH   1  29
TORSDOF 17
ENDMDL
MODEL 3
REMARK VINA RESULT:     -10.6      3.043      8.374
REMARK SMILES COc1ccc(OC)c(NC(=O)[C@@H]2[C@@H](C(=O)NCCCCCCNC(=O)c3ccc(-c4c5nc(c(-c6ccccc6)c6ccc([nH]6)c(-c6ccccc6)c6nc(c(-c7ccccc7)c7ccc4[nH]7)C=C6)C=C5)cc3)[C@H]3C=C[C@@H]2C3)c1
REMARK SMILES IDX 20 1 19 2 18 3 17 4 15 5 16 6 14 8 13 9 78 10 75 11 77 12
REMARK SMILES IDX 79 13 76 14 11 15 10 16 12 18 9 19 3 20 4 21 80 22 5 23 6 24
REMARK SMILES IDX 2 25 1 26 7 27 8 28 21 29 22 30 23 31 24 32 25 33 26 35
REMARK SMILES IDX 27 36 28 37 74 38 29 39 73 40 30 41 31 42 32 43 67 44 33 45
REMARK SMILES IDX 72 46 66 47 68 48 34 49 71 50 65 51 64 52 35 54 57 55 42 56
REMARK SMILES IDX 56 57 43 58 46 59 55 60 69 61 44 62 45 63 54 65 70 66 47 67
REMARK SMILES IDX 36 68 37 69 41 70 38 71 40 72 39 73 58 74 59 75 63 76 60 77
REMARK SMILES IDX 62 78 61 79 48 80 49 81 53 82 50 83 52 84 51 85
REMARK H PARENT 17 7 10 17 24 34 68 53 46 64
REMARK Flexibility Score: inf
ROOT
ATOM      1  C   UNL A   1      31.669  29.842  26.150  1.00  0.00     0.002 C 
ENDROOT
BRANCH   1   2
ATOM      2  C   UNL A   1      33.154  29.491  26.202  1.00  0.00     0.021 C 
BRANCH   2   3
ATOM      3  C   UNL A   1      33.555  28.313  27.079  1.00  0.00     0.116 C 
BRANCH   3   4
ATOM      4  N   UNL A   1      34.185  27.231  26.372  1.00  0.00    -0.356 N 
ATOM      5  C   UNL A   1      33.646  26.167  25.731  1.00  0.00     0.224 C 
ATOM      6  O   UNL A   1      34.458  25.398  25.197  1.00  0.00    -0.275 OA
ATOM      7  H   UNL A   1      35.169  27.270  26.350  1.00  0.00     0.163 HD
BRANCH   5   8
ATOM      8  C   UNL A   1      32.154  25.862  25.567  1.00  0.00     0.098 C 
ATOM      9  C   UNL A   1      31.971  24.344  25.258  1.00  0.00     0.099 C 
ATOM     10  C   UNL A   1      30.730  24.337  24.325  1.00  0.00     0.025 C 
ATOM     11  C   UNL A   1      31.182  26.521  24.550  1.00  0.00     0.025 C 
ATOM     12  C   UNL A   1      31.179  24.816  22.973  1.00  0.00    -0.027 C 
ATOM     13  C   UNL A   1      29.968  25.604  24.759  1.00  0.00     0.017 C 
ATOM     14  C   UNL A   1      31.425  26.125  23.099  1.00  0.00    -0.027 C 
BRANCH   9  15
ATOM     15  C   UNL A   1      31.650  23.485  26.458  1.00  0.00     0.229 C 
ATOM     16  N   UNL A   1      32.268  22.309  26.747  1.00  0.00    -0.323 N 
ATOM     17  H   UNL A   1      31.858  21.859  27.521  1.00  0.00     0.170 HD
ATOM     18  O   UNL A   1      30.764  23.835  27.250  1.00  0.00    -0.274 OA
BRANCH  16  19
ATOM     19  C   UNL A   1      33.349  21.573  26.218  1.00  0.00     0.087 A 
ATOM     20  C   UNL A   1      35.769  21.625  25.908  1.00  0.00     0.121 A 
ATOM     21  C   UNL A   1      35.688  20.610  24.966  1.00  0.00     0.050 A 
ATOM     22  C   UNL A   1      34.610  22.126  26.502  1.00  0.00     0.076 A 
ATOM     23  C   UNL A   1      34.465  19.984  24.752  1.00  0.00     0.052 A 
ATOM     24  C   UNL A   1      33.319  20.407  25.442  1.00  0.00     0.142 A 
BRANCH  20  25
ATOM     25  O   UNL A   1      37.003  22.155  26.167  1.00  0.00    -0.497 OA
ATOM     26  C   UNL A   1      37.998  21.588  25.312  1.00  0.00     0.278 C 
ENDBRANCH  20  25
BRANCH  24  27
ATOM     27  O   UNL A   1      32.258  19.549  25.327  1.00  0.00    -0.495 OA
ATOM     28  C   UNL A   1      32.447  18.620  24.260  1.00  0.00     0.278 C 
ENDBRANCH  24  27
ENDBRANCH  16  19
ENDBRANCH   9  15
ENDBRANCH   5   8
ENDBRANCH   3   4
ENDBRANCH   2   3
ENDBRANCH   1   2
BRANCH   1  29
ATOM     29  C   UNL A   1      31.306  31.320  25.981  1.00  0.00     0.002 C 
BRANCH  29  30
ATOM     30  C   UNL A   1      31.502  32.235  27.194  1.00  0.00     0.021 C 
BRANCH  30  31
ATOM     31  C   UNL A   1      32.648  33.239  27.117  1.00  0.00     0.116 C 
BRANCH  31  32
ATOM     32  N   UNL A   1      32.490  34.365  28.018  1.00  0.00    -0.352 N 
ATOM     33  C   UNL A   1      33.256  34.750  29.090  1.00  0.00     0.251 C 
ATOM     34  H   UNL A   1      31.715  34.942  27.831  1.00  0.00     0.163 HD
ATOM     35  O   UNL A   1      32.892  35.685  29.794  1.00  0.00    -0.269 OA
BRANCH  33  36
ATOM     36  C   UNL A   1      34.505  34.028  29.424  1.00  0.00     0.039 A 
ATOM     37  C   UNL A   1      35.659  34.323  28.691  1.00  0.00     0.014 A 
ATOM     38  C   UNL A   1      34.546  33.050  30.423  1.00  0.00     0.014 A 
ATOM     39  C   UNL A   1      36.860  33.677  28.990  1.00  0.00     0.010 A 
ATOM     40  C   UNL A   1      35.761  32.457  30.767  1.00  0.00     0.010 A 
ATOM     41  C   UNL A   1      36.928  32.759  30.051  1.00  0.00    -0.014 A 
BRANCH  41  42
ATOM     42  C   UNL A   1      38.214  32.110  30.416  1.00  0.00     0.031 A 
ATOM     43  C   UNL A   1      39.155  32.776  31.383  1.00  0.00     0.074 A 
ATOM     44  C   UNL A   1      38.557  30.940  29.842  1.00  0.00     0.049 A 
ATOM     45  N   UNL A   1      40.331  32.375  31.800  1.00  0.00    -0.248 NA
ATOM     46  C   UNL A   1      38.733  34.073  31.937  1.00  0.00     0.031 C 
ATOM     47  C   UNL A   1      37.749  30.207  28.864  1.00  0.00     0.029 A 
ATOM     48  N   UNL A   1      39.676  30.161  29.999  1.00  0.00    -0.354 N 
ATOM     49  C   UNL A   1      40.793  33.376  32.646  1.00  0.00     0.074 A 
ATOM     50  C   UNL A   1      39.794  34.422  32.648  1.00  0.00     0.031 C 
ATOM     51  C   UNL A   1      38.384  29.071  28.534  1.00  0.00     0.029 A 
ATOM     52  C   UNL A   1      39.659  29.013  29.244  1.00  0.00     0.049 A 
ATOM     53  H   UNL A   1      40.421  30.401  30.596  1.00  0.00     0.167 HD
ATOM     54  C   UNL A   1      41.939  33.415  33.368  1.00  0.00     0.031 A 
ATOM     55  C   UNL A   1      40.566  28.026  29.134  1.00  0.00     0.031 A 
ATOM     56  C   UNL A   1      42.927  32.368  33.378  1.00  0.00     0.049 A 
ATOM     57  C   UNL A   1      41.833  28.098  29.941  1.00  0.00     0.074 A 
ATOM     58  C   UNL A   1      44.090  32.288  34.125  1.00  0.00     0.029 A 
ATOM     59  N   UNL A   1      42.869  31.222  32.602  1.00  0.00    -0.354 N 
ATOM     60  N   UNL A   1      42.221  29.017  30.792  1.00  0.00    -0.248 NA
ATOM     61  C   UNL A   1      42.781  26.986  29.781  1.00  0.00     0.031 C 
ATOM     62  C   UNL A   1      44.763  31.117  33.761  1.00  0.00     0.029 A 
ATOM     63  C   UNL A   1      43.988  30.440  32.833  1.00  0.00     0.049 A 
ATOM     64  H   UNL A   1      42.140  30.996  31.978  1.00  0.00     0.167 HD
ATOM     65  C   UNL A   1      43.438  28.577  31.295  1.00  0.00     0.074 A 
ATOM     66  C   UNL A   1      43.717  27.303  30.665  1.00  0.00     0.031 C 
ATOM     67  C   UNL A   1      44.250  29.171  32.202  1.00  0.00     0.031 A 
BRANCH  54  68
ATOM     68  C   UNL A   1      42.193  34.640  34.203  1.00  0.00    -0.014 A 
ATOM     69  C   UNL A   1      41.801  34.700  35.551  1.00  0.00     0.009 A 
ATOM     70  C   UNL A   1      42.871  35.735  33.646  1.00  0.00     0.009 A 
ATOM     71  C   UNL A   1      42.052  35.845  36.311  1.00  0.00     0.001 A 
ATOM     72  C   UNL A   1      43.148  36.866  34.417  1.00  0.00     0.001 A 
ATOM     73  C   UNL A   1      42.730  36.924  35.745  1.00  0.00     0.000 A 
ENDBRANCH  54  68
BRANCH  55  74
ATOM     74  C   UNL A   1      40.306  26.865  28.242  1.00  0.00    -0.014 A 
ATOM     75  C   UNL A   1      40.822  26.842  26.936  1.00  0.00     0.009 A 
ATOM     76  C   UNL A   1      39.524  25.785  28.680  1.00  0.00     0.009 A 
ATOM     77  C   UNL A   1      40.531  25.778  26.079  1.00  0.00     0.001 A 
ATOM     78  C   UNL A   1      39.261  24.709  27.830  1.00  0.00     0.001 A 
ATOM     79  C   UNL A   1      39.755  24.712  26.527  1.00  0.00     0.000 A 
ENDBRANCH  55  74
BRANCH  67  80
ATOM     80  C   UNL A   1      45.493  28.428  32.602  1.00  0.00    -0.014 A 
ATOM     81  C   UNL A   1      45.492  27.514  33.667  1.00  0.00     0.009 A 
ATOM     82  C   UNL A   1      46.682  28.629  31.881  1.00  0.00     0.009 A 
ATOM     83  C   UNL A   1      46.665  26.849  34.028  1.00  0.00     0.001 A 
ATOM     84  C   UNL A   1      47.845  27.939  32.224  1.00  0.00     0.001 A 
ATOM     85  C   UNL A   1      47.838  27.058  33.304  1.00  0.00     0.000 A 
ENDBRANCH  67  80
ENDBRANCH  41  42
ENDBRANCH  33  36
ENDBRANCH  31  32
ENDBRANCH  30  31
ENDBRANCH  29  30
ENDBRANCH   1  29
TORSDOF 17
ENDMDL
