MODEL 1
REMARK VINA RESULT:     -12.2      0.000      0.000
REMARK SMILES CC(=O)n1cc2c3c(cccc31)C(=O)C[C@@H]2C(=O)NCCCCCCNC(=O)c1ccc(-c2c3nc(c(-c4ccccc4)c4ccc([nH]4)c(-c4ccccc4)c4nc(c(-c5ccccc5)c5ccc2[nH]5)C=C4)C=C3)cc1
REMARK SMILES IDX 23 1 22 2 21 3 20 4 19 5 17 6 18 7 16 9 4 10 5 11 12 12 6 13
REMARK SMILES IDX 7 14 11 15 8 16 10 17 15 18 9 19 13 20 14 21 2 22 1 23 3 24
REMARK SMILES IDX 24 25 25 26 26 27 27 28 28 30 29 31 30 32 76 33 31 34 75 35
REMARK SMILES IDX 32 36 33 37 34 38 69 39 35 40 74 41 68 42 70 43 36 44 73 45
REMARK SMILES IDX 67 46 66 47 37 49 59 50 44 51 58 52 45 53 48 54 57 55 71 56
REMARK SMILES IDX 46 57 47 58 56 60 72 61 49 62 38 63 39 64 43 65 40 66 42 67
REMARK SMILES IDX 41 68 60 69 61 70 65 71 62 72 64 73 63 74 50 75 51 76 55 77
REMARK SMILES IDX 52 78 54 79 53 80
REMARK H PARENT 19 8 26 29 70 48 48 59
REMARK Flexibility Score: inf
ROOT
ATOM      1  C   UNL A   1      32.646  28.283  27.140  1.00  0.00     0.002 C 
ENDROOT
BRANCH   1   2
ATOM      2  C   UNL A   1      31.377  27.491  26.787  1.00  0.00     0.002 C 
BRANCH   2   3
ATOM      3  C   UNL A   1      31.440  26.703  25.475  1.00  0.00     0.021 C 
BRANCH   3   4
ATOM      4  C   UNL A   1      30.438  25.556  25.390  1.00  0.00     0.116 C 
BRANCH   4   5
ATOM      5  N   UNL A   1      30.654  24.589  26.452  1.00  0.00    -0.356 N 
ATOM      6  C   UNL A   1      31.645  23.666  26.622  1.00  0.00     0.228 C 
ATOM      7  O   UNL A   1      31.588  22.944  27.620  1.00  0.00    -0.274 OA
ATOM      8  H   UNL A   1      29.977  24.602  27.167  1.00  0.00     0.163 HD
BRANCH   6   9
ATOM      9  C   UNL A   1      32.788  23.522  25.617  1.00  0.00     0.118 C 
ATOM     10  N   UNL A   1      32.930  19.876  24.770  1.00  0.00    -0.287 N 
ATOM     11  C   UNL A   1      32.176  21.037  24.958  1.00  0.00     0.100 A 
ATOM     12  C   UNL A   1      34.278  20.221  24.914  1.00  0.00     0.057 A 
ATOM     13  C   UNL A   1      33.019  22.084  25.257  1.00  0.00    -0.008 A 
ATOM     14  C   UNL A   1      34.324  21.582  25.171  1.00  0.00     0.015 A 
ATOM     15  C   UNL A   1      35.473  19.489  24.800  1.00  0.00     0.027 A 
ATOM     16  C   UNL A   1      35.532  22.256  25.330  1.00  0.00     0.027 A 
ATOM     17  C   UNL A   1      36.690  20.183  24.932  1.00  0.00     0.003 A 
ATOM     18  C   UNL A   1      34.067  24.239  26.126  1.00  0.00     0.099 C 
ATOM     19  C   UNL A   1      36.727  21.556  25.188  1.00  0.00     0.012 A 
ATOM     20  C   UNL A   1      35.424  23.696  25.653  1.00  0.00     0.164 C 
ATOM     21  O   UNL A   1      36.430  24.401  25.628  1.00  0.00    -0.294 OA
BRANCH  10  22
ATOM     22  C   UNL A   1      32.437  18.589  24.478  1.00  0.00     0.227 C 
ATOM     23  C   UNL A   1      32.449  18.209  23.032  1.00  0.00     0.115 C 
ATOM     24  O   UNL A   1      32.098  17.838  25.392  1.00  0.00    -0.274 OA
ENDBRANCH  10  22
ENDBRANCH   6   9
ENDBRANCH   4   5
ENDBRANCH   3   4
ENDBRANCH   2   3
ENDBRANCH   1   2
BRANCH   1  25
ATOM     25  C   UNL A   1      32.483  29.806  27.237  1.00  0.00     0.021 C 
BRANCH  25  26
ATOM     26  C   UNL A   1      33.750  30.567  26.887  1.00  0.00     0.116 C 
BRANCH  26  27
ATOM     27  N   UNL A   1      33.864  31.813  27.638  1.00  0.00    -0.352 N 
ATOM     28  C   UNL A   1      34.710  32.109  28.682  1.00  0.00     0.251 C 
ATOM     29  H   UNL A   1      33.257  32.537  27.361  1.00  0.00     0.163 HD
ATOM     30  O   UNL A   1      34.466  33.036  29.446  1.00  0.00    -0.269 OA
BRANCH  28  31
ATOM     31  C   UNL A   1      35.937  31.314  28.851  1.00  0.00     0.039 A 
ATOM     32  C   UNL A   1      35.917  29.921  28.733  1.00  0.00     0.014 A 
ATOM     33  C   UNL A   1      37.111  31.986  29.191  1.00  0.00     0.014 A 
ATOM     34  C   UNL A   1      37.096  29.216  28.944  1.00  0.00     0.010 A 
ATOM     35  C   UNL A   1      38.300  31.314  29.244  1.00  0.00     0.010 A 
ATOM     36  C   UNL A   1      38.274  29.929  29.209  1.00  0.00    -0.014 A 
BRANCH  36  37
ATOM     37  C   UNL A   1      39.539  29.252  29.406  1.00  0.00     0.031 A 
ATOM     38  C   UNL A   1      39.814  28.877  30.811  1.00  0.00     0.074 A 
ATOM     39  C   UNL A   1      40.286  28.812  28.373  1.00  0.00     0.049 A 
ATOM     40  N   UNL A   1      40.708  29.388  31.585  1.00  0.00    -0.248 NA
ATOM     41  C   UNL A   1      38.908  27.928  31.477  1.00  0.00     0.031 C 
ATOM     42  C   UNL A   1      39.978  28.828  26.938  1.00  0.00     0.029 A 
ATOM     43  N   UNL A   1      41.464  28.141  28.415  1.00  0.00    -0.354 N 
ATOM     44  C   UNL A   1      40.608  28.700  32.786  1.00  0.00     0.074 A 
ATOM     45  C   UNL A   1      39.381  27.944  32.725  1.00  0.00     0.031 C 
ATOM     46  C   UNL A   1      40.826  28.000  26.285  1.00  0.00     0.029 A 
ATOM     47  C   UNL A   1      41.826  27.527  27.225  1.00  0.00     0.049 A 
ATOM     48  H   UNL A   1      42.019  28.095  29.228  1.00  0.00     0.167 HD
ATOM     49  C   UNL A   1      41.662  28.616  33.643  1.00  0.00     0.031 A 
ATOM     50  C   UNL A   1      42.856  26.658  27.056  1.00  0.00     0.031 A 
ATOM     51  C   UNL A   1      42.709  29.539  33.296  1.00  0.00     0.049 A 
ATOM     52  C   UNL A   1      43.796  26.893  28.180  1.00  0.00     0.074 A 
ATOM     53  C   UNL A   1      42.787  30.915  33.198  1.00  0.00     0.029 A 
ATOM     54  N   UNL A   1      43.757  29.045  32.553  1.00  0.00    -0.354 N 
ATOM     55  N   UNL A   1      44.452  28.008  28.341  1.00  0.00    -0.248 NA
ATOM     56  C   UNL A   1      43.639  26.083  29.380  1.00  0.00     0.031 C 
ATOM     57  C   UNL A   1      43.555  31.152  32.021  1.00  0.00     0.029 A 
ATOM     58  C   UNL A   1      43.972  29.918  31.516  1.00  0.00     0.049 A 
ATOM     59  H   UNL A   1      44.259  28.217  32.731  1.00  0.00     0.167 HD
ATOM     60  C   UNL A   1      44.400  28.254  29.706  1.00  0.00     0.074 A 
ATOM     61  C   UNL A   1      43.966  26.991  30.303  1.00  0.00     0.031 C 
ATOM     62  C   UNL A   1      44.423  29.527  30.198  1.00  0.00     0.031 A 
BRANCH  49  63
ATOM     63  C   UNL A   1      41.897  27.439  34.543  1.00  0.00    -0.014 A 
ATOM     64  C   UNL A   1      41.691  27.581  35.923  1.00  0.00     0.009 A 
ATOM     65  C   UNL A   1      42.562  26.276  34.109  1.00  0.00     0.009 A 
ATOM     66  C   UNL A   1      42.154  26.617  36.826  1.00  0.00     0.001 A 
ATOM     67  C   UNL A   1      42.990  25.294  35.002  1.00  0.00     0.001 A 
ATOM     68  C   UNL A   1      42.803  25.474  36.365  1.00  0.00     0.000 A 
ENDBRANCH  49  63
BRANCH  50  69
ATOM     69  C   UNL A   1      42.901  25.430  26.225  1.00  0.00    -0.014 A 
ATOM     70  C   UNL A   1      43.947  25.225  25.309  1.00  0.00     0.009 A 
ATOM     71  C   UNL A   1      42.084  24.326  26.533  1.00  0.00     0.009 A 
ATOM     72  C   UNL A   1      44.203  23.954  24.774  1.00  0.00     0.001 A 
ATOM     73  C   UNL A   1      42.336  23.059  25.994  1.00  0.00     0.001 A 
ATOM     74  C   UNL A   1      43.407  22.868  25.129  1.00  0.00     0.000 A 
ENDBRANCH  50  69
BRANCH  62  75
ATOM     75  C   UNL A   1      44.691  30.661  29.233  1.00  0.00    -0.014 A 
ATOM     76  C   UNL A   1      45.987  31.123  28.938  1.00  0.00     0.009 A 
ATOM     77  C   UNL A   1      43.627  31.119  28.445  1.00  0.00     0.009 A 
ATOM     78  C   UNL A   1      46.206  32.015  27.882  1.00  0.00     0.001 A 
ATOM     79  C   UNL A   1      43.848  31.996  27.381  1.00  0.00     0.001 A 
ATOM     80  C   UNL A   1      45.137  32.442  27.097  1.00  0.00     0.000 A 
ENDBRANCH  62  75
ENDBRANCH  36  37
ENDBRANCH  28  31
ENDBRANCH  26  27
ENDBRANCH  25  26
ENDBRANCH   1  25
TORSDOF 14
ENDMDL
MODEL 2
REMARK VINA RESULT:     -12.2      3.233      5.217
REMARK SMILES CC(=O)n1cc2c3c(cccc31)C(=O)C[C@@H]2C(=O)NCCCCCCNC(=O)c1ccc(-c2c3nc(c(-c4ccccc4)c4ccc([nH]4)c(-c4ccccc4)c4nc(c(-c5ccccc5)c5ccc2[nH]5)C=C4)C=C3)cc1
REMARK SMILES IDX 23 1 22 2 21 3 20 4 19 5 17 6 18 7 16 9 4 10 5 11 12 12 6 13
REMARK SMILES IDX 7 14 11 15 8 16 10 17 15 18 9 19 13 20 14 21 2 22 1 23 3 24
REMARK SMILES IDX 24 25 25 26 26 27 27 28 28 30 29 31 30 32 76 33 31 34 75 35
REMARK SMILES IDX 32 36 33 37 34 38 69 39 35 40 74 41 68 42 70 43 36 44 73 45
REMARK SMILES IDX 67 46 66 47 37 49 59 50 44 51 58 52 45 53 48 54 57 55 71 56
REMARK SMILES IDX 46 57 47 58 56 60 72 61 49 62 38 63 39 64 43 65 40 66 42 67
REMARK SMILES IDX 41 68 60 69 61 70 65 71 62 72 64 73 63 74 50 75 51 76 55 77
REMARK SMILES IDX 52 78 54 79 53 80
REMARK H PARENT 19 8 26 29 70 48 48 59
REMARK Flexibility Score: inf
ROOT
ATOM      1  C   UNL A   1      34.566  29.803  27.744  1.00  0.00     0.002 C 
ENDROOT
BRANCH   1   2
ATOM      2  C   UNL A   1      33.903  28.821  26.766  1.00  0.00     0.002 C 
BRANCH   2   3
ATOM      3  C   UNL A   1      32.395  29.006  26.573  1.00  0.00     0.021 C 
BRANCH   3   4
ATOM      4  C   UNL A   1      32.013  29.687  25.262  1.00  0.00     0.116 C 
BRANCH   4   5
ATOM      5  N   UNL A   1      33.074  29.563  24.277  1.00  0.00    -0.356 N 
ATOM      6  C   UNL A   1      33.150  28.800  23.149  1.00  0.00     0.228 C 
ATOM      7  O   UNL A   1      34.184  28.868  22.481  1.00  0.00    -0.274 OA
ATOM      8  H   UNL A   1      33.866  30.121  24.451  1.00  0.00     0.163 HD
BRANCH   6   9
ATOM      9  C   UNL A   1      32.000  27.889  22.717  1.00  0.00     0.118 C 
ATOM     10  N   UNL A   1      29.107  30.170  22.042  1.00  0.00    -0.287 N 
ATOM     11  C   UNL A   1      30.463  29.871  21.885  1.00  0.00     0.100 A 
ATOM     12  C   UNL A   1      28.518  29.107  22.734  1.00  0.00     0.057 A 
ATOM     13  C   UNL A   1      30.738  28.670  22.501  1.00  0.00    -0.008 A 
ATOM     14  C   UNL A   1      29.516  28.176  22.974  1.00  0.00     0.015 A 
ATOM     15  C   UNL A   1      27.198  28.840  23.138  1.00  0.00     0.027 A 
ATOM     16  C   UNL A   1      29.251  26.970  23.619  1.00  0.00     0.027 A 
ATOM     17  C   UNL A   1      26.933  27.606  23.761  1.00  0.00     0.003 A 
ATOM     18  C   UNL A   1      31.827  26.707  23.708  1.00  0.00     0.099 C 
ATOM     19  C   UNL A   1      27.945  26.671  23.997  1.00  0.00     0.012 A 
ATOM     20  C   UNL A   1      30.424  26.098  23.852  1.00  0.00     0.164 C 
ATOM     21  O   UNL A   1      30.255  24.947  24.245  1.00  0.00    -0.294 OA
BRANCH  10  22
ATOM     22  C   UNL A   1      28.441  31.323  21.582  1.00  0.00     0.227 C 
ATOM     23  C   UNL A   1      28.465  32.494  22.512  1.00  0.00     0.115 C 
ATOM     24  O   UNL A   1      27.949  31.341  20.454  1.00  0.00    -0.274 OA
ENDBRANCH  10  22
ENDBRANCH   6   9
ENDBRANCH   4   5
ENDBRANCH   3   4
ENDBRANCH   2   3
ENDBRANCH   1   2
BRANCH   1  25
ATOM     25  C   UNL A   1      34.104  31.264  27.648  1.00  0.00     0.021 C 
BRANCH  25  26
ATOM     26  C   UNL A   1      35.190  32.260  28.014  1.00  0.00     0.116 C 
BRANCH  26  27
ATOM     27  N   UNL A   1      35.039  32.756  29.379  1.00  0.00    -0.352 N 
ATOM     28  C   UNL A   1      35.516  32.206  30.546  1.00  0.00     0.251 C 
ATOM     29  H   UNL A   1      34.530  33.593  29.476  1.00  0.00     0.163 HD
ATOM     30  O   UNL A   1      35.028  32.508  31.629  1.00  0.00    -0.269 OA
BRANCH  28  31
ATOM     31  C   UNL A   1      36.649  31.269  30.481  1.00  0.00     0.039 A 
ATOM     32  C   UNL A   1      36.461  29.895  30.657  1.00  0.00     0.014 A 
ATOM     33  C   UNL A   1      37.927  31.798  30.297  1.00  0.00     0.014 A 
ATOM     34  C   UNL A   1      37.573  29.060  30.628  1.00  0.00     0.010 A 
ATOM     35  C   UNL A   1      38.997  30.969  30.111  1.00  0.00     0.010 A 
ATOM     36  C   UNL A   1      38.833  29.616  30.364  1.00  0.00    -0.014 A 
BRANCH  36  37
ATOM     37  C   UNL A   1      40.022  28.794  30.290  1.00  0.00     0.031 A 
ATOM     38  C   UNL A   1      40.687  28.570  31.592  1.00  0.00     0.074 A 
ATOM     39  C   UNL A   1      40.357  28.117  29.173  1.00  0.00     0.049 A 
ATOM     40  N   UNL A   1      41.825  29.042  31.969  1.00  0.00    -0.248 NA
ATOM     41  C   UNL A   1      39.949  27.860  32.649  1.00  0.00     0.031 C 
ATOM     42  C   UNL A   1      39.615  27.990  27.913  1.00  0.00     0.029 A 
ATOM     43  N   UNL A   1      41.416  27.293  28.977  1.00  0.00    -0.354 N 
ATOM     44  C   UNL A   1      42.042  28.540  33.244  1.00  0.00     0.074 A 
ATOM     45  C   UNL A   1      40.791  27.970  33.678  1.00  0.00     0.031 C 
ATOM     46  C   UNL A   1      40.128  26.968  27.189  1.00  0.00     0.029 A 
ATOM     47  C   UNL A   1      41.322  26.481  27.856  1.00  0.00     0.049 A 
ATOM     48  H   UNL A   1      42.191  27.273  29.584  1.00  0.00     0.167 HD
ATOM     49  C   UNL A   1      43.299  28.416  33.751  1.00  0.00     0.031 A 
ATOM     50  C   UNL A   1      42.155  25.456  27.540  1.00  0.00     0.031 A 
ATOM     51  C   UNL A   1      44.269  29.122  32.958  1.00  0.00     0.049 A 
ATOM     52  C   UNL A   1      43.420  25.696  28.278  1.00  0.00     0.074 A 
ATOM     53  C   UNL A   1      44.447  30.447  32.608  1.00  0.00     0.029 A 
ATOM     54  N   UNL A   1      44.975  28.387  32.032  1.00  0.00    -0.354 N 
ATOM     55  N   UNL A   1      44.199  26.715  28.045  1.00  0.00    -0.248 NA
ATOM     56  C   UNL A   1      43.570  25.083  29.589  1.00  0.00     0.031 C 
ATOM     57  C   UNL A   1      44.824  30.412  31.234  1.00  0.00     0.029 A 
ATOM     58  C   UNL A   1      44.937  29.075  30.846  1.00  0.00     0.049 A 
ATOM     59  H   UNL A   1      45.423  27.525  32.192  1.00  0.00     0.167 HD
ATOM     60  C   UNL A   1      44.605  27.143  29.301  1.00  0.00     0.074 A 
ATOM     61  C   UNL A   1      44.259  26.047  30.206  1.00  0.00     0.031 C 
ATOM     62  C   UNL A   1      44.908  28.453  29.540  1.00  0.00     0.031 A 
BRANCH  49  63
ATOM     63  C   UNL A   1      43.689  27.346  34.727  1.00  0.00    -0.014 A 
ATOM     64  C   UNL A   1      43.860  26.031  34.270  1.00  0.00     0.009 A 
ATOM     65  C   UNL A   1      43.641  27.540  36.121  1.00  0.00     0.009 A 
ATOM     66  C   UNL A   1      43.950  24.960  35.167  1.00  0.00     0.001 A 
ATOM     67  C   UNL A   1      43.769  26.480  37.019  1.00  0.00     0.001 A 
ATOM     68  C   UNL A   1      43.905  25.186  36.541  1.00  0.00     0.000 A 
ENDBRANCH  49  63
BRANCH  50  69
ATOM     69  C   UNL A   1      41.813  24.137  26.954  1.00  0.00    -0.014 A 
ATOM     70  C   UNL A   1      42.714  23.481  26.097  1.00  0.00     0.009 A 
ATOM     71  C   UNL A   1      40.738  23.384  27.462  1.00  0.00     0.009 A 
ATOM     72  C   UNL A   1      42.578  22.115  25.811  1.00  0.00     0.001 A 
ATOM     73  C   UNL A   1      40.599  22.021  27.171  1.00  0.00     0.001 A 
ATOM     74  C   UNL A   1      41.530  21.381  26.361  1.00  0.00     0.000 A 
ENDBRANCH  50  69
BRANCH  62  75
ATOM     75  C   UNL A   1      44.968  29.398  28.361  1.00  0.00    -0.014 A 
ATOM     76  C   UNL A   1      43.839  30.080  27.870  1.00  0.00     0.009 A 
ATOM     77  C   UNL A   1      46.230  29.772  27.882  1.00  0.00     0.009 A 
ATOM     78  C   UNL A   1      43.975  31.106  26.928  1.00  0.00     0.001 A 
ATOM     79  C   UNL A   1      46.368  30.808  26.955  1.00  0.00     0.001 A 
ATOM     80  C   UNL A   1      45.242  31.478  26.481  1.00  0.00     0.000 A 
ENDBRANCH  62  75
ENDBRANCH  36  37
ENDBRANCH  28  31
ENDBRANCH  26  27
ENDBRANCH  25  26
ENDBRANCH   1  25
TORSDOF 14
ENDMDL
MODEL 3
REMARK VINA RESULT:     -12.2      2.580      6.005
REMARK SMILES CC(=O)n1cc2c3c(cccc31)C(=O)C[C@@H]2C(=O)NCCCCCCNC(=O)c1ccc(-c2c3nc(c(-c4ccccc4)c4ccc([nH]4)c(-c4ccccc4)c4nc(c(-c5ccccc5)c5ccc2[nH]5)C=C4)C=C3)cc1
REMARK SMILES IDX 23 1 22 2 21 3 20 4 19 5 17 6 18 7 16 9 4 10 5 11 12 12 6 13
REMARK SMILES IDX 7 14 11 15 8 16 10 17 15 18 9 19 13 20 14 21 2 22 1 23 3 24
REMARK SMILES IDX 24 25 25 26 26 27 27 28 28 30 29 31 30 32 76 33 31 34 75 35
REMARK SMILES IDX 32 36 33 37 34 38 69 39 35 40 74 41 68 42 70 43 36 44 73 45
REMARK SMILES IDX 67 46 66 47 37 49 59 50 44 51 58 52 45 53 48 54 57 55 71 56
REMARK SMILES IDX 46 57 47 58 56 60 72 61 49 62 38 63 39 64 43 65 40 66 42 67
REMARK SMILES IDX 41 68 60 69 61 70 65 71 62 72 64 73 63 74 50 75 51 76 55 77
REMARK SMILES IDX 52 78 54 79 53 80
REMARK H PARENT 19 8 26 29 70 48 48 59
REMARK Flexibility Score: inf
ROOT
ATOM      1  C   UNL A   1      31.455  30.841  26.183  1.00  0.00     0.002 C 
ENDROOT
BRANCH   1   2
ATOM      2  C   UNL A   1      32.061  29.731  27.055  1.00  0.00     0.002 C 
BRANCH   2   3
ATOM      3  C   UNL A   1      33.557  29.873  27.352  1.00  0.00     0.021 C 
BRANCH   3   4
ATOM      4  C   UNL A   1      34.409  28.724  26.820  1.00  0.00     0.116 C 
BRANCH   4   5
ATOM      5  N   UNL A   1      34.035  28.378  25.460  1.00  0.00    -0.356 N 
ATOM      6  C   UNL A   1      33.538  27.215  24.947  1.00  0.00     0.228 C 
ATOM      7  O   UNL A   1      33.313  27.175  23.735  1.00  0.00    -0.274 OA
ATOM      8  H   UNL A   1      34.158  29.099  24.801  1.00  0.00     0.163 HD
BRANCH   6   9
ATOM      9  C   UNL A   1      33.266  25.998  25.832  1.00  0.00     0.118 C 
ATOM     10  N   UNL A   1      35.276  23.207  24.350  1.00  0.00    -0.287 N 
ATOM     11  C   UNL A   1      35.196  24.535  24.776  1.00  0.00     0.100 A 
ATOM     12  C   UNL A   1      34.056  22.593  24.654  1.00  0.00     0.057 A 
ATOM     13  C   UNL A   1      33.943  24.772  25.295  1.00  0.00    -0.008 A 
ATOM     14  C   UNL A   1      33.263  23.549  25.269  1.00  0.00     0.015 A 
ATOM     15  C   UNL A   1      33.577  21.281  24.495  1.00  0.00     0.027 A 
ATOM     16  C   UNL A   1      31.985  23.248  25.734  1.00  0.00     0.027 A 
ATOM     17  C   UNL A   1      32.297  20.978  24.995  1.00  0.00     0.003 A 
ATOM     18  C   UNL A   1      31.743  25.807  26.059  1.00  0.00     0.099 C 
ATOM     19  C   UNL A   1      31.504  21.947  25.617  1.00  0.00     0.012 A 
ATOM     20  C   UNL A   1      31.235  24.381  26.321  1.00  0.00     0.164 C 
ATOM     21  O   UNL A   1      30.183  24.168  26.918  1.00  0.00    -0.294 OA
BRANCH  10  22
ATOM     22  C   UNL A   1      36.380  22.584  23.736  1.00  0.00     0.227 C 
ATOM     23  C   UNL A   1      37.084  21.560  24.568  1.00  0.00     0.115 C 
ATOM     24  O   UNL A   1      36.663  22.845  22.568  1.00  0.00    -0.274 OA
ENDBRANCH  10  22
ENDBRANCH   6   9
ENDBRANCH   4   5
ENDBRANCH   3   4
ENDBRANCH   2   3
ENDBRANCH   1   2
BRANCH   1  25
ATOM     25  C   UNL A   1      31.261  32.203  26.866  1.00  0.00     0.021 C 
BRANCH  25  26
ATOM     26  C   UNL A   1      32.517  33.056  26.866  1.00  0.00     0.116 C 
BRANCH  26  27
ATOM     27  N   UNL A   1      32.371  34.242  27.705  1.00  0.00    -0.352 N 
ATOM     28  C   UNL A   1      33.042  34.558  28.864  1.00  0.00     0.251 C 
ATOM     29  H   UNL A   1      31.706  34.902  27.402  1.00  0.00     0.163 HD
ATOM     30  O   UNL A   1      32.587  35.381  29.650  1.00  0.00    -0.269 OA
BRANCH  28  31
ATOM     31  C   UNL A   1      34.338  33.917  29.133  1.00  0.00     0.039 A 
ATOM     32  C   UNL A   1      34.534  33.136  30.277  1.00  0.00     0.014 A 
ATOM     33  C   UNL A   1      35.386  34.158  28.244  1.00  0.00     0.014 A 
ATOM     34  C   UNL A   1      35.792  32.588  30.504  1.00  0.00     0.010 A 
ATOM     35  C   UNL A   1      36.573  33.495  28.381  1.00  0.00     0.010 A 
ATOM     36  C   UNL A   1      36.801  32.788  29.551  1.00  0.00    -0.014 A 
BRANCH  36  37
ATOM     37  C   UNL A   1      38.120  32.215  29.716  1.00  0.00     0.031 A 
ATOM     38  C   UNL A   1      38.210  30.783  29.356  1.00  0.00     0.074 A 
ATOM     39  C   UNL A   1      39.207  32.976  29.961  1.00  0.00     0.049 A 
ATOM     40  N   UNL A   1      38.390  29.795  30.163  1.00  0.00    -0.248 NA
ATOM     41  C   UNL A   1      37.929  30.386  27.967  1.00  0.00     0.031 C 
ATOM     42  C   UNL A   1      39.315  34.439  30.019  1.00  0.00     0.029 A 
ATOM     43  N   UNL A   1      40.495  32.578  30.105  1.00  0.00    -0.354 N 
ATOM     44  C   UNL A   1      38.433  28.658  29.368  1.00  0.00     0.074 A 
ATOM     45  C   UNL A   1      37.972  29.055  28.061  1.00  0.00     0.031 C 
ATOM     46  C   UNL A   1      40.619  34.796  29.954  1.00  0.00     0.029 A 
ATOM     47  C   UNL A   1      41.433  33.596  30.012  1.00  0.00     0.049 A 
ATOM     48  H   UNL A   1      40.744  31.638  30.263  1.00  0.00     0.167 HD
ATOM     49  C   UNL A   1      39.074  27.531  29.780  1.00  0.00     0.031 A 
ATOM     50  C   UNL A   1      42.779  33.437  29.944  1.00  0.00     0.031 A 
ATOM     51  C   UNL A   1      39.399  27.580  31.180  1.00  0.00     0.049 A 
ATOM     52  C   UNL A   1      43.076  32.094  30.503  1.00  0.00     0.074 A 
ATOM     53  C   UNL A   1      38.654  27.685  32.339  1.00  0.00     0.029 A 
ATOM     54  N   UNL A   1      40.675  27.975  31.512  1.00  0.00    -0.354 N 
ATOM     55  N   UNL A   1      42.863  31.777  31.749  1.00  0.00    -0.248 NA
ATOM     56  C   UNL A   1      43.149  30.973  29.577  1.00  0.00     0.031 C 
ATOM     57  C   UNL A   1      39.384  28.593  33.160  1.00  0.00     0.029 A 
ATOM     58  C   UNL A   1      40.568  28.925  32.497  1.00  0.00     0.049 A 
ATOM     59  H   UNL A   1      41.511  27.638  31.116  1.00  0.00     0.167 HD
ATOM     60  C   UNL A   1      42.340  30.492  31.701  1.00  0.00     0.074 A 
ATOM     61  C   UNL A   1      42.623  30.017  30.347  1.00  0.00     0.031 C 
ATOM     62  C   UNL A   1      41.470  30.046  32.654  1.00  0.00     0.031 A 
BRANCH  49  63
ATOM     63  C   UNL A   1      39.740  26.573  28.837  1.00  0.00    -0.014 A 
ATOM     64  C   UNL A   1      40.917  26.964  28.181  1.00  0.00     0.009 A 
ATOM     65  C   UNL A   1      39.109  25.400  28.378  1.00  0.00     0.009 A 
ATOM     66  C   UNL A   1      41.419  26.231  27.100  1.00  0.00     0.001 A 
ATOM     67  C   UNL A   1      39.627  24.646  27.326  1.00  0.00     0.001 A 
ATOM     68  C   UNL A   1      40.774  25.072  26.673  1.00  0.00     0.000 A 
ENDBRANCH  49  63
BRANCH  50  69
ATOM     69  C   UNL A   1      43.757  34.190  29.121  1.00  0.00    -0.014 A 
ATOM     70  C   UNL A   1      43.579  34.310  27.731  1.00  0.00     0.009 A 
ATOM     71  C   UNL A   1      44.703  35.037  29.727  1.00  0.00     0.009 A 
ATOM     72  C   UNL A   1      44.274  35.278  26.992  1.00  0.00     0.001 A 
ATOM     73  C   UNL A   1      45.401  36.000  28.988  1.00  0.00     0.001 A 
ATOM     74  C   UNL A   1      45.172  36.134  27.624  1.00  0.00     0.000 A 
ENDBRANCH  50  69
BRANCH  62  75
ATOM     75  C   UNL A   1      41.228  30.918  33.865  1.00  0.00    -0.014 A 
ATOM     76  C   UNL A   1      41.992  30.820  35.043  1.00  0.00     0.009 A 
ATOM     77  C   UNL A   1      40.355  32.006  33.728  1.00  0.00     0.009 A 
ATOM     78  C   UNL A   1      41.884  31.786  36.050  1.00  0.00     0.001 A 
ATOM     79  C   UNL A   1      40.260  32.979  34.725  1.00  0.00     0.001 A 
ATOM     80  C   UNL A   1      41.027  32.872  35.884  1.00  0.00     0.000 A 
ENDBRANCH  62  75
ENDBRANCH  36  37
ENDBRANCH  28  31
ENDBRANCH  26  27
ENDBRANCH  25  26
ENDBRANCH   1  25
TORSDOF 14
ENDMDL
