MODEL 1
REMARK VINA RESULT:     -10.9      0.000      0.000
REMARK SMILES O=C(NCCCCCCNC(=O)[C@@H]1C[C@@H](O)CN1C(=O)c1ccccc1)c1ccc(-c2c3nc(c(-c4ccccc4)c4ccc([nH]4)c(-c4ccccc4)c4nc(c(-c5ccccc5)c5ccc2[nH]5)C=C4)C=C3)cc1
REMARK SMILES IDX 6 1 5 2 4 3 3 4 1 5 2 6 27 8 28 9 74 10 29 11 73 12 30 13
REMARK SMILES IDX 31 14 32 15 67 16 33 17 72 18 66 19 68 20 34 21 71 22 65 23
REMARK SMILES IDX 64 24 35 26 57 27 42 28 56 29 43 30 46 31 55 32 69 33 44 34
REMARK SMILES IDX 45 35 54 37 70 38 47 39 36 40 37 41 41 42 38 43 40 44 39 45
REMARK SMILES IDX 58 46 59 47 63 48 60 49 62 50 61 51 48 52 49 53 53 54 50 55
REMARK SMILES IDX 52 56 51 57 7 58 8 59 9 60 10 61 11 62 12 64 13 65 14 66
REMARK SMILES IDX 18 67 15 68 17 69 19 70 20 71 21 72 22 73 26 74 23 75 25 76
REMARK SMILES IDX 24 77 16 78
REMARK H PARENT 3 7 68 25 46 36 10 63 16 79
REMARK Flexibility Score: inf
ROOT
ATOM      1  C   UNL A   1      31.430  30.750  26.356  1.00  0.00     0.002 C 
ENDROOT
BRANCH   1   2
ATOM      2  C   UNL A   1      31.300  32.250  26.615  1.00  0.00     0.021 C 
BRANCH   2   3
ATOM      3  C   UNL A   1      32.574  32.949  27.072  1.00  0.00     0.116 C 
BRANCH   3   4
ATOM      4  N   UNL A   1      32.334  34.270  27.625  1.00  0.00    -0.352 N 
ATOM      5  O   UNL A   1      32.575  35.990  29.066  1.00  0.00    -0.269 OA
ATOM      6  C   UNL A   1      32.990  34.921  28.645  1.00  0.00     0.251 C 
ATOM      7  H   UNL A   1      31.595  34.774  27.211  1.00  0.00     0.163 HD
BRANCH   6   8
ATOM      8  C   UNL A   1      34.190  34.304  29.253  1.00  0.00     0.039 A 
ATOM      9  C   UNL A   1      35.466  34.572  28.755  1.00  0.00     0.014 A 
ATOM     10  C   UNL A   1      34.029  33.445  30.345  1.00  0.00     0.014 A 
ATOM     11  C   UNL A   1      36.563  33.877  29.251  1.00  0.00     0.010 A 
ATOM     12  C   UNL A   1      35.145  32.812  30.900  1.00  0.00     0.010 A 
ATOM     13  C   UNL A   1      36.417  33.000  30.339  1.00  0.00    -0.014 A 
BRANCH  13  14
ATOM     14  C   UNL A   1      37.619  32.347  30.917  1.00  0.00     0.031 A 
ATOM     15  C   UNL A   1      38.242  31.143  30.266  1.00  0.00     0.074 A 
ATOM     16  C   UNL A   1      38.158  32.862  32.038  1.00  0.00     0.049 A 
ATOM     17  N   UNL A   1      39.297  30.461  30.640  1.00  0.00    -0.248 NA
ATOM     18  C   UNL A   1      37.602  30.635  29.043  1.00  0.00     0.031 C 
ATOM     19  C   UNL A   1      37.642  34.027  32.764  1.00  0.00     0.029 A 
ATOM     20  N   UNL A   1      39.264  32.488  32.757  1.00  0.00    -0.354 N 
ATOM     21  C   UNL A   1      39.434  29.434  29.714  1.00  0.00     0.074 A 
ATOM     22  C   UNL A   1      38.342  29.569  28.773  1.00  0.00     0.031 C 
ATOM     23  C   UNL A   1      38.453  34.297  33.796  1.00  0.00     0.029 A 
ATOM     24  C   UNL A   1      39.504  33.289  33.846  1.00  0.00     0.049 A 
ATOM     25  H   UNL A   1      39.830  31.720  32.515  1.00  0.00     0.167 HD
ATOM     26  C   UNL A   1      40.385  28.471  29.652  1.00  0.00     0.031 A 
ATOM     27  C   UNL A   1      40.452  33.211  34.798  1.00  0.00     0.031 A 
ATOM     28  C   UNL A   1      41.465  28.335  30.596  1.00  0.00     0.049 A 
ATOM     29  C   UNL A   1      41.464  32.106  34.731  1.00  0.00     0.074 A 
ATOM     30  C   UNL A   1      42.495  27.410  30.600  1.00  0.00     0.029 A 
ATOM     31  N   UNL A   1      41.651  29.142  31.708  1.00  0.00    -0.354 N 
ATOM     32  N   UNL A   1      41.601  31.167  33.826  1.00  0.00    -0.248 NA
ATOM     33  C   UNL A   1      42.451  32.051  35.816  1.00  0.00     0.031 C 
ATOM     34  C   UNL A   1      43.270  27.621  31.746  1.00  0.00     0.029 A 
ATOM     35  C   UNL A   1      42.761  28.718  32.422  1.00  0.00     0.049 A 
ATOM     36  H   UNL A   1      41.078  29.904  31.955  1.00  0.00     0.167 HD
ATOM     37  C   UNL A   1      42.703  30.421  34.222  1.00  0.00     0.074 A 
ATOM     38  C   UNL A   1      43.208  31.031  35.435  1.00  0.00     0.031 C 
ATOM     39  C   UNL A   1      43.247  29.329  33.632  1.00  0.00     0.031 A 
BRANCH  26  40
ATOM     40  C   UNL A   1      40.284  27.461  28.541  1.00  0.00    -0.014 A 
ATOM     41  C   UNL A   1      40.934  27.656  27.312  1.00  0.00     0.009 A 
ATOM     42  C   UNL A   1      39.564  26.272  28.745  1.00  0.00     0.009 A 
ATOM     43  C   UNL A   1      40.836  26.698  26.299  1.00  0.00     0.001 A 
ATOM     44  C   UNL A   1      39.492  25.304  27.741  1.00  0.00     0.001 A 
ATOM     45  C   UNL A   1      40.119  25.521  26.517  1.00  0.00     0.000 A 
ENDBRANCH  26  40
BRANCH  27  46
ATOM     46  C   UNL A   1      40.472  34.204  35.902  1.00  0.00    -0.014 A 
ATOM     47  C   UNL A   1      41.179  35.407  35.771  1.00  0.00     0.009 A 
ATOM     48  C   UNL A   1      39.767  33.956  37.092  1.00  0.00     0.009 A 
ATOM     49  C   UNL A   1      41.199  36.333  36.816  1.00  0.00     0.001 A 
ATOM     50  C   UNL A   1      39.762  34.898  38.122  1.00  0.00     0.001 A 
ATOM     51  C   UNL A   1      40.485  36.081  37.987  1.00  0.00     0.000 A 
ENDBRANCH  27  46
BRANCH  39  52
ATOM     52  C   UNL A   1      44.473  28.745  34.277  1.00  0.00    -0.014 A 
ATOM     53  C   UNL A   1      45.757  29.219  33.968  1.00  0.00     0.009 A 
ATOM     54  C   UNL A   1      44.335  27.722  35.227  1.00  0.00     0.009 A 
ATOM     55  C   UNL A   1      46.881  28.654  34.572  1.00  0.00     0.001 A 
ATOM     56  C   UNL A   1      45.458  27.180  35.853  1.00  0.00     0.001 A 
ATOM     57  C   UNL A   1      46.730  27.639  35.517  1.00  0.00     0.000 A 
ENDBRANCH  39  52
ENDBRANCH  13  14
ENDBRANCH   6   8
ENDBRANCH   3   4
ENDBRANCH   2   3
ENDBRANCH   1   2
BRANCH   1  58
ATOM     58  C   UNL A   1      32.439  30.001  27.231  1.00  0.00     0.002 C 
BRANCH  58  59
ATOM     59  C   UNL A   1      32.334  28.472  27.242  1.00  0.00     0.021 C 
BRANCH  59  60
ATOM     60  C   UNL A   1      33.416  27.724  26.470  1.00  0.00     0.116 C 
BRANCH  60  61
ATOM     61  N   UNL A   1      33.831  28.397  25.261  1.00  0.00    -0.354 N 
ATOM     62  C   UNL A   1      33.520  28.150  23.957  1.00  0.00     0.242 C 
ATOM     63  H   UNL A   1      34.438  29.159  25.401  1.00  0.00     0.163 HD
ATOM     64  O   UNL A   1      33.645  29.101  23.177  1.00  0.00    -0.273 OA
BRANCH  62  65
ATOM     65  C   UNL A   1      32.904  26.819  23.467  1.00  0.00     0.177 C 
ATOM     66  C   UNL A   1      33.713  26.173  22.334  1.00  0.00     0.069 C 
ATOM     67  N   UNL A   1      31.521  26.878  22.975  1.00  0.00    -0.324 N 
ATOM     68  C   UNL A   1      32.663  25.482  21.467  1.00  0.00     0.136 C 
ATOM     69  C   UNL A   1      31.400  26.326  21.632  1.00  0.00     0.152 C 
BRANCH  67  70
ATOM     70  C   UNL A   1      30.507  27.210  23.857  1.00  0.00     0.254 C 
ATOM     71  O   UNL A   1      30.373  26.667  24.950  1.00  0.00    -0.269 OA
BRANCH  70  72
ATOM     72  C   UNL A   1      29.535  28.264  23.501  1.00  0.00     0.040 A 
ATOM     73  C   UNL A   1      29.975  29.590  23.451  1.00  0.00     0.014 A 
ATOM     74  C   UNL A   1      28.175  27.967  23.357  1.00  0.00     0.014 A 
ATOM     75  C   UNL A   1      29.062  30.615  23.206  1.00  0.00     0.001 A 
ATOM     76  C   UNL A   1      27.265  28.995  23.106  1.00  0.00     0.001 A 
ATOM     77  C   UNL A   1      27.710  30.316  23.026  1.00  0.00     0.000 A 
ENDBRANCH  70  72
ENDBRANCH  67  70
BRANCH  68  78
ATOM     78  O   UNL A   1      32.441  24.156  21.946  1.00  0.00    -0.391 OA
ATOM     79  H   UNL A   1      33.266  23.650  21.889  1.00  0.00     0.211 HD
ENDBRANCH  68  78
ENDBRANCH  62  65
ENDBRANCH  60  61
ENDBRANCH  59  60
ENDBRANCH  58  59
ENDBRANCH   1  58
TORSDOF 16
ENDMDL
MODEL 2
REMARK VINA RESULT:     -10.8      0.727      5.992
REMARK SMILES O=C(NCCCCCCNC(=O)[C@@H]1C[C@@H](O)CN1C(=O)c1ccccc1)c1ccc(-c2c3nc(c(-c4ccccc4)c4ccc([nH]4)c(-c4ccccc4)c4nc(c(-c5ccccc5)c5ccc2[nH]5)C=C4)C=C3)cc1
REMARK SMILES IDX 6 1 5 2 4 3 3 4 1 5 2 6 27 8 28 9 74 10 29 11 73 12 30 13
REMARK SMILES IDX 31 14 32 15 67 16 33 17 72 18 66 19 68 20 34 21 71 22 65 23
REMARK SMILES IDX 64 24 35 26 57 27 42 28 56 29 43 30 46 31 55 32 69 33 44 34
REMARK SMILES IDX 45 35 54 37 70 38 47 39 36 40 37 41 41 42 38 43 40 44 39 45
REMARK SMILES IDX 58 46 59 47 63 48 60 49 62 50 61 51 48 52 49 53 53 54 50 55
REMARK SMILES IDX 52 56 51 57 7 58 8 59 9 60 10 61 11 62 12 64 13 65 14 66
REMARK SMILES IDX 18 67 15 68 17 69 19 70 20 71 21 72 22 73 26 74 23 75 25 76
REMARK SMILES IDX 24 77 16 78
REMARK H PARENT 3 7 68 25 46 36 10 63 16 79
REMARK Flexibility Score: inf
ROOT
ATOM      1  C   UNL A   1      31.458  30.671  26.423  1.00  0.00     0.002 C 
ENDROOT
BRANCH   1   2
ATOM      2  C   UNL A   1      31.387  32.188  26.592  1.00  0.00     0.021 C 
BRANCH   2   3
ATOM      3  C   UNL A   1      32.660  32.852  27.101  1.00  0.00     0.116 C 
BRANCH   3   4
ATOM      4  N   UNL A   1      32.423  34.147  27.715  1.00  0.00    -0.352 N 
ATOM      5  O   UNL A   1      32.717  35.825  29.195  1.00  0.00    -0.269 OA
ATOM      6  C   UNL A   1      33.130  34.782  28.709  1.00  0.00     0.251 C 
ATOM      7  H   UNL A   1      31.645  34.642  27.368  1.00  0.00     0.163 HD
BRANCH   6   8
ATOM      8  C   UNL A   1      34.384  34.180  29.214  1.00  0.00     0.039 A 
ATOM      9  C   UNL A   1      35.602  34.411  28.570  1.00  0.00     0.014 A 
ATOM     10  C   UNL A   1      34.337  33.373  30.355  1.00  0.00     0.014 A 
ATOM     11  C   UNL A   1      36.741  33.727  28.978  1.00  0.00     0.010 A 
ATOM     12  C   UNL A   1      35.502  32.754  30.817  1.00  0.00     0.010 A 
ATOM     13  C   UNL A   1      36.708  32.902  30.115  1.00  0.00    -0.014 A 
BRANCH  13  14
ATOM     14  C   UNL A   1      37.961  32.263  30.590  1.00  0.00     0.031 A 
ATOM     15  C   UNL A   1      38.772  32.866  31.702  1.00  0.00     0.074 A 
ATOM     16  C   UNL A   1      38.357  31.113  30.013  1.00  0.00     0.049 A 
ATOM     17  N   UNL A   1      39.885  32.428  32.238  1.00  0.00    -0.248 NA
ATOM     18  C   UNL A   1      38.279  34.121  32.288  1.00  0.00     0.031 C 
ATOM     19  C   UNL A   1      37.655  30.430  28.921  1.00  0.00     0.029 A 
ATOM     20  N   UNL A   1      39.435  30.305  30.268  1.00  0.00    -0.354 N 
ATOM     21  C   UNL A   1      40.235  33.361  33.206  1.00  0.00     0.074 A 
ATOM     22  C   UNL A   1      39.229  34.401  33.169  1.00  0.00     0.031 C 
ATOM     23  C   UNL A   1      38.294  29.289  28.632  1.00  0.00     0.029 A 
ATOM     24  C   UNL A   1      39.486  29.191  29.466  1.00  0.00     0.049 A 
ATOM     25  H   UNL A   1      40.107  30.505  30.959  1.00  0.00     0.167 HD
ATOM     26  C   UNL A   1      41.296  33.349  34.050  1.00  0.00     0.031 A 
ATOM     27  C   UNL A   1      40.399  28.207  29.391  1.00  0.00     0.031 A 
ATOM     28  C   UNL A   1      42.299  32.316  34.078  1.00  0.00     0.049 A 
ATOM     29  C   UNL A   1      41.588  28.244  30.305  1.00  0.00     0.074 A 
ATOM     30  C   UNL A   1      43.395  32.201  34.917  1.00  0.00     0.029 A 
ATOM     31  N   UNL A   1      42.336  31.225  33.222  1.00  0.00    -0.354 N 
ATOM     32  N   UNL A   1      41.882  29.114  31.241  1.00  0.00    -0.248 NA
ATOM     33  C   UNL A   1      42.570  27.163  30.153  1.00  0.00     0.031 C 
ATOM     34  C   UNL A   1      44.125  31.071  34.531  1.00  0.00     0.029 A 
ATOM     35  C   UNL A   1      43.451  30.447  33.494  1.00  0.00     0.049 A 
ATOM     36  H   UNL A   1      41.669  31.031  32.525  1.00  0.00     0.167 HD
ATOM     37  C   UNL A   1      43.073  28.675  31.803  1.00  0.00     0.074 A 
ATOM     38  C   UNL A   1      43.433  27.450  31.118  1.00  0.00     0.031 C 
ATOM     39  C   UNL A   1      43.801  29.236  32.799  1.00  0.00     0.031 A 
BRANCH  26  40
ATOM     40  C   UNL A   1      41.446  34.509  34.997  1.00  0.00    -0.014 A 
ATOM     41  C   UNL A   1      40.840  34.504  36.264  1.00  0.00     0.009 A 
ATOM     42  C   UNL A   1      42.247  35.605  34.634  1.00  0.00     0.009 A 
ATOM     43  C   UNL A   1      41.004  35.587  37.132  1.00  0.00     0.001 A 
ATOM     44  C   UNL A   1      42.432  36.672  35.515  1.00  0.00     0.001 A 
ATOM     45  C   UNL A   1      41.804  36.667  36.758  1.00  0.00     0.000 A 
ENDBRANCH  26  40
BRANCH  27  46
ATOM     46  C   UNL A   1      40.228  27.114  28.399  1.00  0.00    -0.014 A 
ATOM     47  C   UNL A   1      40.784  27.219  27.117  1.00  0.00     0.009 A 
ATOM     48  C   UNL A   1      39.516  25.952  28.740  1.00  0.00     0.009 A 
ATOM     49  C   UNL A   1      40.613  26.191  26.187  1.00  0.00     0.001 A 
ATOM     50  C   UNL A   1      39.376  24.912  27.820  1.00  0.00     0.001 A 
ATOM     51  C   UNL A   1      39.915  25.037  26.541  1.00  0.00     0.000 A 
ENDBRANCH  27  46
BRANCH  39  52
ATOM     52  C   UNL A   1      45.045  28.509  33.226  1.00  0.00    -0.014 A 
ATOM     53  C   UNL A   1      44.995  27.460  34.156  1.00  0.00     0.009 A 
ATOM     54  C   UNL A   1      46.283  28.865  32.667  1.00  0.00     0.009 A 
ATOM     55  C   UNL A   1      46.166  26.806  34.546  1.00  0.00     0.001 A 
ATOM     56  C   UNL A   1      47.447  28.190  33.035  1.00  0.00     0.001 A 
ATOM     57  C   UNL A   1      47.389  27.169  33.981  1.00  0.00     0.000 A 
ENDBRANCH  39  52
ENDBRANCH  13  14
ENDBRANCH   6   8
ENDBRANCH   3   4
ENDBRANCH   2   3
ENDBRANCH   1   2
BRANCH   1  58
ATOM     58  C   UNL A   1      32.554  29.957  27.217  1.00  0.00     0.002 C 
BRANCH  58  59
ATOM     59  C   UNL A   1      32.555  28.425  27.159  1.00  0.00     0.021 C 
BRANCH  59  60
ATOM     60  C   UNL A   1      33.662  27.790  26.326  1.00  0.00     0.116 C 
BRANCH  60  61
ATOM     61  N   UNL A   1      33.937  28.497  25.096  1.00  0.00    -0.354 N 
ATOM     62  C   UNL A   1      33.524  28.250  23.821  1.00  0.00     0.242 C 
ATOM     63  H   UNL A   1      34.516  29.286  25.196  1.00  0.00     0.163 HD
ATOM     64  O   UNL A   1      33.534  29.215  23.048  1.00  0.00    -0.273 OA
BRANCH  62  65
ATOM     65  C   UNL A   1      32.933  26.896  23.365  1.00  0.00     0.177 C 
ATOM     66  C   UNL A   1      33.735  26.251  22.227  1.00  0.00     0.069 C 
ATOM     67  N   UNL A   1      31.539  26.912  22.901  1.00  0.00    -0.324 N 
ATOM     68  C   UNL A   1      32.686  25.520  21.393  1.00  0.00     0.136 C 
ATOM     69  C   UNL A   1      31.406  26.335  21.569  1.00  0.00     0.152 C 
BRANCH  67  70
ATOM     70  C   UNL A   1      30.535  27.234  23.797  1.00  0.00     0.254 C 
ATOM     71  O   UNL A   1      30.433  26.703  24.900  1.00  0.00    -0.269 OA
BRANCH  70  72
ATOM     72  C   UNL A   1      29.533  28.261  23.446  1.00  0.00     0.040 A 
ATOM     73  C   UNL A   1      29.937  29.598  23.394  1.00  0.00     0.014 A 
ATOM     74  C   UNL A   1      28.181  27.927  23.309  1.00  0.00     0.014 A 
ATOM     75  C   UNL A   1      28.995  30.598  23.153  1.00  0.00     0.001 A 
ATOM     76  C   UNL A   1      27.242  28.930  23.061  1.00  0.00     0.001 A 
ATOM     77  C   UNL A   1      27.650  30.262  22.980  1.00  0.00     0.000 A 
ENDBRANCH  70  72
ENDBRANCH  67  70
BRANCH  68  78
ATOM     78  O   UNL A   1      32.507  24.198  21.897  1.00  0.00    -0.391 OA
ATOM     79  H   UNL A   1      33.274  23.951  22.436  1.00  0.00     0.211 HD
ENDBRANCH  68  78
ENDBRANCH  62  65
ENDBRANCH  60  61
ENDBRANCH  59  60
ENDBRANCH  58  59
ENDBRANCH   1  58
TORSDOF 16
ENDMDL
MODEL 3
REMARK VINA RESULT:     -10.7      5.533      9.899
REMARK SMILES O=C(NCCCCCCNC(=O)[C@@H]1C[C@@H](O)CN1C(=O)c1ccccc1)c1ccc(-c2c3nc(c(-c4ccccc4)c4ccc([nH]4)c(-c4ccccc4)c4nc(c(-c5ccccc5)c5ccc2[nH]5)C=C4)C=C3)cc1
REMARK SMILES IDX 6 1 5 2 4 3 3 4 1 5 2 6 27 8 28 9 74 10 29 11 73 12 30 13
REMARK SMILES IDX 31 14 32 15 67 16 33 17 72 18 66 19 68 20 34 21 71 22 65 23
REMARK SMILES IDX 64 24 35 26 57 27 42 28 56 29 43 30 46 31 55 32 69 33 44 34
REMARK SMILES IDX 45 35 54 37 70 38 47 39 36 40 37 41 41 42 38 43 40 44 39 45
REMARK SMILES IDX 58 46 59 47 63 48 60 49 62 50 61 51 48 52 49 53 53 54 50 55
REMARK SMILES IDX 52 56 51 57 7 58 8 59 9 60 10 61 11 62 12 64 13 65 14 66
REMARK SMILES IDX 18 67 15 68 17 69 19 70 20 71 21 72 22 73 26 74 23 75 25 76
REMARK SMILES IDX 24 77 16 78
REMARK H PARENT 3 7 68 25 46 36 10 63 16 79
REMARK Flexibility Score: inf
ROOT
ATOM      1  C   UNL A   1      36.957  20.263  24.681  1.00  0.00     0.002 C 
ENDROOT
BRANCH   1   2
ATOM      2  C   UNL A   1      38.034  19.235  25.025  1.00  0.00     0.021 C 
BRANCH   2   3
ATOM      3  C   UNL A   1      39.244  19.779  25.775  1.00  0.00     0.116 C 
BRANCH   3   4
ATOM      4  N   UNL A   1      40.348  18.838  25.838  1.00  0.00    -0.352 N 
ATOM      5  O   UNL A   1      42.499  18.171  25.989  1.00  0.00    -0.269 OA
ATOM      6  C   UNL A   1      41.679  19.072  26.095  1.00  0.00     0.251 C 
ATOM      7  H   UNL A   1      40.109  17.896  25.674  1.00  0.00     0.163 HD
BRANCH   6   8
ATOM      8  C   UNL A   1      42.123  20.432  26.473  1.00  0.00     0.039 A 
ATOM      9  C   UNL A   1      42.180  20.822  27.813  1.00  0.00     0.014 A 
ATOM     10  C   UNL A   1      42.491  21.329  25.465  1.00  0.00     0.014 A 
ATOM     11  C   UNL A   1      42.466  22.143  28.138  1.00  0.00     0.010 A 
ATOM     12  C   UNL A   1      42.863  22.635  25.800  1.00  0.00     0.010 A 
ATOM     13  C   UNL A   1      42.826  23.060  27.136  1.00  0.00    -0.014 A 
BRANCH  13  14
ATOM     14  C   UNL A   1      43.225  24.438  27.517  1.00  0.00     0.031 A 
ATOM     15  C   UNL A   1      44.664  24.871  27.486  1.00  0.00     0.074 A 
ATOM     16  C   UNL A   1      42.267  25.311  27.883  1.00  0.00     0.049 A 
ATOM     17  N   UNL A   1      45.177  26.040  27.782  1.00  0.00    -0.248 NA
ATOM     18  C   UNL A   1      45.658  23.867  27.075  1.00  0.00     0.031 C 
ATOM     19  C   UNL A   1      40.834  25.008  27.955  1.00  0.00     0.029 A 
ATOM     20  N   UNL A   1      42.344  26.630  28.248  1.00  0.00    -0.354 N 
ATOM     21  C   UNL A   1      46.550  25.907  27.613  1.00  0.00     0.074 A 
ATOM     22  C   UNL A   1      46.793  24.538  27.212  1.00  0.00     0.031 C 
ATOM     23  C   UNL A   1      40.166  26.118  28.297  1.00  0.00     0.029 A 
ATOM     24  C   UNL A   1      41.124  27.191  28.534  1.00  0.00     0.049 A 
ATOM     25  H   UNL A   1      43.193  27.126  28.299  1.00  0.00     0.167 HD
ATOM     26  C   UNL A   1      47.518  26.843  27.776  1.00  0.00     0.031 A 
ATOM     27  C   UNL A   1      40.807  28.426  28.962  1.00  0.00     0.031 A 
ATOM     28  C   UNL A   1      47.273  28.202  28.185  1.00  0.00     0.049 A 
ATOM     29  C   UNL A   1      41.904  29.426  29.179  1.00  0.00     0.074 A 
ATOM     30  C   UNL A   1      48.184  29.231  28.348  1.00  0.00     0.029 A 
ATOM     31  N   UNL A   1      46.026  28.720  28.504  1.00  0.00    -0.354 N 
ATOM     32  N   UNL A   1      43.192  29.295  28.978  1.00  0.00    -0.248 NA
ATOM     33  C   UNL A   1      41.501  30.746  29.682  1.00  0.00     0.031 C 
ATOM     34  C   UNL A   1      47.497  30.355  28.821  1.00  0.00     0.029 A 
ATOM     35  C   UNL A   1      46.149  30.045  28.891  1.00  0.00     0.049 A 
ATOM     36  H   UNL A   1      45.179  28.220  28.462  1.00  0.00     0.167 HD
ATOM     37  C   UNL A   1      43.753  30.521  29.309  1.00  0.00     0.074 A 
ATOM     38  C   UNL A   1      42.660  31.388  29.703  1.00  0.00     0.031 C 
ATOM     39  C   UNL A   1      45.055  30.894  29.288  1.00  0.00     0.031 A 
BRANCH  26  40
ATOM     40  C   UNL A   1      48.943  26.419  27.542  1.00  0.00    -0.014 A 
ATOM     41  C   UNL A   1      49.753  25.959  28.593  1.00  0.00     0.009 A 
ATOM     42  C   UNL A   1      49.469  26.435  26.239  1.00  0.00     0.009 A 
ATOM     43  C   UNL A   1      51.069  25.559  28.350  1.00  0.00     0.001 A 
ATOM     44  C   UNL A   1      50.776  26.007  25.996  1.00  0.00     0.001 A 
ATOM     45  C   UNL A   1      51.577  25.578  27.051  1.00  0.00     0.000 A 
ENDBRANCH  26  40
BRANCH  27  46
ATOM     46  C   UNL A   1      39.387  28.773  29.229  1.00  0.00    -0.014 A 
ATOM     47  C   UNL A   1      38.835  28.596  30.505  1.00  0.00     0.009 A 
ATOM     48  C   UNL A   1      38.581  29.297  28.206  1.00  0.00     0.009 A 
ATOM     49  C   UNL A   1      37.498  28.918  30.747  1.00  0.00     0.001 A 
ATOM     50  C   UNL A   1      37.255  29.650  28.459  1.00  0.00     0.001 A 
ATOM     51  C   UNL A   1      36.711  29.450  29.727  1.00  0.00     0.000 A 
ENDBRANCH  27  46
BRANCH  39  52
ATOM     52  C   UNL A   1      45.364  32.313  29.673  1.00  0.00    -0.014 A 
ATOM     53  C   UNL A   1      45.333  33.349  28.728  1.00  0.00     0.009 A 
ATOM     54  C   UNL A   1      45.665  32.619  31.009  1.00  0.00     0.009 A 
ATOM     55  C   UNL A   1      45.634  34.659  29.108  1.00  0.00     0.001 A 
ATOM     56  C   UNL A   1      45.935  33.933  31.392  1.00  0.00     0.001 A 
ATOM     57  C   UNL A   1      45.929  34.950  30.440  1.00  0.00     0.000 A 
ENDBRANCH  39  52
ENDBRANCH  13  14
ENDBRANCH   6   8
ENDBRANCH   3   4
ENDBRANCH   2   3
ENDBRANCH   1   2
BRANCH   1  58
ATOM     58  C   UNL A   1      37.409  21.725  24.649  1.00  0.00     0.002 C 
BRANCH  58  59
ATOM     59  C   UNL A   1      36.549  22.690  23.825  1.00  0.00     0.021 C 
BRANCH  59  60
ATOM     60  C   UNL A   1      35.763  23.728  24.619  1.00  0.00     0.116 C 
BRANCH  60  61
ATOM     61  N   UNL A   1      35.418  23.294  25.953  1.00  0.00    -0.354 N 
ATOM     62  C   UNL A   1      34.204  23.014  26.508  1.00  0.00     0.242 C 
ATOM     63  H   UNL A   1      36.184  23.181  26.561  1.00  0.00     0.163 HD
ATOM     64  O   UNL A   1      34.214  22.267  27.493  1.00  0.00    -0.273 OA
BRANCH  62  65
ATOM     65  C   UNL A   1      32.861  23.462  25.886  1.00  0.00     0.177 C 
ATOM     66  C   UNL A   1      31.932  24.135  26.906  1.00  0.00     0.069 C 
ATOM     67  N   UNL A   1      32.051  22.415  25.250  1.00  0.00    -0.324 N 
ATOM     68  C   UNL A   1      30.528  23.743  26.453  1.00  0.00     0.136 C 
ATOM     69  C   UNL A   1      30.697  22.377  25.789  1.00  0.00     0.152 C 
BRANCH  67  70
ATOM     70  C   UNL A   1      32.543  21.773  24.127  1.00  0.00     0.254 C 
ATOM     71  O   UNL A   1      32.958  22.380  23.144  1.00  0.00    -0.269 OA
BRANCH  70  72
ATOM     72  C   UNL A   1      32.591  20.297  24.082  1.00  0.00     0.040 A 
ATOM     73  C   UNL A   1      33.072  19.610  25.200  1.00  0.00     0.014 A 
ATOM     74  C   UNL A   1      32.299  19.606  22.901  1.00  0.00     0.014 A 
ATOM     75  C   UNL A   1      33.214  18.224  25.153  1.00  0.00     0.001 A 
ATOM     76  C   UNL A   1      32.435  18.217  22.861  1.00  0.00     0.001 A 
ATOM     77  C   UNL A   1      32.887  17.528  23.987  1.00  0.00     0.000 A 
ENDBRANCH  70  72
ENDBRANCH  67  70
BRANCH  68  78
ATOM     78  O   UNL A   1      30.042  24.697  25.511  1.00  0.00    -0.391 OA
ATOM     79  H   UNL A   1      30.504  24.583  24.666  1.00  0.00     0.211 HD
ENDBRANCH  68  78
ENDBRANCH  62  65
ENDBRANCH  60  61
ENDBRANCH  59  60
ENDBRANCH  58  59
ENDBRANCH   1  58
TORSDOF 16
ENDMDL
