MODEL 1
REMARK VINA RESULT:     -11.2      0.000      0.000
REMARK SMILES C[C@@H](C(=O)NCCCCCCNC(=O)c1ccc(-c2c3nc(c(-c4ccccc4)c4ccc([nH]4)c(-c4ccccc4)c4nc(c(-c5ccccc5)c5ccc2[nH]5)C=C4)C=C3)cc1)c1ccc(N[C@H]2CCC[C@@H]2O)cc1F
REMARK SMILES IDX 7 1 6 2 5 3 3 4 4 5 2 7 1 8 63 9 64 10 75 11 65 12 74 13
REMARK SMILES IDX 76 14 66 15 67 16 68 18 69 19 72 20 70 21 71 22 73 23 8 25
REMARK SMILES IDX 9 26 10 27 11 28 12 29 13 30 14 32 15 33 16 34 62 35 17 36
REMARK SMILES IDX 61 37 18 38 19 39 20 40 55 41 21 42 60 43 54 44 56 45 22 46
REMARK SMILES IDX 59 47 53 48 52 49 23 51 45 52 30 53 44 54 31 55 34 56 43 57
REMARK SMILES IDX 57 58 32 59 33 60 42 62 58 63 35 64 24 65 25 66 29 67 26 68
REMARK SMILES IDX 28 69 27 70 46 71 47 72 51 73 48 74 50 75 49 76 36 77 37 78
REMARK SMILES IDX 41 79 38 80 40 81 39 82
REMARK H PARENT 5 6 67 17 73 24 12 31 56 50 34 61
REMARK Flexibility Score: inf
ROOT
ATOM      1  C   UNL A   1      35.365  22.402  25.946  1.00  0.00     0.021 C 
ENDROOT
BRANCH   1   2
ATOM      2  C   UNL A   1      35.346  23.917  25.741  1.00  0.00     0.116 C 
BRANCH   2   3
ATOM      3  N   UNL A   1      35.137  24.236  24.347  1.00  0.00    -0.356 N 
ATOM      4  C   UNL A   1      34.060  24.804  23.731  1.00  0.00     0.227 C 
ATOM      5  O   UNL A   1      34.079  24.835  22.499  1.00  0.00    -0.274 OA
ATOM      6  H   UNL A   1      35.886  24.009  23.750  1.00  0.00     0.163 HD
BRANCH   4   7
ATOM      7  C   UNL A   1      32.936  25.423  24.578  1.00  0.00     0.108 C 
ATOM      8  C   UNL A   1      31.874  24.404  25.001  1.00  0.00     0.023 C 
BRANCH   7   9
ATOM      9  C   UNL A   1      32.314  26.618  23.874  1.00  0.00     0.000 A 
ATOM     10  C   UNL A   1      32.650  27.916  24.267  1.00  0.00     0.009 A 
ATOM     11  C   UNL A   1      31.437  26.472  22.799  1.00  0.00     0.129 A 
ATOM     12  C   UNL A   1      32.101  29.025  23.610  1.00  0.00     0.026 A 
ATOM     13  C   UNL A   1      30.893  27.579  22.148  1.00  0.00     0.065 A 
ATOM     14  F   UNL A   1      31.087  25.252  22.367  1.00  0.00    -0.207 F 
ATOM     15  C   UNL A   1      31.222  28.884  22.533  1.00  0.00     0.037 A 
BRANCH  15  16
ATOM     16  N   UNL A   1      30.632  29.932  21.858  1.00  0.00    -0.380 N 
ATOM     17  H   UNL A   1      31.199  30.372  21.185  1.00  0.00     0.160 HD
BRANCH  16  18
ATOM     18  C   UNL A   1      29.291  30.483  21.996  1.00  0.00     0.107 C 
ATOM     19  C   UNL A   1      28.190  29.431  22.166  1.00  0.00     0.027 C 
ATOM     20  C   UNL A   1      29.120  31.486  23.155  1.00  0.00     0.136 C 
ATOM     21  C   UNL A   1      27.293  29.944  23.295  1.00  0.00     0.005 C 
ATOM     22  C   UNL A   1      27.623  31.424  23.430  1.00  0.00     0.034 C 
BRANCH  20  23
ATOM     23  O   UNL A   1      29.517  32.811  22.823  1.00  0.00    -0.391 OA
ATOM     24  H   UNL A   1      30.300  32.780  22.251  1.00  0.00     0.211 HD
ENDBRANCH  20  23
ENDBRANCH  16  18
ENDBRANCH  15  16
ENDBRANCH   7   9
ENDBRANCH   4   7
ENDBRANCH   2   3
ENDBRANCH   1   2
BRANCH   1  25
ATOM     25  C   UNL A   1      36.697  21.740  25.571  1.00  0.00     0.002 C 
BRANCH  25  26
ATOM     26  C   UNL A   1      36.574  20.368  24.899  1.00  0.00     0.002 C 
BRANCH  26  27
ATOM     27  C   UNL A   1      37.860  19.537  24.888  1.00  0.00     0.021 C 
BRANCH  27  28
ATOM     28  C   UNL A   1      38.975  20.082  25.774  1.00  0.00     0.116 C 
BRANCH  28  29
ATOM     29  N   UNL A   1      40.137  19.210  25.790  1.00  0.00    -0.352 N 
ATOM     30  C   UNL A   1      41.446  19.517  26.054  1.00  0.00     0.251 C 
ATOM     31  H   UNL A   1      39.959  18.265  25.581  1.00  0.00     0.163 HD
ATOM     32  O   UNL A   1      42.332  18.691  25.840  1.00  0.00    -0.269 OA
BRANCH  30  33
ATOM     33  C   UNL A   1      41.800  20.851  26.581  1.00  0.00     0.039 A 
ATOM     34  C   UNL A   1      42.227  21.838  25.688  1.00  0.00     0.014 A 
ATOM     35  C   UNL A   1      41.731  21.125  27.951  1.00  0.00     0.014 A 
ATOM     36  C   UNL A   1      42.539  23.113  26.163  1.00  0.00     0.010 A 
ATOM     37  C   UNL A   1      41.978  22.414  28.414  1.00  0.00     0.010 A 
ATOM     38  C   UNL A   1      42.392  23.418  27.526  1.00  0.00    -0.014 A 
BRANCH  38  39
ATOM     39  C   UNL A   1      42.682  24.779  28.040  1.00  0.00     0.031 A 
ATOM     40  C   UNL A   1      44.083  25.158  28.432  1.00  0.00     0.074 A 
ATOM     41  C   UNL A   1      41.675  25.659  28.205  1.00  0.00     0.049 A 
ATOM     42  N   UNL A   1      44.524  26.281  28.940  1.00  0.00    -0.248 NA
ATOM     43  C   UNL A   1      45.122  24.131  28.251  1.00  0.00     0.031 C 
ATOM     44  C   UNL A   1      40.266  25.403  27.897  1.00  0.00     0.029 A 
ATOM     45  N   UNL A   1      41.685  26.947  28.678  1.00  0.00    -0.354 N 
ATOM     46  C   UNL A   1      45.883  26.090  29.155  1.00  0.00     0.074 A 
ATOM     47  C   UNL A   1      46.186  24.729  28.768  1.00  0.00     0.031 C 
ATOM     48  C   UNL A   1      39.552  26.510  28.162  1.00  0.00     0.029 A 
ATOM     49  C   UNL A   1      40.444  27.537  28.690  1.00  0.00     0.049 A 
ATOM     50  H   UNL A   1      42.502  27.405  28.978  1.00  0.00     0.167 HD
ATOM     51  C   UNL A   1      46.801  26.972  29.617  1.00  0.00     0.031 A 
ATOM     52  C   UNL A   1      40.067  28.767  29.084  1.00  0.00     0.031 A 
ATOM     53  C   UNL A   1      46.505  28.329  29.989  1.00  0.00     0.049 A 
ATOM     54  C   UNL A   1      41.105  29.727  29.597  1.00  0.00     0.074 A 
ATOM     55  C   UNL A   1      47.377  29.317  30.415  1.00  0.00     0.029 A 
ATOM     56  N   UNL A   1      45.238  28.890  29.981  1.00  0.00    -0.354 N 
ATOM     57  N   UNL A   1      42.397  29.551  29.735  1.00  0.00    -0.248 NA
ATOM     58  C   UNL A   1      40.630  31.058  29.998  1.00  0.00     0.031 C 
ATOM     59  C   UNL A   1      46.630  30.462  30.707  1.00  0.00     0.029 A 
ATOM     60  C   UNL A   1      45.300  30.204  30.413  1.00  0.00     0.049 A 
ATOM     61  H   UNL A   1      44.415  28.423  29.708  1.00  0.00     0.167 HD
ATOM     62  C   UNL A   1      42.894  30.757  30.210  1.00  0.00     0.074 A 
ATOM     63  C   UNL A   1      41.767  31.660  30.324  1.00  0.00     0.031 C 
ATOM     64  C   UNL A   1      44.170  31.088  30.522  1.00  0.00     0.031 A 
BRANCH  51  65
ATOM     65  C   UNL A   1      48.218  26.486  29.748  1.00  0.00    -0.014 A 
ATOM     66  C   UNL A   1      49.153  26.686  28.719  1.00  0.00     0.009 A 
ATOM     67  C   UNL A   1      48.631  25.846  30.926  1.00  0.00     0.009 A 
ATOM     68  C   UNL A   1      50.462  26.218  28.853  1.00  0.00     0.001 A 
ATOM     69  C   UNL A   1      49.948  25.404  31.068  1.00  0.00     0.001 A 
ATOM     70  C   UNL A   1      50.859  25.581  30.028  1.00  0.00     0.000 A 
ENDBRANCH  51  65
BRANCH  52  71
ATOM     71  C   UNL A   1      38.643  29.176  28.985  1.00  0.00    -0.014 A 
ATOM     72  C   UNL A   1      37.790  29.052  30.092  1.00  0.00     0.009 A 
ATOM     73  C   UNL A   1      38.126  29.685  27.783  1.00  0.00     0.009 A 
ATOM     74  C   UNL A   1      36.442  29.405  29.990  1.00  0.00     0.001 A 
ATOM     75  C   UNL A   1      36.785  30.062  27.692  1.00  0.00     0.001 A 
ATOM     76  C   UNL A   1      35.943  29.914  28.793  1.00  0.00     0.000 A 
ENDBRANCH  52  71
BRANCH  64  77
ATOM     77  C   UNL A   1      44.419  32.496  30.982  1.00  0.00    -0.014 A 
ATOM     78  C   UNL A   1      44.385  32.835  32.344  1.00  0.00     0.009 A 
ATOM     79  C   UNL A   1      44.726  33.490  30.040  1.00  0.00     0.009 A 
ATOM     80  C   UNL A   1      44.620  34.150  32.749  1.00  0.00     0.001 A 
ATOM     81  C   UNL A   1      44.988  34.797  30.450  1.00  0.00     0.001 A 
ATOM     82  C   UNL A   1      44.925  35.128  31.803  1.00  0.00     0.000 A 
ENDBRANCH  64  77
ENDBRANCH  38  39
ENDBRANCH  30  33
ENDBRANCH  28  29
ENDBRANCH  27  28
ENDBRANCH  26  27
ENDBRANCH  25  26
ENDBRANCH   1  25
TORSDOF 17
ENDMDL
MODEL 2
REMARK VINA RESULT:     -11.1      2.411      7.157
REMARK SMILES C[C@@H](C(=O)NCCCCCCNC(=O)c1ccc(-c2c3nc(c(-c4ccccc4)c4ccc([nH]4)c(-c4ccccc4)c4nc(c(-c5ccccc5)c5ccc2[nH]5)C=C4)C=C3)cc1)c1ccc(N[C@H]2CCC[C@@H]2O)cc1F
REMARK SMILES IDX 7 1 6 2 5 3 3 4 4 5 2 7 1 8 63 9 64 10 75 11 65 12 74 13
REMARK SMILES IDX 76 14 66 15 67 16 68 18 69 19 72 20 70 21 71 22 73 23 8 25
REMARK SMILES IDX 9 26 10 27 11 28 12 29 13 30 14 32 15 33 16 34 62 35 17 36
REMARK SMILES IDX 61 37 18 38 19 39 20 40 55 41 21 42 60 43 54 44 56 45 22 46
REMARK SMILES IDX 59 47 53 48 52 49 23 51 45 52 30 53 44 54 31 55 34 56 43 57
REMARK SMILES IDX 57 58 32 59 33 60 42 62 58 63 35 64 24 65 25 66 29 67 26 68
REMARK SMILES IDX 28 69 27 70 46 71 47 72 51 73 48 74 50 75 49 76 36 77 37 78
REMARK SMILES IDX 41 79 38 80 40 81 39 82
REMARK H PARENT 5 6 67 17 73 24 12 31 56 50 34 61
REMARK Flexibility Score: inf
ROOT
ATOM      1  C   UNL A   1      35.133  24.753  25.081  1.00  0.00     0.021 C 
ENDROOT
BRANCH   1   2
ATOM      2  C   UNL A   1      34.610  23.556  24.286  1.00  0.00     0.116 C 
BRANCH   2   3
ATOM      3  N   UNL A   1      33.945  22.618  25.163  1.00  0.00    -0.356 N 
ATOM      4  C   UNL A   1      32.670  22.136  25.124  1.00  0.00     0.227 C 
ATOM      5  O   UNL A   1      32.308  21.451  26.082  1.00  0.00    -0.274 OA
ATOM      6  H   UNL A   1      34.499  22.274  25.901  1.00  0.00     0.163 HD
BRANCH   4   7
ATOM      7  C   UNL A   1      31.791  22.404  23.892  1.00  0.00     0.108 C 
ATOM      8  C   UNL A   1      32.426  21.921  22.586  1.00  0.00     0.023 C 
BRANCH   7   9
ATOM      9  C   UNL A   1      31.392  23.868  23.812  1.00  0.00     0.000 A 
ATOM     10  C   UNL A   1      31.743  24.631  22.695  1.00  0.00     0.009 A 
ATOM     11  C   UNL A   1      30.633  24.486  24.807  1.00  0.00     0.129 A 
ATOM     12  C   UNL A   1      31.361  25.975  22.601  1.00  0.00     0.026 A 
ATOM     13  C   UNL A   1      30.255  25.824  24.708  1.00  0.00     0.065 A 
ATOM     14  F   UNL A   1      30.253  23.802  25.896  1.00  0.00    -0.207 F 
ATOM     15  C   UNL A   1      30.601  26.598  23.594  1.00  0.00     0.037 A 
BRANCH  15  16
ATOM     16  N   UNL A   1      30.210  27.921  23.571  1.00  0.00    -0.380 N 
ATOM     17  H   UNL A   1      30.595  28.486  24.279  1.00  0.00     0.160 HD
BRANCH  16  18
ATOM     18  C   UNL A   1      29.310  28.603  22.652  1.00  0.00     0.107 C 
ATOM     19  C   UNL A   1      27.853  28.661  23.120  1.00  0.00     0.027 C 
ATOM     20  C   UNL A   1      29.716  30.049  22.302  1.00  0.00     0.136 C 
ATOM     21  C   UNL A   1      27.387  30.094  22.855  1.00  0.00     0.005 C 
ATOM     22  C   UNL A   1      28.394  30.670  21.869  1.00  0.00     0.034 C 
BRANCH  20  23
ATOM     23  O   UNL A   1      30.678  30.133  21.258  1.00  0.00    -0.391 OA
ATOM     24  H   UNL A   1      31.519  29.755  21.562  1.00  0.00     0.211 HD
ENDBRANCH  20  23
ENDBRANCH  16  18
ENDBRANCH  15  16
ENDBRANCH   7   9
ENDBRANCH   4   7
ENDBRANCH   2   3
ENDBRANCH   1   2
BRANCH   1  25
ATOM     25  C   UNL A   1      34.233  25.993  25.004  1.00  0.00     0.002 C 
BRANCH  25  26
ATOM     26  C   UNL A   1      33.465  26.319  26.289  1.00  0.00     0.002 C 
BRANCH  26  27
ATOM     27  C   UNL A   1      33.005  27.773  26.415  1.00  0.00     0.021 C 
BRANCH  27  28
ATOM     28  C   UNL A   1      34.031  28.805  25.957  1.00  0.00     0.116 C 
BRANCH  28  29
ATOM     29  N   UNL A   1      33.805  30.107  26.562  1.00  0.00    -0.352 N 
ATOM     30  C   UNL A   1      34.516  30.737  27.550  1.00  0.00     0.251 C 
ATOM     31  H   UNL A   1      33.033  30.607  26.213  1.00  0.00     0.163 HD
ATOM     32  O   UNL A   1      34.075  31.759  28.075  1.00  0.00    -0.269 OA
BRANCH  30  33
ATOM     33  C   UNL A   1      35.808  30.180  28.001  1.00  0.00     0.039 A 
ATOM     34  C   UNL A   1      36.920  30.293  27.162  1.00  0.00     0.014 A 
ATOM     35  C   UNL A   1      35.920  29.532  29.235  1.00  0.00     0.014 A 
ATOM     36  C   UNL A   1      38.157  29.798  27.582  1.00  0.00     0.010 A 
ATOM     37  C   UNL A   1      37.167  29.099  29.680  1.00  0.00     0.010 A 
ATOM     38  C   UNL A   1      38.294  29.220  28.854  1.00  0.00    -0.014 A 
BRANCH  38  39
ATOM     39  C   UNL A   1      39.609  28.725  29.330  1.00  0.00     0.031 A 
ATOM     40  C   UNL A   1      40.440  29.560  30.265  1.00  0.00     0.074 A 
ATOM     41  C   UNL A   1      40.080  27.545  28.881  1.00  0.00     0.049 A 
ATOM     42  N   UNL A   1      41.630  29.316  30.754  1.00  0.00    -0.248 NA
ATOM     43  C   UNL A   1      39.869  30.850  30.685  1.00  0.00     0.031 C 
ATOM     44  C   UNL A   1      39.388  26.657  27.945  1.00  0.00     0.029 A 
ATOM     45  N   UNL A   1      41.257  26.894  29.151  1.00  0.00    -0.354 N 
ATOM     46  C   UNL A   1      41.955  30.426  31.524  1.00  0.00     0.074 A 
ATOM     47  C   UNL A   1      40.861  31.364  31.399  1.00  0.00     0.031 C 
ATOM     48  C   UNL A   1      40.142  25.563  27.741  1.00  0.00     0.029 A 
ATOM     49  C   UNL A   1      41.381  25.690  28.502  1.00  0.00     0.049 A 
ATOM     50  H   UNL A   1      41.947  27.255  29.753  1.00  0.00     0.167 HD
ATOM     51  C   UNL A   1      43.058  30.639  32.281  1.00  0.00     0.031 A 
ATOM     52  C   UNL A   1      42.380  24.789  28.518  1.00  0.00     0.031 A 
ATOM     53  C   UNL A   1      44.140  29.703  32.418  1.00  0.00     0.049 A 
ATOM     54  C   UNL A   1      43.596  25.051  29.363  1.00  0.00     0.074 A 
ATOM     55  C   UNL A   1      45.274  29.803  33.206  1.00  0.00     0.029 A 
ATOM     56  N   UNL A   1      44.224  28.491  31.750  1.00  0.00    -0.354 N 
ATOM     57  N   UNL A   1      43.860  26.077  30.134  1.00  0.00    -0.248 NA
ATOM     58  C   UNL A   1      44.644  24.022  29.346  1.00  0.00     0.031 C 
ATOM     59  C   UNL A   1      46.065  28.672  32.980  1.00  0.00     0.029 A 
ATOM     60  C   UNL A   1      45.399  27.844  32.091  1.00  0.00     0.049 A 
ATOM     61  H   UNL A   1      43.547  28.143  31.125  1.00  0.00     0.167 HD
ATOM     62  C   UNL A   1      45.090  25.805  30.716  1.00  0.00     0.074 A 
ATOM     63  C   UNL A   1      45.513  24.512  30.220  1.00  0.00     0.031 C 
ATOM     64  C   UNL A   1      45.805  26.558  31.587  1.00  0.00     0.031 A 
BRANCH  51  65
ATOM     65  C   UNL A   1      43.145  31.947  33.017  1.00  0.00    -0.014 A 
ATOM     66  C   UNL A   1      42.655  32.078  34.327  1.00  0.00     0.009 A 
ATOM     67  C   UNL A   1      43.750  33.055  32.405  1.00  0.00     0.009 A 
ATOM     68  C   UNL A   1      42.734  33.303  34.992  1.00  0.00     0.001 A 
ATOM     69  C   UNL A   1      43.853  34.271  33.083  1.00  0.00     0.001 A 
ATOM     70  C   UNL A   1      43.335  34.397  34.371  1.00  0.00     0.000 A 
ENDBRANCH  51  65
BRANCH  52  71
ATOM     71  C   UNL A   1      42.265  23.537  27.726  1.00  0.00    -0.014 A 
ATOM     72  C   UNL A   1      42.715  23.493  26.397  1.00  0.00     0.009 A 
ATOM     73  C   UNL A   1      41.699  22.383  28.289  1.00  0.00     0.009 A 
ATOM     74  C   UNL A   1      42.577  22.327  25.641  1.00  0.00     0.001 A 
ATOM     75  C   UNL A   1      41.587  21.210  27.540  1.00  0.00     0.001 A 
ATOM     76  C   UNL A   1      42.019  21.186  26.215  1.00  0.00     0.000 A 
ENDBRANCH  52  71
BRANCH  64  77
ATOM     77  C   UNL A   1      47.101  25.984  32.084  1.00  0.00    -0.014 A 
ATOM     78  C   UNL A   1      48.304  26.193  31.392  1.00  0.00     0.009 A 
ATOM     79  C   UNL A   1      47.122  25.254  33.282  1.00  0.00     0.009 A 
ATOM     80  C   UNL A   1      49.497  25.651  31.873  1.00  0.00     0.001 A 
ATOM     81  C   UNL A   1      48.320  24.737  33.776  1.00  0.00     0.001 A 
ATOM     82  C   UNL A   1      49.505  24.928  33.065  1.00  0.00     0.000 A 
ENDBRANCH  64  77
ENDBRANCH  38  39
ENDBRANCH  30  33
ENDBRANCH  28  29
ENDBRANCH  27  28
ENDBRANCH  26  27
ENDBRANCH  25  26
ENDBRANCH   1  25
TORSDOF 17
ENDMDL
MODEL 3
REMARK VINA RESULT:     -11.0      3.230      8.219
REMARK SMILES C[C@@H](C(=O)NCCCCCCNC(=O)c1ccc(-c2c3nc(c(-c4ccccc4)c4ccc([nH]4)c(-c4ccccc4)c4nc(c(-c5ccccc5)c5ccc2[nH]5)C=C4)C=C3)cc1)c1ccc(N[C@H]2CCC[C@@H]2O)cc1F
REMARK SMILES IDX 7 1 6 2 5 3 3 4 4 5 2 7 1 8 63 9 64 10 75 11 65 12 74 13
REMARK SMILES IDX 76 14 66 15 67 16 68 18 69 19 72 20 70 21 71 22 73 23 8 25
REMARK SMILES IDX 9 26 10 27 11 28 12 29 13 30 14 32 15 33 16 34 62 35 17 36
REMARK SMILES IDX 61 37 18 38 19 39 20 40 55 41 21 42 60 43 54 44 56 45 22 46
REMARK SMILES IDX 59 47 53 48 52 49 23 51 45 52 30 53 44 54 31 55 34 56 43 57
REMARK SMILES IDX 57 58 32 59 33 60 42 62 58 63 35 64 24 65 25 66 29 67 26 68
REMARK SMILES IDX 28 69 27 70 46 71 47 72 51 73 48 74 50 75 49 76 36 77 37 78
REMARK SMILES IDX 41 79 38 80 40 81 39 82
REMARK H PARENT 5 6 67 17 73 24 12 31 56 50 34 61
REMARK Flexibility Score: inf
ROOT
ATOM      1  C   UNL A   1      33.168  28.137  26.234  1.00  0.00     0.021 C 
ENDROOT
BRANCH   1   2
ATOM      2  C   UNL A   1      32.977  26.628  26.390  1.00  0.00     0.116 C 
BRANCH   2   3
ATOM      3  N   UNL A   1      33.975  25.911  25.628  1.00  0.00    -0.356 N 
ATOM      4  C   UNL A   1      33.822  25.019  24.606  1.00  0.00     0.227 C 
ATOM      5  O   UNL A   1      34.838  24.438  24.222  1.00  0.00    -0.274 OA
ATOM      6  H   UNL A   1      34.908  26.094  25.884  1.00  0.00     0.163 HD
BRANCH   4   7
ATOM      7  C   UNL A   1      32.441  24.835  23.956  1.00  0.00     0.108 C 
ATOM      8  C   UNL A   1      32.415  23.716  22.912  1.00  0.00     0.023 C 
BRANCH   7   9
ATOM      9  C   UNL A   1      31.927  26.146  23.382  1.00  0.00     0.000 A 
ATOM     10  C   UNL A   1      30.646  26.599  23.705  1.00  0.00     0.009 A 
ATOM     11  C   UNL A   1      32.715  26.957  22.564  1.00  0.00     0.129 A 
ATOM     12  C   UNL A   1      30.171  27.816  23.201  1.00  0.00     0.026 A 
ATOM     13  C   UNL A   1      32.238  28.168  22.065  1.00  0.00     0.065 A 
ATOM     14  F   UNL A   1      33.958  26.584  22.230  1.00  0.00    -0.207 F 
ATOM     15  C   UNL A   1      30.955  28.632  22.381  1.00  0.00     0.037 A 
BRANCH  15  16
ATOM     16  N   UNL A   1      30.541  29.829  21.837  1.00  0.00    -0.380 N 
ATOM     17  H   UNL A   1      31.220  30.311  21.313  1.00  0.00     0.160 HD
BRANCH  16  18
ATOM     18  C   UNL A   1      29.243  30.485  21.925  1.00  0.00     0.107 C 
ATOM     19  C   UNL A   1      28.083  29.547  22.272  1.00  0.00     0.027 C 
ATOM     20  C   UNL A   1      29.176  31.654  22.929  1.00  0.00     0.136 C 
ATOM     21  C   UNL A   1      27.259  30.277  23.334  1.00  0.00     0.005 C 
ATOM     22  C   UNL A   1      27.688  31.735  23.245  1.00  0.00     0.034 C 
BRANCH  20  23
ATOM     23  O   UNL A   1      29.647  32.887  22.398  1.00  0.00    -0.391 OA
ATOM     24  H   UNL A   1      30.243  33.307  23.038  1.00  0.00     0.211 HD
ENDBRANCH  20  23
ENDBRANCH  16  18
ENDBRANCH  15  16
ENDBRANCH   7   9
ENDBRANCH   4   7
ENDBRANCH   2   3
ENDBRANCH   1   2
BRANCH   1  25
ATOM     25  C   UNL A   1      31.897  28.956  26.497  1.00  0.00     0.002 C 
BRANCH  25  26
ATOM     26  C   UNL A   1      31.709  30.173  25.585  1.00  0.00     0.002 C 
BRANCH  26  27
ATOM     27  C   UNL A   1      31.375  31.478  26.312  1.00  0.00     0.021 C 
BRANCH  27  28
ATOM     28  C   UNL A   1      32.483  31.997  27.224  1.00  0.00     0.116 C 
BRANCH  28  29
ATOM     29  N   UNL A   1      32.327  33.411  27.523  1.00  0.00    -0.352 N 
ATOM     30  C   UNL A   1      33.113  34.223  28.298  1.00  0.00     0.251 C 
ATOM     31  H   UNL A   1      31.547  33.847  27.110  1.00  0.00     0.163 HD
ATOM     32  O   UNL A   1      32.731  35.354  28.595  1.00  0.00    -0.269 OA
BRANCH  30  33
ATOM     33  C   UNL A   1      34.416  33.735  28.794  1.00  0.00     0.039 A 
ATOM     34  C   UNL A   1      34.450  32.977  29.967  1.00  0.00     0.014 A 
ATOM     35  C   UNL A   1      35.602  34.040  28.118  1.00  0.00     0.014 A 
ATOM     36  C   UNL A   1      35.668  32.483  30.437  1.00  0.00     0.010 A 
ATOM     37  C   UNL A   1      36.807  33.490  28.551  1.00  0.00     0.010 A 
ATOM     38  C   UNL A   1      36.852  32.714  29.719  1.00  0.00    -0.014 A 
BRANCH  38  39
ATOM     39  C   UNL A   1      38.148  32.164  30.183  1.00  0.00     0.031 A 
ATOM     40  C   UNL A   1      38.645  30.846  29.655  1.00  0.00     0.074 A 
ATOM     41  C   UNL A   1      38.856  32.823  31.121  1.00  0.00     0.049 A 
ATOM     42  N   UNL A   1      39.729  30.184  29.973  1.00  0.00    -0.248 NA
ATOM     43  C   UNL A   1      37.799  30.172  28.656  1.00  0.00     0.031 C 
ATOM     44  C   UNL A   1      38.467  34.092  31.741  1.00  0.00     0.029 A 
ATOM     45  N   UNL A   1      40.051  32.512  31.719  1.00  0.00    -0.354 N 
ATOM     46  C   UNL A   1      39.687  29.013  29.228  1.00  0.00     0.074 A 
ATOM     47  C   UNL A   1      38.449  29.030  28.479  1.00  0.00     0.031 C 
ATOM     48  C   UNL A   1      39.421  34.465  32.611  1.00  0.00     0.029 A 
ATOM     49  C   UNL A   1      40.467  33.447  32.636  1.00  0.00     0.049 A 
ATOM     50  H   UNL A   1      40.562  31.698  31.511  1.00  0.00     0.167 HD
ATOM     51  C   UNL A   1      40.604  28.018  29.159  1.00  0.00     0.031 A 
ATOM     52  C   UNL A   1      41.566  33.481  33.411  1.00  0.00     0.031 A 
ATOM     53  C   UNL A   1      41.841  28.004  29.891  1.00  0.00     0.049 A 
ATOM     54  C   UNL A   1      42.567  32.362  33.319  1.00  0.00     0.074 A 
ATOM     55  C   UNL A   1      42.861  27.069  29.845  1.00  0.00     0.029 A 
ATOM     56  N   UNL A   1      42.228  28.973  30.803  1.00  0.00    -0.354 N 
ATOM     57  N   UNL A   1      42.542  31.292  32.563  1.00  0.00    -0.248 NA
ATOM     58  C   UNL A   1      43.752  32.466  34.181  1.00  0.00     0.031 C 
ATOM     59  C   UNL A   1      43.844  27.450  30.764  1.00  0.00     0.029 A 
ATOM     60  C   UNL A   1      43.461  28.649  31.343  1.00  0.00     0.049 A 
ATOM     61  H   UNL A   1      41.703  29.774  31.034  1.00  0.00     0.167 HD
ATOM     62  C   UNL A   1      43.720  30.609  32.836  1.00  0.00     0.074 A 
ATOM     63  C   UNL A   1      44.442  31.393  33.817  1.00  0.00     0.031 C 
ATOM     64  C   UNL A   1      44.165  29.438  32.319  1.00  0.00     0.031 A 
BRANCH  51  65
ATOM     65  C   UNL A   1      40.292  26.856  28.257  1.00  0.00    -0.014 A 
ATOM     66  C   UNL A   1      39.508  25.779  28.702  1.00  0.00     0.009 A 
ATOM     67  C   UNL A   1      40.765  26.851  26.935  1.00  0.00     0.009 A 
ATOM     68  C   UNL A   1      39.239  24.703  27.855  1.00  0.00     0.001 A 
ATOM     69  C   UNL A   1      40.470  25.786  26.082  1.00  0.00     0.001 A 
ATOM     70  C   UNL A   1      39.716  24.708  26.545  1.00  0.00     0.000 A 
ENDBRANCH  51  65
BRANCH  52  71
ATOM     71  C   UNL A   1      41.796  34.628  34.326  1.00  0.00    -0.014 A 
ATOM     72  C   UNL A   1      42.486  35.765  33.880  1.00  0.00     0.009 A 
ATOM     73  C   UNL A   1      41.333  34.591  35.651  1.00  0.00     0.009 A 
ATOM     74  C   UNL A   1      42.732  36.831  34.749  1.00  0.00     0.001 A 
ATOM     75  C   UNL A   1      41.557  35.669  36.509  1.00  0.00     0.001 A 
ATOM     76  C   UNL A   1      42.263  36.784  36.060  1.00  0.00     0.000 A 
ENDBRANCH  52  71
BRANCH  64  77
ATOM     77  C   UNL A   1      45.510  28.955  32.779  1.00  0.00    -0.014 A 
ATOM     78  C   UNL A   1      45.637  28.085  33.873  1.00  0.00     0.009 A 
ATOM     79  C   UNL A   1      46.664  29.349  32.084  1.00  0.00     0.009 A 
ATOM     80  C   UNL A   1      46.898  27.648  34.282  1.00  0.00     0.001 A 
ATOM     81  C   UNL A   1      47.920  28.888  32.477  1.00  0.00     0.001 A 
ATOM     82  C   UNL A   1      48.037  28.045  33.582  1.00  0.00     0.000 A 
ENDBRANCH  64  77
ENDBRANCH  38  39
ENDBRANCH  30  33
ENDBRANCH  28  29
ENDBRANCH  27  28
ENDBRANCH  26  27
ENDBRANCH  25  26
ENDBRANCH   1  25
TORSDOF 17
ENDMDL
