MODEL 1
REMARK VINA RESULT:     -12.1      0.000      0.000
REMARK SMILES CN(C)C(=O)c1cccc(N2CCC3(CC2)[C@H](C(=O)NCCCCCCNC(=O)c2ccc(-c4c5nc(c(-c6ccccc6)c6ccc([nH]6)c(-c6ccccc6)c6nc(c(-c7ccccc7)c7ccc4[nH]7)C=C6)C=C5)cc2)CC(=O)N3C)n1
REMARK SMILES IDX 23 1 22 2 21 3 20 4 18 5 19 6 17 8 11 9 12 10 16 11 13 12
REMARK SMILES IDX 15 13 14 14 81 15 78 16 79 17 82 18 80 19 10 20 6 21 7 22
REMARK SMILES IDX 83 23 8 24 9 25 4 26 1 27 2 28 3 29 5 30 24 31 25 32 26 33
REMARK SMILES IDX 27 34 28 35 29 37 30 38 31 39 77 40 32 41 76 42 33 43 34 44
REMARK SMILES IDX 35 45 70 46 36 47 75 48 69 49 71 50 37 51 74 52 68 53 67 54
REMARK SMILES IDX 38 56 60 57 45 58 59 59 46 60 49 61 58 62 72 63 47 64 48 65
REMARK SMILES IDX 57 67 73 68 50 69 39 70 40 71 44 72 41 73 43 74 42 75 61 76
REMARK SMILES IDX 62 77 66 78 63 79 65 80 64 81 51 82 52 83 56 84 53 85 55 86
REMARK SMILES IDX 54 87
REMARK H PARENT 20 7 27 36 71 55 49 66
REMARK Flexibility Score: inf
ROOT
ATOM      1  C   UNL A   1      31.896  29.526  24.736  1.00  0.00     0.002 C 
ENDROOT
BRANCH   1   2
ATOM      2  C   UNL A   1      33.248  29.077  24.192  1.00  0.00     0.021 C 
BRANCH   2   3
ATOM      3  C   UNL A   1      33.479  27.558  24.203  1.00  0.00     0.116 C 
BRANCH   3   4
ATOM      4  N   UNL A   1      33.655  26.992  22.874  1.00  0.00    -0.356 N 
ATOM      5  C   UNL A   1      33.064  25.959  22.217  1.00  0.00     0.226 C 
ATOM      6  O   UNL A   1      33.488  25.725  21.077  1.00  0.00    -0.275 OA
ATOM      7  H   UNL A   1      34.344  27.450  22.342  1.00  0.00     0.163 HD
BRANCH   5   8
ATOM      8  C   UNL A   1      31.919  25.094  22.769  1.00  0.00     0.113 C 
ATOM      9  N   UNL A   1      33.545  21.730  24.904  1.00  0.00    -0.356 N 
ATOM     10  C   UNL A   1      34.140  23.000  25.224  1.00  0.00     0.120 C 
ATOM     11  C   UNL A   1      32.110  21.631  24.680  1.00  0.00     0.120 C 
ATOM     12  C   UNL A   1      33.712  23.944  24.126  1.00  0.00     0.051 C 
ATOM     13  C   UNL A   1      31.603  22.724  23.716  1.00  0.00     0.051 C 
ATOM     14  C   UNL A   1      32.199  24.137  23.975  1.00  0.00     0.058 C 
ATOM     15  N   UNL A   1      31.469  24.823  25.062  1.00  0.00    -0.339 N 
ATOM     16  C   UNL A   1      30.719  25.957  23.141  1.00  0.00     0.116 C 
ATOM     17  C   UNL A   1      30.627  25.838  24.625  1.00  0.00     0.223 C 
ATOM     18  C   UNL A   1      31.484  24.495  26.474  1.00  0.00     0.147 C 
ATOM     19  O   UNL A   1      29.916  26.541  25.331  1.00  0.00    -0.275 OA
BRANCH   9  20
ATOM     20  C   UNL A   1      34.416  20.672  24.791  1.00  0.00     0.129 A 
ATOM     21  C   UNL A   1      34.776  18.377  24.629  1.00  0.00     0.130 A 
ATOM     22  C   UNL A   1      36.154  18.536  24.677  1.00  0.00     0.034 A 
ATOM     23  N   UNL A   1      33.910  19.423  24.703  1.00  0.00    -0.226 NA
ATOM     24  C   UNL A   1      36.664  19.816  24.843  1.00  0.00     0.006 A 
ATOM     25  C   UNL A   1      35.786  20.892  24.884  1.00  0.00     0.047 A 
BRANCH  21  26
ATOM     26  C   UNL A   1      34.165  17.030  24.360  1.00  0.00     0.272 C 
ATOM     27  C   UNL A   1      32.829  15.107  25.041  1.00  0.00     0.146 C 
ATOM     28  N   UNL A   1      33.207  16.497  25.238  1.00  0.00    -0.343 N 
ATOM     29  C   UNL A   1      32.459  17.253  26.229  1.00  0.00     0.146 C 
ATOM     30  O   UNL A   1      34.556  16.391  23.381  1.00  0.00    -0.267 OA
ENDBRANCH  21  26
ENDBRANCH   9  20
ENDBRANCH   5   8
ENDBRANCH   3   4
ENDBRANCH   2   3
ENDBRANCH   1   2
BRANCH   1  31
ATOM     31  C   UNL A   1      31.908  29.851  26.225  1.00  0.00     0.002 C 
BRANCH  31  32
ATOM     32  C   UNL A   1      31.671  31.328  26.550  1.00  0.00     0.021 C 
BRANCH  32  33
ATOM     33  C   UNL A   1      32.853  32.034  27.210  1.00  0.00     0.116 C 
BRANCH  33  34
ATOM     34  N   UNL A   1      32.557  33.426  27.497  1.00  0.00    -0.352 N 
ATOM     35  C   UNL A   1      33.174  34.269  28.385  1.00  0.00     0.251 C 
ATOM     36  H   UNL A   1      31.813  33.817  26.985  1.00  0.00     0.163 HD
ATOM     37  O   UNL A   1      32.663  35.342  28.687  1.00  0.00    -0.269 OA
BRANCH  35  38
ATOM     38  C   UNL A   1      34.454  33.858  28.992  1.00  0.00     0.039 A 
ATOM     39  C   UNL A   1      34.433  33.116  30.174  1.00  0.00     0.014 A 
ATOM     40  C   UNL A   1      35.668  34.185  28.378  1.00  0.00     0.014 A 
ATOM     41  C   UNL A   1      35.633  32.642  30.706  1.00  0.00     0.010 A 
ATOM     42  C   UNL A   1      36.854  33.652  28.870  1.00  0.00     0.010 A 
ATOM     43  C   UNL A   1      36.847  32.871  30.037  1.00  0.00    -0.014 A 
BRANCH  43  44
ATOM     44  C   UNL A   1      38.112  32.271  30.527  1.00  0.00     0.031 A 
ATOM     45  C   UNL A   1      38.610  30.973  29.957  1.00  0.00     0.074 A 
ATOM     46  C   UNL A   1      38.782  32.871  31.530  1.00  0.00     0.049 A 
ATOM     47  N   UNL A   1      39.668  30.278  30.294  1.00  0.00    -0.248 NA
ATOM     48  C   UNL A   1      37.807  30.365  28.884  1.00  0.00     0.031 C 
ATOM     49  C   UNL A   1      38.379  34.114  32.194  1.00  0.00     0.029 A 
ATOM     50  N   UNL A   1      39.940  32.513  32.172  1.00  0.00    -0.354 N 
ATOM     51  C   UNL A   1      39.654  29.153  29.479  1.00  0.00     0.074 A 
ATOM     52  C   UNL A   1      38.457  29.230  28.671  1.00  0.00     0.031 C 
ATOM     53  C   UNL A   1      39.287  34.425  33.132  1.00  0.00     0.029 A 
ATOM     54  C   UNL A   1      40.308  33.384  33.169  1.00  0.00     0.049 A 
ATOM     55  H   UNL A   1      40.460  31.710  31.940  1.00  0.00     0.167 HD
ATOM     56  C   UNL A   1      40.568  28.157  29.397  1.00  0.00     0.031 A 
ATOM     57  C   UNL A   1      41.342  33.341  34.031  1.00  0.00     0.031 A 
ATOM     58  C   UNL A   1      41.753  28.076  30.209  1.00  0.00     0.049 A 
ATOM     59  C   UNL A   1      42.316  32.200  33.949  1.00  0.00     0.074 A 
ATOM     60  C   UNL A   1      42.760  27.128  30.171  1.00  0.00     0.029 A 
ATOM     61  N   UNL A   1      42.084  28.972  31.214  1.00  0.00    -0.354 N 
ATOM     62  N   UNL A   1      42.330  31.184  33.121  1.00  0.00    -0.248 NA
ATOM     63  C   UNL A   1      43.422  32.202  34.918  1.00  0.00     0.031 C 
ATOM     64  C   UNL A   1      43.669  27.415  31.195  1.00  0.00     0.029 A 
ATOM     65  C   UNL A   1      43.263  28.580  31.826  1.00  0.00     0.049 A 
ATOM     66  H   UNL A   1      41.559  29.769  31.456  1.00  0.00     0.167 HD
ATOM     67  C   UNL A   1      43.453  30.438  33.455  1.00  0.00     0.074 A 
ATOM     68  C   UNL A   1      44.110  31.134  34.542  1.00  0.00     0.031 C 
ATOM     69  C   UNL A   1      43.899  29.279  32.913  1.00  0.00     0.031 A 
BRANCH  56  70
ATOM     70  C   UNL A   1      40.315  27.065  28.393  1.00  0.00    -0.014 A 
ATOM     71  C   UNL A   1      40.864  27.124  27.101  1.00  0.00     0.009 A 
ATOM     72  C   UNL A   1      39.555  25.942  28.756  1.00  0.00     0.009 A 
ATOM     73  C   UNL A   1      40.628  26.098  26.184  1.00  0.00     0.001 A 
ATOM     74  C   UNL A   1      39.348  24.902  27.847  1.00  0.00     0.001 A 
ATOM     75  C   UNL A   1      39.876  24.985  26.559  1.00  0.00     0.000 A 
ENDBRANCH  56  70
BRANCH  57  76
ATOM     76  C   UNL A   1      41.502  34.406  35.057  1.00  0.00    -0.014 A 
ATOM     77  C   UNL A   1      40.726  34.401  36.225  1.00  0.00     0.009 A 
ATOM     78  C   UNL A   1      42.427  35.445  34.863  1.00  0.00     0.009 A 
ATOM     79  C   UNL A   1      40.850  35.429  37.163  1.00  0.00     0.001 A 
ATOM     80  C   UNL A   1      42.573  36.453  35.819  1.00  0.00     0.001 A 
ATOM     81  C   UNL A   1      41.776  36.451  36.962  1.00  0.00     0.000 A 
ENDBRANCH  57  76
BRANCH  69  82
ATOM     82  C   UNL A   1      45.169  28.700  33.475  1.00  0.00    -0.014 A 
ATOM     83  C   UNL A   1      45.147  27.840  34.584  1.00  0.00     0.009 A 
ATOM     84  C   UNL A   1      46.398  28.989  32.862  1.00  0.00     0.009 A 
ATOM     85  C   UNL A   1      46.336  27.307  35.087  1.00  0.00     0.001 A 
ATOM     86  C   UNL A   1      47.580  28.429  33.346  1.00  0.00     0.001 A 
ATOM     87  C   UNL A   1      47.550  27.597  34.463  1.00  0.00     0.000 A 
ENDBRANCH  69  82
ENDBRANCH  43  44
ENDBRANCH  35  38
ENDBRANCH  33  34
ENDBRANCH  32  33
ENDBRANCH  31  32
ENDBRANCH   1  31
TORSDOF 15
ENDMDL
MODEL 2
REMARK VINA RESULT:     -12.0      2.295      6.611
REMARK SMILES CN(C)C(=O)c1cccc(N2CCC3(CC2)[C@H](C(=O)NCCCCCCNC(=O)c2ccc(-c4c5nc(c(-c6ccccc6)c6ccc([nH]6)c(-c6ccccc6)c6nc(c(-c7ccccc7)c7ccc4[nH]7)C=C6)C=C5)cc2)CC(=O)N3C)n1
REMARK SMILES IDX 23 1 22 2 21 3 20 4 18 5 19 6 17 8 11 9 12 10 16 11 13 12
REMARK SMILES IDX 15 13 14 14 81 15 78 16 79 17 82 18 80 19 10 20 6 21 7 22
REMARK SMILES IDX 83 23 8 24 9 25 4 26 1 27 2 28 3 29 5 30 24 31 25 32 26 33
REMARK SMILES IDX 27 34 28 35 29 37 30 38 31 39 77 40 32 41 76 42 33 43 34 44
REMARK SMILES IDX 35 45 70 46 36 47 75 48 69 49 71 50 37 51 74 52 68 53 67 54
REMARK SMILES IDX 38 56 60 57 45 58 59 59 46 60 49 61 58 62 72 63 47 64 48 65
REMARK SMILES IDX 57 67 73 68 50 69 39 70 40 71 44 72 41 73 43 74 42 75 61 76
REMARK SMILES IDX 62 77 66 78 63 79 65 80 64 81 51 82 52 83 56 84 53 85 55 86
REMARK SMILES IDX 54 87
REMARK H PARENT 20 7 27 36 71 55 49 66
REMARK Flexibility Score: inf
ROOT
ATOM      1  C   UNL A   1      34.173  31.835  28.439  1.00  0.00     0.002 C 
ENDROOT
BRANCH   1   2
ATOM      2  C   UNL A   1      35.274  31.149  27.638  1.00  0.00     0.021 C 
BRANCH   2   3
ATOM      3  C   UNL A   1      35.237  29.613  27.671  1.00  0.00     0.116 C 
BRANCH   3   4
ATOM      4  N   UNL A   1      33.924  29.074  27.991  1.00  0.00    -0.356 N 
ATOM      5  C   UNL A   1      32.912  28.575  27.232  1.00  0.00     0.226 C 
ATOM      6  O   UNL A   1      31.895  28.222  27.844  1.00  0.00    -0.275 OA
ATOM      7  H   UNL A   1      33.727  29.071  28.955  1.00  0.00     0.163 HD
BRANCH   5   8
ATOM      8  C   UNL A   1      32.950  28.402  25.705  1.00  0.00     0.113 C 
ATOM      9  N   UNL A   1      32.277  24.273  24.697  1.00  0.00    -0.356 N 
ATOM     10  C   UNL A   1      31.362  24.822  25.663  1.00  0.00     0.120 C 
ATOM     11  C   UNL A   1      32.716  25.077  23.566  1.00  0.00     0.120 C 
ATOM     12  C   UNL A   1      31.991  26.107  26.143  1.00  0.00     0.051 C 
ATOM     13  C   UNL A   1      33.173  26.484  24.006  1.00  0.00     0.051 C 
ATOM     14  C   UNL A   1      32.250  27.160  25.060  1.00  0.00     0.058 C 
ATOM     15  N   UNL A   1      31.084  27.794  24.407  1.00  0.00    -0.339 N 
ATOM     16  C   UNL A   1      32.410  29.644  25.006  1.00  0.00     0.116 C 
ATOM     17  C   UNL A   1      31.151  29.180  24.353  1.00  0.00     0.223 C 
ATOM     18  C   UNL A   1      29.965  27.129  23.769  1.00  0.00     0.147 C 
ATOM     19  O   UNL A   1      30.315  29.925  23.858  1.00  0.00    -0.275 OA
BRANCH   9  20
ATOM     20  C   UNL A   1      32.716  22.994  24.948  1.00  0.00     0.129 A 
ATOM     21  C   UNL A   1      34.469  21.472  25.118  1.00  0.00     0.130 A 
ATOM     22  C   UNL A   1      33.599  20.413  25.337  1.00  0.00     0.034 A 
ATOM     23  N   UNL A   1      34.042  22.745  24.907  1.00  0.00    -0.226 NA
ATOM     24  C   UNL A   1      32.235  20.664  25.303  1.00  0.00     0.006 A 
ATOM     25  C   UNL A   1      31.793  21.969  25.122  1.00  0.00     0.047 A 
BRANCH  21  26
ATOM     26  C   UNL A   1      35.956  21.282  25.233  1.00  0.00     0.272 C 
ATOM     27  C   UNL A   1      38.222  22.164  25.423  1.00  0.00     0.146 C 
ATOM     28  N   UNL A   1      36.788  22.369  25.550  1.00  0.00    -0.343 N 
ATOM     29  C   UNL A   1      36.346  23.627  26.128  1.00  0.00     0.146 C 
ATOM     30  O   UNL A   1      36.427  20.167  25.001  1.00  0.00    -0.267 OA
ENDBRANCH  21  26
ENDBRANCH   9  20
ENDBRANCH   5   8
ENDBRANCH   3   4
ENDBRANCH   2   3
ENDBRANCH   1   2
BRANCH   1  31
ATOM     31  C   UNL A   1      34.477  33.289  28.782  1.00  0.00     0.002 C 
BRANCH  31  32
ATOM     32  C   UNL A   1      33.262  34.219  28.721  1.00  0.00     0.021 C 
BRANCH  32  33
ATOM     33  C   UNL A   1      33.538  35.657  29.154  1.00  0.00     0.116 C 
BRANCH  33  34
ATOM     34  N   UNL A   1      32.638  36.083  30.211  1.00  0.00    -0.352 N 
ATOM     35  C   UNL A   1      32.648  35.738  31.538  1.00  0.00     0.251 C 
ATOM     36  H   UNL A   1      31.923  36.703  29.938  1.00  0.00     0.163 HD
ATOM     37  O   UNL A   1      31.687  35.989  32.257  1.00  0.00    -0.269 OA
BRANCH  35  38
ATOM     38  C   UNL A   1      33.825  35.039  32.087  1.00  0.00     0.039 A 
ATOM     39  C   UNL A   1      33.679  33.728  32.543  1.00  0.00     0.014 A 
ATOM     40  C   UNL A   1      35.072  35.672  32.126  1.00  0.00     0.014 A 
ATOM     41  C   UNL A   1      34.804  33.025  32.977  1.00  0.00     0.010 A 
ATOM     42  C   UNL A   1      36.201  34.947  32.491  1.00  0.00     0.010 A 
ATOM     43  C   UNL A   1      36.078  33.614  32.915  1.00  0.00    -0.014 A 
BRANCH  43  44
ATOM     44  C   UNL A   1      37.294  32.837  33.259  1.00  0.00     0.031 A 
ATOM     45  C   UNL A   1      38.038  33.112  34.535  1.00  0.00     0.074 A 
ATOM     46  C   UNL A   1      37.760  31.922  32.387  1.00  0.00     0.049 A 
ATOM     47  N   UNL A   1      39.144  32.566  34.977  1.00  0.00    -0.248 NA
ATOM     48  C   UNL A   1      37.482  34.147  35.421  1.00  0.00     0.031 C 
ATOM     49  C   UNL A   1      37.149  31.593  31.097  1.00  0.00     0.029 A 
ATOM     50  N   UNL A   1      38.860  31.104  32.452  1.00  0.00    -0.354 N 
ATOM     51  C   UNL A   1      39.415  33.192  36.187  1.00  0.00     0.074 A 
ATOM     52  C   UNL A   1      38.392  34.195  36.383  1.00  0.00     0.031 C 
ATOM     53  C   UNL A   1      37.869  30.629  30.503  1.00  0.00     0.029 A 
ATOM     54  C   UNL A   1      39.015  30.304  31.345  1.00  0.00     0.049 A 
ATOM     55  H   UNL A   1      39.479  31.091  33.217  1.00  0.00     0.167 HD
ATOM     56  C   UNL A   1      40.415  32.940  37.065  1.00  0.00     0.031 A 
ATOM     57  C   UNL A   1      39.982  29.421  31.033  1.00  0.00     0.031 A 
ATOM     58  C   UNL A   1      41.439  31.949  36.863  1.00  0.00     0.049 A 
ATOM     59  C   UNL A   1      41.106  29.193  32.004  1.00  0.00     0.074 A 
ATOM     60  C   UNL A   1      42.470  31.590  37.712  1.00  0.00     0.029 A 
ATOM     61  N   UNL A   1      41.567  31.167  35.725  1.00  0.00    -0.354 N 
ATOM     62  N   UNL A   1      41.306  29.739  33.179  1.00  0.00    -0.248 NA
ATOM     63  C   UNL A   1      42.136  28.221  31.609  1.00  0.00     0.031 C 
ATOM     64  C   UNL A   1      43.259  30.635  37.063  1.00  0.00     0.029 A 
ATOM     65  C   UNL A   1      42.680  30.350  35.837  1.00  0.00     0.049 A 
ATOM     66  H   UNL A   1      40.956  31.188  34.953  1.00  0.00     0.167 HD
ATOM     67  C   UNL A   1      42.470  29.164  33.671  1.00  0.00     0.074 A 
ATOM     68  C   UNL A   1      42.917  28.207  32.679  1.00  0.00     0.031 C 
ATOM     69  C   UNL A   1      43.116  29.409  34.837  1.00  0.00     0.031 A 
BRANCH  56  70
ATOM     70  C   UNL A   1      40.454  33.759  38.326  1.00  0.00    -0.014 A 
ATOM     71  C   UNL A   1      39.792  33.332  39.490  1.00  0.00     0.009 A 
ATOM     72  C   UNL A   1      41.196  34.949  38.367  1.00  0.00     0.009 A 
ATOM     73  C   UNL A   1      39.845  34.098  40.656  1.00  0.00     0.001 A 
ATOM     74  C   UNL A   1      41.274  35.696  39.544  1.00  0.00     0.001 A 
ATOM     75  C   UNL A   1      40.590  35.275  40.685  1.00  0.00     0.000 A 
ENDBRANCH  56  70
BRANCH  57  76
ATOM     76  C   UNL A   1      39.939  28.694  29.736  1.00  0.00    -0.014 A 
ATOM     77  C   UNL A   1      40.500  29.255  28.579  1.00  0.00     0.009 A 
ATOM     78  C   UNL A   1      39.319  27.437  29.646  1.00  0.00     0.009 A 
ATOM     79  C   UNL A   1      40.415  28.588  27.355  1.00  0.00     0.001 A 
ATOM     80  C   UNL A   1      39.267  26.756  28.428  1.00  0.00     0.001 A 
ATOM     81  C   UNL A   1      39.803  27.337  27.281  1.00  0.00     0.000 A 
ENDBRANCH  57  76
BRANCH  69  82
ATOM     82  C   UNL A   1      44.363  28.615  35.114  1.00  0.00    -0.014 A 
ATOM     83  C   UNL A   1      44.304  27.367  35.752  1.00  0.00     0.009 A 
ATOM     84  C   UNL A   1      45.609  29.105  34.693  1.00  0.00     0.009 A 
ATOM     85  C   UNL A   1      45.472  26.641  35.993  1.00  0.00     0.001 A 
ATOM     86  C   UNL A   1      46.771  28.363  34.905  1.00  0.00     0.001 A 
ATOM     87  C   UNL A   1      46.703  27.137  35.564  1.00  0.00     0.000 A 
ENDBRANCH  69  82
ENDBRANCH  43  44
ENDBRANCH  35  38
ENDBRANCH  33  34
ENDBRANCH  32  33
ENDBRANCH  31  32
ENDBRANCH   1  31
TORSDOF 15
ENDMDL
MODEL 3
REMARK VINA RESULT:     -12.0      2.694      6.686
REMARK SMILES CN(C)C(=O)c1cccc(N2CCC3(CC2)[C@H](C(=O)NCCCCCCNC(=O)c2ccc(-c4c5nc(c(-c6ccccc6)c6ccc([nH]6)c(-c6ccccc6)c6nc(c(-c7ccccc7)c7ccc4[nH]7)C=C6)C=C5)cc2)CC(=O)N3C)n1
REMARK SMILES IDX 23 1 22 2 21 3 20 4 18 5 19 6 17 8 11 9 12 10 16 11 13 12
REMARK SMILES IDX 15 13 14 14 81 15 78 16 79 17 82 18 80 19 10 20 6 21 7 22
REMARK SMILES IDX 83 23 8 24 9 25 4 26 1 27 2 28 3 29 5 30 24 31 25 32 26 33
REMARK SMILES IDX 27 34 28 35 29 37 30 38 31 39 77 40 32 41 76 42 33 43 34 44
REMARK SMILES IDX 35 45 70 46 36 47 75 48 69 49 71 50 37 51 74 52 68 53 67 54
REMARK SMILES IDX 38 56 60 57 45 58 59 59 46 60 49 61 58 62 72 63 47 64 48 65
REMARK SMILES IDX 57 67 73 68 50 69 39 70 40 71 44 72 41 73 43 74 42 75 61 76
REMARK SMILES IDX 62 77 66 78 63 79 65 80 64 81 51 82 52 83 56 84 53 85 55 86
REMARK SMILES IDX 54 87
REMARK H PARENT 20 7 27 36 71 55 49 66
REMARK Flexibility Score: inf
ROOT
ATOM      1  C   UNL A   1      31.040  27.512  25.879  1.00  0.00     0.002 C 
ENDROOT
BRANCH   1   2
ATOM      2  C   UNL A   1      31.031  25.991  25.980  1.00  0.00     0.021 C 
BRANCH   2   3
ATOM      3  C   UNL A   1      31.783  25.263  24.855  1.00  0.00     0.116 C 
BRANCH   3   4
ATOM      4  N   UNL A   1      32.656  26.137  24.085  1.00  0.00    -0.356 N 
ATOM      5  C   UNL A   1      33.647  25.904  23.184  1.00  0.00     0.226 C 
ATOM      6  O   UNL A   1      34.218  26.905  22.732  1.00  0.00    -0.275 OA
ATOM      7  H   UNL A   1      32.497  27.094  24.252  1.00  0.00     0.163 HD
BRANCH   5   8
ATOM      8  C   UNL A   1      34.082  24.518  22.683  1.00  0.00     0.113 C 
ATOM      9  N   UNL A   1      36.912  22.806  25.437  1.00  0.00    -0.356 N 
ATOM     10  C   UNL A   1      35.737  23.374  26.045  1.00  0.00     0.120 C 
ATOM     11  C   UNL A   1      36.804  22.066  24.189  1.00  0.00     0.120 C 
ATOM     12  C   UNL A   1      35.095  24.229  24.979  1.00  0.00     0.051 C 
ATOM     13  C   UNL A   1      35.968  22.829  23.140  1.00  0.00     0.051 C 
ATOM     14  C   UNL A   1      34.677  23.490  23.702  1.00  0.00     0.058 C 
ATOM     15  N   UNL A   1      33.579  22.504  23.792  1.00  0.00    -0.339 N 
ATOM     16  C   UNL A   1      32.941  23.823  21.950  1.00  0.00     0.116 C 
ATOM     17  C   UNL A   1      32.600  22.659  22.820  1.00  0.00     0.223 C 
ATOM     18  C   UNL A   1      33.475  21.386  24.709  1.00  0.00     0.147 C 
ATOM     19  O   UNL A   1      31.601  21.965  22.683  1.00  0.00    -0.275 OA
BRANCH   9  20
ATOM     20  C   UNL A   1      38.099  23.049  26.087  1.00  0.00     0.129 A 
ATOM     21  C   UNL A   1      40.112  22.260  26.951  1.00  0.00     0.130 A 
ATOM     22  C   UNL A   1      40.430  23.500  27.487  1.00  0.00     0.034 A 
ATOM     23  N   UNL A   1      38.956  22.023  26.275  1.00  0.00    -0.226 NA
ATOM     24  C   UNL A   1      39.509  24.530  27.355  1.00  0.00     0.006 A 
ATOM     25  C   UNL A   1      38.342  24.303  26.635  1.00  0.00     0.047 A 
BRANCH  21  26
ATOM     26  C   UNL A   1      41.105  21.131  26.981  1.00  0.00     0.272 C 
ATOM     27  C   UNL A   1      42.971  19.891  26.018  1.00  0.00     0.146 C 
ATOM     28  N   UNL A   1      42.186  21.113  26.085  1.00  0.00    -0.343 N 
ATOM     29  C   UNL A   1      42.673  22.255  25.328  1.00  0.00     0.146 C 
ATOM     30  O   UNL A   1      40.922  20.207  27.776  1.00  0.00    -0.267 OA
ENDBRANCH  21  26
ENDBRANCH   9  20
ENDBRANCH   5   8
ENDBRANCH   3   4
ENDBRANCH   2   3
ENDBRANCH   1   2
BRANCH   1  31
ATOM     31  C   UNL A   1      31.752  28.202  27.038  1.00  0.00     0.002 C 
BRANCH  31  32
ATOM     32  C   UNL A   1      33.267  27.980  27.068  1.00  0.00     0.021 C 
BRANCH  32  33
ATOM     33  C   UNL A   1      34.071  28.959  26.215  1.00  0.00     0.116 C 
BRANCH  33  34
ATOM     34  N   UNL A   1      33.726  30.339  26.509  1.00  0.00    -0.352 N 
ATOM     35  C   UNL A   1      34.238  31.164  27.476  1.00  0.00     0.251 C 
ATOM     36  H   UNL A   1      33.029  30.734  25.937  1.00  0.00     0.163 HD
ATOM     37  O   UNL A   1      33.682  32.221  27.755  1.00  0.00    -0.269 OA
BRANCH  35  38
ATOM     38  C   UNL A   1      35.459  30.754  28.195  1.00  0.00     0.039 A 
ATOM     39  C   UNL A   1      36.612  31.529  28.063  1.00  0.00     0.014 A 
ATOM     40  C   UNL A   1      35.453  29.622  29.015  1.00  0.00     0.014 A 
ATOM     41  C   UNL A   1      37.745  31.205  28.811  1.00  0.00     0.010 A 
ATOM     42  C   UNL A   1      36.558  29.342  29.813  1.00  0.00     0.010 A 
ATOM     43  C   UNL A   1      37.713  30.135  29.720  1.00  0.00    -0.014 A 
BRANCH  43  44
ATOM     44  C   UNL A   1      38.868  29.854  30.609  1.00  0.00     0.031 A 
ATOM     45  C   UNL A   1      38.986  30.535  31.943  1.00  0.00     0.074 A 
ATOM     46  C   UNL A   1      39.841  29.027  30.183  1.00  0.00     0.049 A 
ATOM     47  N   UNL A   1      39.947  30.449  32.829  1.00  0.00    -0.248 NA
ATOM     48  C   UNL A   1      37.896  31.447  32.324  1.00  0.00     0.031 C 
ATOM     49  C   UNL A   1      39.861  28.336  28.890  1.00  0.00     0.029 A 
ATOM     50  N   UNL A   1      41.007  28.630  30.788  1.00  0.00    -0.354 N 
ATOM     51  C   UNL A   1      39.578  31.295  33.867  1.00  0.00     0.074 A 
ATOM     52  C   UNL A   1      38.337  31.926  33.478  1.00  0.00     0.031 C 
ATOM     53  C   UNL A   1      40.971  27.585  28.811  1.00  0.00     0.029 A 
ATOM     54  C   UNL A   1      41.762  27.776  30.021  1.00  0.00     0.049 A 
ATOM     55  H   UNL A   1      41.277  28.928  31.686  1.00  0.00     0.167 HD
ATOM     56  C   UNL A   1      40.207  31.510  35.047  1.00  0.00     0.031 A 
ATOM     57  C   UNL A   1      42.966  27.221  30.257  1.00  0.00     0.031 A 
ATOM     58  C   UNL A   1      41.448  30.889  35.428  1.00  0.00     0.049 A 
ATOM     59  C   UNL A   1      43.665  27.513  31.555  1.00  0.00     0.074 A 
ATOM     60  C   UNL A   1      42.143  31.011  36.618  1.00  0.00     0.029 A 
ATOM     61  N   UNL A   1      42.186  30.038  34.619  1.00  0.00    -0.354 N 
ATOM     62  N   UNL A   1      43.266  28.256  32.558  1.00  0.00    -0.248 NA
ATOM     63  C   UNL A   1      44.978  26.884  31.756  1.00  0.00     0.031 C 
ATOM     64  C   UNL A   1      43.332  30.283  36.506  1.00  0.00     0.029 A 
ATOM     65  C   UNL A   1      43.345  29.654  35.273  1.00  0.00     0.049 A 
ATOM     66  H   UNL A   1      41.924  29.748  33.715  1.00  0.00     0.167 HD
ATOM     67  C   UNL A   1      44.268  28.168  33.516  1.00  0.00     0.074 A 
ATOM     68  C   UNL A   1      45.279  27.278  32.984  1.00  0.00     0.031 C 
ATOM     69  C   UNL A   1      44.347  28.774  34.726  1.00  0.00     0.031 A 
BRANCH  56  70
ATOM     70  C   UNL A   1      39.563  32.467  36.012  1.00  0.00    -0.014 A 
ATOM     71  C   UNL A   1      38.564  32.039  36.902  1.00  0.00     0.009 A 
ATOM     72  C   UNL A   1      39.989  33.804  36.064  1.00  0.00     0.009 A 
ATOM     73  C   UNL A   1      37.982  32.937  37.799  1.00  0.00     0.001 A 
ATOM     74  C   UNL A   1      39.428  34.692  36.983  1.00  0.00     0.001 A 
ATOM     75  C   UNL A   1      38.418  34.261  37.844  1.00  0.00     0.000 A 
ENDBRANCH  56  70
BRANCH  57  76
ATOM     76  C   UNL A   1      43.596  26.343  29.235  1.00  0.00    -0.014 A 
ATOM     77  C   UNL A   1      44.419  26.881  28.235  1.00  0.00     0.009 A 
ATOM     78  C   UNL A   1      43.362  24.958  29.246  1.00  0.00     0.009 A 
ATOM     79  C   UNL A   1      44.971  26.056  27.251  1.00  0.00     0.001 A 
ATOM     80  C   UNL A   1      43.943  24.131  28.282  1.00  0.00     0.001 A 
ATOM     81  C   UNL A   1      44.737  24.682  27.278  1.00  0.00     0.000 A 
ENDBRANCH  57  76
BRANCH  69  82
ATOM     82  C   UNL A   1      45.559  28.478  35.566  1.00  0.00    -0.014 A 
ATOM     83  C   UNL A   1      46.715  29.268  35.479  1.00  0.00     0.009 A 
ATOM     84  C   UNL A   1      45.527  27.418  36.486  1.00  0.00     0.009 A 
ATOM     85  C   UNL A   1      47.827  28.982  36.272  1.00  0.00     0.001 A 
ATOM     86  C   UNL A   1      46.627  27.155  37.302  1.00  0.00     0.001 A 
ATOM     87  C   UNL A   1      47.780  27.930  37.187  1.00  0.00     0.000 A 
ENDBRANCH  69  82
ENDBRANCH  43  44
ENDBRANCH  35  38
ENDBRANCH  33  34
ENDBRANCH  32  33
ENDBRANCH  31  32
ENDBRANCH   1  31
TORSDOF 15
ENDMDL
