MODEL 1
REMARK VINA RESULT:     -10.8      0.000      0.000
REMARK SMILES COc1c(C)cc(Br)cc1C(=O)Nc1ccc(O)c(C(=O)NCCCCCCNC(=O)c2ccc(-c3c4nc(c(-c5ccccc5)c5ccc([nH]5)c(-c5ccccc5)c5nc(c(-c6ccccc6)c6ccc3[nH]6)C=C5)C=C4)cc2)c1
REMARK SMILES IDX 25 1 24 2 23 3 22 4 20 5 21 6 19 8 14 9 15 10 80 11 16 12
REMARK SMILES IDX 17 13 13 14 11 15 12 16 10 18 3 19 4 20 5 21 6 22 9 23 7 24
REMARK SMILES IDX 8 25 2 26 1 27 18 28 26 30 27 31 28 32 29 33 30 34 31 36
REMARK SMILES IDX 32 37 33 38 79 39 34 40 78 41 35 42 36 43 37 44 72 45 38 46
REMARK SMILES IDX 77 47 71 48 73 49 39 50 76 51 70 52 69 53 40 55 62 56 47 57
REMARK SMILES IDX 61 58 48 59 51 60 60 61 74 62 49 63 50 64 59 66 75 67 52 68
REMARK SMILES IDX 41 69 42 70 46 71 43 72 45 73 44 74 63 75 64 76 68 77 65 78
REMARK SMILES IDX 67 79 66 80 53 81 54 82 58 83 55 84 57 85 56 86
REMARK H PARENT 22 7 13 17 18 29 29 35 73 54 51 65
REMARK Flexibility Score: inf
ROOT
ATOM      1  C   UNL A   1      33.920  30.496  27.512  1.00  0.00     0.002 C 
ENDROOT
BRANCH   1   2
ATOM      2  C   UNL A   1      34.766  29.416  26.829  1.00  0.00     0.021 C 
BRANCH   2   3
ATOM      3  C   UNL A   1      33.943  28.339  26.117  1.00  0.00     0.116 C 
BRANCH   3   4
ATOM      4  N   UNL A   1      34.136  28.442  24.686  1.00  0.00    -0.352 N 
ATOM      5  C   UNL A   1      33.504  27.827  23.636  1.00  0.00     0.255 C 
ATOM      6  O   UNL A   1      33.965  28.013  22.509  1.00  0.00    -0.269 OA
ATOM      7  H   UNL A   1      34.849  29.065  24.419  1.00  0.00     0.163 HD
BRANCH   5   8
ATOM      8  C   UNL A   1      32.212  27.101  23.762  1.00  0.00     0.083 A 
ATOM      9  C   UNL A   1      31.141  24.964  23.281  1.00  0.00     0.042 A 
ATOM     10  C   UNL A   1      29.902  25.486  23.639  1.00  0.00     0.030 A 
ATOM     11  C   UNL A   1      32.292  25.742  23.418  1.00  0.00     0.043 A 
ATOM     12  C   UNL A   1      29.819  26.807  24.085  1.00  0.00     0.049 A 
ATOM     13  C   UNL A   1      30.963  27.620  24.118  1.00  0.00     0.128 A 
BRANCH   9  14
ATOM     14  N   UNL A   1      31.312  23.692  22.738  1.00  0.00    -0.322 N 
ATOM     15  C   UNL A   1      32.207  22.688  23.019  1.00  0.00     0.259 C 
ATOM     16  O   UNL A   1      32.254  21.744  22.222  1.00  0.00    -0.269 OA
ATOM     17  H   UNL A   1      30.674  23.471  22.022  1.00  0.00     0.170 HD
BRANCH  15  18
ATOM     18  C   UNL A   1      33.071  22.617  24.243  1.00  0.00     0.083 A 
ATOM     19  C   UNL A   1      32.626  22.411  25.580  1.00  0.00     0.134 A 
ATOM     20  C   UNL A   1      33.578  22.370  26.628  1.00  0.00    -0.007 A 
ATOM     21  C   UNL A   1      33.275  22.261  28.098  1.00  0.00     0.048 C 
ATOM     22  C   UNL A   1      34.949  22.354  26.299  1.00  0.00     0.023 A 
ATOM     23  C   UNL A   1      34.452  22.613  23.964  1.00  0.00     0.033 A 
ATOM     24  C   UNL A   1      35.376  22.440  24.981  1.00  0.00     0.019 A 
ATOM     25  Br  UNL A   1      37.213  22.277  24.576  1.00  0.00    -0.051 Br
BRANCH  19  26
ATOM     26  O   UNL A   1      31.302  22.087  25.709  1.00  0.00    -0.496 OA
ATOM     27  C   UNL A   1      30.377  22.987  26.293  1.00  0.00     0.278 C 
ENDBRANCH  19  26
ENDBRANCH  15  18
ENDBRANCH   9  14
BRANCH  13  28
ATOM     28  O   UNL A   1      30.810  28.916  24.512  1.00  0.00    -0.507 OA
ATOM     29  H   UNL A   1      31.510  29.527  24.395  1.00  0.00     0.293 HD
ENDBRANCH  13  28
ENDBRANCH   5   8
ENDBRANCH   3   4
ENDBRANCH   2   3
ENDBRANCH   1   2
BRANCH   1  30
ATOM     30  C   UNL A   1      32.428  30.458  27.170  1.00  0.00     0.002 C 
BRANCH  30  31
ATOM     31  C   UNL A   1      31.746  31.826  27.093  1.00  0.00     0.021 C 
BRANCH  31  32
ATOM     32  C   UNL A   1      32.687  32.993  26.807  1.00  0.00     0.116 C 
BRANCH  32  33
ATOM     33  N   UNL A   1      32.463  34.108  27.713  1.00  0.00    -0.352 N 
ATOM     34  C   UNL A   1      33.136  34.445  28.862  1.00  0.00     0.251 C 
ATOM     35  H   UNL A   1      31.721  34.706  27.469  1.00  0.00     0.163 HD
ATOM     36  O   UNL A   1      32.678  35.289  29.623  1.00  0.00    -0.269 OA
BRANCH  34  37
ATOM     37  C   UNL A   1      34.415  33.778  29.185  1.00  0.00     0.039 A 
ATOM     38  C   UNL A   1      35.552  34.092  28.436  1.00  0.00     0.014 A 
ATOM     39  C   UNL A   1      34.487  32.829  30.209  1.00  0.00     0.014 A 
ATOM     40  C   UNL A   1      36.773  33.491  28.747  1.00  0.00     0.010 A 
ATOM     41  C   UNL A   1      35.719  32.287  30.565  1.00  0.00     0.010 A 
ATOM     42  C   UNL A   1      36.872  32.604  29.831  1.00  0.00    -0.014 A 
BRANCH  42  43
ATOM     43  C   UNL A   1      38.167  31.980  30.201  1.00  0.00     0.031 A 
ATOM     44  C   UNL A   1      39.114  32.698  31.123  1.00  0.00     0.074 A 
ATOM     45  C   UNL A   1      38.517  30.796  29.662  1.00  0.00     0.049 A 
ATOM     46  N   UNL A   1      40.313  32.346  31.514  1.00  0.00    -0.248 NA
ATOM     47  C   UNL A   1      38.666  33.996  31.654  1.00  0.00     0.031 C 
ATOM     48  C   UNL A   1      37.703  30.013  28.730  1.00  0.00     0.029 A 
ATOM     49  N   UNL A   1      39.656  30.046  29.820  1.00  0.00    -0.354 N 
ATOM     50  C   UNL A   1      40.766  33.383  32.319  1.00  0.00     0.074 A 
ATOM     51  C   UNL A   1      39.739  34.402  32.317  1.00  0.00     0.031 C 
ATOM     52  C   UNL A   1      38.356  28.881  28.422  1.00  0.00     0.029 A 
ATOM     53  C   UNL A   1      39.649  28.877  29.098  1.00  0.00     0.049 A 
ATOM     54  H   UNL A   1      40.406  30.320  30.394  1.00  0.00     0.167 HD
ATOM     55  C   UNL A   1      41.924  33.474  33.016  1.00  0.00     0.031 A 
ATOM     56  C   UNL A   1      40.581  27.913  28.989  1.00  0.00     0.031 A 
ATOM     57  C   UNL A   1      42.942  32.458  33.025  1.00  0.00     0.049 A 
ATOM     58  C   UNL A   1      41.868  28.044  29.757  1.00  0.00     0.074 A 
ATOM     59  C   UNL A   1      44.129  32.432  33.737  1.00  0.00     0.029 A 
ATOM     60  N   UNL A   1      42.895  31.287  32.285  1.00  0.00    -0.354 N 
ATOM     61  N   UNL A   1      42.254  29.003  30.563  1.00  0.00    -0.248 NA
ATOM     62  C   UNL A   1      42.839  26.951  29.610  1.00  0.00     0.031 C 
ATOM     63  C   UNL A   1      44.824  31.271  33.386  1.00  0.00     0.029 A 
ATOM     64  C   UNL A   1      44.041  30.543  32.504  1.00  0.00     0.049 A 
ATOM     65  H   UNL A   1      42.155  31.024  31.691  1.00  0.00     0.167 HD
ATOM     66  C   UNL A   1      43.498  28.613  31.045  1.00  0.00     0.074 A 
ATOM     67  C   UNL A   1      43.792  27.326  30.451  1.00  0.00     0.031 C 
ATOM     68  C   UNL A   1      44.319  29.263  31.906  1.00  0.00     0.031 A 
BRANCH  55  69
ATOM     69  C   UNL A   1      42.154  34.726  33.818  1.00  0.00    -0.014 A 
ATOM     70  C   UNL A   1      42.761  35.857  33.248  1.00  0.00     0.009 A 
ATOM     71  C   UNL A   1      41.735  34.786  35.157  1.00  0.00     0.009 A 
ATOM     72  C   UNL A   1      42.980  37.006  34.012  1.00  0.00     0.001 A 
ATOM     73  C   UNL A   1      41.925  35.947  35.909  1.00  0.00     0.001 A 
ATOM     74  C   UNL A   1      42.558  37.051  35.340  1.00  0.00     0.000 A 
ENDBRANCH  55  69
BRANCH  56  75
ATOM     75  C   UNL A   1      40.328  26.724  28.132  1.00  0.00    -0.014 A 
ATOM     76  C   UNL A   1      40.831  26.669  26.823  1.00  0.00     0.009 A 
ATOM     77  C   UNL A   1      39.575  25.641  28.614  1.00  0.00     0.009 A 
ATOM     78  C   UNL A   1      40.561  25.569  26.005  1.00  0.00     0.001 A 
ATOM     79  C   UNL A   1      39.334  24.529  27.806  1.00  0.00     0.001 A 
ATOM     80  C   UNL A   1      39.819  24.498  26.499  1.00  0.00     0.000 A 
ENDBRANCH  56  75
BRANCH  68  81
ATOM     81  C   UNL A   1      45.596  28.569  32.293  1.00  0.00    -0.014 A 
ATOM     82  C   UNL A   1      45.650  27.683  33.381  1.00  0.00     0.009 A 
ATOM     83  C   UNL A   1      46.755  28.778  31.528  1.00  0.00     0.009 A 
ATOM     84  C   UNL A   1      46.848  27.048  33.714  1.00  0.00     0.001 A 
ATOM     85  C   UNL A   1      47.942  28.118  31.845  1.00  0.00     0.001 A 
ATOM     86  C   UNL A   1      47.990  27.262  32.944  1.00  0.00     0.000 A 
ENDBRANCH  68  81
ENDBRANCH  42  43
ENDBRANCH  34  37
ENDBRANCH  32  33
ENDBRANCH  31  32
ENDBRANCH  30  31
ENDBRANCH   1  30
TORSDOF 17
ENDMDL
MODEL 2
REMARK VINA RESULT:     -10.6      0.454      5.777
REMARK SMILES COc1c(C)cc(Br)cc1C(=O)Nc1ccc(O)c(C(=O)NCCCCCCNC(=O)c2ccc(-c3c4nc(c(-c5ccccc5)c5ccc([nH]5)c(-c5ccccc5)c5nc(c(-c6ccccc6)c6ccc3[nH]6)C=C5)C=C4)cc2)c1
REMARK SMILES IDX 25 1 24 2 23 3 22 4 20 5 21 6 19 8 14 9 15 10 80 11 16 12
REMARK SMILES IDX 17 13 13 14 11 15 12 16 10 18 3 19 4 20 5 21 6 22 9 23 7 24
REMARK SMILES IDX 8 25 2 26 1 27 18 28 26 30 27 31 28 32 29 33 30 34 31 36
REMARK SMILES IDX 32 37 33 38 79 39 34 40 78 41 35 42 36 43 37 44 72 45 38 46
REMARK SMILES IDX 77 47 71 48 73 49 39 50 76 51 70 52 69 53 40 55 62 56 47 57
REMARK SMILES IDX 61 58 48 59 51 60 60 61 74 62 49 63 50 64 59 66 75 67 52 68
REMARK SMILES IDX 41 69 42 70 46 71 43 72 45 73 44 74 63 75 64 76 68 77 65 78
REMARK SMILES IDX 67 79 66 80 53 81 54 82 58 83 55 84 57 85 56 86
REMARK H PARENT 22 7 13 17 18 29 29 35 73 54 51 65
REMARK Flexibility Score: inf
ROOT
ATOM      1  C   UNL A   1      34.008  30.413  27.610  1.00  0.00     0.002 C 
ENDROOT
BRANCH   1   2
ATOM      2  C   UNL A   1      34.858  29.311  26.969  1.00  0.00     0.021 C 
BRANCH   2   3
ATOM      3  C   UNL A   1      34.048  28.283  26.177  1.00  0.00     0.116 C 
BRANCH   3   4
ATOM      4  N   UNL A   1      34.195  28.532  24.759  1.00  0.00    -0.352 N 
ATOM      5  C   UNL A   1      33.530  28.025  23.672  1.00  0.00     0.255 C 
ATOM      6  O   UNL A   1      33.954  28.327  22.555  1.00  0.00    -0.269 OA
ATOM      7  H   UNL A   1      34.898  29.183  24.534  1.00  0.00     0.163 HD
BRANCH   5   8
ATOM      8  C   UNL A   1      32.243  27.284  23.763  1.00  0.00     0.083 A 
ATOM      9  C   UNL A   1      31.216  25.126  23.278  1.00  0.00     0.042 A 
ATOM     10  C   UNL A   1      29.959  25.637  23.585  1.00  0.00     0.030 A 
ATOM     11  C   UNL A   1      32.352  25.921  23.444  1.00  0.00     0.043 A 
ATOM     12  C   UNL A   1      29.845  26.964  24.008  1.00  0.00     0.049 A 
ATOM     13  C   UNL A   1      30.976  27.792  24.068  1.00  0.00     0.128 A 
BRANCH   9  14
ATOM     14  N   UNL A   1      31.422  23.848  22.761  1.00  0.00    -0.322 N 
ATOM     15  C   UNL A   1      32.309  22.855  23.099  1.00  0.00     0.259 C 
ATOM     16  O   UNL A   1      32.401  21.901  22.319  1.00  0.00    -0.269 OA
ATOM     17  H   UNL A   1      30.821  23.614  22.018  1.00  0.00     0.170 HD
BRANCH  15  18
ATOM     18  C   UNL A   1      33.112  22.806  24.365  1.00  0.00     0.083 A 
ATOM     19  C   UNL A   1      32.619  22.510  25.667  1.00  0.00     0.134 A 
ATOM     20  C   UNL A   1      33.516  22.505  26.764  1.00  0.00    -0.007 A 
ATOM     21  C   UNL A   1      33.149  22.311  28.210  1.00  0.00     0.048 C 
ATOM     22  C   UNL A   1      34.899  22.615  26.509  1.00  0.00     0.023 A 
ATOM     23  C   UNL A   1      34.500  22.927  24.162  1.00  0.00     0.033 A 
ATOM     24  C   UNL A   1      35.383  22.790  25.220  1.00  0.00     0.019 A 
ATOM     25  Br  UNL A   1      37.246  22.796  24.909  1.00  0.00    -0.051 Br
BRANCH  19  26
ATOM     26  O   UNL A   1      31.322  22.072  25.713  1.00  0.00    -0.496 OA
ATOM     27  C   UNL A   1      30.286  22.891  26.225  1.00  0.00     0.278 C 
ENDBRANCH  19  26
ENDBRANCH  15  18
ENDBRANCH   9  14
BRANCH  13  28
ATOM     28  O   UNL A   1      30.793  29.092  24.436  1.00  0.00    -0.507 OA
ATOM     29  H   UNL A   1      31.082  29.386  25.277  1.00  0.00     0.293 HD
ENDBRANCH  13  28
ENDBRANCH   5   8
ENDBRANCH   3   4
ENDBRANCH   2   3
ENDBRANCH   1   2
BRANCH   1  30
ATOM     30  C   UNL A   1      32.525  30.386  27.231  1.00  0.00     0.002 C 
BRANCH  30  31
ATOM     31  C   UNL A   1      31.867  31.760  27.082  1.00  0.00     0.021 C 
BRANCH  31  32
ATOM     32  C   UNL A   1      32.844  32.915  26.875  1.00  0.00     0.116 C 
BRANCH  32  33
ATOM     33  N   UNL A   1      32.548  34.041  27.746  1.00  0.00    -0.352 N 
ATOM     34  C   UNL A   1      33.176  34.437  28.900  1.00  0.00     0.251 C 
ATOM     35  H   UNL A   1      31.786  34.599  27.468  1.00  0.00     0.163 HD
ATOM     36  O   UNL A   1      32.663  35.279  29.628  1.00  0.00    -0.269 OA
BRANCH  34  37
ATOM     37  C   UNL A   1      34.476  33.838  29.271  1.00  0.00     0.039 A 
ATOM     38  C   UNL A   1      35.623  34.221  28.573  1.00  0.00     0.014 A 
ATOM     39  C   UNL A   1      34.558  32.884  30.290  1.00  0.00     0.014 A 
ATOM     40  C   UNL A   1      36.862  33.684  28.929  1.00  0.00     0.010 A 
ATOM     41  C   UNL A   1      35.801  32.407  30.692  1.00  0.00     0.010 A 
ATOM     42  C   UNL A   1      36.965  32.793  30.010  1.00  0.00    -0.014 A 
BRANCH  42  43
ATOM     43  C   UNL A   1      38.275  32.237  30.428  1.00  0.00     0.031 A 
ATOM     44  C   UNL A   1      38.761  30.935  29.851  1.00  0.00     0.074 A 
ATOM     45  C   UNL A   1      39.002  32.871  31.368  1.00  0.00     0.049 A 
ATOM     46  N   UNL A   1      39.846  30.260  30.133  1.00  0.00    -0.248 NA
ATOM     47  C   UNL A   1      37.901  30.294  28.843  1.00  0.00     0.031 C 
ATOM     48  C   UNL A   1      38.628  34.123  32.029  1.00  0.00     0.029 A 
ATOM     49  N   UNL A   1      40.208  32.543  31.934  1.00  0.00    -0.354 N 
ATOM     50  C   UNL A   1      39.789  29.110  29.354  1.00  0.00     0.074 A 
ATOM     51  C   UNL A   1      38.538  29.153  28.629  1.00  0.00     0.031 C 
ATOM     52  C   UNL A   1      39.598  34.471  32.889  1.00  0.00     0.029 A 
ATOM     53  C   UNL A   1      40.640  33.450  32.873  1.00  0.00     0.049 A 
ATOM     54  H   UNL A   1      40.716  31.736  31.692  1.00  0.00     0.167 HD
ATOM     55  C   UNL A   1      40.703  28.118  29.235  1.00  0.00     0.031 A 
ATOM     56  C   UNL A   1      41.747  33.455  33.637  1.00  0.00     0.031 A 
ATOM     57  C   UNL A   1      41.950  28.080  29.950  1.00  0.00     0.049 A 
ATOM     58  C   UNL A   1      42.739  32.333  33.502  1.00  0.00     0.074 A 
ATOM     59  C   UNL A   1      42.967  27.145  29.862  1.00  0.00     0.029 A 
ATOM     60  N   UNL A   1      42.352  29.020  30.887  1.00  0.00    -0.354 N 
ATOM     61  N   UNL A   1      42.699  31.285  32.714  1.00  0.00    -0.248 NA
ATOM     62  C   UNL A   1      43.937  32.402  34.351  1.00  0.00     0.031 C 
ATOM     63  C   UNL A   1      43.958  27.489  30.786  1.00  0.00     0.029 A 
ATOM     64  C   UNL A   1      43.588  28.674  31.402  1.00  0.00     0.049 A 
ATOM     65  H   UNL A   1      41.833  29.815  31.147  1.00  0.00     0.167 HD
ATOM     66  C   UNL A   1      43.879  30.590  32.949  1.00  0.00     0.074 A 
ATOM     67  C   UNL A   1      44.618  31.342  33.941  1.00  0.00     0.031 C 
ATOM     68  C   UNL A   1      44.312  29.434  32.389  1.00  0.00     0.031 A 
BRANCH  55  69
ATOM     69  C   UNL A   1      40.376  26.984  28.302  1.00  0.00    -0.014 A 
ATOM     70  C   UNL A   1      39.567  25.911  28.712  1.00  0.00     0.009 A 
ATOM     71  C   UNL A   1      40.864  26.999  26.986  1.00  0.00     0.009 A 
ATOM     72  C   UNL A   1      39.286  24.859  27.837  1.00  0.00     0.001 A 
ATOM     73  C   UNL A   1      40.555  25.962  26.103  1.00  0.00     0.001 A 
ATOM     74  C   UNL A   1      39.777  24.888  26.532  1.00  0.00     0.000 A 
ENDBRANCH  55  69
BRANCH  56  75
ATOM     75  C   UNL A   1      41.990  34.571  34.589  1.00  0.00    -0.014 A 
ATOM     76  C   UNL A   1      41.511  34.501  35.907  1.00  0.00     0.009 A 
ATOM     77  C   UNL A   1      42.696  35.716  34.186  1.00  0.00     0.009 A 
ATOM     78  C   UNL A   1      41.708  35.565  36.790  1.00  0.00     0.001 A 
ATOM     79  C   UNL A   1      42.919  36.765  35.080  1.00  0.00     0.001 A 
ATOM     80  C   UNL A   1      42.415  36.692  36.379  1.00  0.00     0.000 A 
ENDBRANCH  56  75
BRANCH  68  81
ATOM     81  C   UNL A   1      45.669  28.936  32.803  1.00  0.00    -0.014 A 
ATOM     82  C   UNL A   1      46.835  29.343  32.136  1.00  0.00     0.009 A 
ATOM     83  C   UNL A   1      45.782  28.075  33.906  1.00  0.00     0.009 A 
ATOM     84  C   UNL A   1      48.084  28.870  32.546  1.00  0.00     0.001 A 
ATOM     85  C   UNL A   1      47.033  27.629  34.333  1.00  0.00     0.001 A 
ATOM     86  C   UNL A   1      48.181  28.018  33.646  1.00  0.00     0.000 A 
ENDBRANCH  68  81
ENDBRANCH  42  43
ENDBRANCH  34  37
ENDBRANCH  32  33
ENDBRANCH  31  32
ENDBRANCH  30  31
ENDBRANCH   1  30
TORSDOF 17
ENDMDL
MODEL 3
REMARK VINA RESULT:     -10.6      1.321      6.096
REMARK SMILES COc1c(C)cc(Br)cc1C(=O)Nc1ccc(O)c(C(=O)NCCCCCCNC(=O)c2ccc(-c3c4nc(c(-c5ccccc5)c5ccc([nH]5)c(-c5ccccc5)c5nc(c(-c6ccccc6)c6ccc3[nH]6)C=C5)C=C4)cc2)c1
REMARK SMILES IDX 25 1 24 2 23 3 22 4 20 5 21 6 19 8 14 9 15 10 80 11 16 12
REMARK SMILES IDX 17 13 13 14 11 15 12 16 10 18 3 19 4 20 5 21 6 22 9 23 7 24
REMARK SMILES IDX 8 25 2 26 1 27 18 28 26 30 27 31 28 32 29 33 30 34 31 36
REMARK SMILES IDX 32 37 33 38 79 39 34 40 78 41 35 42 36 43 37 44 72 45 38 46
REMARK SMILES IDX 77 47 71 48 73 49 39 50 76 51 70 52 69 53 40 55 62 56 47 57
REMARK SMILES IDX 61 58 48 59 51 60 60 61 74 62 49 63 50 64 59 66 75 67 52 68
REMARK SMILES IDX 41 69 42 70 46 71 43 72 45 73 44 74 63 75 64 76 68 77 65 78
REMARK SMILES IDX 67 79 66 80 53 81 54 82 58 83 55 84 57 85 56 86
REMARK H PARENT 22 7 13 17 18 29 29 35 73 54 51 65
REMARK Flexibility Score: inf
ROOT
ATOM      1  C   UNL A   1      30.235  30.093  24.226  1.00  0.00     0.002 C 
ENDROOT
BRANCH   1   2
ATOM      2  C   UNL A   1      30.358  28.751  23.496  1.00  0.00     0.021 C 
BRANCH   2   3
ATOM      3  C   UNL A   1      30.933  28.865  22.082  1.00  0.00     0.116 C 
BRANCH   3   4
ATOM      4  N   UNL A   1      31.560  27.615  21.708  1.00  0.00    -0.352 N 
ATOM      5  C   UNL A   1      32.572  26.894  22.288  1.00  0.00     0.255 C 
ATOM      6  O   UNL A   1      32.993  25.911  21.675  1.00  0.00    -0.269 OA
ATOM      7  H   UNL A   1      31.194  27.209  20.889  1.00  0.00     0.163 HD
BRANCH   5   8
ATOM      8  C   UNL A   1      33.061  27.127  23.674  1.00  0.00     0.083 A 
ATOM      9  C   UNL A   1      32.762  26.392  25.979  1.00  0.00     0.042 A 
ATOM     10  C   UNL A   1      33.580  27.423  26.431  1.00  0.00     0.030 A 
ATOM     11  C   UNL A   1      32.572  26.202  24.609  1.00  0.00     0.043 A 
ATOM     12  C   UNL A   1      34.163  28.291  25.504  1.00  0.00     0.049 A 
ATOM     13  C   UNL A   1      33.881  28.162  24.135  1.00  0.00     0.128 A 
BRANCH   9  14
ATOM     14  N   UNL A   1      32.064  25.535  26.828  1.00  0.00    -0.322 N 
ATOM     15  C   UNL A   1      31.815  24.185  26.766  1.00  0.00     0.259 C 
ATOM     16  O   UNL A   1      30.981  23.735  27.559  1.00  0.00    -0.269 OA
ATOM     17  H   UNL A   1      31.680  25.978  27.619  1.00  0.00     0.170 HD
BRANCH  15  18
ATOM     18  C   UNL A   1      32.523  23.216  25.866  1.00  0.00     0.083 A 
ATOM     19  C   UNL A   1      31.969  22.557  24.732  1.00  0.00     0.134 A 
ATOM     20  C   UNL A   1      32.779  21.666  23.985  1.00  0.00    -0.007 A 
ATOM     21  C   UNL A   1      32.328  20.818  22.827  1.00  0.00     0.048 C 
ATOM     22  C   UNL A   1      34.157  21.596  24.276  1.00  0.00     0.023 A 
ATOM     23  C   UNL A   1      33.902  23.101  26.129  1.00  0.00     0.033 A 
ATOM     24  C   UNL A   1      34.713  22.330  25.313  1.00  0.00     0.019 A 
ATOM     25  Br  UNL A   1      36.583  22.311  25.581  1.00  0.00    -0.051 Br
BRANCH  19  26
ATOM     26  O   UNL A   1      30.727  22.992  24.356  1.00  0.00    -0.496 OA
ATOM     27  C   UNL A   1      30.551  23.840  23.235  1.00  0.00     0.278 C 
ENDBRANCH  19  26
ENDBRANCH  15  18
ENDBRANCH   9  14
BRANCH  13  28
ATOM     28  O   UNL A   1      34.436  29.072  23.285  1.00  0.00    -0.507 OA
ATOM     29  H   UNL A   1      34.693  28.812  22.423  1.00  0.00     0.293 HD
ENDBRANCH  13  28
ENDBRANCH   5   8
ENDBRANCH   3   4
ENDBRANCH   2   3
ENDBRANCH   1   2
BRANCH   1  30
ATOM     30  C   UNL A   1      31.225  30.294  25.377  1.00  0.00     0.002 C 
BRANCH  30  31
ATOM     31  C   UNL A   1      31.056  31.600  26.158  1.00  0.00     0.021 C 
BRANCH  31  32
ATOM     32  C   UNL A   1      32.315  32.084  26.871  1.00  0.00     0.116 C 
BRANCH  32  33
ATOM     33  N   UNL A   1      32.216  33.480  27.265  1.00  0.00    -0.352 N 
ATOM     34  C   UNL A   1      32.991  34.193  28.145  1.00  0.00     0.251 C 
ATOM     35  H   UNL A   1      31.486  33.986  26.840  1.00  0.00     0.163 HD
ATOM     36  O   UNL A   1      32.634  35.301  28.528  1.00  0.00    -0.269 OA
BRANCH  34  37
ATOM     37  C   UNL A   1      34.258  33.615  28.642  1.00  0.00     0.039 A 
ATOM     38  C   UNL A   1      35.451  33.940  27.993  1.00  0.00     0.014 A 
ATOM     39  C   UNL A   1      34.265  32.738  29.730  1.00  0.00     0.014 A 
ATOM     40  C   UNL A   1      36.659  33.425  28.466  1.00  0.00     0.010 A 
ATOM     41  C   UNL A   1      35.476  32.284  30.245  1.00  0.00     0.010 A 
ATOM     42  C   UNL A   1      36.684  32.614  29.613  1.00  0.00    -0.014 A 
BRANCH  42  43
ATOM     43  C   UNL A   1      37.960  32.083  30.154  1.00  0.00     0.031 A 
ATOM     44  C   UNL A   1      38.521  30.789  29.629  1.00  0.00     0.074 A 
ATOM     45  C   UNL A   1      38.583  32.732  31.155  1.00  0.00     0.049 A 
ATOM     46  N   UNL A   1      39.588  30.135  30.014  1.00  0.00    -0.248 NA
ATOM     47  C   UNL A   1      37.771  30.131  28.547  1.00  0.00     0.031 C 
ATOM     48  C   UNL A   1      38.126  33.978  31.775  1.00  0.00     0.029 A 
ATOM     49  N   UNL A   1      39.737  32.427  31.834  1.00  0.00    -0.354 N 
ATOM     50  C   UNL A   1      39.625  28.984  29.237  1.00  0.00     0.074 A 
ATOM     51  C   UNL A   1      38.447  29.001  28.397  1.00  0.00     0.031 C 
ATOM     52  C   UNL A   1      39.005  34.345  32.721  1.00  0.00     0.029 A 
ATOM     53  C   UNL A   1      40.062  33.344  32.806  1.00  0.00     0.049 A 
ATOM     54  H   UNL A   1      40.280  31.630  31.643  1.00  0.00     0.167 HD
ATOM     55  C   UNL A   1      40.564  28.009  29.207  1.00  0.00     0.031 A 
ATOM     56  C   UNL A   1      41.093  33.370  33.670  1.00  0.00     0.031 A 
ATOM     57  C   UNL A   1      41.739  27.995  30.036  1.00  0.00     0.049 A 
ATOM     58  C   UNL A   1      42.113  32.267  33.632  1.00  0.00     0.074 A 
ATOM     59  C   UNL A   1      42.777  27.078  30.046  1.00  0.00     0.029 A 
ATOM     60  N   UNL A   1      42.034  28.943  31.003  1.00  0.00    -0.354 N 
ATOM     61  N   UNL A   1      42.166  31.217  32.848  1.00  0.00    -0.248 NA
ATOM     62  C   UNL A   1      43.225  32.360  34.589  1.00  0.00     0.031 C 
ATOM     63  C   UNL A   1      43.671  27.443  31.058  1.00  0.00     0.029 A 
ATOM     64  C   UNL A   1      43.223  28.622  31.633  1.00  0.00     0.049 A 
ATOM     65  H   UNL A   1      41.478  29.729  31.211  1.00  0.00     0.167 HD
ATOM     66  C   UNL A   1      43.332  30.544  33.194  1.00  0.00     0.074 A 
ATOM     67  C   UNL A   1      43.960  31.312  34.248  1.00  0.00     0.031 C 
ATOM     68  C   UNL A   1      43.837  29.396  32.681  1.00  0.00     0.031 A 
BRANCH  55  69
ATOM     69  C   UNL A   1      40.347  26.866  28.251  1.00  0.00    -0.014 A 
ATOM     70  C   UNL A   1      39.668  25.703  28.647  1.00  0.00     0.009 A 
ATOM     71  C   UNL A   1      40.807  26.965  26.929  1.00  0.00     0.009 A 
ATOM     72  C   UNL A   1      39.489  24.646  27.750  1.00  0.00     0.001 A 
ATOM     73  C   UNL A   1      40.598  25.922  26.025  1.00  0.00     0.001 A 
ATOM     74  C   UNL A   1      39.950  24.759  26.439  1.00  0.00     0.000 A 
ENDBRANCH  55  69
BRANCH  56  75
ATOM     75  C   UNL A   1      41.225  34.492  34.637  1.00  0.00    -0.014 A 
ATOM     76  C   UNL A   1      41.967  35.637  34.305  1.00  0.00     0.009 A 
ATOM     77  C   UNL A   1      40.617  34.423  35.901  1.00  0.00     0.009 A 
ATOM     78  C   UNL A   1      42.122  36.674  35.228  1.00  0.00     0.001 A 
ATOM     79  C   UNL A   1      40.748  35.475  36.810  1.00  0.00     0.001 A 
ATOM     80  C   UNL A   1      41.508  36.595  36.476  1.00  0.00     0.000 A 
ENDBRANCH  56  75
BRANCH  68  81
ATOM     81  C   UNL A   1      45.158  28.924  33.222  1.00  0.00    -0.014 A 
ATOM     82  C   UNL A   1      45.232  28.033  34.304  1.00  0.00     0.009 A 
ATOM     83  C   UNL A   1      46.347  29.348  32.608  1.00  0.00     0.009 A 
ATOM     84  C   UNL A   1      46.472  27.605  34.782  1.00  0.00     0.001 A 
ATOM     85  C   UNL A   1      47.584  28.895  33.067  1.00  0.00     0.001 A 
ATOM     86  C   UNL A   1      47.646  28.033  34.161  1.00  0.00     0.000 A 
ENDBRANCH  68  81
ENDBRANCH  42  43
ENDBRANCH  34  37
ENDBRANCH  32  33
ENDBRANCH  31  32
ENDBRANCH  30  31
ENDBRANCH   1  30
TORSDOF 17
ENDMDL
