MODEL 1
REMARK VINA RESULT:     -11.4      0.000      0.000
REMARK SMILES CCc1cc(Nc2ccc(C(=O)NCCCCCCNC(=O)c3ccc(-c4c5nc(c(-c6ccccc6)c6ccc([nH]6)c(-c6ccccc6)c6nc(c(-c7ccccc7)c7ccc4[nH]7)C=C6)C=C5)cc3)cc2)nc(C(C)C)n1
REMARK SMILES IDX 16 1 15 2 14 3 13 4 11 5 12 6 10 8 7 9 8 10 72 11 9 12 71 13
REMARK SMILES IDX 6 14 5 16 3 17 4 18 78 19 74 20 73 21 2 22 1 23 75 24 76 25
REMARK SMILES IDX 77 26 17 27 18 28 19 29 20 30 21 31 22 33 23 34 24 35 70 36
REMARK SMILES IDX 25 37 69 38 26 39 27 40 28 41 63 42 29 43 68 44 62 45 64 46
REMARK SMILES IDX 30 47 67 48 61 49 60 50 31 52 53 53 38 54 52 55 39 56 42 57
REMARK SMILES IDX 51 58 65 59 40 60 41 61 50 63 66 64 43 65 32 66 33 67 37 68
REMARK SMILES IDX 34 69 36 70 35 71 54 72 55 73 59 74 56 75 58 76 57 77 44 78
REMARK SMILES IDX 45 79 49 80 46 81 48 82 47 83
REMARK H PARENT 13 7 6 15 20 32 64 51 42 62
REMARK Flexibility Score: inf
ROOT
ATOM      1  C   UNL A   1      35.851  22.516  25.170  1.00  0.00     0.002 C 
ENDROOT
BRANCH   1   2
ATOM      2  C   UNL A   1      34.934  21.939  26.257  1.00  0.00     0.021 C 
BRANCH   2   3
ATOM      3  C   UNL A   1      33.448  22.167  25.966  1.00  0.00     0.116 C 
BRANCH   3   4
ATOM      4  N   UNL A   1      33.013  21.266  24.915  1.00  0.00    -0.352 N 
ATOM      5  C   UNL A   1      32.390  21.480  23.713  1.00  0.00     0.251 C 
ATOM      6  O   UNL A   1      32.111  20.494  23.030  1.00  0.00    -0.269 OA
ATOM      7  H   UNL A   1      33.201  20.318  25.102  1.00  0.00     0.163 HD
BRANCH   5   8
ATOM      8  C   UNL A   1      32.108  22.837  23.174  1.00  0.00     0.039 A 
ATOM      9  C   UNL A   1      31.822  25.470  22.194  1.00  0.00     0.040 A 
ATOM     10  C   UNL A   1      32.922  24.692  21.820  1.00  0.00     0.027 A 
ATOM     11  C   UNL A   1      30.855  24.907  23.029  1.00  0.00     0.027 A 
ATOM     12  C   UNL A   1      33.068  23.391  22.313  1.00  0.00     0.016 A 
ATOM     13  C   UNL A   1      30.967  23.584  23.466  1.00  0.00     0.016 A 
BRANCH   9  14
ATOM     14  N   UNL A   1      31.736  26.812  21.800  1.00  0.00    -0.340 N 
ATOM     15  H   UNL A   1      32.090  27.039  20.908  1.00  0.00     0.168 HD
BRANCH  14  16
ATOM     16  C   UNL A   1      31.189  27.872  22.556  1.00  0.00     0.134 A 
ATOM     17  C   UNL A   1      31.355  29.365  24.375  1.00  0.00     0.046 A 
ATOM     18  C   UNL A   1      31.908  28.336  23.640  1.00  0.00     0.071 A 
ATOM     19  N   UNL A   1      30.163  29.906  24.067  1.00  0.00    -0.238 NA
ATOM     20  C   UNL A   1      29.529  29.410  22.987  1.00  0.00     0.133 A 
ATOM     21  N   UNL A   1      30.010  28.421  22.212  1.00  0.00    -0.216 NA
BRANCH  17  22
ATOM     22  C   UNL A   1      32.063  29.905  25.590  1.00  0.00     0.053 C 
ATOM     23  C   UNL A   1      31.728  29.107  26.841  1.00  0.00     0.011 C 
ENDBRANCH  17  22
BRANCH  20  24
ATOM     24  C   UNL A   1      28.169  29.976  22.636  1.00  0.00     0.051 C 
ATOM     25  C   UNL A   1      27.776  31.089  23.609  1.00  0.00     0.016 C 
ATOM     26  C   UNL A   1      28.131  30.477  21.193  1.00  0.00     0.016 C 
ENDBRANCH  20  24
ENDBRANCH  14  16
ENDBRANCH   9  14
ENDBRANCH   5   8
ENDBRANCH   3   4
ENDBRANCH   2   3
ENDBRANCH   1   2
BRANCH   1  27
ATOM     27  C   UNL A   1      36.466  21.470  24.232  1.00  0.00     0.002 C 
BRANCH  27  28
ATOM     28  C   UNL A   1      37.263  20.367  24.934  1.00  0.00     0.021 C 
BRANCH  28  29
ATOM     29  C   UNL A   1      38.550  20.851  25.594  1.00  0.00     0.116 C 
BRANCH  29  30
ATOM     30  N   UNL A   1      39.541  19.789  25.681  1.00  0.00    -0.352 N 
ATOM     31  C   UNL A   1      40.871  19.867  26.011  1.00  0.00     0.251 C 
ATOM     32  H   UNL A   1      39.211  18.886  25.474  1.00  0.00     0.163 HD
ATOM     33  O   UNL A   1      41.618  18.917  25.810  1.00  0.00    -0.269 OA
BRANCH  31  34
ATOM     34  C   UNL A   1      41.406  21.112  26.601  1.00  0.00     0.039 A 
ATOM     35  C   UNL A   1      41.960  22.078  25.758  1.00  0.00     0.014 A 
ATOM     36  C   UNL A   1      41.365  21.321  27.983  1.00  0.00     0.014 A 
ATOM     37  C   UNL A   1      42.417  23.282  26.295  1.00  0.00     0.010 A 
ATOM     38  C   UNL A   1      41.758  22.548  28.509  1.00  0.00     0.010 A 
ATOM     39  C   UNL A   1      42.286  23.540  27.670  1.00  0.00    -0.014 A 
BRANCH  39  40
ATOM     40  C   UNL A   1      42.678  24.851  28.245  1.00  0.00     0.031 A 
ATOM     41  C   UNL A   1      41.646  25.924  28.463  1.00  0.00     0.074 A 
ATOM     42  C   UNL A   1      43.975  25.099  28.507  1.00  0.00     0.049 A 
ATOM     43  N   UNL A   1      41.809  27.147  28.899  1.00  0.00    -0.248 NA
ATOM     44  C   UNL A   1      40.254  25.585  28.127  1.00  0.00     0.031 C 
ATOM     45  C   UNL A   1      45.076  24.155  28.302  1.00  0.00     0.029 A 
ATOM     46  N   UNL A   1      44.590  26.224  28.997  1.00  0.00    -0.354 N 
ATOM     47  C   UNL A   1      40.547  27.727  28.877  1.00  0.00     0.074 A 
ATOM     48  C   UNL A   1      39.637  26.739  28.339  1.00  0.00     0.031 C 
ATOM     49  C   UNL A   1      46.226  24.731  28.687  1.00  0.00     0.029 A 
ATOM     50  C   UNL A   1      45.951  26.095  29.124  1.00  0.00     0.049 A 
ATOM     51  H   UNL A   1      44.101  27.044  29.235  1.00  0.00     0.167 HD
ATOM     52  C   UNL A   1      40.176  28.965  29.283  1.00  0.00     0.031 A 
ATOM     53  C   UNL A   1      46.877  26.981  29.536  1.00  0.00     0.031 A 
ATOM     54  C   UNL A   1      41.080  29.946  29.821  1.00  0.00     0.049 A 
ATOM     55  C   UNL A   1      46.442  28.357  29.956  1.00  0.00     0.074 A 
ATOM     56  C   UNL A   1      40.792  31.206  30.314  1.00  0.00     0.029 A 
ATOM     57  N   UNL A   1      42.453  29.776  29.932  1.00  0.00    -0.354 N 
ATOM     58  N   UNL A   1      45.235  28.865  29.997  1.00  0.00    -0.248 NA
ATOM     59  C   UNL A   1      47.499  29.279  30.396  1.00  0.00     0.031 C 
ATOM     60  C   UNL A   1      41.995  31.822  30.669  1.00  0.00     0.029 A 
ATOM     61  C   UNL A   1      43.027  30.923  30.456  1.00  0.00     0.049 A 
ATOM     62  H   UNL A   1      42.944  28.964  29.676  1.00  0.00     0.167 HD
ATOM     63  C   UNL A   1      45.382  30.154  30.489  1.00  0.00     0.074 A 
ATOM     64  C   UNL A   1      46.795  30.344  30.750  1.00  0.00     0.031 C 
ATOM     65  C   UNL A   1      44.435  31.098  30.705  1.00  0.00     0.031 A 
BRANCH  52  66
ATOM     66  C   UNL A   1      38.723  29.331  29.150  1.00  0.00    -0.014 A 
ATOM     67  C   UNL A   1      37.835  29.191  30.229  1.00  0.00     0.009 A 
ATOM     68  C   UNL A   1      38.245  29.865  27.944  1.00  0.00     0.009 A 
ATOM     69  C   UNL A   1      36.491  29.543  30.090  1.00  0.00     0.001 A 
ATOM     70  C   UNL A   1      36.907  30.243  27.816  1.00  0.00     0.001 A 
ATOM     71  C   UNL A   1      36.029  30.073  28.886  1.00  0.00     0.000 A 
ENDBRANCH  52  66
BRANCH  53  72
ATOM     72  C   UNL A   1      48.312  26.593  29.579  1.00  0.00    -0.014 A 
ATOM     73  C   UNL A   1      48.854  25.994  30.726  1.00  0.00     0.009 A 
ATOM     74  C   UNL A   1      49.149  26.828  28.476  1.00  0.00     0.009 A 
ATOM     75  C   UNL A   1      50.211  25.665  30.778  1.00  0.00     0.001 A 
ATOM     76  C   UNL A   1      50.497  26.469  28.520  1.00  0.00     0.001 A 
ATOM     77  C   UNL A   1      51.030  25.897  29.674  1.00  0.00     0.000 A 
ENDBRANCH  53  72
BRANCH  65  78
ATOM     78  C   UNL A   1      44.890  32.412  31.276  1.00  0.00    -0.014 A 
ATOM     79  C   UNL A   1      45.245  33.483  30.443  1.00  0.00     0.009 A 
ATOM     80  C   UNL A   1      44.927  32.589  32.668  1.00  0.00     0.009 A 
ATOM     81  C   UNL A   1      45.661  34.697  30.995  1.00  0.00     0.001 A 
ATOM     82  C   UNL A   1      45.313  33.813  33.215  1.00  0.00     0.001 A 
ATOM     83  C   UNL A   1      45.689  34.863  32.380  1.00  0.00     0.000 A 
ENDBRANCH  65  78
ENDBRANCH  39  40
ENDBRANCH  31  34
ENDBRANCH  29  30
ENDBRANCH  28  29
ENDBRANCH  27  28
ENDBRANCH   1  27
TORSDOF 17
ENDMDL
MODEL 2
REMARK VINA RESULT:     -11.4      2.427      8.022
REMARK SMILES CCc1cc(Nc2ccc(C(=O)NCCCCCCNC(=O)c3ccc(-c4c5nc(c(-c6ccccc6)c6ccc([nH]6)c(-c6ccccc6)c6nc(c(-c7ccccc7)c7ccc4[nH]7)C=C6)C=C5)cc3)cc2)nc(C(C)C)n1
REMARK SMILES IDX 16 1 15 2 14 3 13 4 11 5 12 6 10 8 7 9 8 10 72 11 9 12 71 13
REMARK SMILES IDX 6 14 5 16 3 17 4 18 78 19 74 20 73 21 2 22 1 23 75 24 76 25
REMARK SMILES IDX 77 26 17 27 18 28 19 29 20 30 21 31 22 33 23 34 24 35 70 36
REMARK SMILES IDX 25 37 69 38 26 39 27 40 28 41 63 42 29 43 68 44 62 45 64 46
REMARK SMILES IDX 30 47 67 48 61 49 60 50 31 52 53 53 38 54 52 55 39 56 42 57
REMARK SMILES IDX 51 58 65 59 40 60 41 61 50 63 66 64 43 65 32 66 33 67 37 68
REMARK SMILES IDX 34 69 36 70 35 71 54 72 55 73 59 74 56 75 58 76 57 77 44 78
REMARK SMILES IDX 45 79 49 80 46 81 48 82 47 83
REMARK H PARENT 13 7 6 15 20 32 64 51 42 62
REMARK Flexibility Score: inf
ROOT
ATOM      1  C   UNL A   1      33.388  29.131  23.535  1.00  0.00     0.002 C 
ENDROOT
BRANCH   1   2
ATOM      2  C   UNL A   1      32.217  29.057  22.545  1.00  0.00     0.021 C 
BRANCH   2   3
ATOM      3  C   UNL A   1      31.632  27.647  22.421  1.00  0.00     0.116 C 
BRANCH   3   4
ATOM      4  N   UNL A   1      30.235  27.662  22.814  1.00  0.00    -0.352 N 
ATOM      5  C   UNL A   1      29.472  26.792  23.547  1.00  0.00     0.251 C 
ATOM      6  O   UNL A   1      28.279  27.060  23.693  1.00  0.00    -0.269 OA
ATOM      7  H   UNL A   1      29.740  28.450  22.491  1.00  0.00     0.163 HD
BRANCH   5   8
ATOM      8  C   UNL A   1      30.032  25.593  24.227  1.00  0.00     0.039 A 
ATOM      9  C   UNL A   1      30.959  23.174  25.351  1.00  0.00     0.040 A 
ATOM     10  C   UNL A   1      30.902  23.333  23.963  1.00  0.00     0.027 A 
ATOM     11  C   UNL A   1      30.585  24.245  26.165  1.00  0.00     0.027 A 
ATOM     12  C   UNL A   1      30.434  24.527  23.407  1.00  0.00     0.016 A 
ATOM     13  C   UNL A   1      30.182  25.463  25.608  1.00  0.00     0.016 A 
BRANCH   9  14
ATOM     14  N   UNL A   1      31.312  21.938  25.911  1.00  0.00    -0.340 N 
ATOM     15  H   UNL A   1      30.742  21.600  26.640  1.00  0.00     0.168 HD
BRANCH  14  16
ATOM     16  C   UNL A   1      32.404  21.130  25.529  1.00  0.00     0.134 A 
ATOM     17  C   UNL A   1      34.737  20.789  25.417  1.00  0.00     0.046 A 
ATOM     18  C   UNL A   1      33.678  21.586  25.806  1.00  0.00     0.071 A 
ATOM     19  N   UNL A   1      34.555  19.614  24.788  1.00  0.00    -0.238 NA
ATOM     20  C   UNL A   1      33.284  19.231  24.566  1.00  0.00     0.133 A 
ATOM     21  N   UNL A   1      32.202  19.943  24.929  1.00  0.00    -0.216 NA
BRANCH  17  22
ATOM     22  C   UNL A   1      36.156  21.231  25.656  1.00  0.00     0.053 C 
ATOM     23  C   UNL A   1      37.032  21.008  24.432  1.00  0.00     0.011 C 
ENDBRANCH  17  22
BRANCH  20  24
ATOM     24  C   UNL A   1      33.050  17.929  23.830  1.00  0.00     0.051 C 
ATOM     25  C   UNL A   1      32.401  18.184  22.468  1.00  0.00     0.016 C 
ATOM     26  C   UNL A   1      34.348  17.138  23.674  1.00  0.00     0.016 C 
ENDBRANCH  20  24
ENDBRANCH  14  16
ENDBRANCH   9  14
ENDBRANCH   5   8
ENDBRANCH   3   4
ENDBRANCH   2   3
ENDBRANCH   1   2
BRANCH   1  27
ATOM     27  C   UNL A   1      32.975  29.214  25.009  1.00  0.00     0.002 C 
BRANCH  27  28
ATOM     28  C   UNL A   1      33.806  28.348  25.959  1.00  0.00     0.021 C 
BRANCH  28  29
ATOM     29  C   UNL A   1      33.588  28.657  27.437  1.00  0.00     0.116 C 
BRANCH  29  30
ATOM     30  N   UNL A   1      33.631  30.087  27.699  1.00  0.00    -0.352 N 
ATOM     31  C   UNL A   1      34.624  30.835  28.281  1.00  0.00     0.251 C 
ATOM     32  H   UNL A   1      32.834  30.591  27.418  1.00  0.00     0.163 HD
ATOM     33  O   UNL A   1      34.405  31.986  28.639  1.00  0.00    -0.269 OA
BRANCH  31  34
ATOM     34  C   UNL A   1      35.961  30.239  28.487  1.00  0.00     0.039 A 
ATOM     35  C   UNL A   1      36.882  30.261  27.437  1.00  0.00     0.014 A 
ATOM     36  C   UNL A   1      36.299  29.656  29.712  1.00  0.00     0.014 A 
ATOM     37  C   UNL A   1      38.166  29.754  27.637  1.00  0.00     0.010 A 
ATOM     38  C   UNL A   1      37.600  29.213  29.930  1.00  0.00     0.010 A 
ATOM     39  C   UNL A   1      38.546  29.259  28.895  1.00  0.00    -0.014 A 
BRANCH  39  40
ATOM     40  C   UNL A   1      39.935  28.804  29.154  1.00  0.00     0.031 A 
ATOM     41  C   UNL A   1      40.934  29.734  29.786  1.00  0.00     0.074 A 
ATOM     42  C   UNL A   1      40.314  27.574  28.756  1.00  0.00     0.049 A 
ATOM     43  N   UNL A   1      42.203  29.533  30.034  1.00  0.00    -0.248 NA
ATOM     44  C   UNL A   1      40.450  31.070  30.167  1.00  0.00     0.031 C 
ATOM     45  C   UNL A   1      39.449  26.593  28.097  1.00  0.00     0.029 A 
ATOM     46  N   UNL A   1      41.528  26.942  28.843  1.00  0.00    -0.354 N 
ATOM     47  C   UNL A   1      42.671  30.719  30.587  1.00  0.00     0.074 A 
ATOM     48  C   UNL A   1      41.563  31.649  30.593  1.00  0.00     0.031 C 
ATOM     49  C   UNL A   1      40.154  25.474  27.863  1.00  0.00     0.029 A 
ATOM     50  C   UNL A   1      41.527  25.674  28.313  1.00  0.00     0.049 A 
ATOM     51  H   UNL A   1      42.325  27.357  29.245  1.00  0.00     0.167 HD
ATOM     52  C   UNL A   1      43.907  31.002  31.063  1.00  0.00     0.031 A 
ATOM     53  C   UNL A   1      42.522  24.776  28.195  1.00  0.00     0.031 A 
ATOM     54  C   UNL A   1      45.008  30.075  31.060  1.00  0.00     0.049 A 
ATOM     55  C   UNL A   1      43.891  25.126  28.707  1.00  0.00     0.074 A 
ATOM     56  C   UNL A   1      46.281  30.249  31.572  1.00  0.00     0.029 A 
ATOM     57  N   UNL A   1      44.965  28.801  30.514  1.00  0.00    -0.354 N 
ATOM     58  N   UNL A   1      44.299  26.225  29.292  1.00  0.00    -0.248 NA
ATOM     59  C   UNL A   1      44.936  24.104  28.548  1.00  0.00     0.031 C 
ATOM     60  C   UNL A   1      47.027  29.102  31.284  1.00  0.00     0.029 A 
ATOM     61  C   UNL A   1      46.201  28.190  30.648  1.00  0.00     0.049 A 
ATOM     62  H   UNL A   1      44.175  28.393  30.093  1.00  0.00     0.167 HD
ATOM     63  C   UNL A   1      45.638  26.020  29.594  1.00  0.00     0.074 A 
ATOM     64  C   UNL A   1      45.969  24.682  29.144  1.00  0.00     0.031 C 
ATOM     65  C   UNL A   1      46.516  26.862  30.190  1.00  0.00     0.031 A 
BRANCH  52  66
ATOM     66  C   UNL A   1      44.137  32.380  31.619  1.00  0.00    -0.014 A 
ATOM     67  C   UNL A   1      44.569  33.435  30.799  1.00  0.00     0.009 A 
ATOM     68  C   UNL A   1      43.876  32.639  32.974  1.00  0.00     0.009 A 
ATOM     69  C   UNL A   1      44.770  34.710  31.331  1.00  0.00     0.001 A 
ATOM     70  C   UNL A   1      44.050  33.921  33.497  1.00  0.00     0.001 A 
ATOM     71  C   UNL A   1      44.505  34.953  32.678  1.00  0.00     0.000 A 
ENDBRANCH  52  66
BRANCH  53  72
ATOM     72  C   UNL A   1      42.261  23.453  27.569  1.00  0.00    -0.014 A 
ATOM     73  C   UNL A   1      41.772  22.385  28.337  1.00  0.00     0.009 A 
ATOM     74  C   UNL A   1      42.508  23.248  26.202  1.00  0.00     0.009 A 
ATOM     75  C   UNL A   1      41.563  21.133  27.755  1.00  0.00     0.001 A 
ATOM     76  C   UNL A   1      42.268  22.003  25.617  1.00  0.00     0.001 A 
ATOM     77  C   UNL A   1      41.806  20.944  26.395  1.00  0.00     0.000 A 
ENDBRANCH  53  72
BRANCH  65  78
ATOM     78  C   UNL A   1      47.912  26.353  30.414  1.00  0.00    -0.014 A 
ATOM     79  C   UNL A   1      48.282  25.753  31.627  1.00  0.00     0.009 A 
ATOM     80  C   UNL A   1      48.859  26.442  29.381  1.00  0.00     0.009 A 
ATOM     81  C   UNL A   1      49.584  25.282  31.813  1.00  0.00     0.001 A 
ATOM     82  C   UNL A   1      50.150  25.942  29.559  1.00  0.00     0.001 A 
ATOM     83  C   UNL A   1      50.514  25.371  30.777  1.00  0.00     0.000 A 
ENDBRANCH  65  78
ENDBRANCH  39  40
ENDBRANCH  31  34
ENDBRANCH  29  30
ENDBRANCH  28  29
ENDBRANCH  27  28
ENDBRANCH   1  27
TORSDOF 17
ENDMDL
MODEL 3
REMARK VINA RESULT:     -10.9      3.535      9.077
REMARK SMILES CCc1cc(Nc2ccc(C(=O)NCCCCCCNC(=O)c3ccc(-c4c5nc(c(-c6ccccc6)c6ccc([nH]6)c(-c6ccccc6)c6nc(c(-c7ccccc7)c7ccc4[nH]7)C=C6)C=C5)cc3)cc2)nc(C(C)C)n1
REMARK SMILES IDX 16 1 15 2 14 3 13 4 11 5 12 6 10 8 7 9 8 10 72 11 9 12 71 13
REMARK SMILES IDX 6 14 5 16 3 17 4 18 78 19 74 20 73 21 2 22 1 23 75 24 76 25
REMARK SMILES IDX 77 26 17 27 18 28 19 29 20 30 21 31 22 33 23 34 24 35 70 36
REMARK SMILES IDX 25 37 69 38 26 39 27 40 28 41 63 42 29 43 68 44 62 45 64 46
REMARK SMILES IDX 30 47 67 48 61 49 60 50 31 52 53 53 38 54 52 55 39 56 42 57
REMARK SMILES IDX 51 58 65 59 40 60 41 61 50 63 66 64 43 65 32 66 33 67 37 68
REMARK SMILES IDX 34 69 36 70 35 71 54 72 55 73 59 74 56 75 58 76 57 77 44 78
REMARK SMILES IDX 45 79 49 80 46 81 48 82 47 83
REMARK H PARENT 13 7 6 15 20 32 64 51 42 62
REMARK Flexibility Score: inf
ROOT
ATOM      1  C   UNL A   1      34.402  29.756  27.387  1.00  0.00     0.002 C 
ENDROOT
BRANCH   1   2
ATOM      2  C   UNL A   1      33.004  29.525  26.796  1.00  0.00     0.021 C 
BRANCH   2   3
ATOM      3  C   UNL A   1      32.992  29.563  25.265  1.00  0.00     0.116 C 
BRANCH   3   4
ATOM      4  N   UNL A   1      31.686  29.990  24.798  1.00  0.00    -0.352 N 
ATOM      5  C   UNL A   1      30.719  29.362  24.056  1.00  0.00     0.251 C 
ATOM      6  O   UNL A   1      29.703  30.002  23.783  1.00  0.00    -0.269 OA
ATOM      7  H   UNL A   1      31.449  30.907  25.066  1.00  0.00     0.163 HD
BRANCH   5   8
ATOM      8  C   UNL A   1      30.813  27.938  23.637  1.00  0.00     0.039 A 
ATOM      9  C   UNL A   1      31.060  25.181  23.083  1.00  0.00     0.040 A 
ATOM     10  C   UNL A   1      30.406  25.614  24.240  1.00  0.00     0.027 A 
ATOM     11  C   UNL A   1      31.553  26.136  22.193  1.00  0.00     0.027 A 
ATOM     12  C   UNL A   1      30.293  26.980  24.519  1.00  0.00     0.016 A 
ATOM     13  C   UNL A   1      31.379  27.502  22.438  1.00  0.00     0.016 A 
BRANCH   9  14
ATOM     14  N   UNL A   1      31.281  23.814  22.862  1.00  0.00    -0.340 N 
ATOM     15  H   UNL A   1      30.669  23.358  22.239  1.00  0.00     0.168 HD
BRANCH  14  16
ATOM     16  C   UNL A   1      32.297  23.028  23.447  1.00  0.00     0.134 A 
ATOM     17  C   UNL A   1      32.977  20.996  24.436  1.00  0.00     0.046 A 
ATOM     18  C   UNL A   1      31.974  21.749  23.857  1.00  0.00     0.071 A 
ATOM     19  N   UNL A   1      34.223  21.472  24.606  1.00  0.00    -0.238 NA
ATOM     20  C   UNL A   1      34.464  22.722  24.167  1.00  0.00     0.133 A 
ATOM     21  N   UNL A   1      33.546  23.510  23.579  1.00  0.00    -0.216 NA
BRANCH  17  22
ATOM     22  C   UNL A   1      32.696  19.604  24.938  1.00  0.00     0.053 C 
ATOM     23  C   UNL A   1      33.346  18.544  24.061  1.00  0.00     0.011 C 
ENDBRANCH  17  22
BRANCH  20  24
ATOM     24  C   UNL A   1      35.849  23.297  24.377  1.00  0.00     0.051 C 
ATOM     25  C   UNL A   1      36.396  22.909  25.752  1.00  0.00     0.016 C 
ATOM     26  C   UNL A   1      36.805  22.859  23.268  1.00  0.00     0.016 C 
ENDBRANCH  20  24
ENDBRANCH  14  16
ENDBRANCH   9  14
ENDBRANCH   5   8
ENDBRANCH   3   4
ENDBRANCH   2   3
ENDBRANCH   1   2
BRANCH   1  27
ATOM     27  C   UNL A   1      34.676  31.196  27.837  1.00  0.00     0.002 C 
BRANCH  27  28
ATOM     28  C   UNL A   1      33.442  32.102  27.876  1.00  0.00     0.021 C 
BRANCH  28  29
ATOM     29  C   UNL A   1      33.747  33.580  27.649  1.00  0.00     0.116 C 
BRANCH  29  30
ATOM     30  N   UNL A   1      33.270  34.402  28.750  1.00  0.00    -0.352 N 
ATOM     31  C   UNL A   1      33.696  34.440  30.055  1.00  0.00     0.251 C 
ATOM     32  H   UNL A   1      32.537  35.020  28.529  1.00  0.00     0.163 HD
ATOM     33  O   UNL A   1      33.034  35.018  30.908  1.00  0.00    -0.269 OA
BRANCH  31  34
ATOM     34  C   UNL A   1      34.957  33.766  30.431  1.00  0.00     0.039 A 
ATOM     35  C   UNL A   1      34.922  32.751  31.390  1.00  0.00     0.014 A 
ATOM     36  C   UNL A   1      36.168  34.142  29.843  1.00  0.00     0.014 A 
ATOM     37  C   UNL A   1      36.095  32.068  31.713  1.00  0.00     0.010 A 
ATOM     38  C   UNL A   1      37.323  33.415  30.116  1.00  0.00     0.010 A 
ATOM     39  C   UNL A   1      37.298  32.371  31.052  1.00  0.00    -0.014 A 
BRANCH  39  40
ATOM     40  C   UNL A   1      38.534  31.592  31.313  1.00  0.00     0.031 A 
ATOM     41  C   UNL A   1      39.518  32.054  32.352  1.00  0.00     0.074 A 
ATOM     42  C   UNL A   1      38.801  30.505  30.564  1.00  0.00     0.049 A 
ATOM     43  N   UNL A   1      40.676  31.536  32.676  1.00  0.00    -0.248 NA
ATOM     44  C   UNL A   1      39.167  33.266  33.108  1.00  0.00     0.031 C 
ATOM     45  C   UNL A   1      37.945  29.977  29.500  1.00  0.00     0.029 A 
ATOM     46  N   UNL A   1      39.874  29.650  30.581  1.00  0.00    -0.354 N 
ATOM     47  C   UNL A   1      41.196  32.366  33.662  1.00  0.00     0.074 A 
ATOM     48  C   UNL A   1      40.251  33.446  33.849  1.00  0.00     0.031 C 
ATOM     49  C   UNL A   1      38.514  28.876  28.984  1.00  0.00     0.029 A 
ATOM     50  C   UNL A   1      39.791  28.645  29.648  1.00  0.00     0.049 A 
ATOM     51  H   UNL A   1      40.632  29.748  31.202  1.00  0.00     0.167 HD
ATOM     52  C   UNL A   1      42.348  32.231  34.362  1.00  0.00     0.031 A 
ATOM     53  C   UNL A   1      40.652  27.653  29.354  1.00  0.00     0.031 A 
ATOM     54  C   UNL A   1      43.286  31.155  34.179  1.00  0.00     0.049 A 
ATOM     55  C   UNL A   1      41.936  27.542  30.127  1.00  0.00     0.074 A 
ATOM     56  C   UNL A   1      44.452  30.900  34.878  1.00  0.00     0.029 A 
ATOM     57  N   UNL A   1      43.165  30.158  33.222  1.00  0.00    -0.354 N 
ATOM     58  N   UNL A   1      42.379  28.293  31.106  1.00  0.00    -0.248 NA
ATOM     59  C   UNL A   1      42.836  26.440  29.759  1.00  0.00     0.031 C 
ATOM     60  C   UNL A   1      45.067  29.781  34.308  1.00  0.00     0.029 A 
ATOM     61  C   UNL A   1      44.253  29.304  33.294  1.00  0.00     0.049 A 
ATOM     62  H   UNL A   1      42.418  30.070  32.588  1.00  0.00     0.167 HD
ATOM     63  C   UNL A   1      43.594  27.741  31.487  1.00  0.00     0.074 A 
ATOM     64  C   UNL A   1      43.809  26.580  30.646  1.00  0.00     0.031 C 
ATOM     65  C   UNL A   1      44.456  28.157  32.446  1.00  0.00     0.031 A 
BRANCH  52  66
ATOM     66  C   UNL A   1      42.663  33.285  35.387  1.00  0.00    -0.014 A 
ATOM     67  C   UNL A   1      42.259  33.144  36.724  1.00  0.00     0.009 A 
ATOM     68  C   UNL A   1      43.413  34.414  35.021  1.00  0.00     0.009 A 
ATOM     69  C   UNL A   1      42.567  34.129  37.665  1.00  0.00     0.001 A 
ATOM     70  C   UNL A   1      43.744  35.383  35.970  1.00  0.00     0.001 A 
ATOM     71  C   UNL A   1      43.313  35.245  37.288  1.00  0.00     0.000 A 
ENDBRANCH  52  66
BRANCH  53  72
ATOM     72  C   UNL A   1      40.328  26.680  28.279  1.00  0.00    -0.014 A 
ATOM     73  C   UNL A   1      39.474  25.596  28.533  1.00  0.00     0.009 A 
ATOM     74  C   UNL A   1      40.876  26.823  26.994  1.00  0.00     0.009 A 
ATOM     75  C   UNL A   1      39.199  24.660  27.533  1.00  0.00     0.001 A 
ATOM     76  C   UNL A   1      40.575  25.904  25.988  1.00  0.00     0.001 A 
ATOM     77  C   UNL A   1      39.745  24.818  26.260  1.00  0.00     0.000 A 
ENDBRANCH  53  72
BRANCH  65  78
ATOM     78  C   UNL A   1      45.697  27.337  32.657  1.00  0.00    -0.014 A 
ATOM     79  C   UNL A   1      45.713  26.256  33.552  1.00  0.00     0.009 A 
ATOM     80  C   UNL A   1      46.856  27.628  31.920  1.00  0.00     0.009 A 
ATOM     81  C   UNL A   1      46.877  25.504  33.729  1.00  0.00     0.001 A 
ATOM     82  C   UNL A   1      48.007  26.855  32.077  1.00  0.00     0.001 A 
ATOM     83  C   UNL A   1      48.020  25.800  32.987  1.00  0.00     0.000 A 
ENDBRANCH  65  78
ENDBRANCH  39  40
ENDBRANCH  31  34
ENDBRANCH  29  30
ENDBRANCH  28  29
ENDBRANCH  27  28
ENDBRANCH   1  27
TORSDOF 17
ENDMDL
