MODEL 1
REMARK VINA RESULT:     -11.7      0.000      0.000
REMARK SMILES Cc1[nH]c2c(C(=O)N3CC[C@H](O)C[C@@H]3C(=O)NCCCCCCNC(=O)c3ccc(-c4c5nc(c(-c6ccccc6)c6ccc([nH]6)c(-c6ccccc6)c6nc(c(-c7ccccc7)c7ccc4[nH]7)C=C6)C=C5)cc3)cccc2c1C
REMARK SMILES IDX 20 1 19 2 18 3 17 4 15 5 16 6 14 8 8 9 9 10 10 11 13 12
REMARK SMILES IDX 11 13 6 14 7 15 5 16 1 17 2 18 3 19 79 20 4 21 78 23 80 24
REMARK SMILES IDX 77 25 75 26 76 27 12 28 21 30 22 31 23 32 24 33 25 34 26 36
REMARK SMILES IDX 27 37 28 38 74 39 29 40 73 41 30 42 31 43 32 44 67 45 33 46
REMARK SMILES IDX 72 47 66 48 68 49 34 50 71 51 65 52 64 53 35 55 57 56 42 57
REMARK SMILES IDX 56 58 43 59 46 60 55 61 69 62 44 63 45 64 54 66 70 67 47 68
REMARK SMILES IDX 36 69 37 70 41 71 38 72 40 73 39 74 58 75 59 76 63 77 60 78
REMARK SMILES IDX 62 79 61 80 48 81 49 82 53 83 50 84 52 85 51 86
REMARK H PARENT 17 7 3 22 12 29 24 35 68 54 46 65
REMARK Flexibility Score: inf
ROOT
ATOM      1  C   UNL A   1      32.751  30.153  26.375  1.00  0.00     0.002 C 
ENDROOT
BRANCH   1   2
ATOM      2  C   UNL A   1      32.703  28.900  27.243  1.00  0.00     0.021 C 
BRANCH   2   3
ATOM      3  C   UNL A   1      32.852  27.581  26.492  1.00  0.00     0.116 C 
BRANCH   3   4
ATOM      4  N   UNL A   1      31.871  26.583  26.845  1.00  0.00    -0.354 N 
ATOM      5  C   UNL A   1      31.743  25.283  26.461  1.00  0.00     0.242 C 
ATOM      6  O   UNL A   1      30.668  24.749  26.766  1.00  0.00    -0.273 OA
ATOM      7  H   UNL A   1      31.177  26.896  27.470  1.00  0.00     0.163 HD
BRANCH   5   8
ATOM      8  C   UNL A   1      32.764  24.498  25.580  1.00  0.00     0.177 C 
ATOM      9  N   UNL A   1      32.342  23.965  24.276  1.00  0.00    -0.326 N 
ATOM     10  C   UNL A   1      31.955  22.561  24.137  1.00  0.00     0.123 C 
ATOM     11  C   UNL A   1      32.364  21.589  25.263  1.00  0.00     0.053 C 
ATOM     12  C   UNL A   1      33.606  23.505  26.371  1.00  0.00     0.067 C 
ATOM     13  C   UNL A   1      32.900  22.182  26.568  1.00  0.00     0.118 C 
BRANCH   9  14
ATOM     14  C   UNL A   1      32.902  24.571  23.143  1.00  0.00     0.256 C 
ATOM     15  O   UNL A   1      33.528  23.931  22.302  1.00  0.00    -0.269 OA
BRANCH  14  16
ATOM     16  C   UNL A   1      32.746  26.038  22.979  1.00  0.00     0.064 A 
ATOM     17  C   UNL A   1      27.910  26.975  23.790  1.00  0.00     0.064 C 
ATOM     18  C   UNL A   1      29.337  27.223  23.471  1.00  0.00     0.016 A 
ATOM     19  N   UNL A   1      30.256  26.207  23.401  1.00  0.00    -0.358 N 
ATOM     20  C   UNL A   1      30.004  28.410  23.231  1.00  0.00    -0.023 A 
ATOM     21  C   UNL A   1      31.509  26.693  23.117  1.00  0.00     0.059 A 
ATOM     22  H   UNL A   1      30.045  25.255  23.536  1.00  0.00     0.166 HD
ATOM     23  C   UNL A   1      31.387  28.084  23.060  1.00  0.00     0.003 A 
ATOM     24  C   UNL A   1      29.405  29.772  23.214  1.00  0.00     0.047 C 
ATOM     25  C   UNL A   1      32.552  28.859  22.885  1.00  0.00     0.010 A 
ATOM     26  C   UNL A   1      33.891  26.838  22.838  1.00  0.00     0.016 A 
ATOM     27  C   UNL A   1      33.796  28.228  22.790  1.00  0.00     0.002 A 
ENDBRANCH  14  16
ENDBRANCH   9  14
BRANCH  13  28
ATOM     28  O   UNL A   1      31.847  22.307  27.519  1.00  0.00    -0.393 OA
ATOM     29  H   UNL A   1      31.213  21.583  27.397  1.00  0.00     0.210 HD
ENDBRANCH  13  28
ENDBRANCH   5   8
ENDBRANCH   3   4
ENDBRANCH   2   3
ENDBRANCH   1   2
BRANCH   1  30
ATOM     30  C   UNL A   1      31.411  30.860  26.172  1.00  0.00     0.002 C 
BRANCH  30  31
ATOM     31  C   UNL A   1      31.371  32.347  26.523  1.00  0.00     0.021 C 
BRANCH  31  32
ATOM     32  C   UNL A   1      32.596  32.846  27.274  1.00  0.00     0.116 C 
BRANCH  32  33
ATOM     33  N   UNL A   1      32.443  34.229  27.699  1.00  0.00    -0.352 N 
ATOM     34  C   UNL A   1      33.088  34.908  28.696  1.00  0.00     0.251 C 
ATOM     35  H   UNL A   1      31.777  34.752  27.196  1.00  0.00     0.163 HD
ATOM     36  O   UNL A   1      32.668  35.998  29.082  1.00  0.00    -0.269 OA
BRANCH  34  37
ATOM     37  C   UNL A   1      34.289  34.318  29.314  1.00  0.00     0.039 A 
ATOM     38  C   UNL A   1      34.158  33.576  30.488  1.00  0.00     0.014 A 
ATOM     39  C   UNL A   1      35.542  34.495  28.720  1.00  0.00     0.014 A 
ATOM     40  C   UNL A   1      35.280  32.954  31.036  1.00  0.00     0.010 A 
ATOM     41  C   UNL A   1      36.640  33.804  29.216  1.00  0.00     0.010 A 
ATOM     42  C   UNL A   1      36.520  33.034  30.382  1.00  0.00    -0.014 A 
BRANCH  42  43
ATOM     43  C   UNL A   1      37.712  32.317  30.896  1.00  0.00     0.031 A 
ATOM     44  C   UNL A   1      38.481  32.879  32.059  1.00  0.00     0.074 A 
ATOM     45  C   UNL A   1      38.144  31.209  30.264  1.00  0.00     0.049 A 
ATOM     46  N   UNL A   1      39.595  32.450  32.595  1.00  0.00    -0.248 NA
ATOM     47  C   UNL A   1      37.944  34.100  32.684  1.00  0.00     0.031 C 
ATOM     48  C   UNL A   1      37.504  30.591  29.100  1.00  0.00     0.029 A 
ATOM     49  N   UNL A   1      39.233  30.411  30.507  1.00  0.00    -0.354 N 
ATOM     50  C   UNL A   1      39.902  33.358  33.600  1.00  0.00     0.074 A 
ATOM     51  C   UNL A   1      38.887  34.388  33.568  1.00  0.00     0.031 C 
ATOM     52  C   UNL A   1      38.200  29.499  28.744  1.00  0.00     0.029 A 
ATOM     53  C   UNL A   1      39.358  29.368  29.621  1.00  0.00     0.049 A 
ATOM     54  H   UNL A   1      39.865  30.570  31.244  1.00  0.00     0.167 HD
ATOM     55  C   UNL A   1      40.929  33.329  34.481  1.00  0.00     0.031 A 
ATOM     56  C   UNL A   1      40.309  28.420  29.517  1.00  0.00     0.031 A 
ATOM     57  C   UNL A   1      41.930  32.297  34.515  1.00  0.00     0.049 A 
ATOM     58  C   UNL A   1      41.451  28.423  30.496  1.00  0.00     0.074 A 
ATOM     59  C   UNL A   1      42.973  32.139  35.410  1.00  0.00     0.029 A 
ATOM     60  N   UNL A   1      42.017  31.252  33.607  1.00  0.00    -0.354 N 
ATOM     61  N   UNL A   1      41.684  29.243  31.492  1.00  0.00    -0.248 NA
ATOM     62  C   UNL A   1      42.457  27.363  30.340  1.00  0.00     0.031 C 
ATOM     63  C   UNL A   1      43.730  31.036  35.004  1.00  0.00     0.029 A 
ATOM     64  C   UNL A   1      43.118  30.466  33.899  1.00  0.00     0.049 A 
ATOM     65  H   UNL A   1      41.388  31.093  32.866  1.00  0.00     0.167 HD
ATOM     66  C   UNL A   1      42.846  28.784  32.098  1.00  0.00     0.074 A 
ATOM     67  C   UNL A   1      43.258  27.602  31.369  1.00  0.00     0.031 C 
ATOM     68  C   UNL A   1      43.513  29.294  33.160  1.00  0.00     0.031 A 
BRANCH  55  69
ATOM     69  C   UNL A   1      41.029  34.455  35.473  1.00  0.00    -0.014 A 
ATOM     70  C   UNL A   1      41.834  35.579  35.226  1.00  0.00     0.009 A 
ATOM     71  C   UNL A   1      40.275  34.408  36.657  1.00  0.00     0.009 A 
ATOM     72  C   UNL A   1      41.908  36.616  36.161  1.00  0.00     0.001 A 
ATOM     73  C   UNL A   1      40.326  35.460  37.572  1.00  0.00     0.001 A 
ATOM     74  C   UNL A   1      41.149  36.558  37.328  1.00  0.00     0.000 A 
ENDBRANCH  55  69
BRANCH  56  75
ATOM     75  C   UNL A   1      40.230  27.394  28.444  1.00  0.00    -0.014 A 
ATOM     76  C   UNL A   1      39.542  26.190  28.656  1.00  0.00     0.009 A 
ATOM     77  C   UNL A   1      40.852  27.608  27.204  1.00  0.00     0.009 A 
ATOM     78  C   UNL A   1      39.508  25.207  27.662  1.00  0.00     0.001 A 
ATOM     79  C   UNL A   1      40.788  26.640  26.200  1.00  0.00     0.001 A 
ATOM     80  C   UNL A   1      40.127  25.436  26.435  1.00  0.00     0.000 A 
ENDBRANCH  56  75
BRANCH  68  81
ATOM     81  C   UNL A   1      44.741  28.559  33.621  1.00  0.00    -0.014 A 
ATOM     82  C   UNL A   1      44.659  27.506  34.546  1.00  0.00     0.009 A 
ATOM     83  C   UNL A   1      45.993  28.894  33.080  1.00  0.00     0.009 A 
ATOM     84  C   UNL A   1      45.811  26.827  34.945  1.00  0.00     0.001 A 
ATOM     85  C   UNL A   1      47.137  28.190  33.456  1.00  0.00     0.001 A 
ATOM     86  C   UNL A   1      47.048  27.164  34.395  1.00  0.00     0.000 A 
ENDBRANCH  68  81
ENDBRANCH  42  43
ENDBRANCH  34  37
ENDBRANCH  32  33
ENDBRANCH  31  32
ENDBRANCH  30  31
ENDBRANCH   1  30
TORSDOF 16
ENDMDL
MODEL 2
REMARK VINA RESULT:     -11.6      0.972      5.856
REMARK SMILES Cc1[nH]c2c(C(=O)N3CC[C@H](O)C[C@@H]3C(=O)NCCCCCCNC(=O)c3ccc(-c4c5nc(c(-c6ccccc6)c6ccc([nH]6)c(-c6ccccc6)c6nc(c(-c7ccccc7)c7ccc4[nH]7)C=C6)C=C5)cc3)cccc2c1C
REMARK SMILES IDX 20 1 19 2 18 3 17 4 15 5 16 6 14 8 8 9 9 10 10 11 13 12
REMARK SMILES IDX 11 13 6 14 7 15 5 16 1 17 2 18 3 19 79 20 4 21 78 23 80 24
REMARK SMILES IDX 77 25 75 26 76 27 12 28 21 30 22 31 23 32 24 33 25 34 26 36
REMARK SMILES IDX 27 37 28 38 74 39 29 40 73 41 30 42 31 43 32 44 67 45 33 46
REMARK SMILES IDX 72 47 66 48 68 49 34 50 71 51 65 52 64 53 35 55 57 56 42 57
REMARK SMILES IDX 56 58 43 59 46 60 55 61 69 62 44 63 45 64 54 66 70 67 47 68
REMARK SMILES IDX 36 69 37 70 41 71 38 72 40 73 39 74 58 75 59 76 63 77 60 78
REMARK SMILES IDX 62 79 61 80 48 81 49 82 53 83 50 84 52 85 51 86
REMARK H PARENT 17 7 3 22 12 29 24 35 68 54 46 65
REMARK Flexibility Score: inf
ROOT
ATOM      1  C   UNL A   1      32.028  29.989  26.852  1.00  0.00     0.002 C 
ENDROOT
BRANCH   1   2
ATOM      2  C   UNL A   1      32.680  28.849  26.076  1.00  0.00     0.021 C 
BRANCH   2   3
ATOM      3  C   UNL A   1      32.926  27.574  26.877  1.00  0.00     0.116 C 
BRANCH   3   4
ATOM      4  N   UNL A   1      31.782  26.700  26.968  1.00  0.00    -0.354 N 
ATOM      5  C   UNL A   1      31.542  25.483  26.406  1.00  0.00     0.242 C 
ATOM      6  O   UNL A   1      30.373  25.084  26.497  1.00  0.00    -0.273 OA
ATOM      7  H   UNL A   1      31.050  27.042  27.531  1.00  0.00     0.163 HD
BRANCH   5   8
ATOM      8  C   UNL A   1      32.570  24.656  25.573  1.00  0.00     0.177 C 
ATOM      9  N   UNL A   1      32.154  24.049  24.299  1.00  0.00    -0.326 N 
ATOM     10  C   UNL A   1      31.775  22.638  24.237  1.00  0.00     0.123 C 
ATOM     11  C   UNL A   1      32.184  21.732  25.416  1.00  0.00     0.053 C 
ATOM     12  C   UNL A   1      33.414  23.713  26.420  1.00  0.00     0.067 C 
ATOM     13  C   UNL A   1      32.714  22.399  26.688  1.00  0.00     0.118 C 
BRANCH   9  14
ATOM     14  C   UNL A   1      32.715  24.595  23.136  1.00  0.00     0.256 C 
ATOM     15  O   UNL A   1      33.353  23.914  22.338  1.00  0.00    -0.269 OA
BRANCH  14  16
ATOM     16  C   UNL A   1      32.542  26.047  22.885  1.00  0.00     0.064 A 
ATOM     17  C   UNL A   1      27.747  27.023  23.876  1.00  0.00     0.064 C 
ATOM     18  C   UNL A   1      29.155  27.253  23.470  1.00  0.00     0.016 A 
ATOM     19  N   UNL A   1      30.075  26.237  23.420  1.00  0.00    -0.358 N 
ATOM     20  C   UNL A   1      29.802  28.424  23.120  1.00  0.00    -0.023 A 
ATOM     21  C   UNL A   1      31.309  26.707  23.043  1.00  0.00     0.059 A 
ATOM     22  H   UNL A   1      29.876  25.296  23.627  1.00  0.00     0.166 HD
ATOM     23  C   UNL A   1      31.177  28.091  22.901  1.00  0.00     0.003 A 
ATOM     24  C   UNL A   1      29.195  29.781  23.044  1.00  0.00     0.047 C 
ATOM     25  C   UNL A   1      32.327  28.856  22.618  1.00  0.00     0.010 A 
ATOM     26  C   UNL A   1      33.673  26.840  22.635  1.00  0.00     0.016 A 
ATOM     27  C   UNL A   1      33.569  28.223  22.502  1.00  0.00     0.002 A 
ENDBRANCH  14  16
ENDBRANCH   9  14
BRANCH  13  28
ATOM     28  O   UNL A   1      31.657  22.571  27.627  1.00  0.00    -0.393 OA
ATOM     29  H   UNL A   1      31.792  21.972  28.379  1.00  0.00     0.210 HD
ENDBRANCH  13  28
ENDBRANCH   5   8
ENDBRANCH   3   4
ENDBRANCH   2   3
ENDBRANCH   1   2
BRANCH   1  30
ATOM     30  C   UNL A   1      31.205  30.966  26.012  1.00  0.00     0.002 C 
BRANCH  30  31
ATOM     31  C   UNL A   1      31.216  32.425  26.467  1.00  0.00     0.021 C 
BRANCH  31  32
ATOM     32  C   UNL A   1      32.520  32.870  27.112  1.00  0.00     0.116 C 
BRANCH  32  33
ATOM     33  N   UNL A   1      32.432  34.227  27.627  1.00  0.00    -0.352 N 
ATOM     34  C   UNL A   1      33.102  34.806  28.671  1.00  0.00     0.251 C 
ATOM     35  H   UNL A   1      31.798  34.815  27.157  1.00  0.00     0.163 HD
ATOM     36  O   UNL A   1      32.732  35.887  29.126  1.00  0.00    -0.269 OA
BRANCH  34  37
ATOM     37  C   UNL A   1      34.266  34.117  29.255  1.00  0.00     0.039 A 
ATOM     38  C   UNL A   1      35.545  34.423  28.789  1.00  0.00     0.014 A 
ATOM     39  C   UNL A   1      34.086  33.175  30.272  1.00  0.00     0.014 A 
ATOM     40  C   UNL A   1      36.654  33.828  29.389  1.00  0.00     0.010 A 
ATOM     41  C   UNL A   1      35.193  32.652  30.926  1.00  0.00     0.010 A 
ATOM     42  C   UNL A   1      36.487  32.967  30.486  1.00  0.00    -0.014 A 
BRANCH  42  43
ATOM     43  C   UNL A   1      37.650  32.384  31.196  1.00  0.00     0.031 A 
ATOM     44  C   UNL A   1      38.358  31.189  30.620  1.00  0.00     0.074 A 
ATOM     45  C   UNL A   1      38.015  32.881  32.393  1.00  0.00     0.049 A 
ATOM     46  N   UNL A   1      39.334  30.484  31.132  1.00  0.00    -0.248 NA
ATOM     47  C   UNL A   1      37.888  30.705  29.311  1.00  0.00     0.031 C 
ATOM     48  C   UNL A   1      37.379  34.012  33.073  1.00  0.00     0.029 A 
ATOM     49  N   UNL A   1      39.004  32.488  33.259  1.00  0.00    -0.354 N 
ATOM     50  C   UNL A   1      39.577  29.463  30.221  1.00  0.00     0.074 A 
ATOM     51  C   UNL A   1      38.615  29.610  29.151  1.00  0.00     0.031 C 
ATOM     52  C   UNL A   1      38.008  34.236  34.238  1.00  0.00     0.029 A 
ATOM     53  C   UNL A   1      39.056  33.236  34.410  1.00  0.00     0.049 A 
ATOM     54  H   UNL A   1      39.618  31.742  33.073  1.00  0.00     0.167 HD
ATOM     55  C   UNL A   1      40.526  28.499  30.264  1.00  0.00     0.031 A 
ATOM     56  C   UNL A   1      39.850  33.119  35.492  1.00  0.00     0.031 A 
ATOM     57  C   UNL A   1      41.486  28.365  31.326  1.00  0.00     0.049 A 
ATOM     58  C   UNL A   1      40.882  32.026  35.524  1.00  0.00     0.074 A 
ATOM     59  C   UNL A   1      42.531  27.464  31.432  1.00  0.00     0.029 A 
ATOM     60  N   UNL A   1      41.513  29.148  32.470  1.00  0.00    -0.354 N 
ATOM     61  N   UNL A   1      41.152  31.118  34.618  1.00  0.00    -0.248 NA
ATOM     62  C   UNL A   1      41.725  31.948  36.726  1.00  0.00     0.031 C 
ATOM     63  C   UNL A   1      43.149  27.659  32.671  1.00  0.00     0.029 A 
ATOM     64  C   UNL A   1      42.534  28.727  33.305  1.00  0.00     0.049 A 
ATOM     65  H   UNL A   1      40.897  29.892  32.661  1.00  0.00     0.167 HD
ATOM     66  C   UNL A   1      42.213  30.378  35.126  1.00  0.00     0.074 A 
ATOM     67  C   UNL A   1      42.548  30.957  36.411  1.00  0.00     0.031 C 
ATOM     68  C   UNL A   1      42.850  29.314  34.581  1.00  0.00     0.031 A 
BRANCH  55  69
ATOM     69  C   UNL A   1      40.563  27.505  29.136  1.00  0.00    -0.014 A 
ATOM     70  C   UNL A   1      39.727  26.377  29.126  1.00  0.00     0.009 A 
ATOM     71  C   UNL A   1      41.422  27.723  28.046  1.00  0.00     0.009 A 
ATOM     72  C   UNL A   1      39.775  25.470  28.065  1.00  0.00     0.001 A 
ATOM     73  C   UNL A   1      41.443  26.832  26.972  1.00  0.00     0.001 A 
ATOM     74  C   UNL A   1      40.628  25.702  26.987  1.00  0.00     0.000 A 
ENDBRANCH  55  69
BRANCH  56  75
ATOM     75  C   UNL A   1      39.697  34.055  36.637  1.00  0.00    -0.014 A 
ATOM     76  C   UNL A   1      40.328  35.308  36.625  1.00  0.00     0.009 A 
ATOM     77  C   UNL A   1      38.929  33.695  37.756  1.00  0.00     0.009 A 
ATOM     78  C   UNL A   1      40.221  36.167  37.723  1.00  0.00     0.001 A 
ATOM     79  C   UNL A   1      38.795  34.569  38.837  1.00  0.00     0.001 A 
ATOM     80  C   UNL A   1      39.451  35.798  38.825  1.00  0.00     0.000 A 
ENDBRANCH  56  75
BRANCH  68  81
ATOM     81  C   UNL A   1      43.997  28.728  35.356  1.00  0.00    -0.014 A 
ATOM     82  C   UNL A   1      45.308  29.205  35.195  1.00  0.00     0.009 A 
ATOM     83  C   UNL A   1      43.752  27.716  36.298  1.00  0.00     0.009 A 
ATOM     84  C   UNL A   1      46.354  28.655  35.938  1.00  0.00     0.001 A 
ATOM     85  C   UNL A   1      44.794  27.193  37.063  1.00  0.00     0.001 A 
ATOM     86  C   UNL A   1      46.096  27.656  36.877  1.00  0.00     0.000 A 
ENDBRANCH  68  81
ENDBRANCH  42  43
ENDBRANCH  34  37
ENDBRANCH  32  33
ENDBRANCH  31  32
ENDBRANCH  30  31
ENDBRANCH   1  30
TORSDOF 16
ENDMDL
MODEL 3
REMARK VINA RESULT:     -11.3      4.066      9.160
REMARK SMILES Cc1[nH]c2c(C(=O)N3CC[C@H](O)C[C@@H]3C(=O)NCCCCCCNC(=O)c3ccc(-c4c5nc(c(-c6ccccc6)c6ccc([nH]6)c(-c6ccccc6)c6nc(c(-c7ccccc7)c7ccc4[nH]7)C=C6)C=C5)cc3)cccc2c1C
REMARK SMILES IDX 20 1 19 2 18 3 17 4 15 5 16 6 14 8 8 9 9 10 10 11 13 12
REMARK SMILES IDX 11 13 6 14 7 15 5 16 1 17 2 18 3 19 79 20 4 21 78 23 80 24
REMARK SMILES IDX 77 25 75 26 76 27 12 28 21 30 22 31 23 32 24 33 25 34 26 36
REMARK SMILES IDX 27 37 28 38 74 39 29 40 73 41 30 42 31 43 32 44 67 45 33 46
REMARK SMILES IDX 72 47 66 48 68 49 34 50 71 51 65 52 64 53 35 55 57 56 42 57
REMARK SMILES IDX 56 58 43 59 46 60 55 61 69 62 44 63 45 64 54 66 70 67 47 68
REMARK SMILES IDX 36 69 37 70 41 71 38 72 40 73 39 74 58 75 59 76 63 77 60 78
REMARK SMILES IDX 62 79 61 80 48 81 49 82 53 83 50 84 52 85 51 86
REMARK H PARENT 17 7 3 22 12 29 24 35 68 54 46 65
REMARK Flexibility Score: inf
ROOT
ATOM      1  C   UNL A   1      37.316  22.212  25.080  1.00  0.00     0.002 C 
ENDROOT
BRANCH   1   2
ATOM      2  C   UNL A   1      36.671  22.964  23.921  1.00  0.00     0.021 C 
BRANCH   2   3
ATOM      3  C   UNL A   1      35.437  23.783  24.283  1.00  0.00     0.116 C 
BRANCH   3   4
ATOM      4  N   UNL A   1      34.539  24.023  23.179  1.00  0.00    -0.354 N 
ATOM      5  C   UNL A   1      33.300  24.586  23.143  1.00  0.00     0.242 C 
ATOM      6  O   UNL A   1      32.692  24.450  22.072  1.00  0.00    -0.273 OA
ATOM      7  H   UNL A   1      34.879  23.727  22.303  1.00  0.00     0.163 HD
BRANCH   5   8
ATOM      8  C   UNL A   1      32.574  25.247  24.355  1.00  0.00     0.177 C 
ATOM      9  N   UNL A   1      31.211  24.821  24.709  1.00  0.00    -0.326 N 
ATOM     10  C   UNL A   1      30.053  25.601  24.274  1.00  0.00     0.123 C 
ATOM     11  C   UNL A   1      30.299  27.045  23.790  1.00  0.00     0.053 C 
ATOM     12  C   UNL A   1      32.744  26.760  24.410  1.00  0.00     0.067 C 
ATOM     13  C   UNL A   1      31.743  27.483  23.535  1.00  0.00     0.118 C 
BRANCH   9  14
ATOM     14  C   UNL A   1      31.071  24.115  25.912  1.00  0.00     0.256 C 
ATOM     15  O   UNL A   1      30.147  24.331  26.691  1.00  0.00    -0.269 OA
BRANCH  14  16
ATOM     16  C   UNL A   1      32.091  23.093  26.251  1.00  0.00     0.064 A 
ATOM     17  C   UNL A   1      32.069  19.855  22.452  1.00  0.00     0.064 C 
ATOM     18  C   UNL A   1      32.443  20.470  23.748  1.00  0.00     0.016 A 
ATOM     19  N   UNL A   1      31.836  21.607  24.218  1.00  0.00    -0.358 N 
ATOM     20  C   UNL A   1      33.408  20.099  24.666  1.00  0.00    -0.023 A 
ATOM     21  C   UNL A   1      32.373  21.992  25.422  1.00  0.00     0.059 A 
ATOM     22  H   UNL A   1      31.111  22.084  23.753  1.00  0.00     0.166 HD
ATOM     23  C   UNL A   1      33.403  21.089  25.700  1.00  0.00     0.003 A 
ATOM     24  C   UNL A   1      34.318  18.926  24.566  1.00  0.00     0.047 C 
ATOM     25  C   UNL A   1      34.206  21.307  26.838  1.00  0.00     0.010 A 
ATOM     26  C   UNL A   1      32.929  23.301  27.359  1.00  0.00     0.016 A 
ATOM     27  C   UNL A   1      33.970  22.421  27.650  1.00  0.00     0.002 A 
ENDBRANCH  14  16
ENDBRANCH   9  14
BRANCH  13  28
ATOM     28  O   UNL A   1      32.068  27.325  22.158  1.00  0.00    -0.393 OA
ATOM     29  H   UNL A   1      31.338  26.877  21.702  1.00  0.00     0.210 HD
ENDBRANCH  13  28
ENDBRANCH   5   8
ENDBRANCH   3   4
ENDBRANCH   2   3
ENDBRANCH   1   2
BRANCH   1  30
ATOM     30  C   UNL A   1      37.337  20.689  24.942  1.00  0.00     0.002 C 
BRANCH  30  31
ATOM     31  C   UNL A   1      38.714  20.041  24.807  1.00  0.00     0.021 C 
BRANCH  31  32
ATOM     32  C   UNL A   1      39.376  19.697  26.133  1.00  0.00     0.116 C 
BRANCH  32  33
ATOM     33  N   UNL A   1      40.643  19.008  25.941  1.00  0.00    -0.352 N 
ATOM     34  C   UNL A   1      41.916  19.511  25.954  1.00  0.00     0.251 C 
ATOM     35  H   UNL A   1      40.575  18.040  25.778  1.00  0.00     0.163 HD
ATOM     36  O   UNL A   1      42.856  18.838  25.534  1.00  0.00    -0.269 OA
BRANCH  34  37
ATOM     37  C   UNL A   1      42.151  20.872  26.466  1.00  0.00     0.039 A 
ATOM     38  C   UNL A   1      42.164  21.091  27.843  1.00  0.00     0.014 A 
ATOM     39  C   UNL A   1      42.370  21.927  25.576  1.00  0.00     0.014 A 
ATOM     40  C   UNL A   1      42.460  22.363  28.333  1.00  0.00     0.010 A 
ATOM     41  C   UNL A   1      42.750  23.170  26.065  1.00  0.00     0.010 A 
ATOM     42  C   UNL A   1      42.792  23.401  27.448  1.00  0.00    -0.014 A 
BRANCH  42  43
ATOM     43  C   UNL A   1      43.190  24.741  27.941  1.00  0.00     0.031 A 
ATOM     44  C   UNL A   1      42.139  25.780  28.220  1.00  0.00     0.074 A 
ATOM     45  C   UNL A   1      44.496  25.044  28.060  1.00  0.00     0.049 A 
ATOM     46  N   UNL A   1      42.289  27.031  28.570  1.00  0.00    -0.248 NA
ATOM     47  C   UNL A   1      40.735  25.366  28.055  1.00  0.00     0.031 C 
ATOM     48  C   UNL A   1      45.608  24.133  27.780  1.00  0.00     0.029 A 
ATOM     49  N   UNL A   1      45.111  26.212  28.436  1.00  0.00    -0.354 N 
ATOM     50  C   UNL A   1      41.006  27.558  28.644  1.00  0.00     0.074 A 
ATOM     51  C   UNL A   1      40.092  26.507  28.254  1.00  0.00     0.031 C 
ATOM     52  C   UNL A   1      46.767  24.768  28.016  1.00  0.00     0.029 A 
ATOM     53  C   UNL A   1      46.483  26.142  28.414  1.00  0.00     0.049 A 
ATOM     54  H   UNL A   1      44.617  27.022  28.697  1.00  0.00     0.167 HD
ATOM     55  C   UNL A   1      40.622  28.801  29.018  1.00  0.00     0.031 A 
ATOM     56  C   UNL A   1      47.409  27.085  28.671  1.00  0.00     0.031 A 
ATOM     57  C   UNL A   1      41.535  29.838  29.414  1.00  0.00     0.049 A 
ATOM     58  C   UNL A   1      46.955  28.464  29.064  1.00  0.00     0.074 A 
ATOM     59  C   UNL A   1      41.245  31.110  29.875  1.00  0.00     0.029 A 
ATOM     60  N   UNL A   1      42.917  29.726  29.388  1.00  0.00    -0.354 N 
ATOM     61  N   UNL A   1      45.736  28.923  29.207  1.00  0.00    -0.248 NA
ATOM     62  C   UNL A   1      48.008  29.453  29.338  1.00  0.00     0.031 C 
ATOM     63  C   UNL A   1      42.451  31.790  30.065  1.00  0.00     0.029 A 
ATOM     64  C   UNL A   1      43.494  30.919  29.790  1.00  0.00     0.049 A 
ATOM     65  H   UNL A   1      43.414  28.918  29.123  1.00  0.00     0.167 HD
ATOM     66  C   UNL A   1      45.873  30.244  29.615  1.00  0.00     0.074 A 
ATOM     67  C   UNL A   1      47.294  30.505  29.714  1.00  0.00     0.031 C 
ATOM     68  C   UNL A   1      44.911  31.160  29.880  1.00  0.00     0.031 A 
BRANCH  55  69
ATOM     69  C   UNL A   1      39.151  29.110  29.003  1.00  0.00    -0.014 A 
ATOM     70  C   UNL A   1      38.522  29.627  27.858  1.00  0.00     0.009 A 
ATOM     71  C   UNL A   1      38.372  28.844  30.141  1.00  0.00     0.009 A 
ATOM     72  C   UNL A   1      37.153  29.903  27.865  1.00  0.00     0.001 A 
ATOM     73  C   UNL A   1      36.998  29.089  30.133  1.00  0.00     0.001 A 
ATOM     74  C   UNL A   1      36.392  29.627  29.000  1.00  0.00     0.000 A 
ENDBRANCH  55  69
BRANCH  56  75
ATOM     75  C   UNL A   1      48.856  26.764  28.559  1.00  0.00    -0.014 A 
ATOM     76  C   UNL A   1      49.588  26.356  29.685  1.00  0.00     0.009 A 
ATOM     77  C   UNL A   1      49.519  26.874  27.326  1.00  0.00     0.009 A 
ATOM     78  C   UNL A   1      50.958  26.100  29.586  1.00  0.00     0.001 A 
ATOM     79  C   UNL A   1      50.881  26.584  27.223  1.00  0.00     0.001 A 
ATOM     80  C   UNL A   1      51.601  26.210  28.355  1.00  0.00     0.000 A 
ENDBRANCH  56  75
BRANCH  68  81
ATOM     81  C   UNL A   1      45.361  32.519  30.337  1.00  0.00    -0.014 A 
ATOM     82  C   UNL A   1      45.660  33.538  29.419  1.00  0.00     0.009 A 
ATOM     83  C   UNL A   1      45.438  32.798  31.712  1.00  0.00     0.009 A 
ATOM     84  C   UNL A   1      46.060  34.797  29.868  1.00  0.00     0.001 A 
ATOM     85  C   UNL A   1      45.805  34.068  32.157  1.00  0.00     0.001 A 
ATOM     86  C   UNL A   1      46.125  35.064  31.236  1.00  0.00     0.000 A 
ENDBRANCH  68  81
ENDBRANCH  42  43
ENDBRANCH  34  37
ENDBRANCH  32  33
ENDBRANCH  31  32
ENDBRANCH  30  31
ENDBRANCH   1  30
TORSDOF 16
ENDMDL
