MODEL 1
REMARK VINA RESULT:     -11.0      0.000      0.000
REMARK SMILES O=C(/C=C/c1ccccc1)Nc1ccc(O)cc1C(=O)NCCCCCCNC(=O)c1ccc(-c2c3nc(c(-c4ccccc4)c4ccc([nH]4)c(-c4ccccc4)c4nc(c(-c5ccccc5)c5ccc2[nH]5)C=C4)C=C3)cc1
REMARK SMILES IDX 24 1 23 2 22 3 21 4 19 5 20 6 18 8 12 9 13 10 14 11 17 12
REMARK SMILES IDX 15 13 11 14 1 15 2 16 3 18 4 19 5 20 6 21 10 22 7 23 9 24
REMARK SMILES IDX 8 25 16 26 25 28 26 29 27 30 28 31 29 32 30 34 31 35 32 36
REMARK SMILES IDX 78 37 33 38 77 39 34 40 35 41 36 42 71 43 37 44 76 45 70 46
REMARK SMILES IDX 72 47 38 48 75 49 69 50 68 51 39 53 61 54 46 55 60 56 47 57
REMARK SMILES IDX 50 58 59 59 73 60 48 61 49 62 58 64 74 65 51 66 40 67 41 68
REMARK SMILES IDX 45 69 42 70 44 71 43 72 62 73 63 74 67 75 64 76 66 77 65 78
REMARK SMILES IDX 52 79 53 80 57 81 54 82 56 83 55 84
REMARK H PARENT 21 7 11 17 16 27 28 33 72 52 50 63
REMARK Flexibility Score: inf
ROOT
ATOM      1  C   UNL A   1      36.032  22.522  24.753  1.00  0.00     0.002 C 
ENDROOT
BRANCH   1   2
ATOM      2  C   UNL A   1      35.115  23.430  25.592  1.00  0.00     0.021 C 
BRANCH   2   3
ATOM      3  C   UNL A   1      34.707  24.794  25.026  1.00  0.00     0.116 C 
BRANCH   3   4
ATOM      4  N   UNL A   1      34.480  24.889  23.603  1.00  0.00    -0.352 N 
ATOM      5  C   UNL A   1      33.552  25.584  22.845  1.00  0.00     0.253 C 
ATOM      6  O   UNL A   1      33.815  25.661  21.638  1.00  0.00    -0.269 OA
ATOM      7  H   UNL A   1      35.110  24.356  23.065  1.00  0.00     0.163 HD
BRANCH   5   8
ATOM      8  C   UNL A   1      32.199  26.093  23.291  1.00  0.00     0.067 A 
ATOM      9  C   UNL A   1      31.039  25.404  23.692  1.00  0.00     0.054 A 
ATOM     10  C   UNL A   1      29.817  26.100  23.850  1.00  0.00     0.031 A 
ATOM     11  C   UNL A   1      29.758  27.486  23.782  1.00  0.00     0.048 A 
ATOM     12  C   UNL A   1      32.112  27.510  23.261  1.00  0.00     0.062 A 
ATOM     13  C   UNL A   1      30.920  28.185  23.534  1.00  0.00     0.116 A 
BRANCH   9  14
ATOM     14  N   UNL A   1      30.930  24.053  24.049  1.00  0.00    -0.322 N 
ATOM     15  O   UNL A   1      31.575  24.102  26.271  1.00  0.00    -0.270 OA
ATOM     16  C   UNL A   1      31.310  23.503  25.242  1.00  0.00     0.248 C 
ATOM     17  H   UNL A   1      30.546  23.444  23.378  1.00  0.00     0.170 HD
BRANCH  16  18
ATOM     18  C   UNL A   1      31.394  22.019  25.202  1.00  0.00     0.072 C 
ATOM     19  C   UNL A   1      32.050  21.387  24.214  1.00  0.00     0.014 C 
BRANCH  19  20
ATOM     20  C   UNL A   1      32.391  19.966  24.181  1.00  0.00    -0.025 A 
ATOM     21  C   UNL A   1      32.667  19.333  25.404  1.00  0.00     0.008 A 
ATOM     22  C   UNL A   1      32.426  19.223  22.997  1.00  0.00     0.008 A 
ATOM     23  C   UNL A   1      33.013  17.991  25.433  1.00  0.00     0.001 A 
ATOM     24  C   UNL A   1      32.755  17.874  23.028  1.00  0.00     0.001 A 
ATOM     25  C   UNL A   1      33.072  17.279  24.241  1.00  0.00     0.000 A 
ENDBRANCH  19  20
ENDBRANCH  16  18
ENDBRANCH   9  14
BRANCH  13  26
ATOM     26  O   UNL A   1      30.856  29.546  23.564  1.00  0.00    -0.508 OA
ATOM     27  H   UNL A   1      30.043  29.980  23.394  1.00  0.00     0.293 HD
ENDBRANCH  13  26
ENDBRANCH   5   8
ENDBRANCH   3   4
ENDBRANCH   2   3
ENDBRANCH   1   2
BRANCH   1  28
ATOM     28  C   UNL A   1      35.793  21.002  24.735  1.00  0.00     0.002 C 
BRANCH  28  29
ATOM     29  C   UNL A   1      36.984  20.056  24.942  1.00  0.00     0.021 C 
BRANCH  29  30
ATOM     30  C   UNL A   1      38.333  20.647  25.380  1.00  0.00     0.116 C 
BRANCH  30  31
ATOM     31  N   UNL A   1      39.401  19.663  25.499  1.00  0.00    -0.352 N 
ATOM     32  C   UNL A   1      40.687  19.774  25.990  1.00  0.00     0.251 C 
ATOM     33  H   UNL A   1      39.166  18.765  25.173  1.00  0.00     0.163 HD
ATOM     34  O   UNL A   1      41.442  18.806  25.895  1.00  0.00    -0.269 OA
BRANCH  32  35
ATOM     35  C   UNL A   1      41.218  21.019  26.617  1.00  0.00     0.039 A 
ATOM     36  C   UNL A   1      41.804  21.989  25.791  1.00  0.00     0.014 A 
ATOM     37  C   UNL A   1      41.255  21.216  27.995  1.00  0.00     0.014 A 
ATOM     38  C   UNL A   1      42.345  23.174  26.328  1.00  0.00     0.010 A 
ATOM     39  C   UNL A   1      41.761  22.422  28.526  1.00  0.00     0.010 A 
ATOM     40  C   UNL A   1      42.290  23.441  27.705  1.00  0.00    -0.014 A 
BRANCH  40  41
ATOM     41  C   UNL A   1      42.706  24.782  28.270  1.00  0.00     0.031 A 
ATOM     42  C   UNL A   1      41.698  25.888  28.507  1.00  0.00     0.074 A 
ATOM     43  C   UNL A   1      44.009  25.077  28.510  1.00  0.00     0.049 A 
ATOM     44  N   UNL A   1      41.894  27.113  28.942  1.00  0.00    -0.248 NA
ATOM     45  C   UNL A   1      40.294  25.594  28.186  1.00  0.00     0.031 C 
ATOM     46  C   UNL A   1      45.149  24.185  28.294  1.00  0.00     0.029 A 
ATOM     47  N   UNL A   1      44.599  26.237  28.974  1.00  0.00    -0.354 N 
ATOM     48  C   UNL A   1      40.649  27.733  28.926  1.00  0.00     0.074 A 
ATOM     49  C   UNL A   1      39.720  26.774  28.367  1.00  0.00     0.031 C 
ATOM     50  C   UNL A   1      46.286  24.817  28.626  1.00  0.00     0.029 A 
ATOM     51  C   UNL A   1      45.972  26.167  29.080  1.00  0.00     0.049 A 
ATOM     52  H   UNL A   1      44.085  27.043  29.212  1.00  0.00     0.167 HD
ATOM     53  C   UNL A   1      40.285  28.964  29.368  1.00  0.00     0.031 A 
ATOM     54  C   UNL A   1      46.888  27.065  29.502  1.00  0.00     0.031 A 
ATOM     55  C   UNL A   1      41.166  29.931  29.969  1.00  0.00     0.049 A 
ATOM     56  C   UNL A   1      46.464  28.423  29.997  1.00  0.00     0.074 A 
ATOM     57  C   UNL A   1      40.841  31.157  30.530  1.00  0.00     0.029 A 
ATOM     58  N   UNL A   1      42.536  29.791  30.090  1.00  0.00    -0.354 N 
ATOM     59  N   UNL A   1      45.262  28.933  30.084  1.00  0.00    -0.248 NA
ATOM     60  C   UNL A   1      47.529  29.317  30.482  1.00  0.00     0.031 C 
ATOM     61  C   UNL A   1      42.022  31.779  30.947  1.00  0.00     0.029 A 
ATOM     62  C   UNL A   1      43.074  30.917  30.695  1.00  0.00     0.049 A 
ATOM     63  H   UNL A   1      43.053  29.009  29.790  1.00  0.00     0.167 HD
ATOM     64  C   UNL A   1      45.424  30.183  30.672  1.00  0.00     0.074 A 
ATOM     65  C   UNL A   1      46.836  30.355  30.928  1.00  0.00     0.031 C 
ATOM     66  C   UNL A   1      44.473  31.099  30.975  1.00  0.00     0.031 A 
BRANCH  53  67
ATOM     67  C   UNL A   1      38.830  29.333  29.240  1.00  0.00    -0.014 A 
ATOM     68  C   UNL A   1      38.338  29.926  28.065  1.00  0.00     0.009 A 
ATOM     69  C   UNL A   1      37.937  29.053  30.285  1.00  0.00     0.009 A 
ATOM     70  C   UNL A   1      36.993  30.283  27.963  1.00  0.00     0.001 A 
ATOM     71  C   UNL A   1      36.585  29.379  30.166  1.00  0.00     0.001 A 
ATOM     72  C   UNL A   1      36.117  30.006  29.012  1.00  0.00     0.000 A 
ENDBRANCH  53  67
BRANCH  54  73
ATOM     73  C   UNL A   1      48.333  26.706  29.533  1.00  0.00    -0.014 A 
ATOM     74  C   UNL A   1      49.154  26.986  28.427  1.00  0.00     0.009 A 
ATOM     75  C   UNL A   1      48.883  26.029  30.631  1.00  0.00     0.009 A 
ATOM     76  C   UNL A   1      50.484  26.559  28.404  1.00  0.00     0.001 A 
ATOM     77  C   UNL A   1      50.223  25.630  30.617  1.00  0.00     0.001 A 
ATOM     78  C   UNL A   1      51.018  25.883  29.499  1.00  0.00     0.000 A 
ENDBRANCH  54  73
BRANCH  66  79
ATOM     79  C   UNL A   1      44.905  32.362  31.672  1.00  0.00    -0.014 A 
ATOM     80  C   UNL A   1      45.242  33.521  30.956  1.00  0.00     0.009 A 
ATOM     81  C   UNL A   1      44.922  32.406  33.076  1.00  0.00     0.009 A 
ATOM     82  C   UNL A   1      45.611  34.688  31.630  1.00  0.00     0.001 A 
ATOM     83  C   UNL A   1      45.265  33.582  33.748  1.00  0.00     0.001 A 
ATOM     84  C   UNL A   1      45.616  34.720  33.025  1.00  0.00     0.000 A 
ENDBRANCH  66  79
ENDBRANCH  40  41
ENDBRANCH  32  35
ENDBRANCH  30  31
ENDBRANCH  29  30
ENDBRANCH  28  29
ENDBRANCH   1  28
TORSDOF 17
ENDMDL
MODEL 2
REMARK VINA RESULT:     -11.0      0.710      5.802
REMARK SMILES O=C(/C=C/c1ccccc1)Nc1ccc(O)cc1C(=O)NCCCCCCNC(=O)c1ccc(-c2c3nc(c(-c4ccccc4)c4ccc([nH]4)c(-c4ccccc4)c4nc(c(-c5ccccc5)c5ccc2[nH]5)C=C4)C=C3)cc1
REMARK SMILES IDX 24 1 23 2 22 3 21 4 19 5 20 6 18 8 12 9 13 10 14 11 17 12
REMARK SMILES IDX 15 13 11 14 1 15 2 16 3 18 4 19 5 20 6 21 10 22 7 23 9 24
REMARK SMILES IDX 8 25 16 26 25 28 26 29 27 30 28 31 29 32 30 34 31 35 32 36
REMARK SMILES IDX 78 37 33 38 77 39 34 40 35 41 36 42 71 43 37 44 76 45 70 46
REMARK SMILES IDX 72 47 38 48 75 49 69 50 68 51 39 53 61 54 46 55 60 56 47 57
REMARK SMILES IDX 50 58 59 59 73 60 48 61 49 62 58 64 74 65 51 66 40 67 41 68
REMARK SMILES IDX 45 69 42 70 44 71 43 72 62 73 63 74 67 75 64 76 66 77 65 78
REMARK SMILES IDX 52 79 53 80 57 81 54 82 56 83 55 84
REMARK H PARENT 21 7 11 17 16 27 28 33 72 52 50 63
REMARK Flexibility Score: inf
ROOT
ATOM      1  C   UNL A   1      36.169  21.786  25.080  1.00  0.00     0.002 C 
ENDROOT
BRANCH   1   2
ATOM      2  C   UNL A   1      35.925  22.632  23.817  1.00  0.00     0.021 C 
BRANCH   2   3
ATOM      3  C   UNL A   1      35.010  23.857  23.913  1.00  0.00     0.116 C 
BRANCH   3   4
ATOM      4  N   UNL A   1      34.407  24.340  22.692  1.00  0.00    -0.352 N 
ATOM      5  C   UNL A   1      33.533  25.381  22.426  1.00  0.00     0.253 C 
ATOM      6  O   UNL A   1      33.436  25.690  21.231  1.00  0.00    -0.269 OA
ATOM      7  H   UNL A   1      34.670  23.830  21.892  1.00  0.00     0.163 HD
BRANCH   5   8
ATOM      8  C   UNL A   1      32.577  26.048  23.391  1.00  0.00     0.067 A 
ATOM      9  C   UNL A   1      31.581  25.507  24.225  1.00  0.00     0.054 A 
ATOM     10  C   UNL A   1      30.658  26.360  24.876  1.00  0.00     0.031 A 
ATOM     11  C   UNL A   1      30.805  27.741  24.851  1.00  0.00     0.048 A 
ATOM     12  C   UNL A   1      32.719  27.461  23.413  1.00  0.00     0.062 A 
ATOM     13  C   UNL A   1      31.866  28.280  24.155  1.00  0.00     0.116 A 
BRANCH   9  14
ATOM     14  N   UNL A   1      31.405  24.164  24.583  1.00  0.00    -0.322 N 
ATOM     15  O   UNL A   1      32.607  24.043  26.557  1.00  0.00    -0.270 OA
ATOM     16  C   UNL A   1      32.012  23.523  25.628  1.00  0.00     0.248 C 
ATOM     17  H   UNL A   1      30.789  23.632  24.030  1.00  0.00     0.170 HD
BRANCH  16  18
ATOM     18  C   UNL A   1      31.902  22.042  25.551  1.00  0.00     0.072 C 
ATOM     19  C   UNL A   1      32.423  21.360  24.517  1.00  0.00     0.014 C 
BRANCH  19  20
ATOM     20  C   UNL A   1      32.576  19.908  24.434  1.00  0.00    -0.025 A 
ATOM     21  C   UNL A   1      32.514  19.318  23.162  1.00  0.00     0.008 A 
ATOM     22  C   UNL A   1      32.801  19.105  25.557  1.00  0.00     0.008 A 
ATOM     23  C   UNL A   1      32.635  17.944  23.023  1.00  0.00     0.001 A 
ATOM     24  C   UNL A   1      32.939  17.731  25.416  1.00  0.00     0.001 A 
ATOM     25  C   UNL A   1      32.828  17.161  24.155  1.00  0.00     0.000 A 
ENDBRANCH  19  20
ENDBRANCH  16  18
ENDBRANCH   9  14
BRANCH  13  26
ATOM     26  O   UNL A   1      32.043  29.629  24.222  1.00  0.00    -0.508 OA
ATOM     27  H   UNL A   1      32.875  29.980  24.474  1.00  0.00     0.293 HD
ENDBRANCH  13  26
ENDBRANCH   5   8
ENDBRANCH   3   4
ENDBRANCH   2   3
ENDBRANCH   1   2
BRANCH   1  28
ATOM     28  C   UNL A   1      36.324  20.260  24.959  1.00  0.00     0.002 C 
BRANCH  28  29
ATOM     29  C   UNL A   1      37.730  19.662  24.806  1.00  0.00     0.021 C 
BRANCH  29  30
ATOM     30  C   UNL A   1      38.765  19.907  25.914  1.00  0.00     0.116 C 
BRANCH  30  31
ATOM     31  N   UNL A   1      40.014  19.181  25.730  1.00  0.00    -0.352 N 
ATOM     32  C   UNL A   1      41.324  19.558  25.946  1.00  0.00     0.251 C 
ATOM     33  H   UNL A   1      39.905  18.262  25.393  1.00  0.00     0.163 HD
ATOM     34  O   UNL A   1      42.225  18.785  25.620  1.00  0.00    -0.269 OA
BRANCH  32  35
ATOM     35  C   UNL A   1      41.709  20.871  26.540  1.00  0.00     0.039 A 
ATOM     36  C   UNL A   1      42.265  21.849  25.704  1.00  0.00     0.014 A 
ATOM     37  C   UNL A   1      41.639  21.133  27.907  1.00  0.00     0.014 A 
ATOM     38  C   UNL A   1      42.671  23.100  26.213  1.00  0.00     0.010 A 
ATOM     39  C   UNL A   1      42.008  22.400  28.407  1.00  0.00     0.010 A 
ATOM     40  C   UNL A   1      42.504  23.423  27.569  1.00  0.00    -0.014 A 
BRANCH  40  41
ATOM     41  C   UNL A   1      42.770  24.819  28.089  1.00  0.00     0.031 A 
ATOM     42  C   UNL A   1      44.154  25.246  28.535  1.00  0.00     0.074 A 
ATOM     43  C   UNL A   1      41.767  25.718  28.256  1.00  0.00     0.049 A 
ATOM     44  N   UNL A   1      44.545  26.391  29.049  1.00  0.00    -0.248 NA
ATOM     45  C   UNL A   1      45.231  24.253  28.417  1.00  0.00     0.031 C 
ATOM     46  C   UNL A   1      40.353  25.497  27.951  1.00  0.00     0.029 A 
ATOM     47  N   UNL A   1      41.786  27.008  28.750  1.00  0.00    -0.354 N 
ATOM     48  C   UNL A   1      45.900  26.246  29.332  1.00  0.00     0.074 A 
ATOM     49  C   UNL A   1      46.243  24.878  29.003  1.00  0.00     0.031 C 
ATOM     50  C   UNL A   1      39.648  26.598  28.255  1.00  0.00     0.029 A 
ATOM     51  C   UNL A   1      40.550  27.617  28.781  1.00  0.00     0.049 A 
ATOM     52  H   UNL A   1      42.610  27.455  29.051  1.00  0.00     0.167 HD
ATOM     53  C   UNL A   1      46.797  27.159  29.781  1.00  0.00     0.031 A 
ATOM     54  C   UNL A   1      40.166  28.852  29.169  1.00  0.00     0.031 A 
ATOM     55  C   UNL A   1      46.510  28.538  30.079  1.00  0.00     0.049 A 
ATOM     56  C   UNL A   1      41.178  29.856  29.656  1.00  0.00     0.074 A 
ATOM     57  C   UNL A   1      47.396  29.541  30.442  1.00  0.00     0.029 A 
ATOM     58  N   UNL A   1      45.252  29.111  30.052  1.00  0.00    -0.354 N 
ATOM     59  N   UNL A   1      42.472  29.723  29.795  1.00  0.00    -0.248 NA
ATOM     60  C   UNL A   1      40.672  31.192  30.013  1.00  0.00     0.031 C 
ATOM     61  C   UNL A   1      46.667  30.710  30.681  1.00  0.00     0.029 A 
ATOM     62  C   UNL A   1      45.334  30.448  30.414  1.00  0.00     0.049 A 
ATOM     63  H   UNL A   1      44.421  28.640  29.813  1.00  0.00     0.167 HD
ATOM     64  C   UNL A   1      42.937  30.968  30.210  1.00  0.00     0.074 A 
ATOM     65  C   UNL A   1      41.791  31.844  30.294  1.00  0.00     0.031 C 
ATOM     66  C   UNL A   1      44.209  31.341  30.486  1.00  0.00     0.031 A 
BRANCH  53  67
ATOM     67  C   UNL A   1      48.219  26.692  29.956  1.00  0.00    -0.014 A 
ATOM     68  C   UNL A   1      49.156  26.829  28.919  1.00  0.00     0.009 A 
ATOM     69  C   UNL A   1      48.635  26.145  31.180  1.00  0.00     0.009 A 
ATOM     70  C   UNL A   1      50.465  26.375  29.085  1.00  0.00     0.001 A 
ATOM     71  C   UNL A   1      49.954  25.725  31.354  1.00  0.00     0.001 A 
ATOM     72  C   UNL A   1      50.864  25.826  30.303  1.00  0.00     0.000 A 
ENDBRANCH  53  67
BRANCH  54  73
ATOM     73  C   UNL A   1      38.736  29.260  29.071  1.00  0.00    -0.014 A 
ATOM     74  C   UNL A   1      37.887  29.130  30.183  1.00  0.00     0.009 A 
ATOM     75  C   UNL A   1      38.200  29.717  27.858  1.00  0.00     0.009 A 
ATOM     76  C   UNL A   1      36.524  29.409  30.072  1.00  0.00     0.001 A 
ATOM     77  C   UNL A   1      36.840  30.025  27.759  1.00  0.00     0.001 A 
ATOM     78  C   UNL A   1      36.001  29.858  28.861  1.00  0.00     0.000 A 
ENDBRANCH  54  73
BRANCH  66  79
ATOM     79  C   UNL A   1      44.460  32.777  30.858  1.00  0.00    -0.014 A 
ATOM     80  C   UNL A   1      44.696  33.761  29.885  1.00  0.00     0.009 A 
ATOM     81  C   UNL A   1      44.405  33.163  32.208  1.00  0.00     0.009 A 
ATOM     82  C   UNL A   1      44.897  35.093  30.258  1.00  0.00     0.001 A 
ATOM     83  C   UNL A   1      44.578  34.499  32.576  1.00  0.00     0.001 A 
ATOM     84  C   UNL A   1      44.831  35.462  31.602  1.00  0.00     0.000 A 
ENDBRANCH  66  79
ENDBRANCH  40  41
ENDBRANCH  32  35
ENDBRANCH  30  31
ENDBRANCH  29  30
ENDBRANCH  28  29
ENDBRANCH   1  28
TORSDOF 17
ENDMDL
MODEL 3
REMARK VINA RESULT:     -10.9      2.435      3.903
REMARK SMILES O=C(/C=C/c1ccccc1)Nc1ccc(O)cc1C(=O)NCCCCCCNC(=O)c1ccc(-c2c3nc(c(-c4ccccc4)c4ccc([nH]4)c(-c4ccccc4)c4nc(c(-c5ccccc5)c5ccc2[nH]5)C=C4)C=C3)cc1
REMARK SMILES IDX 24 1 23 2 22 3 21 4 19 5 20 6 18 8 12 9 13 10 14 11 17 12
REMARK SMILES IDX 15 13 11 14 1 15 2 16 3 18 4 19 5 20 6 21 10 22 7 23 9 24
REMARK SMILES IDX 8 25 16 26 25 28 26 29 27 30 28 31 29 32 30 34 31 35 32 36
REMARK SMILES IDX 78 37 33 38 77 39 34 40 35 41 36 42 71 43 37 44 76 45 70 46
REMARK SMILES IDX 72 47 38 48 75 49 69 50 68 51 39 53 61 54 46 55 60 56 47 57
REMARK SMILES IDX 50 58 59 59 73 60 48 61 49 62 58 64 74 65 51 66 40 67 41 68
REMARK SMILES IDX 45 69 42 70 44 71 43 72 62 73 63 74 67 75 64 76 66 77 65 78
REMARK SMILES IDX 52 79 53 80 57 81 54 82 56 83 55 84
REMARK H PARENT 21 7 11 17 16 27 28 33 72 52 50 63
REMARK Flexibility Score: inf
ROOT
ATOM      1  C   UNL A   1      34.393  23.026  27.235  1.00  0.00     0.002 C 
ENDROOT
BRANCH   1   2
ATOM      2  C   UNL A   1      33.029  22.581  27.791  1.00  0.00     0.021 C 
BRANCH   2   3
ATOM      3  C   UNL A   1      31.826  22.525  26.844  1.00  0.00     0.116 C 
BRANCH   3   4
ATOM      4  N   UNL A   1      30.805  23.536  26.996  1.00  0.00    -0.352 N 
ATOM      5  C   UNL A   1      30.626  24.782  26.418  1.00  0.00     0.253 C 
ATOM      6  O   UNL A   1      29.497  25.268  26.565  1.00  0.00    -0.269 OA
ATOM      7  H   UNL A   1      30.097  23.291  27.636  1.00  0.00     0.163 HD
BRANCH   5   8
ATOM      8  C   UNL A   1      31.683  25.666  25.795  1.00  0.00     0.067 A 
ATOM      9  C   UNL A   1      32.728  25.366  24.901  1.00  0.00     0.054 A 
ATOM     10  C   UNL A   1      33.732  26.327  24.633  1.00  0.00     0.031 A 
ATOM     11  C   UNL A   1      33.632  27.630  25.101  1.00  0.00     0.048 A 
ATOM     12  C   UNL A   1      31.593  27.015  26.230  1.00  0.00     0.062 A 
ATOM     13  C   UNL A   1      32.534  27.977  25.860  1.00  0.00     0.116 A 
BRANCH   9  14
ATOM     14  N   UNL A   1      32.886  24.204  24.134  1.00  0.00    -0.322 N 
ATOM     15  O   UNL A   1      30.858  24.094  23.024  1.00  0.00    -0.270 OA
ATOM     16  C   UNL A   1      31.923  23.608  23.367  1.00  0.00     0.248 C 
ATOM     17  H   UNL A   1      33.772  23.777  24.150  1.00  0.00     0.170 HD
BRANCH  16  18
ATOM     18  C   UNL A   1      32.276  22.224  22.954  1.00  0.00     0.072 C 
ATOM     19  C   UNL A   1      32.688  21.315  23.853  1.00  0.00     0.014 C 
BRANCH  19  20
ATOM     20  C   UNL A   1      32.849  19.881  23.614  1.00  0.00    -0.025 A 
ATOM     21  C   UNL A   1      33.674  19.163  24.495  1.00  0.00     0.008 A 
ATOM     22  C   UNL A   1      32.201  19.209  22.573  1.00  0.00     0.008 A 
ATOM     23  C   UNL A   1      33.878  17.804  24.308  1.00  0.00     0.001 A 
ATOM     24  C   UNL A   1      32.391  17.846  22.397  1.00  0.00     0.001 A 
ATOM     25  C   UNL A   1      33.249  17.162  23.249  1.00  0.00     0.000 A 
ENDBRANCH  19  20
ENDBRANCH  16  18
ENDBRANCH   9  14
BRANCH  13  26
ATOM     26  O   UNL A   1      32.411  29.283  26.228  1.00  0.00    -0.508 OA
ATOM     27  H   UNL A   1      31.625  29.753  26.030  1.00  0.00     0.293 HD
ENDBRANCH  13  26
ENDBRANCH   5   8
ENDBRANCH   3   4
ENDBRANCH   2   3
ENDBRANCH   1   2
BRANCH   1  28
ATOM     28  C   UNL A   1      35.211  22.063  26.358  1.00  0.00     0.002 C 
BRANCH  28  29
ATOM     29  C   UNL A   1      35.873  22.597  25.079  1.00  0.00     0.021 C 
BRANCH  29  30
ATOM     30  C   UNL A   1      37.165  23.420  25.201  1.00  0.00     0.116 C 
BRANCH  30  31
ATOM     31  N   UNL A   1      38.355  22.621  25.461  1.00  0.00    -0.352 N 
ATOM     32  C   UNL A   1      39.530  22.928  26.117  1.00  0.00     0.251 C 
ATOM     33  H   UNL A   1      38.315  21.703  25.108  1.00  0.00     0.163 HD
ATOM     34  O   UNL A   1      40.440  22.099  26.123  1.00  0.00    -0.269 OA
BRANCH  32  35
ATOM     35  C   UNL A   1      39.765  24.230  26.807  1.00  0.00     0.039 A 
ATOM     36  C   UNL A   1      39.217  24.422  28.084  1.00  0.00     0.014 A 
ATOM     37  C   UNL A   1      40.415  25.302  26.200  1.00  0.00     0.014 A 
ATOM     38  C   UNL A   1      39.384  25.639  28.774  1.00  0.00     0.010 A 
ATOM     39  C   UNL A   1      40.615  26.505  26.910  1.00  0.00     0.010 A 
ATOM     40  C   UNL A   1      40.132  26.692  28.224  1.00  0.00    -0.014 A 
BRANCH  40  41
ATOM     41  C   UNL A   1      40.466  27.931  29.026  1.00  0.00     0.031 A 
ATOM     42  C   UNL A   1      39.485  29.079  29.154  1.00  0.00     0.074 A 
ATOM     43  C   UNL A   1      41.687  28.101  29.594  1.00  0.00     0.049 A 
ATOM     44  N   UNL A   1      39.631  30.232  29.766  1.00  0.00    -0.248 NA
ATOM     45  C   UNL A   1      38.185  28.926  28.485  1.00  0.00     0.031 C 
ATOM     46  C   UNL A   1      42.801  27.153  29.542  1.00  0.00     0.029 A 
ATOM     47  N   UNL A   1      42.205  29.157  30.318  1.00  0.00    -0.354 N 
ATOM     48  C   UNL A   1      38.457  30.943  29.539  1.00  0.00     0.074 A 
ATOM     49  C   UNL A   1      37.643  30.121  28.669  1.00  0.00     0.031 C 
ATOM     50  C   UNL A   1      43.856  27.659  30.200  1.00  0.00     0.029 A 
ATOM     51  C   UNL A   1      43.508  28.974  30.728  1.00  0.00     0.049 A 
ATOM     52  H   UNL A   1      41.689  29.970  30.525  1.00  0.00     0.167 HD
ATOM     53  C   UNL A   1      38.058  32.144  30.029  1.00  0.00     0.031 A 
ATOM     54  C   UNL A   1      44.340  29.751  31.455  1.00  0.00     0.031 A 
ATOM     55  C   UNL A   1      38.816  32.974  30.928  1.00  0.00     0.049 A 
ATOM     56  C   UNL A   1      43.876  31.077  31.998  1.00  0.00     0.074 A 
ATOM     57  C   UNL A   1      38.426  34.155  31.542  1.00  0.00     0.029 A 
ATOM     58  N   UNL A   1      40.110  32.719  31.345  1.00  0.00    -0.354 N 
ATOM     59  N   UNL A   1      42.714  31.664  31.865  1.00  0.00    -0.248 NA
ATOM     60  C   UNL A   1      44.837  31.833  32.820  1.00  0.00     0.031 C 
ATOM     61  C   UNL A   1      39.502  34.639  32.292  1.00  0.00     0.029 A 
ATOM     62  C   UNL A   1      40.542  33.732  32.188  1.00  0.00     0.049 A 
ATOM     63  H   UNL A   1      40.645  31.936  31.080  1.00  0.00     0.167 HD
ATOM     64  C   UNL A   1      42.792  32.830  32.620  1.00  0.00     0.074 A 
ATOM     65  C   UNL A   1      44.108  32.866  33.215  1.00  0.00     0.031 C 
ATOM     66  C   UNL A   1      41.841  33.777  32.804  1.00  0.00     0.031 A 
BRANCH  53  67
ATOM     67  C   UNL A   1      36.695  32.633  29.613  1.00  0.00    -0.014 A 
ATOM     68  C   UNL A   1      35.581  32.462  30.452  1.00  0.00     0.009 A 
ATOM     69  C   UNL A   1      36.530  33.304  28.392  1.00  0.00     0.009 A 
ATOM     70  C   UNL A   1      34.319  32.901  30.049  1.00  0.00     0.001 A 
ATOM     71  C   UNL A   1      35.273  33.774  28.009  1.00  0.00     0.001 A 
ATOM     72  C   UNL A   1      34.166  33.560  28.829  1.00  0.00     0.000 A 
ENDBRANCH  53  67
BRANCH  54  73
ATOM     73  C   UNL A   1      45.717  29.282  31.776  1.00  0.00    -0.014 A 
ATOM     74  C   UNL A   1      45.957  28.545  32.948  1.00  0.00     0.009 A 
ATOM     75  C   UNL A   1      46.802  29.621  30.953  1.00  0.00     0.009 A 
ATOM     76  C   UNL A   1      47.259  28.193  33.310  1.00  0.00     0.001 A 
ATOM     77  C   UNL A   1      48.100  29.240  31.304  1.00  0.00     0.001 A 
ATOM     78  C   UNL A   1      48.329  28.539  32.488  1.00  0.00     0.000 A 
ENDBRANCH  54  73
BRANCH  66  79
ATOM     79  C   UNL A   1      42.155  34.924  33.728  1.00  0.00    -0.014 A 
ATOM     80  C   UNL A   1      41.871  34.863  35.101  1.00  0.00     0.009 A 
ATOM     81  C   UNL A   1      42.796  36.066  33.221  1.00  0.00     0.009 A 
ATOM     82  C   UNL A   1      42.199  35.930  35.941  1.00  0.00     0.001 A 
ATOM     83  C   UNL A   1      43.149  37.120  34.067  1.00  0.00     0.001 A 
ATOM     84  C   UNL A   1      42.844  37.055  35.424  1.00  0.00     0.000 A 
ENDBRANCH  66  79
ENDBRANCH  40  41
ENDBRANCH  32  35
ENDBRANCH  30  31
ENDBRANCH  29  30
ENDBRANCH  28  29
ENDBRANCH   1  28
TORSDOF 17
ENDMDL
