MODEL 1
REMARK VINA RESULT:     -11.1      0.000      0.000
REMARK SMILES Cc1ccc(NC(=O)C[N@H+]2CCC[C@@H](C(=O)NCCCCCCNC(=O)c3ccc(-c4c5nc(c(-c6ccccc6)c6ccc([nH]6)c(-c6ccccc6)c6nc(c(-c7ccccc7)c7ccc4[nH]7)C=C6)C=C5)cc3)C2)cc1F
REMARK SMILES IDX 20 1 19 2 18 3 17 4 15 5 16 6 14 8 10 9 11 10 75 11 12 13
REMARK SMILES IDX 13 14 9 15 7 16 6 17 8 19 5 20 1 21 2 22 3 23 77 24 4 25
REMARK SMILES IDX 76 26 78 27 21 28 22 29 23 30 24 31 25 32 26 34 27 35 28 36
REMARK SMILES IDX 74 37 29 38 73 39 30 40 31 41 32 42 67 43 33 44 72 45 66 46
REMARK SMILES IDX 68 47 34 48 71 49 65 50 64 51 35 53 57 54 42 55 56 56 43 57
REMARK SMILES IDX 46 58 55 59 69 60 44 61 45 62 54 64 70 65 47 66 36 67 37 68
REMARK SMILES IDX 41 69 38 70 40 71 39 72 58 73 59 74 63 75 60 76 62 77 61 78
REMARK SMILES IDX 48 79 49 80 53 81 50 82 52 83 51 84
REMARK H PARENT 17 7 10 12 6 18 24 33 68 52 46 63
REMARK Flexibility Score: inf
ROOT
ATOM      1  C   UNL A   1      36.801  21.599  25.775  1.00  0.00     0.002 C 
ENDROOT
BRANCH   1   2
ATOM      2  C   UNL A   1      36.794  23.072  25.331  1.00  0.00     0.021 C 
BRANCH   2   3
ATOM      3  C   UNL A   1      35.534  23.902  25.627  1.00  0.00     0.116 C 
BRANCH   3   4
ATOM      4  N   UNL A   1      34.604  23.244  26.531  1.00  0.00    -0.356 N 
ATOM      5  C   UNL A   1      33.256  23.408  26.699  1.00  0.00     0.228 C 
ATOM      6  O   UNL A   1      32.682  22.629  27.463  1.00  0.00    -0.275 OA
ATOM      7  H   UNL A   1      35.012  22.567  27.120  1.00  0.00     0.163 HD
BRANCH   5   8
ATOM      8  C   UNL A   1      32.497  24.510  25.959  1.00  0.00     0.133 C 
ATOM      9  N   UNL A   1      31.781  25.316  23.710  1.00  0.00    -0.326 N 
ATOM     10  C   UNL A   1      30.398  25.495  24.200  1.00  0.00     0.262 C 
ATOM     11  C   UNL A   1      32.457  24.227  24.445  1.00  0.00     0.276 C 
ATOM     12  H   UNL A   1      32.370  26.127  23.903  1.00  0.00     0.348 HD
ATOM     13  C   UNL A   1      30.320  25.724  25.707  1.00  0.00     0.062 C 
ATOM     14  C   UNL A   1      31.056  24.632  26.474  1.00  0.00     0.025 C 
BRANCH   9  15
ATOM     15  C   UNL A   1      31.737  25.192  22.223  1.00  0.00     0.363 C 
BRANCH  15  16
ATOM     16  C   UNL A   1      32.682  26.068  21.413  1.00  0.00     0.279 C 
ATOM     17  N   UNL A   1      33.121  27.294  21.809  1.00  0.00    -0.321 N 
ATOM     18  H   UNL A   1      33.702  27.733  21.146  1.00  0.00     0.170 HD
ATOM     19  O   UNL A   1      33.111  25.657  20.325  1.00  0.00    -0.268 OA
BRANCH  17  20
ATOM     20  C   UNL A   1      32.920  28.063  22.964  1.00  0.00     0.044 A 
ATOM     21  C   UNL A   1      32.359  29.876  26.842  1.00  0.00     0.047 C 
ATOM     22  C   UNL A   1      32.597  29.295  25.483  1.00  0.00    -0.015 A 
ATOM     23  C   UNL A   1      33.769  28.597  25.182  1.00  0.00     0.008 A 
ATOM     24  C   UNL A   1      31.638  29.432  24.480  1.00  0.00     0.128 A 
ATOM     25  C   UNL A   1      33.927  27.987  23.935  1.00  0.00     0.026 A 
ATOM     26  C   UNL A   1      31.795  28.834  23.232  1.00  0.00     0.065 A 
ATOM     27  F   UNL A   1      30.524  30.137  24.715  1.00  0.00    -0.207 F 
ENDBRANCH  17  20
ENDBRANCH  15  16
ENDBRANCH   9  15
ENDBRANCH   5   8
ENDBRANCH   3   4
ENDBRANCH   2   3
ENDBRANCH   1   2
BRANCH   1  28
ATOM     28  C   UNL A   1      37.033  20.509  24.718  1.00  0.00     0.002 C 
BRANCH  28  29
ATOM     29  C   UNL A   1      38.371  19.760  24.716  1.00  0.00     0.021 C 
BRANCH  29  30
ATOM     30  C   UNL A   1      39.201  19.723  26.001  1.00  0.00     0.116 C 
BRANCH  30  31
ATOM     31  N   UNL A   1      40.481  19.059  25.832  1.00  0.00    -0.352 N 
ATOM     32  C   UNL A   1      41.768  19.540  25.935  1.00  0.00     0.251 C 
ATOM     33  H   UNL A   1      40.418  18.103  25.607  1.00  0.00     0.163 HD
ATOM     34  O   UNL A   1      42.697  18.818  25.579  1.00  0.00    -0.269 OA
BRANCH  32  35
ATOM     35  C   UNL A   1      42.079  20.903  26.450  1.00  0.00     0.039 A 
ATOM     36  C   UNL A   1      41.938  21.140  27.826  1.00  0.00     0.014 A 
ATOM     37  C   UNL A   1      42.397  21.975  25.611  1.00  0.00     0.014 A 
ATOM     38  C   UNL A   1      42.149  22.420  28.358  1.00  0.00     0.010 A 
ATOM     39  C   UNL A   1      42.657  23.244  26.150  1.00  0.00     0.010 A 
ATOM     40  C   UNL A   1      42.527  23.486  27.527  1.00  0.00    -0.014 A 
BRANCH  40  41
ATOM     41  C   UNL A   1      42.758  24.850  28.085  1.00  0.00     0.031 A 
ATOM     42  C   UNL A   1      44.131  25.268  28.550  1.00  0.00     0.074 A 
ATOM     43  C   UNL A   1      41.734  25.719  28.202  1.00  0.00     0.049 A 
ATOM     44  N   UNL A   1      44.512  26.398  29.097  1.00  0.00    -0.248 NA
ATOM     45  C   UNL A   1      45.214  24.286  28.391  1.00  0.00     0.031 C 
ATOM     46  C   UNL A   1      40.350  25.456  27.806  1.00  0.00     0.029 A 
ATOM     47  N   UNL A   1      41.699  27.004  28.692  1.00  0.00    -0.354 N 
ATOM     48  C   UNL A   1      45.871  26.258  29.355  1.00  0.00     0.074 A 
ATOM     49  C   UNL A   1      46.240  24.921  28.943  1.00  0.00     0.031 C 
ATOM     50  C   UNL A   1      39.606  26.549  28.053  1.00  0.00     0.029 A 
ATOM     51  C   UNL A   1      40.451  27.578  28.655  1.00  0.00     0.049 A 
ATOM     52  H   UNL A   1      42.496  27.469  29.038  1.00  0.00     0.167 HD
ATOM     53  C   UNL A   1      46.739  27.161  29.873  1.00  0.00     0.031 A 
ATOM     54  C   UNL A   1      40.027  28.789  29.064  1.00  0.00     0.031 A 
ATOM     55  C   UNL A   1      46.391  28.497  30.278  1.00  0.00     0.049 A 
ATOM     56  C   UNL A   1      41.006  29.762  29.662  1.00  0.00     0.074 A 
ATOM     57  C   UNL A   1      47.219  29.490  30.779  1.00  0.00     0.029 A 
ATOM     58  N   UNL A   1      45.115  29.031  30.225  1.00  0.00    -0.354 N 
ATOM     59  N   UNL A   1      42.295  29.624  29.855  1.00  0.00    -0.248 NA
ATOM     60  C   UNL A   1      40.470  31.063  30.091  1.00  0.00     0.031 C 
ATOM     61  C   UNL A   1      46.435  30.610  31.068  1.00  0.00     0.029 A 
ATOM     62  C   UNL A   1      45.129  30.333  30.703  1.00  0.00     0.049 A 
ATOM     63  H   UNL A   1      44.316  28.558  29.899  1.00  0.00     0.167 HD
ATOM     64  C   UNL A   1      42.726  30.828  30.398  1.00  0.00     0.074 A 
ATOM     65  C   UNL A   1      41.567  31.690  30.491  1.00  0.00     0.031 C 
ATOM     66  C   UNL A   1      43.974  31.186  30.786  1.00  0.00     0.031 A 
BRANCH  53  67
ATOM     67  C   UNL A   1      48.172  26.732  30.035  1.00  0.00    -0.014 A 
ATOM     68  C   UNL A   1      48.600  26.062  31.191  1.00  0.00     0.009 A 
ATOM     69  C   UNL A   1      49.089  26.944  28.994  1.00  0.00     0.009 A 
ATOM     70  C   UNL A   1      49.925  25.638  31.314  1.00  0.00     0.001 A 
ATOM     71  C   UNL A   1      50.407  26.498  29.108  1.00  0.00     0.001 A 
ATOM     72  C   UNL A   1      50.826  25.852  30.272  1.00  0.00     0.000 A 
ENDBRANCH  53  67
BRANCH  54  73
ATOM     73  C   UNL A   1      38.596  29.169  28.922  1.00  0.00    -0.014 A 
ATOM     74  C   UNL A   1      38.112  29.683  27.710  1.00  0.00     0.009 A 
ATOM     75  C   UNL A   1      37.717  29.052  30.010  1.00  0.00     0.009 A 
ATOM     76  C   UNL A   1      36.784  30.102  27.598  1.00  0.00     0.001 A 
ATOM     77  C   UNL A   1      36.383  29.445  29.886  1.00  0.00     0.001 A 
ATOM     78  C   UNL A   1      35.920  29.980  28.684  1.00  0.00     0.000 A 
ENDBRANCH  54  73
BRANCH  66  79
ATOM     79  C   UNL A   1      44.160  32.582  31.308  1.00  0.00    -0.014 A 
ATOM     80  C   UNL A   1      44.442  33.652  30.443  1.00  0.00     0.009 A 
ATOM     81  C   UNL A   1      44.016  32.836  32.681  1.00  0.00     0.009 A 
ATOM     82  C   UNL A   1      44.606  34.943  30.950  1.00  0.00     0.001 A 
ATOM     83  C   UNL A   1      44.156  34.133  33.181  1.00  0.00     0.001 A 
ATOM     84  C   UNL A   1      44.460  35.182  32.316  1.00  0.00     0.000 A 
ENDBRANCH  66  79
ENDBRANCH  40  41
ENDBRANCH  32  35
ENDBRANCH  30  31
ENDBRANCH  29  30
ENDBRANCH  28  29
ENDBRANCH   1  28
TORSDOF 16
ENDMDL
MODEL 2
REMARK VINA RESULT:     -11.0      2.558      3.708
REMARK SMILES Cc1ccc(NC(=O)C[N@H+]2CCC[C@@H](C(=O)NCCCCCCNC(=O)c3ccc(-c4c5nc(c(-c6ccccc6)c6ccc([nH]6)c(-c6ccccc6)c6nc(c(-c7ccccc7)c7ccc4[nH]7)C=C6)C=C5)cc3)C2)cc1F
REMARK SMILES IDX 20 1 19 2 18 3 17 4 15 5 16 6 14 8 10 9 11 10 75 11 12 13
REMARK SMILES IDX 13 14 9 15 7 16 6 17 8 19 5 20 1 21 2 22 3 23 77 24 4 25
REMARK SMILES IDX 76 26 78 27 21 28 22 29 23 30 24 31 25 32 26 34 27 35 28 36
REMARK SMILES IDX 74 37 29 38 73 39 30 40 31 41 32 42 67 43 33 44 72 45 66 46
REMARK SMILES IDX 68 47 34 48 71 49 65 50 64 51 35 53 57 54 42 55 56 56 43 57
REMARK SMILES IDX 46 58 55 59 69 60 44 61 45 62 54 64 70 65 47 66 36 67 37 68
REMARK SMILES IDX 41 69 38 70 40 71 39 72 58 73 59 74 63 75 60 76 62 77 61 78
REMARK SMILES IDX 48 79 49 80 53 81 50 82 52 83 51 84
REMARK H PARENT 17 7 10 12 6 18 24 33 68 52 46 63
REMARK Flexibility Score: inf
ROOT
ATOM      1  C   UNL A   1      40.354  22.122  26.358  1.00  0.00     0.002 C 
ENDROOT
BRANCH   1   2
ATOM      2  C   UNL A   1      39.011  21.647  25.778  1.00  0.00     0.021 C 
BRANCH   2   3
ATOM      3  C   UNL A   1      37.845  22.648  25.763  1.00  0.00     0.116 C 
BRANCH   3   4
ATOM      4  N   UNL A   1      37.275  22.854  24.441  1.00  0.00    -0.356 N 
ATOM      5  C   UNL A   1      36.000  22.663  23.979  1.00  0.00     0.228 C 
ATOM      6  O   UNL A   1      35.754  23.032  22.828  1.00  0.00    -0.275 OA
ATOM      7  H   UNL A   1      37.910  23.187  23.766  1.00  0.00     0.163 HD
BRANCH   5   8
ATOM      8  C   UNL A   1      34.928  22.025  24.863  1.00  0.00     0.133 C 
ATOM      9  N   UNL A   1      32.526  22.129  25.527  1.00  0.00    -0.326 N 
ATOM     10  C   UNL A   1      32.390  20.673  25.312  1.00  0.00     0.262 C 
ATOM     11  C   UNL A   1      33.559  22.693  24.633  1.00  0.00     0.276 C 
ATOM     12  H   UNL A   1      32.877  22.354  26.458  1.00  0.00     0.348 HD
ATOM     13  C   UNL A   1      33.710  19.919  25.459  1.00  0.00     0.062 C 
ATOM     14  C   UNL A   1      34.796  20.522  24.577  1.00  0.00     0.025 C 
BRANCH   9  15
ATOM     15  C   UNL A   1      31.167  22.740  25.447  1.00  0.00     0.363 C 
BRANCH  15  16
ATOM     16  C   UNL A   1      30.703  23.585  26.625  1.00  0.00     0.279 C 
ATOM     17  N   UNL A   1      30.901  24.928  26.732  1.00  0.00    -0.321 N 
ATOM     18  H   UNL A   1      30.563  25.306  27.576  1.00  0.00     0.170 HD
ATOM     19  O   UNL A   1      30.086  23.047  27.555  1.00  0.00    -0.268 OA
BRANCH  17  20
ATOM     20  C   UNL A   1      31.486  25.886  25.891  1.00  0.00     0.044 A 
ATOM     21  C   UNL A   1      33.521  29.095  23.841  1.00  0.00     0.047 C 
ATOM     22  C   UNL A   1      32.841  27.940  24.508  1.00  0.00    -0.015 A 
ATOM     23  C   UNL A   1      33.550  27.034  25.302  1.00  0.00     0.008 A 
ATOM     24  C   UNL A   1      31.469  27.747  24.358  1.00  0.00     0.128 A 
ATOM     25  C   UNL A   1      32.878  26.019  25.987  1.00  0.00     0.026 A 
ATOM     26  C   UNL A   1      30.795  26.730  25.030  1.00  0.00     0.065 A 
ATOM     27  F   UNL A   1      30.764  28.564  23.565  1.00  0.00    -0.207 F 
ENDBRANCH  17  20
ENDBRANCH  15  16
ENDBRANCH   9  15
ENDBRANCH   5   8
ENDBRANCH   3   4
ENDBRANCH   2   3
ENDBRANCH   1   2
BRANCH   1  28
ATOM     28  C   UNL A   1      41.380  21.070  26.807  1.00  0.00     0.002 C 
BRANCH  28  29
ATOM     29  C   UNL A   1      41.570  19.814  25.948  1.00  0.00     0.021 C 
BRANCH  29  30
ATOM     30  C   UNL A   1      42.715  18.856  26.283  1.00  0.00     0.116 C 
BRANCH  30  31
ATOM     31  N   UNL A   1      43.611  18.627  25.163  1.00  0.00    -0.352 N 
ATOM     32  C   UNL A   1      44.389  19.501  24.436  1.00  0.00     0.251 C 
ATOM     33  H   UNL A   1      43.672  17.688  24.875  1.00  0.00     0.163 HD
ATOM     34  O   UNL A   1      44.939  19.092  23.416  1.00  0.00    -0.269 OA
BRANCH  32  35
ATOM     35  C   UNL A   1      44.584  20.925  24.830  1.00  0.00     0.039 A 
ATOM     36  C   UNL A   1      45.192  21.193  26.066  1.00  0.00     0.014 A 
ATOM     37  C   UNL A   1      44.090  21.993  24.077  1.00  0.00     0.014 A 
ATOM     38  C   UNL A   1      45.338  22.511  26.521  1.00  0.00     0.010 A 
ATOM     39  C   UNL A   1      44.281  23.314  24.509  1.00  0.00     0.010 A 
ATOM     40  C   UNL A   1      44.897  23.590  25.740  1.00  0.00    -0.014 A 
BRANCH  40  41
ATOM     41  C   UNL A   1      45.053  24.996  26.214  1.00  0.00     0.031 A 
ATOM     42  C   UNL A   1      46.393  25.685  26.151  1.00  0.00     0.074 A 
ATOM     43  C   UNL A   1      43.999  25.661  26.728  1.00  0.00     0.049 A 
ATOM     44  N   UNL A   1      46.726  26.889  26.553  1.00  0.00    -0.248 NA
ATOM     45  C   UNL A   1      47.508  24.920  25.573  1.00  0.00     0.031 C 
ATOM     46  C   UNL A   1      42.643  25.125  26.865  1.00  0.00     0.029 A 
ATOM     47  N   UNL A   1      43.902  26.936  27.235  1.00  0.00    -0.354 N 
ATOM     48  C   UNL A   1      48.084  27.019  26.285  1.00  0.00     0.074 A 
ATOM     49  C   UNL A   1      48.523  25.759  25.725  1.00  0.00     0.031 C 
ATOM     50  C   UNL A   1      41.849  26.067  27.403  1.00  0.00     0.029 A 
ATOM     51  C   UNL A   1      42.644  27.262  27.680  1.00  0.00     0.049 A 
ATOM     52  H   UNL A   1      44.666  27.557  27.276  1.00  0.00     0.167 HD
ATOM     53  C   UNL A   1      48.892  28.091  26.472  1.00  0.00     0.031 A 
ATOM     54  C   UNL A   1      42.177  28.388  28.254  1.00  0.00     0.031 A 
ATOM     55  C   UNL A   1      48.470  29.354  27.017  1.00  0.00     0.049 A 
ATOM     56  C   UNL A   1      43.103  29.552  28.477  1.00  0.00     0.074 A 
ATOM     57  C   UNL A   1      49.218  30.505  27.207  1.00  0.00     0.029 A 
ATOM     58  N   UNL A   1      47.188  29.635  27.457  1.00  0.00    -0.354 N 
ATOM     59  N   UNL A   1      44.372  29.668  28.175  1.00  0.00    -0.248 NA
ATOM     60  C   UNL A   1      42.525  30.746  29.113  1.00  0.00     0.031 C 
ATOM     61  C   UNL A   1      48.398  31.469  27.800  1.00  0.00     0.029 A 
ATOM     62  C   UNL A   1      47.128  30.935  27.935  1.00  0.00     0.049 A 
ATOM     63  H   UNL A   1      46.431  29.006  27.436  1.00  0.00     0.167 HD
ATOM     64  C   UNL A   1      44.735  30.955  28.556  1.00  0.00     0.074 A 
ATOM     65  C   UNL A   1      43.550  31.585  29.097  1.00  0.00     0.031 C 
ATOM     66  C   UNL A   1      45.945  31.557  28.465  1.00  0.00     0.031 A 
BRANCH  53  67
ATOM     67  C   UNL A   1      50.338  27.947  26.079  1.00  0.00    -0.014 A 
ATOM     68  C   UNL A   1      51.295  27.491  26.998  1.00  0.00     0.009 A 
ATOM     69  C   UNL A   1      50.735  28.212  24.759  1.00  0.00     0.009 A 
ATOM     70  C   UNL A   1      52.626  27.328  26.611  1.00  0.00     0.001 A 
ATOM     71  C   UNL A   1      52.062  28.025  24.368  1.00  0.00     0.001 A 
ATOM     72  C   UNL A   1      53.008  27.591  25.296  1.00  0.00     0.000 A 
ENDBRANCH  53  67
BRANCH  54  73
ATOM     73  C   UNL A   1      40.750  28.484  28.663  1.00  0.00    -0.014 A 
ATOM     74  C   UNL A   1      39.792  29.017  27.787  1.00  0.00     0.009 A 
ATOM     75  C   UNL A   1      40.348  28.078  29.944  1.00  0.00     0.009 A 
ATOM     76  C   UNL A   1      38.465  29.169  28.196  1.00  0.00     0.001 A 
ATOM     77  C   UNL A   1      39.015  28.205  30.340  1.00  0.00     0.001 A 
ATOM     78  C   UNL A   1      38.077  28.761  29.471  1.00  0.00     0.000 A 
ENDBRANCH  54  73
BRANCH  66  79
ATOM     79  C   UNL A   1      46.040  32.985  28.924  1.00  0.00    -0.014 A 
ATOM     80  C   UNL A   1      45.846  34.051  28.032  1.00  0.00     0.009 A 
ATOM     81  C   UNL A   1      46.292  33.266  30.276  1.00  0.00     0.009 A 
ATOM     82  C   UNL A   1      45.934  35.371  28.480  1.00  0.00     0.001 A 
ATOM     83  C   UNL A   1      46.354  34.586  30.726  1.00  0.00     0.001 A 
ATOM     84  C   UNL A   1      46.185  35.637  29.826  1.00  0.00     0.000 A 
ENDBRANCH  66  79
ENDBRANCH  40  41
ENDBRANCH  32  35
ENDBRANCH  30  31
ENDBRANCH  29  30
ENDBRANCH  28  29
ENDBRANCH   1  28
TORSDOF 16
ENDMDL
MODEL 3
REMARK VINA RESULT:     -11.0      3.235      8.859
REMARK SMILES Cc1ccc(NC(=O)C[N@H+]2CCC[C@@H](C(=O)NCCCCCCNC(=O)c3ccc(-c4c5nc(c(-c6ccccc6)c6ccc([nH]6)c(-c6ccccc6)c6nc(c(-c7ccccc7)c7ccc4[nH]7)C=C6)C=C5)cc3)C2)cc1F
REMARK SMILES IDX 20 1 19 2 18 3 17 4 15 5 16 6 14 8 10 9 11 10 75 11 12 13
REMARK SMILES IDX 13 14 9 15 7 16 6 17 8 19 5 20 1 21 2 22 3 23 77 24 4 25
REMARK SMILES IDX 76 26 78 27 21 28 22 29 23 30 24 31 25 32 26 34 27 35 28 36
REMARK SMILES IDX 74 37 29 38 73 39 30 40 31 41 32 42 67 43 33 44 72 45 66 46
REMARK SMILES IDX 68 47 34 48 71 49 65 50 64 51 35 53 57 54 42 55 56 56 43 57
REMARK SMILES IDX 46 58 55 59 69 60 44 61 45 62 54 64 70 65 47 66 36 67 37 68
REMARK SMILES IDX 41 69 38 70 40 71 39 72 58 73 59 74 63 75 60 76 62 77 61 78
REMARK SMILES IDX 48 79 49 80 53 81 50 82 52 83 51 84
REMARK H PARENT 17 7 10 12 6 18 24 33 68 52 46 63
REMARK Flexibility Score: inf
ROOT
ATOM      1  C   UNL A   1      30.309  29.638  23.941  1.00  0.00     0.002 C 
ENDROOT
BRANCH   1   2
ATOM      2  C   UNL A   1      30.701  29.093  22.558  1.00  0.00     0.021 C 
BRANCH   2   3
ATOM      3  C   UNL A   1      30.570  27.579  22.322  1.00  0.00     0.116 C 
BRANCH   3   4
ATOM      4  N   UNL A   1      31.713  26.998  21.636  1.00  0.00    -0.356 N 
ATOM      5  C   UNL A   1      32.744  26.233  22.110  1.00  0.00     0.228 C 
ATOM      6  O   UNL A   1      33.529  25.765  21.282  1.00  0.00    -0.275 OA
ATOM      7  H   UNL A   1      31.751  27.184  20.669  1.00  0.00     0.163 HD
BRANCH   5   8
ATOM      8  C   UNL A   1      32.905  25.966  23.607  1.00  0.00     0.133 C 
ATOM      9  N   UNL A   1      33.815  24.368  25.293  1.00  0.00    -0.326 N 
ATOM     10  C   UNL A   1      34.472  25.480  26.012  1.00  0.00     0.262 C 
ATOM     11  C   UNL A   1      33.707  24.672  23.851  1.00  0.00     0.276 C 
ATOM     12  H   UNL A   1      32.844  24.241  25.577  1.00  0.00     0.348 HD
ATOM     13  C   UNL A   1      33.787  26.827  25.788  1.00  0.00     0.062 C 
ATOM     14  C   UNL A   1      33.626  27.129  24.303  1.00  0.00     0.025 C 
BRANCH   9  15
ATOM     15  C   UNL A   1      34.514  23.101  25.657  1.00  0.00     0.363 C 
BRANCH  15  16
ATOM     16  C   UNL A   1      33.912  22.258  26.773  1.00  0.00     0.279 C 
ATOM     17  N   UNL A   1      33.175  21.131  26.572  1.00  0.00    -0.321 N 
ATOM     18  H   UNL A   1      32.838  20.731  27.406  1.00  0.00     0.170 HD
ATOM     19  O   UNL A   1      34.101  22.585  27.953  1.00  0.00    -0.268 OA
BRANCH  17  20
ATOM     20  C   UNL A   1      32.797  20.419  25.424  1.00  0.00     0.044 A 
ATOM     21  C   UNL A   1      32.221  17.971  21.915  1.00  0.00     0.047 C 
ATOM     22  C   UNL A   1      32.362  18.799  23.154  1.00  0.00    -0.015 A 
ATOM     23  C   UNL A   1      32.668  18.220  24.389  1.00  0.00     0.008 A 
ATOM     24  C   UNL A   1      32.199  20.182  23.100  1.00  0.00     0.128 A 
ATOM     25  C   UNL A   1      32.884  19.024  25.511  1.00  0.00     0.026 A 
ATOM     26  C   UNL A   1      32.403  20.988  24.218  1.00  0.00     0.065 A 
ATOM     27  F   UNL A   1      31.856  20.768  21.945  1.00  0.00    -0.207 F 
ENDBRANCH  17  20
ENDBRANCH  15  16
ENDBRANCH   9  15
ENDBRANCH   5   8
ENDBRANCH   3   4
ENDBRANCH   2   3
ENDBRANCH   1   2
BRANCH   1  28
ATOM     28  C   UNL A   1      31.413  29.869  24.985  1.00  0.00     0.002 C 
BRANCH  28  29
ATOM     29  C   UNL A   1      31.172  30.899  26.095  1.00  0.00     0.021 C 
BRANCH  29  30
ATOM     30  C   UNL A   1      32.373  31.450  26.866  1.00  0.00     0.116 C 
BRANCH  30  31
ATOM     31  N   UNL A   1      32.211  32.841  27.253  1.00  0.00    -0.352 N 
ATOM     32  C   UNL A   1      32.973  33.644  28.072  1.00  0.00     0.251 C 
ATOM     33  H   UNL A   1      31.423  33.284  26.863  1.00  0.00     0.163 HD
ATOM     34  O   UNL A   1      32.536  34.750  28.385  1.00  0.00    -0.269 OA
BRANCH  32  35
ATOM     35  C   UNL A   1      34.300  33.224  28.604  1.00  0.00     0.039 A 
ATOM     36  C   UNL A   1      35.443  33.533  27.852  1.00  0.00     0.014 A 
ATOM     37  C   UNL A   1      34.442  32.447  29.756  1.00  0.00     0.014 A 
ATOM     38  C   UNL A   1      36.712  33.102  28.266  1.00  0.00     0.010 A 
ATOM     39  C   UNL A   1      35.716  32.058  30.198  1.00  0.00     0.010 A 
ATOM     40  C   UNL A   1      36.865  32.372  29.455  1.00  0.00    -0.014 A 
BRANCH  40  41
ATOM     41  C   UNL A   1      38.212  31.914  29.906  1.00  0.00     0.031 A 
ATOM     42  C   UNL A   1      38.792  30.616  29.402  1.00  0.00     0.074 A 
ATOM     43  C   UNL A   1      38.917  32.647  30.790  1.00  0.00     0.049 A 
ATOM     44  N   UNL A   1      39.929  30.040  29.714  1.00  0.00    -0.248 NA
ATOM     45  C   UNL A   1      37.986  29.860  28.431  1.00  0.00     0.031 C 
ATOM     46  C   UNL A   1      38.485  33.917  31.375  1.00  0.00     0.029 A 
ATOM     47  N   UNL A   1      40.152  32.426  31.356  1.00  0.00    -0.354 N 
ATOM     48  C   UNL A   1      39.968  28.855  28.988  1.00  0.00     0.074 A 
ATOM     49  C   UNL A   1      38.725  28.773  28.251  1.00  0.00     0.031 C 
ATOM     50  C   UNL A   1      39.443  34.370  32.202  1.00  0.00     0.029 A 
ATOM     51  C   UNL A   1      40.543  33.409  32.233  1.00  0.00     0.049 A 
ATOM     52  H   UNL A   1      40.703  31.636  31.152  1.00  0.00     0.167 HD
ATOM     53  C   UNL A   1      40.952  27.925  28.924  1.00  0.00     0.031 A 
ATOM     54  C   UNL A   1      41.654  33.526  32.986  1.00  0.00     0.031 A 
ATOM     55  C   UNL A   1      42.198  27.996  29.640  1.00  0.00     0.049 A 
ATOM     56  C   UNL A   1      42.718  32.464  32.918  1.00  0.00     0.074 A 
ATOM     57  C   UNL A   1      43.265  27.113  29.604  1.00  0.00     0.029 A 
ATOM     58  N   UNL A   1      42.547  29.007  30.519  1.00  0.00    -0.354 N 
ATOM     59  N   UNL A   1      42.753  31.375  32.191  1.00  0.00    -0.248 NA
ATOM     60  C   UNL A   1      43.901  32.655  33.772  1.00  0.00     0.031 C 
ATOM     61  C   UNL A   1      44.243  27.569  30.493  1.00  0.00     0.029 A 
ATOM     62  C   UNL A   1      43.805  28.760  31.046  1.00  0.00     0.049 A 
ATOM     63  H   UNL A   1      41.986  29.785  30.739  1.00  0.00     0.167 HD
ATOM     64  C   UNL A   1      43.971  30.769  32.476  1.00  0.00     0.074 A 
ATOM     65  C   UNL A   1      44.651  31.617  33.431  1.00  0.00     0.031 C 
ATOM     66  C   UNL A   1      44.478  29.611  31.989  1.00  0.00     0.031 A 
BRANCH  53  67
ATOM     67  C   UNL A   1      40.722  26.731  28.037  1.00  0.00    -0.014 A 
ATOM     68  C   UNL A   1      41.060  26.766  26.676  1.00  0.00     0.009 A 
ATOM     69  C   UNL A   1      40.220  25.539  28.583  1.00  0.00     0.009 A 
ATOM     70  C   UNL A   1      40.874  25.639  25.872  1.00  0.00     0.001 A 
ATOM     71  C   UNL A   1      40.058  24.407  27.783  1.00  0.00     0.001 A 
ATOM     72  C   UNL A   1      40.378  24.460  26.426  1.00  0.00     0.000 A 
ENDBRANCH  53  67
BRANCH  54  73
ATOM     73  C   UNL A   1      41.834  34.701  33.879  1.00  0.00    -0.014 A 
ATOM     74  C   UNL A   1      42.495  35.851  33.420  1.00  0.00     0.009 A 
ATOM     75  C   UNL A   1      41.378  34.664  35.205  1.00  0.00     0.009 A 
ATOM     76  C   UNL A   1      42.723  36.928  34.279  1.00  0.00     0.001 A 
ATOM     77  C   UNL A   1      41.582  35.754  36.054  1.00  0.00     0.001 A 
ATOM     78  C   UNL A   1      42.264  36.880  35.594  1.00  0.00     0.000 A 
ENDBRANCH  54  73
BRANCH  66  79
ATOM     79  C   UNL A   1      45.852  29.213  32.449  1.00  0.00    -0.014 A 
ATOM     80  C   UNL A   1      46.035  28.395  33.575  1.00  0.00     0.009 A 
ATOM     81  C   UNL A   1      46.977  29.632  31.722  1.00  0.00     0.009 A 
ATOM     82  C   UNL A   1      47.321  28.033  33.982  1.00  0.00     0.001 A 
ATOM     83  C   UNL A   1      48.260  29.247  32.117  1.00  0.00     0.001 A 
ATOM     84  C   UNL A   1      48.431  28.455  33.251  1.00  0.00     0.000 A 
ENDBRANCH  66  79
ENDBRANCH  40  41
ENDBRANCH  32  35
ENDBRANCH  30  31
ENDBRANCH  29  30
ENDBRANCH  28  29
ENDBRANCH   1  28
TORSDOF 16
ENDMDL
