MODEL 1
REMARK VINA RESULT:     -14.1      0.000      0.000
REMARK SMILES Cc1ccccc1NC(=S)NN1C(=O)CS[C@H]1c1ccccc1C(=O)NCCCCCCNC(=O)c1ccc(-c2c3nc(c(-c4ccccc4)c4ccc([nH]4)c(-c4ccccc4)c4nc(c(-c5ccccc5)c5ccc2[nH]5)C=C4)C=C3)cc1
REMARK SMILES IDX 28 1 27 2 26 3 24 4 25 5 23 7 18 8 19 9 20 10 22 11 21 12
REMARK SMILES IDX 17 13 12 14 13 15 14 16 15 17 16 18 11 19 9 21 10 22 8 23
REMARK SMILES IDX 7 25 1 26 2 27 3 28 4 29 6 30 5 31 29 32 30 33 31 34 32 35
REMARK SMILES IDX 33 36 34 37 35 39 36 40 37 41 83 42 38 43 82 44 39 45 40 46
REMARK SMILES IDX 41 47 76 48 42 49 81 50 75 51 77 52 43 53 80 54 74 55 73 56
REMARK SMILES IDX 44 58 66 59 51 60 65 61 52 62 55 63 64 64 78 65 53 66 54 67
REMARK SMILES IDX 63 69 79 70 56 71 45 72 46 73 50 74 47 75 49 76 48 77 67 78
REMARK SMILES IDX 68 79 72 80 69 81 71 82 70 83 57 84 58 85 62 86 59 87 61 88
REMARK SMILES IDX 60 89
REMARK H PARENT 26 6 11 20 8 24 33 38 77 57 55 68
REMARK Flexibility Score: inf
ROOT
ATOM      1  C   UNL A   1      34.060  31.480  28.004  1.00  0.00     0.021 C 
ENDROOT
BRANCH   1   2
ATOM      2  C   UNL A   1      32.704  31.238  27.237  1.00  0.00     0.116 C 
BRANCH   2   3
ATOM      3  N   UNL A   1      32.277  29.864  26.783  1.00  0.00    -0.352 N 
ATOM      4  C   UNL A   1      32.260  29.520  25.403  1.00  0.00     0.251 C 
ATOM      5  O   UNL A   1      33.344  29.464  24.817  1.00  0.00    -0.269 OA
ATOM      6  H   UNL A   1      32.005  29.195  27.453  1.00  0.00     0.163 HD
BRANCH   4   7
ATOM      7  C   UNL A   1      31.008  28.996  24.639  1.00  0.00     0.046 A 
ATOM      8  C   UNL A   1      30.496  27.683  24.553  1.00  0.00    -0.001 A 
ATOM      9  C   UNL A   1      29.424  27.376  23.655  1.00  0.00     0.007 A 
ATOM     10  C   UNL A   1      28.792  28.345  22.901  1.00  0.00     0.000 A 
ATOM     11  C   UNL A   1      30.279  29.972  23.917  1.00  0.00     0.014 A 
ATOM     12  C   UNL A   1      29.201  29.654  23.060  1.00  0.00     0.001 A 
BRANCH   8  13
ATOM     13  C   UNL A   1      31.202  26.512  25.104  1.00  0.00     0.197 C 
ATOM     14  N   UNL A   1      31.497  25.369  24.289  1.00  0.00    -0.236 N 
ATOM     15  C   UNL A   1      31.632  24.454  25.390  1.00  0.00     0.252 C 
ATOM     16  O   UNL A   1      30.708  23.802  25.878  1.00  0.00    -0.272 OA
ATOM     17  C   UNL A   1      32.800  24.859  26.266  1.00  0.00     0.174 C 
ATOM     18  S   UNL A   1      32.745  26.671  26.101  1.00  0.00    -0.120 SA
BRANCH  14  19
ATOM     19  N   UNL A   1      32.655  25.623  23.206  1.00  0.00    -0.270 N 
ATOM     20  H   UNL A   1      33.256  26.387  23.368  1.00  0.00     0.191 HD
BRANCH  19  21
ATOM     21  C   UNL A   1      32.890  24.865  22.052  1.00  0.00     0.189 C 
ATOM     22  S   UNL A   1      32.506  25.551  20.564  1.00  0.00    -0.039 S 
BRANCH  21  23
ATOM     23  N   UNL A   1      33.501  23.621  22.004  1.00  0.00    -0.331 N 
ATOM     24  H   UNL A   1      33.882  23.389  21.127  1.00  0.00     0.169 HD
BRANCH  23  25
ATOM     25  C   UNL A   1      33.674  22.629  22.992  1.00  0.00     0.043 A 
ATOM     26  C   UNL A   1      36.465  23.077  23.812  1.00  0.00     0.046 C 
ATOM     27  C   UNL A   1      35.179  22.321  23.950  1.00  0.00    -0.028 A 
ATOM     28  C   UNL A   1      35.342  20.774  24.889  1.00  0.00     0.005 A 
ATOM     29  C   UNL A   1      33.988  19.588  24.935  1.00  0.00     0.000 A 
ATOM     30  C   UNL A   1      32.343  21.470  23.127  1.00  0.00     0.026 A 
ATOM     31  C   UNL A   1      32.504  19.919  23.999  1.00  0.00     0.002 A 
ENDBRANCH  23  25
ENDBRANCH  21  23
ENDBRANCH  19  21
ENDBRANCH  14  19
ENDBRANCH   8  13
ENDBRANCH   4   7
ENDBRANCH   2   3
ENDBRANCH   1   2
BRANCH   1  32
ATOM     32  C   UNL A   1      34.530  33.113  28.540  1.00  0.00     0.002 C 
BRANCH  32  33
ATOM     33  C   UNL A   1      33.632  35.005  29.162  1.00  0.00     0.002 C 
BRANCH  33  34
ATOM     34  C   UNL A   1      32.794  35.670  30.570  1.00  0.00     0.021 C 
BRANCH  34  35
ATOM     35  C   UNL A   1      33.407  36.161  31.891  1.00  0.00     0.116 C 
BRANCH  35  36
ATOM     36  N   UNL A   1      33.515  35.226  33.010  1.00  0.00    -0.352 N 
ATOM     37  C   UNL A   1      34.041  33.937  32.848  1.00  0.00     0.251 C 
ATOM     38  H   UNL A   1      33.210  35.510  33.901  1.00  0.00     0.163 HD
ATOM     39  O   UNL A   1      33.399  32.905  32.955  1.00  0.00    -0.269 OA
BRANCH  37  40
ATOM     40  C   UNL A   1      35.522  33.909  32.794  1.00  0.00     0.039 A 
ATOM     41  C   UNL A   1      36.194  34.340  31.644  1.00  0.00     0.014 A 
ATOM     42  C   UNL A   1      36.131  33.066  33.711  1.00  0.00     0.014 A 
ATOM     43  C   UNL A   1      37.387  33.714  31.312  1.00  0.00     0.010 A 
ATOM     44  C   UNL A   1      37.150  32.280  33.272  1.00  0.00     0.010 A 
ATOM     45  C   UNL A   1      37.774  32.610  32.073  1.00  0.00    -0.014 A 
BRANCH  45  46
ATOM     46  C   UNL A   1      39.005  31.880  31.894  1.00  0.00     0.031 A 
ATOM     47  C   UNL A   1      38.811  30.606  31.178  1.00  0.00     0.074 A 
ATOM     48  C   UNL A   1      40.162  32.479  32.246  1.00  0.00     0.049 A 
ATOM     49  N   UNL A   1      39.407  29.508  31.455  1.00  0.00    -0.248 NA
ATOM     50  C   UNL A   1      37.771  30.429  30.146  1.00  0.00     0.031 C 
ATOM     51  C   UNL A   1      41.540  32.082  32.000  1.00  0.00     0.029 A 
ATOM     52  N   UNL A   1      40.281  33.553  33.139  1.00  0.00    -0.354 N 
ATOM     53  C   UNL A   1      39.167  28.676  30.379  1.00  0.00     0.074 A 
ATOM     54  C   UNL A   1      37.983  29.175  29.744  1.00  0.00     0.031 C 
ATOM     55  C   UNL A   1      42.316  32.617  32.967  1.00  0.00     0.029 A 
ATOM     56  C   UNL A   1      41.434  33.292  33.908  1.00  0.00     0.049 A 
ATOM     57  H   UNL A   1      39.682  34.331  33.214  1.00  0.00     0.167 HD
ATOM     58  C   UNL A   1      40.161  27.844  29.971  1.00  0.00     0.031 A 
ATOM     59  C   UNL A   1      41.294  32.970  35.229  1.00  0.00     0.031 A 
ATOM     60  C   UNL A   1      41.329  28.042  30.824  1.00  0.00     0.049 A 
ATOM     61  C   UNL A   1      41.652  31.530  35.483  1.00  0.00     0.074 A 
ATOM     62  C   UNL A   1      42.468  28.814  30.662  1.00  0.00     0.029 A 
ATOM     63  N   UNL A   1      41.204  27.800  32.182  1.00  0.00    -0.354 N 
ATOM     64  N   UNL A   1      41.564  30.587  34.584  1.00  0.00    -0.248 NA
ATOM     65  C   UNL A   1      42.217  31.066  36.742  1.00  0.00     0.031 C 
ATOM     66  C   UNL A   1      43.001  29.070  31.957  1.00  0.00     0.029 A 
ATOM     67  C   UNL A   1      42.191  28.448  32.893  1.00  0.00     0.049 A 
ATOM     68  H   UNL A   1      40.502  27.239  32.586  1.00  0.00     0.167 HD
ATOM     69  C   UNL A   1      42.115  29.437  35.082  1.00  0.00     0.074 A 
ATOM     70  C   UNL A   1      42.499  29.787  36.439  1.00  0.00     0.031 C 
ATOM     71  C   UNL A   1      42.245  28.296  34.341  1.00  0.00     0.031 A 
BRANCH  58  72
ATOM     72  C   UNL A   1      40.212  27.129  28.647  1.00  0.00    -0.014 A 
ATOM     73  C   UNL A   1      39.570  25.882  28.534  1.00  0.00     0.009 A 
ATOM     74  C   UNL A   1      40.850  27.604  27.486  1.00  0.00     0.009 A 
ATOM     75  C   UNL A   1      39.590  25.135  27.351  1.00  0.00     0.001 A 
ATOM     76  C   UNL A   1      40.889  26.851  26.302  1.00  0.00     0.001 A 
ATOM     77  C   UNL A   1      40.257  25.617  26.235  1.00  0.00     0.000 A 
ENDBRANCH  58  72
BRANCH  59  78
ATOM     78  C   UNL A   1      40.196  33.743  35.881  1.00  0.00    -0.014 A 
ATOM     79  C   UNL A   1      39.037  33.013  36.210  1.00  0.00     0.009 A 
ATOM     80  C   UNL A   1      40.461  34.924  36.587  1.00  0.00     0.009 A 
ATOM     81  C   UNL A   1      38.300  33.330  37.352  1.00  0.00     0.001 A 
ATOM     82  C   UNL A   1      39.713  35.233  37.734  1.00  0.00     0.001 A 
ATOM     83  C   UNL A   1      38.683  34.397  38.157  1.00  0.00     0.000 A 
ENDBRANCH  59  78
BRANCH  71  84
ATOM     84  C   UNL A   1      42.476  26.902  34.887  1.00  0.00    -0.014 A 
ATOM     85  C   UNL A   1      41.573  26.203  35.691  1.00  0.00     0.009 A 
ATOM     86  C   UNL A   1      43.621  26.178  34.471  1.00  0.00     0.009 A 
ATOM     87  C   UNL A   1      41.821  24.886  36.099  1.00  0.00     0.001 A 
ATOM     88  C   UNL A   1      43.833  24.842  34.805  1.00  0.00     0.001 A 
ATOM     89  C   UNL A   1      42.940  24.201  35.642  1.00  0.00     0.000 A 
ENDBRANCH  71  84
ENDBRANCH  45  46
ENDBRANCH  37  40
ENDBRANCH  35  36
ENDBRANCH  34  35
ENDBRANCH  33  34
ENDBRANCH  32  33
ENDBRANCH   1  32
TORSDOF 18
ENDMDL
MODEL 2
REMARK VINA RESULT:     -13.9      4.902     10.720
REMARK SMILES Cc1ccccc1NC(=S)NN1C(=O)CS[C@H]1c1ccccc1C(=O)NCCCCCCNC(=O)c1ccc(-c2c3nc(c(-c4ccccc4)c4ccc([nH]4)c(-c4ccccc4)c4nc(c(-c5ccccc5)c5ccc2[nH]5)C=C4)C=C3)cc1
REMARK SMILES IDX 28 1 27 2 26 3 24 4 25 5 23 7 18 8 19 9 20 10 22 11 21 12
REMARK SMILES IDX 17 13 12 14 13 15 14 16 15 17 16 18 11 19 9 21 10 22 8 23
REMARK SMILES IDX 7 25 1 26 2 27 3 28 4 29 6 30 5 31 29 32 30 33 31 34 32 35
REMARK SMILES IDX 33 36 34 37 35 39 36 40 37 41 83 42 38 43 82 44 39 45 40 46
REMARK SMILES IDX 41 47 76 48 42 49 81 50 75 51 77 52 43 53 80 54 74 55 73 56
REMARK SMILES IDX 44 58 66 59 51 60 65 61 52 62 55 63 64 64 78 65 53 66 54 67
REMARK SMILES IDX 63 69 79 70 56 71 45 72 46 73 50 74 47 75 49 76 48 77 67 78
REMARK SMILES IDX 68 79 72 80 69 81 71 82 70 83 57 84 58 85 62 86 59 87 61 88
REMARK SMILES IDX 60 89
REMARK H PARENT 26 6 11 20 8 24 33 38 77 57 55 68
REMARK Flexibility Score: inf
ROOT
ATOM      1  C   UNL A   1      39.181  20.555  25.490  1.00  0.00     0.021 C 
ENDROOT
BRANCH   1   2
ATOM      2  C   UNL A   1      38.630  22.031  25.567  1.00  0.00     0.116 C 
BRANCH   2   3
ATOM      3  N   UNL A   1      37.359  22.447  24.869  1.00  0.00    -0.352 N 
ATOM      4  C   UNL A   1      36.131  22.547  25.581  1.00  0.00     0.251 C 
ATOM      5  O   UNL A   1      36.042  23.427  26.440  1.00  0.00    -0.269 OA
ATOM      6  H   UNL A   1      37.380  22.651  23.906  1.00  0.00     0.163 HD
BRANCH   4   7
ATOM      7  C   UNL A   1      34.828  21.783  25.205  1.00  0.00     0.046 A 
ATOM      8  C   UNL A   1      33.500  22.258  25.131  1.00  0.00    -0.001 A 
ATOM      9  C   UNL A   1      32.411  21.351  24.931  1.00  0.00     0.007 A 
ATOM     10  C   UNL A   1      32.605  20.000  24.722  1.00  0.00     0.000 A 
ATOM     11  C   UNL A   1      34.990  20.410  24.900  1.00  0.00     0.014 A 
ATOM     12  C   UNL A   1      33.903  19.535  24.672  1.00  0.00     0.001 A 
BRANCH   8  13
ATOM     13  C   UNL A   1      33.111  23.613  25.563  1.00  0.00     0.197 C 
ATOM     14  N   UNL A   1      33.088  24.711  24.641  1.00  0.00    -0.236 N 
ATOM     15  C   UNL A   1      33.200  25.731  25.648  1.00  0.00     0.252 C 
ATOM     16  O   UNL A   1      34.264  26.181  26.076  1.00  0.00    -0.272 OA
ATOM     17  C   UNL A   1      31.985  25.709  26.551  1.00  0.00     0.174 C 
ATOM     18  S   UNL A   1      31.594  23.931  26.562  1.00  0.00    -0.120 SA
BRANCH  14  19
ATOM     19  N   UNL A   1      31.884  24.646  23.580  1.00  0.00    -0.270 N 
ATOM     20  H   UNL A   1      31.569  23.749  23.320  1.00  0.00     0.191 HD
BRANCH  19  21
ATOM     21  C   UNL A   1      31.241  25.741  22.989  1.00  0.00     0.189 C 
ATOM     22  S   UNL A   1      31.715  26.192  21.439  1.00  0.00    -0.039 S 
BRANCH  21  23
ATOM     23  N   UNL A   1      30.173  26.446  23.525  1.00  0.00    -0.331 N 
ATOM     24  H   UNL A   1      29.564  25.903  24.075  1.00  0.00     0.169 HD
BRANCH  23  25
ATOM     25  C   UNL A   1      29.807  27.803  23.421  1.00  0.00     0.043 A 
ATOM     26  C   UNL A   1      32.126  29.148  24.633  1.00  0.00     0.046 C 
ATOM     27  C   UNL A   1      30.785  29.223  23.972  1.00  0.00    -0.028 A 
ATOM     28  C   UNL A   1      29.996  30.855  24.109  1.00  0.00     0.005 A 
ATOM     29  C   UNL A   1      28.276  31.080  23.627  1.00  0.00     0.000 A 
ATOM     30  C   UNL A   1      28.142  28.087  22.889  1.00  0.00     0.026 A 
ATOM     31  C   UNL A   1      27.333  29.671  23.068  1.00  0.00     0.002 A 
ENDBRANCH  23  25
ENDBRANCH  21  23
ENDBRANCH  19  21
ENDBRANCH  14  19
ENDBRANCH   8  13
ENDBRANCH   4   7
ENDBRANCH   2   3
ENDBRANCH   1   2
BRANCH   1  32
ATOM     32  C   UNL A   1      40.629  20.070  26.407  1.00  0.00     0.002 C 
BRANCH  32  33
ATOM     33  C   UNL A   1      42.621  19.230  26.090  1.00  0.00     0.002 C 
BRANCH  33  34
ATOM     34  C   UNL A   1      43.792  19.067  24.775  1.00  0.00     0.021 C 
BRANCH  34  35
ATOM     35  C   UNL A   1      45.237  19.587  24.724  1.00  0.00     0.116 C 
BRANCH  35  36
ATOM     36  N   UNL A   1      45.527  20.792  23.950  1.00  0.00    -0.352 N 
ATOM     37  C   UNL A   1      44.748  21.952  24.066  1.00  0.00     0.251 C 
ATOM     38  H   UNL A   1      46.292  20.788  23.329  1.00  0.00     0.163 HD
ATOM     39  O   UNL A   1      44.033  22.399  23.185  1.00  0.00    -0.269 OA
BRANCH  37  40
ATOM     40  C   UNL A   1      45.065  22.754  25.271  1.00  0.00     0.039 A 
ATOM     41  C   UNL A   1      44.520  22.407  26.513  1.00  0.00     0.014 A 
ATOM     42  C   UNL A   1      45.530  24.036  25.022  1.00  0.00     0.014 A 
ATOM     43  C   UNL A   1      44.227  23.428  27.406  1.00  0.00     0.010 A 
ATOM     44  C   UNL A   1      45.022  25.053  25.768  1.00  0.00     0.010 A 
ATOM     45  C   UNL A   1      44.373  24.742  26.959  1.00  0.00    -0.014 A 
BRANCH  45  46
ATOM     46  C   UNL A   1      44.160  25.914  27.771  1.00  0.00     0.031 A 
ATOM     47  C   UNL A   1      42.836  26.523  27.553  1.00  0.00     0.074 A 
ATOM     48  C   UNL A   1      45.084  26.222  28.705  1.00  0.00     0.049 A 
ATOM     49  N   UNL A   1      42.603  27.781  27.507  1.00  0.00    -0.248 NA
ATOM     50  C   UNL A   1      41.645  25.725  27.205  1.00  0.00     0.031 C 
ATOM     51  C   UNL A   1      45.044  27.201  29.782  1.00  0.00     0.029 A 
ATOM     52  N   UNL A   1      46.416  25.784  28.706  1.00  0.00    -0.354 N 
ATOM     53  C   UNL A   1      41.230  27.906  27.587  1.00  0.00     0.074 A 
ATOM     54  C   UNL A   1      40.689  26.653  27.152  1.00  0.00     0.031 C 
ATOM     55  C   UNL A   1      46.311  27.559  30.078  1.00  0.00     0.029 A 
ATOM     56  C   UNL A   1      47.187  26.886  29.129  1.00  0.00     0.049 A 
ATOM     57  H   UNL A   1      46.746  24.889  28.460  1.00  0.00     0.167 HD
ATOM     58  C   UNL A   1      40.716  28.945  28.297  1.00  0.00     0.031 A 
ATOM     59  C   UNL A   1      48.007  27.510  28.231  1.00  0.00     0.031 A 
ATOM     60  C   UNL A   1      41.813  29.737  28.846  1.00  0.00     0.049 A 
ATOM     61  C   UNL A   1      47.500  28.886  27.892  1.00  0.00     0.074 A 
ATOM     62  C   UNL A   1      42.426  29.727  30.088  1.00  0.00     0.029 A 
ATOM     63  N   UNL A   1      42.710  30.321  27.967  1.00  0.00    -0.354 N 
ATOM     64  N   UNL A   1      46.245  29.241  27.964  1.00  0.00    -0.248 NA
ATOM     65  C   UNL A   1      48.383  29.987  27.531  1.00  0.00     0.031 C 
ATOM     66  C   UNL A   1      43.729  30.276  29.929  1.00  0.00     0.029 A 
ATOM     67  C   UNL A   1      43.897  30.623  28.599  1.00  0.00     0.049 A 
ATOM     68  H   UNL A   1      42.524  30.497  27.015  1.00  0.00     0.167 HD
ATOM     69  C   UNL A   1      46.146  30.590  27.751  1.00  0.00     0.074 A 
ATOM     70  C   UNL A   1      47.510  31.007  27.475  1.00  0.00     0.031 C 
ATOM     71  C   UNL A   1      44.963  31.269  27.846  1.00  0.00     0.031 A 
BRANCH  58  72
ATOM     72  C   UNL A   1      39.293  29.056  28.774  1.00  0.00    -0.014 A 
ATOM     73  C   UNL A   1      38.321  29.532  27.876  1.00  0.00     0.009 A 
ATOM     74  C   UNL A   1      38.833  28.715  30.060  1.00  0.00     0.009 A 
ATOM     75  C   UNL A   1      36.980  29.695  28.241  1.00  0.00     0.001 A 
ATOM     76  C   UNL A   1      37.493  28.894  30.439  1.00  0.00     0.001 A 
ATOM     77  C   UNL A   1      36.566  29.382  29.527  1.00  0.00     0.000 A 
ENDBRANCH  58  72
BRANCH  59  78
ATOM     78  C   UNL A   1      48.650  26.543  27.294  1.00  0.00    -0.014 A 
ATOM     79  C   UNL A   1      48.327  26.693  25.931  1.00  0.00     0.009 A 
ATOM     80  C   UNL A   1      49.852  25.903  27.626  1.00  0.00     0.009 A 
ATOM     81  C   UNL A   1      49.275  26.420  24.944  1.00  0.00     0.001 A 
ATOM     82  C   UNL A   1      50.797  25.633  26.625  1.00  0.00     0.001 A 
ATOM     83  C   UNL A   1      50.539  25.961  25.297  1.00  0.00     0.000 A 
ENDBRANCH  59  78
BRANCH  71  84
ATOM     84  C   UNL A   1      44.678  32.643  27.273  1.00  0.00    -0.014 A 
ATOM     85  C   UNL A   1      44.596  33.816  28.025  1.00  0.00     0.009 A 
ATOM     86  C   UNL A   1      44.611  32.804  25.867  1.00  0.00     0.009 A 
ATOM     87  C   UNL A   1      44.403  35.064  27.419  1.00  0.00     0.001 A 
ATOM     88  C   UNL A   1      44.503  34.050  25.253  1.00  0.00     0.001 A 
ATOM     89  C   UNL A   1      44.375  35.183  26.034  1.00  0.00     0.000 A 
ENDBRANCH  71  84
ENDBRANCH  45  46
ENDBRANCH  37  40
ENDBRANCH  35  36
ENDBRANCH  34  35
ENDBRANCH  33  34
ENDBRANCH  32  33
ENDBRANCH   1  32
TORSDOF 18
ENDMDL
MODEL 3
REMARK VINA RESULT:     -13.6      4.834     10.137
REMARK SMILES Cc1ccccc1NC(=S)NN1C(=O)CS[C@H]1c1ccccc1C(=O)NCCCCCCNC(=O)c1ccc(-c2c3nc(c(-c4ccccc4)c4ccc([nH]4)c(-c4ccccc4)c4nc(c(-c5ccccc5)c5ccc2[nH]5)C=C4)C=C3)cc1
REMARK SMILES IDX 28 1 27 2 26 3 24 4 25 5 23 7 18 8 19 9 20 10 22 11 21 12
REMARK SMILES IDX 17 13 12 14 13 15 14 16 15 17 16 18 11 19 9 21 10 22 8 23
REMARK SMILES IDX 7 25 1 26 2 27 3 28 4 29 6 30 5 31 29 32 30 33 31 34 32 35
REMARK SMILES IDX 33 36 34 37 35 39 36 40 37 41 83 42 38 43 82 44 39 45 40 46
REMARK SMILES IDX 41 47 76 48 42 49 81 50 75 51 77 52 43 53 80 54 74 55 73 56
REMARK SMILES IDX 44 58 66 59 51 60 65 61 52 62 55 63 64 64 78 65 53 66 54 67
REMARK SMILES IDX 63 69 79 70 56 71 45 72 46 73 50 74 47 75 49 76 48 77 67 78
REMARK SMILES IDX 68 79 72 80 69 81 71 82 70 83 57 84 58 85 62 86 59 87 61 88
REMARK SMILES IDX 60 89
REMARK H PARENT 26 6 11 20 8 24 33 38 77 57 55 68
REMARK Flexibility Score: inf
ROOT
ATOM      1  C   UNL A   1      37.782  22.590  25.920  1.00  0.00     0.021 C 
ENDROOT
BRANCH   1   2
ATOM      2  C   UNL A   1      36.348  23.234  26.039  1.00  0.00     0.116 C 
BRANCH   2   3
ATOM      3  N   UNL A   1      35.980  24.504  25.313  1.00  0.00    -0.352 N 
ATOM      4  C   UNL A   1      34.628  24.944  25.245  1.00  0.00     0.251 C 
ATOM      5  O   UNL A   1      34.090  25.295  26.298  1.00  0.00    -0.269 OA
ATOM      6  H   UNL A   1      36.686  25.037  24.880  1.00  0.00     0.163 HD
BRANCH   4   7
ATOM      7  C   UNL A   1      33.857  25.225  23.922  1.00  0.00     0.046 A 
ATOM      8  C   UNL A   1      33.045  24.359  23.157  1.00  0.00    -0.001 A 
ATOM      9  C   UNL A   1      32.558  24.761  21.873  1.00  0.00     0.007 A 
ATOM     10  C   UNL A   1      32.785  26.022  21.359  1.00  0.00     0.000 A 
ATOM     11  C   UNL A   1      33.993  26.534  23.400  1.00  0.00     0.014 A 
ATOM     12  C   UNL A   1      33.477  26.923  22.143  1.00  0.00     0.001 A 
BRANCH   8  13
ATOM     13  C   UNL A   1      32.910  22.920  23.453  1.00  0.00     0.197 C 
ATOM     14  N   UNL A   1      32.551  22.459  24.762  1.00  0.00    -0.236 N 
ATOM     15  C   UNL A   1      33.097  21.140  24.591  1.00  0.00     0.252 C 
ATOM     16  O   UNL A   1      34.256  20.821  24.855  1.00  0.00    -0.272 OA
ATOM     17  C   UNL A   1      32.355  20.405  23.495  1.00  0.00     0.174 C 
ATOM     18  S   UNL A   1      31.943  21.780  22.374  1.00  0.00    -0.120 SA
BRANCH  14  19
ATOM     19  N   UNL A   1      31.018  22.737  25.152  1.00  0.00    -0.270 N 
ATOM     20  H   UNL A   1      30.331  22.342  24.566  1.00  0.00     0.191 HD
BRANCH  19  21
ATOM     21  C   UNL A   1      30.564  23.487  26.245  1.00  0.00     0.189 C 
ATOM     22  S   UNL A   1      29.462  22.767  27.293  1.00  0.00    -0.039 S 
BRANCH  21  23
ATOM     23  N   UNL A   1      31.007  24.750  26.606  1.00  0.00    -0.331 N 
ATOM     24  H   UNL A   1      31.550  24.771  27.427  1.00  0.00     0.169 HD
BRANCH  23  25
ATOM     25  C   UNL A   1      30.818  26.012  26.005  1.00  0.00     0.043 A 
ATOM     26  C   UNL A   1      29.558  25.279  23.449  1.00  0.00     0.046 C 
ATOM     27  C   UNL A   1      30.071  26.327  24.387  1.00  0.00    -0.028 A 
ATOM     28  C   UNL A   1      30.259  27.963  23.616  1.00  0.00     0.005 A 
ATOM     29  C   UNL A   1      31.115  29.287  24.486  1.00  0.00     0.000 A 
ATOM     30  C   UNL A   1      31.585  27.364  26.853  1.00  0.00     0.026 A 
ATOM     31  C   UNL A   1      31.829  28.962  26.090  1.00  0.00     0.002 A 
ENDBRANCH  23  25
ENDBRANCH  21  23
ENDBRANCH  19  21
ENDBRANCH  14  19
ENDBRANCH   8  13
ENDBRANCH   4   7
ENDBRANCH   2   3
ENDBRANCH   1   2
BRANCH   1  32
ATOM     32  C   UNL A   1      39.160  23.246  26.840  1.00  0.00     0.002 C 
BRANCH  32  33
ATOM     33  C   UNL A   1      41.025  22.595  27.773  1.00  0.00     0.002 C 
BRANCH  33  34
ATOM     34  C   UNL A   1      42.534  21.806  27.299  1.00  0.00     0.021 C 
BRANCH  34  35
ATOM     35  C   UNL A   1      42.758  20.798  26.160  1.00  0.00     0.116 C 
BRANCH  35  36
ATOM     36  N   UNL A   1      44.077  20.718  25.538  1.00  0.00    -0.352 N 
ATOM     37  C   UNL A   1      44.582  21.751  24.735  1.00  0.00     0.251 C 
ATOM     38  H   UNL A   1      44.628  19.915  25.687  1.00  0.00     0.163 HD
ATOM     39  O   UNL A   1      44.779  21.665  23.535  1.00  0.00    -0.269 OA
BRANCH  37  40
ATOM     40  C   UNL A   1      45.113  22.894  25.515  1.00  0.00     0.039 A 
ATOM     41  C   UNL A   1      45.460  22.729  26.861  1.00  0.00     0.014 A 
ATOM     42  C   UNL A   1      44.834  24.147  24.991  1.00  0.00     0.014 A 
ATOM     43  C   UNL A   1      45.279  23.806  27.718  1.00  0.00     0.010 A 
ATOM     44  C   UNL A   1      44.416  25.116  25.849  1.00  0.00     0.010 A 
ATOM     45  C   UNL A   1      44.643  24.939  27.210  1.00  0.00    -0.014 A 
BRANCH  45  46
ATOM     46  C   UNL A   1      44.423  26.158  27.949  1.00  0.00     0.031 A 
ATOM     47  C   UNL A   1      43.043  26.660  27.819  1.00  0.00     0.074 A 
ATOM     48  C   UNL A   1      45.406  26.600  28.761  1.00  0.00     0.049 A 
ATOM     49  N   UNL A   1      42.717  27.892  27.701  1.00  0.00    -0.248 NA
ATOM     50  C   UNL A   1      41.886  25.760  27.652  1.00  0.00     0.031 C 
ATOM     51  C   UNL A   1      45.397  27.660  29.760  1.00  0.00     0.029 A 
ATOM     52  N   UNL A   1      46.760  26.251  28.662  1.00  0.00    -0.354 N 
ATOM     53  C   UNL A   1      41.353  27.935  27.908  1.00  0.00     0.074 A 
ATOM     54  C   UNL A   1      40.864  26.617  27.624  1.00  0.00     0.031 C 
ATOM     55  C   UNL A   1      46.657  28.123  29.900  1.00  0.00     0.029 A 
ATOM     56  C   UNL A   1      47.486  27.431  28.922  1.00  0.00     0.049 A 
ATOM     57  H   UNL A   1      47.130  25.362  28.453  1.00  0.00     0.167 HD
ATOM     58  C   UNL A   1      40.834  28.992  28.586  1.00  0.00     0.031 A 
ATOM     59  C   UNL A   1      48.170  28.031  27.902  1.00  0.00     0.031 A 
ATOM     60  C   UNL A   1      41.917  29.896  28.961  1.00  0.00     0.049 A 
ATOM     61  C   UNL A   1      47.536  29.340  27.512  1.00  0.00     0.074 A 
ATOM     62  C   UNL A   1      42.643  30.027  30.134  1.00  0.00     0.029 A 
ATOM     63  N   UNL A   1      42.683  30.463  27.956  1.00  0.00    -0.354 N 
ATOM     64  N   UNL A   1      46.271  29.617  27.682  1.00  0.00    -0.248 NA
ATOM     65  C   UNL A   1      48.299  30.462  26.984  1.00  0.00     0.031 C 
ATOM     66  C   UNL A   1      43.883  30.645  29.805  1.00  0.00     0.029 A 
ATOM     67  C   UNL A   1      43.900  30.892  28.442  1.00  0.00     0.049 A 
ATOM     68  H   UNL A   1      42.396  30.548  27.017  1.00  0.00     0.167 HD
ATOM     69  C   UNL A   1      46.054  30.935  27.379  1.00  0.00     0.074 A 
ATOM     70  C   UNL A   1      47.353  31.415  26.938  1.00  0.00     0.031 C 
ATOM     71  C   UNL A   1      44.840  31.542  27.540  1.00  0.00     0.031 A 
BRANCH  58  72
ATOM     72  C   UNL A   1      39.457  29.050  29.193  1.00  0.00    -0.014 A 
ATOM     73  C   UNL A   1      39.273  28.525  30.485  1.00  0.00     0.009 A 
ATOM     74  C   UNL A   1      38.316  29.596  28.578  1.00  0.00     0.009 A 
ATOM     75  C   UNL A   1      38.024  28.511  31.116  1.00  0.00     0.001 A 
ATOM     76  C   UNL A   1      37.056  29.568  29.197  1.00  0.00     0.001 A 
ATOM     77  C   UNL A   1      36.911  29.026  30.468  1.00  0.00     0.000 A 
ENDBRANCH  58  72
BRANCH  59  78
ATOM     78  C   UNL A   1      48.791  27.034  26.981  1.00  0.00    -0.014 A 
ATOM     79  C   UNL A   1      48.495  27.188  25.613  1.00  0.00     0.009 A 
ATOM     80  C   UNL A   1      49.962  26.351  27.337  1.00  0.00     0.009 A 
ATOM     81  C   UNL A   1      49.448  26.873  24.643  1.00  0.00     0.001 A 
ATOM     82  C   UNL A   1      50.912  26.039  26.352  1.00  0.00     0.001 A 
ATOM     83  C   UNL A   1      50.688  26.368  25.018  1.00  0.00     0.000 A 
ENDBRANCH  59  78
BRANCH  71  84
ATOM     84  C   UNL A   1      44.404  32.842  26.896  1.00  0.00    -0.014 A 
ATOM     85  C   UNL A   1      44.172  33.014  25.530  1.00  0.00     0.009 A 
ATOM     86  C   UNL A   1      44.077  33.946  27.722  1.00  0.00     0.009 A 
ATOM     87  C   UNL A   1      43.698  34.226  25.013  1.00  0.00     0.001 A 
ATOM     88  C   UNL A   1      43.526  35.125  27.224  1.00  0.00     0.001 A 
ATOM     89  C   UNL A   1      43.358  35.274  25.861  1.00  0.00     0.000 A 
ENDBRANCH  71  84
ENDBRANCH  45  46
ENDBRANCH  37  40
ENDBRANCH  35  36
ENDBRANCH  34  35
ENDBRANCH  33  34
ENDBRANCH  32  33
ENDBRANCH   1  32
TORSDOF 18
ENDMDL
