MODEL 1
REMARK VINA RESULT:     -10.4      0.000      0.000
REMARK SMILES Cn1cc(/C=C2\SC(=S)N(c3cccc(C(=O)NCCCCCCNC(=O)c4ccc(-c5c6nc(c(-c7ccccc7)c7ccc([nH]7)c(-c7ccccc7)c7nc(c(-c8ccccc8)c8ccc5[nH]8)C=C7)C=C6)cc4)c3)C2=O)c2ccccc21
REMARK SMILES IDX 21 1 20 2 19 3 18 4 16 5 17 6 15 8 11 9 12 10 76 11 13 12
REMARK SMILES IDX 14 13 10 14 5 15 6 16 7 17 77 18 8 19 78 20 9 21 4 22 1 23
REMARK SMILES IDX 2 24 3 25 84 26 79 27 83 28 80 29 82 30 81 31 22 32 23 33
REMARK SMILES IDX 24 34 25 35 26 36 27 38 28 39 29 40 75 41 30 42 74 43 31 44
REMARK SMILES IDX 32 45 33 46 68 47 34 48 73 49 67 50 69 51 35 52 72 53 66 54
REMARK SMILES IDX 65 55 36 57 58 58 43 59 57 60 44 61 47 62 56 63 70 64 45 65
REMARK SMILES IDX 46 66 55 68 71 69 48 70 37 71 38 72 42 73 39 74 41 75 40 76
REMARK SMILES IDX 59 77 60 78 64 79 61 80 63 81 62 82 49 83 50 84 54 85 51 86
REMARK SMILES IDX 53 87 52 88
REMARK H PARENT 18 7 25 37 69 56 47 67
REMARK Flexibility Score: inf
ROOT
ATOM      1  C   UNL A   1      39.053  28.907  29.262  1.00  0.00     0.002 C 
ENDROOT
BRANCH   1   2
ATOM      2  C   UNL A   1      40.563  28.786  29.459  1.00  0.00     0.021 C 
BRANCH   2   3
ATOM      3  C   UNL A   1      41.173  27.411  29.222  1.00  0.00     0.116 C 
BRANCH   3   4
ATOM      4  N   UNL A   1      42.339  27.404  28.356  1.00  0.00    -0.352 N 
ATOM      5  C   UNL A   1      43.002  26.374  27.720  1.00  0.00     0.251 C 
ATOM      6  O   UNL A   1      43.991  26.645  27.041  1.00  0.00    -0.269 OA
ATOM      7  H   UNL A   1      42.729  28.294  28.194  1.00  0.00     0.163 HD
BRANCH   5   8
ATOM      8  C   UNL A   1      42.608  24.945  27.884  1.00  0.00     0.041 A 
ATOM      9  C   UNL A   1      41.088  23.099  27.414  1.00  0.00     0.051 A 
ATOM     10  C   UNL A   1      41.615  22.413  28.515  1.00  0.00     0.027 A 
ATOM     11  C   UNL A   1      41.677  24.318  27.052  1.00  0.00     0.040 A 
ATOM     12  C   UNL A   1      42.675  22.949  29.251  1.00  0.00     0.003 A 
ATOM     13  C   UNL A   1      43.148  24.227  28.956  1.00  0.00     0.014 A 
BRANCH   9  14
ATOM     14  N   UNL A   1      39.866  22.680  26.790  1.00  0.00    -0.261 N 
ATOM     15  C   UNL A   1      36.630  23.742  25.505  1.00  0.00     0.031 C 
ATOM     16  C   UNL A   1      37.735  23.043  25.815  1.00  0.00     0.081 C 
ATOM     17  S   UNL A   1      38.147  21.461  25.292  1.00  0.00    -0.054 SA
ATOM     18  C   UNL A   1      38.824  23.605  26.658  1.00  0.00     0.270 C 
ATOM     19  C   UNL A   1      39.668  21.451  26.173  1.00  0.00     0.152 C 
ATOM     20  O   UNL A   1      38.774  24.748  27.094  1.00  0.00    -0.268 OA
ATOM     21  S   UNL A   1      40.584  20.051  26.234  1.00  0.00    -0.051 S 
BRANCH  15  22
ATOM     22  C   UNL A   1      35.516  23.265  24.749  1.00  0.00     0.001 A 
ATOM     23  C   UNL A   1      33.341  23.362  21.864  1.00  0.00     0.149 C 
ATOM     24  N   UNL A   1      34.039  23.095  23.102  1.00  0.00    -0.350 N 
ATOM     25  C   UNL A   1      35.158  23.762  23.515  1.00  0.00     0.094 A 
ATOM     26  C   UNL A   1      33.676  22.143  24.030  1.00  0.00     0.048 A 
ATOM     27  C   UNL A   1      34.607  22.212  25.074  1.00  0.00     0.007 A 
ATOM     28  C   UNL A   1      32.608  21.232  24.037  1.00  0.00     0.027 A 
ATOM     29  C   UNL A   1      34.464  21.324  26.163  1.00  0.00     0.011 A 
ATOM     30  C   UNL A   1      32.488  20.368  25.127  1.00  0.00     0.002 A 
ATOM     31  C   UNL A   1      33.403  20.409  26.175  1.00  0.00     0.001 A 
ENDBRANCH  15  22
ENDBRANCH   9  14
ENDBRANCH   5   8
ENDBRANCH   3   4
ENDBRANCH   2   3
ENDBRANCH   1   2
BRANCH   1  32
ATOM     32  C   UNL A   1      38.590  29.554  27.955  1.00  0.00     0.002 C 
BRANCH  32  33
ATOM     33  C   UNL A   1      37.089  29.826  27.827  1.00  0.00     0.021 C 
BRANCH  33  34
ATOM     34  C   UNL A   1      36.272  29.631  29.101  1.00  0.00     0.116 C 
BRANCH  34  35
ATOM     35  N   UNL A   1      35.601  30.846  29.528  1.00  0.00    -0.352 N 
ATOM     36  C   UNL A   1      35.814  31.614  30.648  1.00  0.00     0.251 C 
ATOM     37  H   UNL A   1      34.890  31.166  28.929  1.00  0.00     0.163 HD
ATOM     38  O   UNL A   1      35.038  32.517  30.933  1.00  0.00    -0.269 OA
BRANCH  36  39
ATOM     39  C   UNL A   1      36.971  31.333  31.526  1.00  0.00     0.039 A 
ATOM     40  C   UNL A   1      38.212  31.892  31.208  1.00  0.00     0.014 A 
ATOM     41  C   UNL A   1      36.838  30.517  32.653  1.00  0.00     0.014 A 
ATOM     42  C   UNL A   1      39.303  31.686  32.054  1.00  0.00     0.010 A 
ATOM     43  C   UNL A   1      37.907  30.373  33.534  1.00  0.00     0.010 A 
ATOM     44  C   UNL A   1      39.151  30.955  33.244  1.00  0.00    -0.014 A 
BRANCH  44  45
ATOM     45  C   UNL A   1      40.278  30.787  34.199  1.00  0.00     0.031 A 
ATOM     46  C   UNL A   1      41.087  29.518  34.196  1.00  0.00     0.074 A 
ATOM     47  C   UNL A   1      40.527  31.746  35.114  1.00  0.00     0.049 A 
ATOM     48  N   UNL A   1      42.048  29.151  35.007  1.00  0.00    -0.248 NA
ATOM     49  C   UNL A   1      40.761  28.520  33.165  1.00  0.00     0.031 C 
ATOM     50  C   UNL A   1      39.793  33.007  35.246  1.00  0.00     0.029 A 
ATOM     51  N   UNL A   1      41.459  31.800  36.121  1.00  0.00    -0.354 N 
ATOM     52  C   UNL A   1      42.420  27.875  34.600  1.00  0.00     0.074 A 
ATOM     53  C   UNL A   1      41.560  27.514  33.495  1.00  0.00     0.031 C 
ATOM     54  C   UNL A   1      40.312  33.715  36.262  1.00  0.00     0.029 A 
ATOM     55  C   UNL A   1      41.381  32.941  36.885  1.00  0.00     0.049 A 
ATOM     56  H   UNL A   1      42.121  31.090  36.281  1.00  0.00     0.167 HD
ATOM     57  C   UNL A   1      43.398  27.082  35.095  1.00  0.00     0.031 A 
ATOM     58  C   UNL A   1      42.076  33.314  37.977  1.00  0.00     0.031 A 
ATOM     59  C   UNL A   1      44.269  27.451  36.178  1.00  0.00     0.049 A 
ATOM     60  C   UNL A   1      43.148  32.402  38.510  1.00  0.00     0.074 A 
ATOM     61  C   UNL A   1      45.339  26.743  36.698  1.00  0.00     0.029 A 
ATOM     62  N   UNL A   1      44.169  28.623  36.909  1.00  0.00    -0.354 N 
ATOM     63  N   UNL A   1      43.542  31.235  38.060  1.00  0.00    -0.248 NA
ATOM     64  C   UNL A   1      43.880  32.863  39.700  1.00  0.00     0.031 C 
ATOM     65  C   UNL A   1      45.845  27.456  37.788  1.00  0.00     0.029 A 
ATOM     66  C   UNL A   1      45.137  28.641  37.900  1.00  0.00     0.049 A 
ATOM     67  H   UNL A   1      43.510  29.336  36.749  1.00  0.00     0.167 HD
ATOM     68  C   UNL A   1      44.589  30.845  38.885  1.00  0.00     0.074 A 
ATOM     69  C   UNL A   1      44.781  31.902  39.853  1.00  0.00     0.031 C 
ATOM     70  C   UNL A   1      45.326  29.708  38.845  1.00  0.00     0.031 A 
BRANCH  57  71
ATOM     71  C   UNL A   1      43.585  25.722  34.482  1.00  0.00    -0.014 A 
ATOM     72  C   UNL A   1      42.965  24.585  35.022  1.00  0.00     0.009 A 
ATOM     73  C   UNL A   1      44.320  25.595  33.292  1.00  0.00     0.009 A 
ATOM     74  C   UNL A   1      43.093  23.344  34.392  1.00  0.00     0.001 A 
ATOM     75  C   UNL A   1      44.423  24.359  32.650  1.00  0.00     0.001 A 
ATOM     76  C   UNL A   1      43.814  23.234  33.204  1.00  0.00     0.000 A 
ENDBRANCH  57  71
BRANCH  58  77
ATOM     77  C   UNL A   1      41.779  34.602  38.663  1.00  0.00    -0.014 A 
ATOM     78  C   UNL A   1      42.460  35.778  38.311  1.00  0.00     0.009 A 
ATOM     79  C   UNL A   1      40.847  34.650  39.713  1.00  0.00     0.009 A 
ATOM     80  C   UNL A   1      42.253  36.959  39.028  1.00  0.00     0.001 A 
ATOM     81  C   UNL A   1      40.614  35.841  40.402  1.00  0.00     0.001 A 
ATOM     82  C   UNL A   1      41.329  36.990  40.071  1.00  0.00     0.000 A 
ENDBRANCH  58  77
BRANCH  70  83
ATOM     83  C   UNL A   1      46.443  29.570  39.841  1.00  0.00    -0.014 A 
ATOM     84  C   UNL A   1      47.727  30.073  39.580  1.00  0.00     0.009 A 
ATOM     85  C   UNL A   1      46.187  28.973  41.086  1.00  0.00     0.009 A 
ATOM     86  C   UNL A   1      48.740  29.951  40.533  1.00  0.00     0.001 A 
ATOM     87  C   UNL A   1      47.191  28.883  42.050  1.00  0.00     0.001 A 
ATOM     88  C   UNL A   1      48.469  29.363  41.769  1.00  0.00     0.000 A 
ENDBRANCH  70  83
ENDBRANCH  44  45
ENDBRANCH  36  39
ENDBRANCH  34  35
ENDBRANCH  33  34
ENDBRANCH  32  33
ENDBRANCH   1  32
TORSDOF 15
ENDMDL
MODEL 2
REMARK VINA RESULT:     -10.4      6.831     10.672
REMARK SMILES Cn1cc(/C=C2\SC(=S)N(c3cccc(C(=O)NCCCCCCNC(=O)c4ccc(-c5c6nc(c(-c7ccccc7)c7ccc([nH]7)c(-c7ccccc7)c7nc(c(-c8ccccc8)c8ccc5[nH]8)C=C7)C=C6)cc4)c3)C2=O)c2ccccc21
REMARK SMILES IDX 21 1 20 2 19 3 18 4 16 5 17 6 15 8 11 9 12 10 76 11 13 12
REMARK SMILES IDX 14 13 10 14 5 15 6 16 7 17 77 18 8 19 78 20 9 21 4 22 1 23
REMARK SMILES IDX 2 24 3 25 84 26 79 27 83 28 80 29 82 30 81 31 22 32 23 33
REMARK SMILES IDX 24 34 25 35 26 36 27 38 28 39 29 40 75 41 30 42 74 43 31 44
REMARK SMILES IDX 32 45 33 46 68 47 34 48 73 49 67 50 69 51 35 52 72 53 66 54
REMARK SMILES IDX 65 55 36 57 58 58 43 59 57 60 44 61 47 62 56 63 70 64 45 65
REMARK SMILES IDX 46 66 55 68 71 69 48 70 37 71 38 72 42 73 39 74 41 75 40 76
REMARK SMILES IDX 59 77 60 78 64 79 61 80 63 81 62 82 49 83 50 84 54 85 51 86
REMARK SMILES IDX 53 87 52 88
REMARK H PARENT 18 7 25 37 69 56 47 67
REMARK Flexibility Score: inf
ROOT
ATOM      1  C   UNL A   1      39.804  28.865  29.612  1.00  0.00     0.002 C 
ENDROOT
BRANCH   1   2
ATOM      2  C   UNL A   1      41.063  29.719  29.482  1.00  0.00     0.021 C 
BRANCH   2   3
ATOM      3  C   UNL A   1      41.304  30.748  30.578  1.00  0.00     0.116 C 
BRANCH   3   4
ATOM      4  N   UNL A   1      41.016  32.121  30.199  1.00  0.00    -0.352 N 
ATOM      5  C   UNL A   1      39.836  32.835  30.174  1.00  0.00     0.251 C 
ATOM      6  O   UNL A   1      39.868  34.004  29.790  1.00  0.00    -0.269 OA
ATOM      7  H   UNL A   1      41.804  32.634  29.906  1.00  0.00     0.163 HD
BRANCH   5   8
ATOM      8  C   UNL A   1      38.520  32.225  30.523  1.00  0.00     0.041 A 
ATOM      9  C   UNL A   1      36.351  31.341  29.853  1.00  0.00     0.051 A 
ATOM     10  C   UNL A   1      35.906  31.492  31.172  1.00  0.00     0.027 A 
ATOM     11  C   UNL A   1      37.697  31.612  29.575  1.00  0.00     0.040 A 
ATOM     12  C   UNL A   1      36.775  31.935  32.173  1.00  0.00     0.003 A 
ATOM     13  C   UNL A   1      38.070  32.332  31.842  1.00  0.00     0.014 A 
BRANCH   9  14
ATOM     14  N   UNL A   1      35.429  31.109  28.778  1.00  0.00    -0.261 N 
ATOM     15  C   UNL A   1      34.117  28.666  26.420  1.00  0.00     0.031 C 
ATOM     16  C   UNL A   1      34.324  29.762  27.170  1.00  0.00     0.081 C 
ATOM     17  S   UNL A   1      33.335  31.161  27.263  1.00  0.00    -0.054 SA
ATOM     18  C   UNL A   1      35.477  29.885  28.101  1.00  0.00     0.270 C 
ATOM     19  C   UNL A   1      34.384  31.954  28.429  1.00  0.00     0.152 C 
ATOM     20  O   UNL A   1      36.286  28.976  28.246  1.00  0.00    -0.268 OA
ATOM     21  S   UNL A   1      34.077  33.537  28.881  1.00  0.00    -0.051 S 
BRANCH  15  22
ATOM     22  C   UNL A   1      33.071  28.484  25.465  1.00  0.00     0.001 A 
ATOM     23  C   UNL A   1      31.358  29.355  22.404  1.00  0.00     0.149 C 
ATOM     24  N   UNL A   1      31.834  28.795  23.649  1.00  0.00    -0.350 N 
ATOM     25  C   UNL A   1      32.957  29.217  24.304  1.00  0.00     0.094 A 
ATOM     26  C   UNL A   1      31.227  27.772  24.346  1.00  0.00     0.048 A 
ATOM     27  C   UNL A   1      32.002  27.538  25.489  1.00  0.00     0.007 A 
ATOM     28  C   UNL A   1      30.063  27.038  24.065  1.00  0.00     0.027 A 
ATOM     29  C   UNL A   1      31.595  26.519  26.379  1.00  0.00     0.011 A 
ATOM     30  C   UNL A   1      29.683  26.040  24.964  1.00  0.00     0.002 A 
ATOM     31  C   UNL A   1      30.438  25.779  26.104  1.00  0.00     0.001 A 
ENDBRANCH  15  22
ENDBRANCH   9  14
ENDBRANCH   5   8
ENDBRANCH   3   4
ENDBRANCH   2   3
ENDBRANCH   1   2
BRANCH   1  32
ATOM     32  C   UNL A   1      39.527  27.887  28.468  1.00  0.00     0.002 C 
BRANCH  32  33
ATOM     33  C   UNL A   1      39.739  26.403  28.777  1.00  0.00     0.021 C 
BRANCH  33  34
ATOM     34  C   UNL A   1      39.724  25.470  27.571  1.00  0.00     0.116 C 
BRANCH  34  35
ATOM     35  N   UNL A   1      40.313  24.173  27.858  1.00  0.00    -0.352 N 
ATOM     36  C   UNL A   1      41.628  23.778  27.801  1.00  0.00     0.251 C 
ATOM     37  H   UNL A   1      39.677  23.475  28.134  1.00  0.00     0.163 HD
ATOM     38  O   UNL A   1      41.923  22.595  27.917  1.00  0.00    -0.269 OA
BRANCH  36  39
ATOM     39  C   UNL A   1      42.690  24.783  27.574  1.00  0.00     0.039 A 
ATOM     40  C   UNL A   1      43.038  25.112  26.261  1.00  0.00     0.014 A 
ATOM     41  C   UNL A   1      43.346  25.391  28.647  1.00  0.00     0.014 A 
ATOM     42  C   UNL A   1      43.999  26.098  26.025  1.00  0.00     0.010 A 
ATOM     43  C   UNL A   1      44.249  26.426  28.410  1.00  0.00     0.010 A 
ATOM     44  C   UNL A   1      44.585  26.790  27.097  1.00  0.00    -0.014 A 
BRANCH  44  45
ATOM     45  C   UNL A   1      45.551  27.896  26.869  1.00  0.00     0.031 A 
ATOM     46  C   UNL A   1      47.019  27.598  26.715  1.00  0.00     0.074 A 
ATOM     47  C   UNL A   1      45.118  29.173  26.873  1.00  0.00     0.049 A 
ATOM     48  N   UNL A   1      48.022  28.431  26.597  1.00  0.00    -0.248 NA
ATOM     49  C   UNL A   1      47.415  26.180  26.717  1.00  0.00     0.031 C 
ATOM     50  C   UNL A   1      43.728  29.600  27.048  1.00  0.00     0.029 A 
ATOM     51  N   UNL A   1      45.810  30.353  26.740  1.00  0.00    -0.354 N 
ATOM     52  C   UNL A   1      49.164  27.642  26.537  1.00  0.00     0.074 A 
ATOM     53  C   UNL A   1      48.738  26.266  26.668  1.00  0.00     0.031 C 
ATOM     54  C   UNL A   1      43.667  30.940  26.998  1.00  0.00     0.029 A 
ATOM     55  C   UNL A   1      45.016  31.471  26.835  1.00  0.00     0.049 A 
ATOM     56  H   UNL A   1      46.782  30.393  26.592  1.00  0.00     0.167 HD
ATOM     57  C   UNL A   1      50.451  28.028  26.376  1.00  0.00     0.031 A 
ATOM     58  C   UNL A   1      45.340  32.779  26.814  1.00  0.00     0.031 A 
ATOM     59  C   UNL A   1      50.872  29.395  26.222  1.00  0.00     0.049 A 
ATOM     60  C   UNL A   1      46.782  33.176  26.648  1.00  0.00     0.074 A 
ATOM     61  C   UNL A   1      52.147  29.877  25.977  1.00  0.00     0.029 A 
ATOM     62  N   UNL A   1      50.035  30.494  26.303  1.00  0.00    -0.354 N 
ATOM     63  N   UNL A   1      47.840  32.412  26.508  1.00  0.00    -0.248 NA
ATOM     64  C   UNL A   1      47.076  34.617  26.625  1.00  0.00     0.031 C 
ATOM     65  C   UNL A   1      52.091  31.273  25.976  1.00  0.00     0.029 A 
ATOM     66  C   UNL A   1      50.771  31.657  26.148  1.00  0.00     0.049 A 
ATOM     67  H   UNL A   1      49.062  30.456  26.448  1.00  0.00     0.167 HD
ATOM     68  C   UNL A   1      48.912  33.279  26.343  1.00  0.00     0.074 A 
ATOM     69  C   UNL A   1      48.379  34.623  26.384  1.00  0.00     0.031 C 
ATOM     70  C   UNL A   1      50.225  32.987  26.174  1.00  0.00     0.031 A 
BRANCH  57  71
ATOM     71  C   UNL A   1      51.514  26.965  26.364  1.00  0.00    -0.014 A 
ATOM     72  C   UNL A   1      51.864  26.295  25.182  1.00  0.00     0.009 A 
ATOM     73  C   UNL A   1      52.237  26.697  27.538  1.00  0.00     0.009 A 
ATOM     74  C   UNL A   1      52.905  25.363  25.181  1.00  0.00     0.001 A 
ATOM     75  C   UNL A   1      53.295  25.786  27.526  1.00  0.00     0.001 A 
ATOM     76  C   UNL A   1      53.625  25.117  26.349  1.00  0.00     0.000 A 
ENDBRANCH  57  71
BRANCH  58  77
ATOM     77  C   UNL A   1      44.290  33.823  26.975  1.00  0.00    -0.014 A 
ATOM     78  C   UNL A   1      43.682  34.410  25.854  1.00  0.00     0.009 A 
ATOM     79  C   UNL A   1      43.928  34.277  28.254  1.00  0.00     0.009 A 
ATOM     80  C   UNL A   1      42.775  35.461  26.008  1.00  0.00     0.001 A 
ATOM     81  C   UNL A   1      42.992  35.302  28.406  1.00  0.00     0.001 A 
ATOM     82  C   UNL A   1      42.429  35.905  27.283  1.00  0.00     0.000 A 
ENDBRANCH  58  77
BRANCH  70  83
ATOM     83  C   UNL A   1      51.171  34.136  25.967  1.00  0.00    -0.014 A 
ATOM     84  C   UNL A   1      51.410  34.670  24.691  1.00  0.00     0.009 A 
ATOM     85  C   UNL A   1      51.791  34.728  27.079  1.00  0.00     0.009 A 
ATOM     86  C   UNL A   1      52.277  35.753  24.531  1.00  0.00     0.001 A 
ATOM     87  C   UNL A   1      52.629  35.832  26.920  1.00  0.00     0.001 A 
ATOM     88  C   UNL A   1      52.879  36.337  25.646  1.00  0.00     0.000 A 
ENDBRANCH  70  83
ENDBRANCH  44  45
ENDBRANCH  36  39
ENDBRANCH  34  35
ENDBRANCH  33  34
ENDBRANCH  32  33
ENDBRANCH   1  32
TORSDOF 15
ENDMDL
MODEL 3
REMARK VINA RESULT:     -10.3      4.278      9.407
REMARK SMILES Cn1cc(/C=C2\SC(=S)N(c3cccc(C(=O)NCCCCCCNC(=O)c4ccc(-c5c6nc(c(-c7ccccc7)c7ccc([nH]7)c(-c7ccccc7)c7nc(c(-c8ccccc8)c8ccc5[nH]8)C=C7)C=C6)cc4)c3)C2=O)c2ccccc21
REMARK SMILES IDX 21 1 20 2 19 3 18 4 16 5 17 6 15 8 11 9 12 10 76 11 13 12
REMARK SMILES IDX 14 13 10 14 5 15 6 16 7 17 77 18 8 19 78 20 9 21 4 22 1 23
REMARK SMILES IDX 2 24 3 25 84 26 79 27 83 28 80 29 82 30 81 31 22 32 23 33
REMARK SMILES IDX 24 34 25 35 26 36 27 38 28 39 29 40 75 41 30 42 74 43 31 44
REMARK SMILES IDX 32 45 33 46 68 47 34 48 73 49 67 50 69 51 35 52 72 53 66 54
REMARK SMILES IDX 65 55 36 57 58 58 43 59 57 60 44 61 47 62 56 63 70 64 45 65
REMARK SMILES IDX 46 66 55 68 71 69 48 70 37 71 38 72 42 73 39 74 41 75 40 76
REMARK SMILES IDX 59 77 60 78 64 79 61 80 63 81 62 82 49 83 50 84 54 85 51 86
REMARK SMILES IDX 53 87 52 88
REMARK H PARENT 18 7 25 37 69 56 47 67
REMARK Flexibility Score: inf
ROOT
ATOM      1  C   UNL A   1      48.050  31.396  33.276  1.00  0.00     0.002 C 
ENDROOT
BRANCH   1   2
ATOM      2  C   UNL A   1      46.830  31.943  32.538  1.00  0.00     0.021 C 
BRANCH   2   3
ATOM      3  C   UNL A   1      46.646  31.489  31.096  1.00  0.00     0.116 C 
BRANCH   3   4
ATOM      4  N   UNL A   1      45.289  31.607  30.590  1.00  0.00    -0.352 N 
ATOM      5  C   UNL A   1      44.662  31.025  29.507  1.00  0.00     0.251 C 
ATOM      6  O   UNL A   1      43.485  31.311  29.289  1.00  0.00    -0.269 OA
ATOM      7  H   UNL A   1      44.713  32.212  31.111  1.00  0.00     0.163 HD
BRANCH   5   8
ATOM      8  C   UNL A   1      45.375  30.125  28.555  1.00  0.00     0.041 A 
ATOM      9  C   UNL A   1      45.685  27.929  27.544  1.00  0.00     0.051 A 
ATOM     10  C   UNL A   1      46.957  28.330  27.117  1.00  0.00     0.027 A 
ATOM     11  C   UNL A   1      44.868  28.882  28.167  1.00  0.00     0.040 A 
ATOM     12  C   UNL A   1      47.408  29.633  27.339  1.00  0.00     0.003 A 
ATOM     13  C   UNL A   1      46.632  30.519  28.086  1.00  0.00     0.014 A 
BRANCH   9  14
ATOM     14  N   UNL A   1      45.295  26.549  27.529  1.00  0.00    -0.261 N 
ATOM     15  C   UNL A   1      43.719  23.893  25.602  1.00  0.00     0.031 C 
ATOM     16  C   UNL A   1      44.390  24.599  26.527  1.00  0.00     0.081 C 
ATOM     17  S   UNL A   1      45.254  23.987  27.878  1.00  0.00    -0.054 SA
ATOM     18  C   UNL A   1      44.516  26.080  26.465  1.00  0.00     0.270 C 
ATOM     19  C   UNL A   1      45.740  25.586  28.425  1.00  0.00     0.152 C 
ATOM     20  O   UNL A   1      44.029  26.728  25.546  1.00  0.00    -0.268 OA
ATOM     21  S   UNL A   1      46.540  25.757  29.886  1.00  0.00    -0.051 S 
BRANCH  15  22
ATOM     22  C   UNL A   1      43.503  22.481  25.612  1.00  0.00     0.001 A 
ATOM     23  C   UNL A   1      41.415  19.576  26.123  1.00  0.00     0.149 C 
ATOM     24  N   UNL A   1      42.458  20.538  25.843  1.00  0.00    -0.350 N 
ATOM     25  C   UNL A   1      42.292  21.893  25.901  1.00  0.00     0.094 A 
ATOM     26  C   UNL A   1      43.752  20.227  25.485  1.00  0.00     0.048 A 
ATOM     27  C   UNL A   1      44.432  21.439  25.310  1.00  0.00     0.007 A 
ATOM     28  C   UNL A   1      44.378  18.983  25.303  1.00  0.00     0.027 A 
ATOM     29  C   UNL A   1      45.791  21.399  24.928  1.00  0.00     0.011 A 
ATOM     30  C   UNL A   1      45.723  18.973  24.930  1.00  0.00     0.002 A 
ATOM     31  C   UNL A   1      46.422  20.162  24.741  1.00  0.00     0.001 A 
ENDBRANCH  15  22
ENDBRANCH   9  14
ENDBRANCH   5   8
ENDBRANCH   3   4
ENDBRANCH   2   3
ENDBRANCH   1   2
BRANCH   1  32
ATOM     32  C   UNL A   1      47.831  30.982  34.733  1.00  0.00     0.002 C 
BRANCH  32  33
ATOM     33  C   UNL A   1      48.899  30.077  35.350  1.00  0.00     0.021 C 
BRANCH  33  34
ATOM     34  C   UNL A   1      49.750  29.290  34.358  1.00  0.00     0.116 C 
BRANCH  34  35
ATOM     35  N   UNL A   1      49.695  27.857  34.585  1.00  0.00    -0.352 N 
ATOM     36  C   UNL A   1      48.619  27.003  34.529  1.00  0.00     0.251 C 
ATOM     37  H   UNL A   1      50.554  27.434  34.813  1.00  0.00     0.163 HD
ATOM     38  O   UNL A   1      48.728  25.846  34.915  1.00  0.00    -0.269 OA
BRANCH  36  39
ATOM     39  C   UNL A   1      47.317  27.491  34.023  1.00  0.00     0.039 A 
ATOM     40  C   UNL A   1      46.231  27.550  34.901  1.00  0.00     0.014 A 
ATOM     41  C   UNL A   1      47.163  27.881  32.690  1.00  0.00     0.014 A 
ATOM     42  C   UNL A   1      45.008  28.060  34.459  1.00  0.00     0.010 A 
ATOM     43  C   UNL A   1      45.966  28.457  32.272  1.00  0.00     0.010 A 
ATOM     44  C   UNL A   1      44.876  28.553  33.150  1.00  0.00    -0.014 A 
BRANCH  44  45
ATOM     45  C   UNL A   1      43.608  29.171  32.681  1.00  0.00     0.031 A 
ATOM     46  C   UNL A   1      42.800  28.507  31.598  1.00  0.00     0.074 A 
ATOM     47  C   UNL A   1      43.223  30.364  33.177  1.00  0.00     0.049 A 
ATOM     48  N   UNL A   1      41.718  28.935  30.997  1.00  0.00    -0.248 NA
ATOM     49  C   UNL A   1      43.281  27.204  31.109  1.00  0.00     0.031 C 
ATOM     50  C   UNL A   1      43.936  31.130  34.202  1.00  0.00     0.029 A 
ATOM     51  N   UNL A   1      42.141  31.153  32.870  1.00  0.00    -0.354 N 
ATOM     52  C   UNL A   1      41.407  27.970  30.047  1.00  0.00     0.074 A 
ATOM     53  C   UNL A   1      42.431  26.952  30.123  1.00  0.00     0.031 C 
ATOM     54  C   UNL A   1      43.266  32.266  34.450  1.00  0.00     0.029 A 
ATOM     55  C   UNL A   1      42.104  32.336  33.571  1.00  0.00     0.049 A 
ATOM     56  H   UNL A   1      41.456  30.896  32.212  1.00  0.00     0.167 HD
ATOM     57  C   UNL A   1      40.356  27.931  29.195  1.00  0.00     0.031 A 
ATOM     58  C   UNL A   1      41.245  33.371  33.497  1.00  0.00     0.031 A 
ATOM     59  C   UNL A   1      39.324  28.931  29.137  1.00  0.00     0.049 A 
ATOM     60  C   UNL A   1      40.094  33.301  32.530  1.00  0.00     0.074 A 
ATOM     61  C   UNL A   1      38.178  28.938  28.358  1.00  0.00     0.029 A 
ATOM     62  N   UNL A   1      39.314  30.101  29.876  1.00  0.00    -0.354 N 
ATOM     63  N   UNL A   1      39.768  32.341  31.698  1.00  0.00    -0.248 NA
ATOM     64  C   UNL A   1      39.183  34.456  32.498  1.00  0.00     0.031 C 
ATOM     65  C   UNL A   1      37.509  30.144  28.579  1.00  0.00     0.029 A 
ATOM     66  C   UNL A   1      38.200  30.855  29.547  1.00  0.00     0.049 A 
ATOM     67  H   UNL A   1      39.996  30.360  30.538  1.00  0.00     0.167 HD
ATOM     68  C   UNL A   1      38.599  32.760  31.076  1.00  0.00     0.074 A 
ATOM     69  C   UNL A   1      38.262  34.050  31.635  1.00  0.00     0.031 C 
ATOM     70  C   UNL A   1      37.869  32.130  30.124  1.00  0.00     0.031 A 
BRANCH  57  71
ATOM     71  C   UNL A   1      40.259  26.772  28.242  1.00  0.00    -0.014 A 
ATOM     72  C   UNL A   1      39.532  25.617  28.568  1.00  0.00     0.009 A 
ATOM     73  C   UNL A   1      40.830  26.878  26.964  1.00  0.00     0.009 A 
ATOM     74  C   UNL A   1      39.394  24.583  27.638  1.00  0.00     0.001 A 
ATOM     75  C   UNL A   1      40.667  25.856  26.027  1.00  0.00     0.001 A 
ATOM     76  C   UNL A   1      39.953  24.708  26.366  1.00  0.00     0.000 A 
ENDBRANCH  57  71
BRANCH  58  77
ATOM     77  C   UNL A   1      41.438  34.579  34.346  1.00  0.00    -0.014 A 
ATOM     78  C   UNL A   1      42.212  35.659  33.894  1.00  0.00     0.009 A 
ATOM     79  C   UNL A   1      40.890  34.636  35.638  1.00  0.00     0.009 A 
ATOM     80  C   UNL A   1      42.475  36.744  34.733  1.00  0.00     0.001 A 
ATOM     81  C   UNL A   1      41.124  35.739  36.461  1.00  0.00     0.001 A 
ATOM     82  C   UNL A   1      41.930  36.784  36.015  1.00  0.00     0.000 A 
ENDBRANCH  58  77
BRANCH  70  83
ATOM     83  C   UNL A   1      36.605  32.800  29.663  1.00  0.00    -0.014 A 
ATOM     84  C   UNL A   1      36.520  33.426  28.410  1.00  0.00     0.009 A 
ATOM     85  C   UNL A   1      35.463  32.754  30.479  1.00  0.00     0.009 A 
ATOM     86  C   UNL A   1      35.325  34.021  27.998  1.00  0.00     0.001 A 
ATOM     87  C   UNL A   1      34.262  33.319  30.051  1.00  0.00     0.001 A 
ATOM     88  C   UNL A   1      34.197  33.960  28.816  1.00  0.00     0.000 A 
ENDBRANCH  70  83
ENDBRANCH  44  45
ENDBRANCH  36  39
ENDBRANCH  34  35
ENDBRANCH  33  34
ENDBRANCH  32  33
ENDBRANCH   1  32
TORSDOF 15
ENDMDL
