MODEL 1
REMARK VINA RESULT:     -10.7      0.000      0.000
REMARK SMILES CN(CC(=O)NCCCCCCNC(=O)c1ccc(-c2c3nc(c(-c4ccccc4)c4ccc([nH]4)c(-c4ccccc4)c4nc(c(-c5ccccc5)c5ccc2[nH]5)C=C4)C=C3)cc1)c1nc2cc(N)ccc2[nH]1
REMARK SMILES IDX 9 1 8 2 7 3 6 4 4 5 5 6 3 8 2 9 1 10 64 11 65 12 73 13 66 14
REMARK SMILES IDX 72 15 67 17 71 18 68 19 70 20 69 21 10 24 11 25 12 26 13 27
REMARK SMILES IDX 14 28 15 30 16 31 17 32 63 33 18 34 62 35 19 36 20 37 21 38
REMARK SMILES IDX 56 39 22 40 61 41 55 42 57 43 23 44 60 45 54 46 53 47 24 49
REMARK SMILES IDX 46 50 31 51 45 52 32 53 35 54 44 55 58 56 33 57 34 58 43 60
REMARK SMILES IDX 59 61 36 62 25 63 26 64 30 65 27 66 29 67 28 68 47 69 48 70
REMARK SMILES IDX 52 71 49 72 51 73 50 74 37 75 38 76 42 77 39 78 41 79 40 80
REMARK H PARENT 6 7 73 16 69 22 69 23 13 29 57 48 35 59
REMARK Flexibility Score: inf
ROOT
ATOM      1  C   UNL A   1      37.408  22.179  24.906  1.00  0.00     0.002 C 
ENDROOT
BRANCH   1   2
ATOM      2  C   UNL A   1      36.384  23.234  24.467  1.00  0.00     0.021 C 
BRANCH   2   3
ATOM      3  C   UNL A   1      35.575  23.841  25.611  1.00  0.00     0.116 C 
BRANCH   3   4
ATOM      4  N   UNL A   1      35.299  22.891  26.662  1.00  0.00    -0.355 N 
ATOM      5  C   UNL A   1      34.136  22.214  26.911  1.00  0.00     0.239 C 
ATOM      6  O   UNL A   1      34.159  21.322  27.765  1.00  0.00    -0.273 OA
ATOM      7  H   UNL A   1      36.043  22.706  27.279  1.00  0.00     0.163 HD
BRANCH   5   8
ATOM      8  C   UNL A   1      32.893  22.475  26.043  1.00  0.00     0.219 C 
BRANCH   8   9
ATOM      9  N   UNL A   1      32.863  21.754  24.753  1.00  0.00    -0.336 N 
ATOM     10  C   UNL A   1      32.814  22.512  23.522  1.00  0.00     0.147 C 
BRANCH   9  11
ATOM     11  C   UNL A   1      33.011  20.407  24.787  1.00  0.00     0.204 A 
ATOM     12  N   UNL A   1      32.168  19.543  25.294  1.00  0.00    -0.213 NA
ATOM     13  N   UNL A   1      34.125  19.760  24.305  1.00  0.00    -0.324 N 
ATOM     14  C   UNL A   1      32.743  18.313  25.151  1.00  0.00     0.093 A 
ATOM     15  C   UNL A   1      33.993  18.418  24.559  1.00  0.00     0.067 A 
ATOM     16  H   UNL A   1      34.889  20.189  23.854  1.00  0.00     0.170 HD
ATOM     17  C   UNL A   1      32.249  17.054  25.516  1.00  0.00     0.056 A 
ATOM     18  C   UNL A   1      34.818  17.315  24.335  1.00  0.00     0.030 A 
ATOM     19  C   UNL A   1      33.048  15.924  25.324  1.00  0.00     0.034 A 
ATOM     20  C   UNL A   1      34.307  16.066  24.726  1.00  0.00     0.028 A 
BRANCH  19  21
ATOM     21  N   UNL A   1      32.544  14.664  25.616  1.00  0.00    -0.399 N 
ATOM     22  H   UNL A   1      31.606  14.563  25.898  1.00  0.00     0.156 HD
ATOM     23  H   UNL A   1      33.123  13.872  25.540  1.00  0.00     0.156 HD
ENDBRANCH  19  21
ENDBRANCH   9  11
ENDBRANCH   8   9
ENDBRANCH   5   8
ENDBRANCH   3   4
ENDBRANCH   2   3
ENDBRANCH   1   2
BRANCH   1  24
ATOM     24  C   UNL A   1      37.003  20.723  24.649  1.00  0.00     0.002 C 
BRANCH  24  25
ATOM     25  C   UNL A   1      38.101  19.687  24.896  1.00  0.00     0.021 C 
BRANCH  25  26
ATOM     26  C   UNL A   1      39.237  20.166  25.793  1.00  0.00     0.116 C 
BRANCH  26  27
ATOM     27  N   UNL A   1      40.303  19.183  25.899  1.00  0.00    -0.352 N 
ATOM     28  C   UNL A   1      41.638  19.372  26.155  1.00  0.00     0.251 C 
ATOM     29  H   UNL A   1      40.027  18.247  25.771  1.00  0.00     0.163 HD
ATOM     30  O   UNL A   1      42.430  18.445  26.021  1.00  0.00    -0.269 OA
BRANCH  28  31
ATOM     31  C   UNL A   1      42.128  20.702  26.578  1.00  0.00     0.039 A 
ATOM     32  C   UNL A   1      42.585  21.595  25.605  1.00  0.00     0.014 A 
ATOM     33  C   UNL A   1      42.153  21.062  27.928  1.00  0.00     0.014 A 
ATOM     34  C   UNL A   1      43.020  22.867  25.982  1.00  0.00     0.010 A 
ATOM     35  C   UNL A   1      42.511  22.356  28.293  1.00  0.00     0.010 A 
ATOM     36  C   UNL A   1      42.959  23.268  27.326  1.00  0.00    -0.014 A 
BRANCH  36  37
ATOM     37  C   UNL A   1      43.380  24.630  27.745  1.00  0.00     0.031 A 
ATOM     38  C   UNL A   1      42.346  25.677  28.055  1.00  0.00     0.074 A 
ATOM     39  C   UNL A   1      44.691  24.942  27.793  1.00  0.00     0.049 A 
ATOM     40  N   UNL A   1      42.514  26.935  28.378  1.00  0.00    -0.248 NA
ATOM     41  C   UNL A   1      40.935  25.265  27.967  1.00  0.00     0.031 C 
ATOM     42  C   UNL A   1      45.793  24.028  27.486  1.00  0.00     0.029 A 
ATOM     43  N   UNL A   1      45.317  26.121  28.115  1.00  0.00    -0.354 N 
ATOM     44  C   UNL A   1      41.236  27.464  28.513  1.00  0.00     0.074 A 
ATOM     45  C   UNL A   1      40.304  26.408  28.184  1.00  0.00     0.031 C 
ATOM     46  C   UNL A   1      46.959  24.671  27.662  1.00  0.00     0.029 A 
ATOM     47  C   UNL A   1      46.687  26.052  28.050  1.00  0.00     0.049 A 
ATOM     48  H   UNL A   1      44.829  26.937  28.369  1.00  0.00     0.167 HD
ATOM     49  C   UNL A   1      40.869  28.710  28.896  1.00  0.00     0.031 A 
ATOM     50  C   UNL A   1      47.622  26.996  28.271  1.00  0.00     0.031 A 
ATOM     51  C   UNL A   1      41.795  29.758  29.233  1.00  0.00     0.049 A 
ATOM     52  C   UNL A   1      47.186  28.379  28.671  1.00  0.00     0.074 A 
ATOM     53  C   UNL A   1      41.522  31.038  29.682  1.00  0.00     0.029 A 
ATOM     54  N   UNL A   1      43.174  29.646  29.156  1.00  0.00    -0.354 N 
ATOM     55  N   UNL A   1      45.975  28.845  28.856  1.00  0.00    -0.248 NA
ATOM     56  C   UNL A   1      48.252  29.364  28.907  1.00  0.00     0.031 C 
ATOM     57  C   UNL A   1      42.734  31.720  29.821  1.00  0.00     0.029 A 
ATOM     58  C   UNL A   1      43.765  30.843  29.524  1.00  0.00     0.049 A 
ATOM     59  H   UNL A   1      43.662  28.836  28.880  1.00  0.00     0.167 HD
ATOM     60  C   UNL A   1      46.134  30.164  29.261  1.00  0.00     0.074 A 
ATOM     61  C   UNL A   1      47.559  30.419  29.310  1.00  0.00     0.031 C 
ATOM     62  C   UNL A   1      45.185  31.082  29.570  1.00  0.00     0.031 A 
BRANCH  49  63
ATOM     63  C   UNL A   1      39.396  29.010  28.963  1.00  0.00    -0.014 A 
ATOM     64  C   UNL A   1      38.699  29.498  27.847  1.00  0.00     0.009 A 
ATOM     65  C   UNL A   1      38.687  28.764  30.149  1.00  0.00     0.009 A 
ATOM     66  C   UNL A   1      37.331  29.773  27.929  1.00  0.00     0.001 A 
ATOM     67  C   UNL A   1      37.314  29.008  30.219  1.00  0.00     0.001 A 
ATOM     68  C   UNL A   1      36.640  29.522  29.113  1.00  0.00     0.000 A 
ENDBRANCH  49  63
BRANCH  50  69
ATOM     69  C   UNL A   1      49.065  26.668  28.129  1.00  0.00    -0.014 A 
ATOM     70  C   UNL A   1      49.810  26.235  29.236  1.00  0.00     0.009 A 
ATOM     71  C   UNL A   1      49.711  26.805  26.890  1.00  0.00     0.009 A 
ATOM     72  C   UNL A   1      51.178  25.977  29.114  1.00  0.00     0.001 A 
ATOM     73  C   UNL A   1      51.071  26.515  26.763  1.00  0.00     0.001 A 
ATOM     74  C   UNL A   1      51.806  26.112  27.877  1.00  0.00     0.000 A 
ENDBRANCH  50  69
BRANCH  62  75
ATOM     75  C   UNL A   1      45.655  32.433  30.032  1.00  0.00    -0.014 A 
ATOM     76  C   UNL A   1      45.925  32.693  31.385  1.00  0.00     0.009 A 
ATOM     77  C   UNL A   1      45.869  33.451  29.088  1.00  0.00     0.009 A 
ATOM     78  C   UNL A   1      46.367  33.957  31.785  1.00  0.00     0.001 A 
ATOM     79  C   UNL A   1      46.342  34.700  29.486  1.00  0.00     0.001 A 
ATOM     80  C   UNL A   1      46.580  34.956  30.836  1.00  0.00     0.000 A 
ENDBRANCH  62  75
ENDBRANCH  36  37
ENDBRANCH  28  31
ENDBRANCH  26  27
ENDBRANCH  25  26
ENDBRANCH  24  25
ENDBRANCH   1  24
TORSDOF 16
ENDMDL
MODEL 2
REMARK VINA RESULT:     -10.7      1.121      6.129
REMARK SMILES CN(CC(=O)NCCCCCCNC(=O)c1ccc(-c2c3nc(c(-c4ccccc4)c4ccc([nH]4)c(-c4ccccc4)c4nc(c(-c5ccccc5)c5ccc2[nH]5)C=C4)C=C3)cc1)c1nc2cc(N)ccc2[nH]1
REMARK SMILES IDX 9 1 8 2 7 3 6 4 4 5 5 6 3 8 2 9 1 10 64 11 65 12 73 13 66 14
REMARK SMILES IDX 72 15 67 17 71 18 68 19 70 20 69 21 10 24 11 25 12 26 13 27
REMARK SMILES IDX 14 28 15 30 16 31 17 32 63 33 18 34 62 35 19 36 20 37 21 38
REMARK SMILES IDX 56 39 22 40 61 41 55 42 57 43 23 44 60 45 54 46 53 47 24 49
REMARK SMILES IDX 46 50 31 51 45 52 32 53 35 54 44 55 58 56 33 57 34 58 43 60
REMARK SMILES IDX 59 61 36 62 25 63 26 64 30 65 27 66 29 67 28 68 47 69 48 70
REMARK SMILES IDX 52 71 49 72 51 73 50 74 37 75 38 76 42 77 39 78 41 79 40 80
REMARK H PARENT 6 7 73 16 69 22 69 23 13 29 57 48 35 59
REMARK Flexibility Score: inf
ROOT
ATOM      1  C   UNL A   1      37.993  22.388  25.390  1.00  0.00     0.002 C 
ENDROOT
BRANCH   1   2
ATOM      2  C   UNL A   1      36.941  23.440  25.765  1.00  0.00     0.021 C 
BRANCH   2   3
ATOM      3  C   UNL A   1      35.889  23.693  24.687  1.00  0.00     0.116 C 
BRANCH   3   4
ATOM      4  N   UNL A   1      34.780  24.483  25.166  1.00  0.00    -0.355 N 
ATOM      5  C   UNL A   1      33.652  24.058  25.811  1.00  0.00     0.239 C 
ATOM      6  O   UNL A   1      32.899  24.916  26.281  1.00  0.00    -0.273 OA
ATOM      7  H   UNL A   1      34.845  25.452  25.007  1.00  0.00     0.163 HD
BRANCH   5   8
ATOM      8  C   UNL A   1      33.423  22.556  26.054  1.00  0.00     0.219 C 
BRANCH   8   9
ATOM      9  N   UNL A   1      32.832  21.817  24.918  1.00  0.00    -0.336 N 
ATOM     10  C   UNL A   1      32.223  22.557  23.835  1.00  0.00     0.147 C 
BRANCH   9  11
ATOM     11  C   UNL A   1      33.005  20.473  24.891  1.00  0.00     0.204 A 
ATOM     12  N   UNL A   1      32.157  19.570  25.316  1.00  0.00    -0.213 NA
ATOM     13  N   UNL A   1      34.151  19.871  24.428  1.00  0.00    -0.324 N 
ATOM     14  C   UNL A   1      32.762  18.359  25.137  1.00  0.00     0.093 A 
ATOM     15  C   UNL A   1      34.034  18.515  24.607  1.00  0.00     0.067 A 
ATOM     16  H   UNL A   1      34.926  20.335  24.034  1.00  0.00     0.170 HD
ATOM     17  C   UNL A   1      32.276  17.074  25.415  1.00  0.00     0.056 A 
ATOM     18  C   UNL A   1      34.889  17.440  24.365  1.00  0.00     0.030 A 
ATOM     19  C   UNL A   1      33.105  15.970  25.202  1.00  0.00     0.034 A 
ATOM     20  C   UNL A   1      34.387  16.163  24.670  1.00  0.00     0.028 A 
BRANCH  19  21
ATOM     21  N   UNL A   1      32.614  14.687  25.408  1.00  0.00    -0.399 N 
ATOM     22  H   UNL A   1      32.671  14.018  24.688  1.00  0.00     0.156 HD
ATOM     23  H   UNL A   1      32.210  14.448  26.273  1.00  0.00     0.156 HD
ENDBRANCH  19  21
ENDBRANCH   9  11
ENDBRANCH   8   9
ENDBRANCH   5   8
ENDBRANCH   3   4
ENDBRANCH   2   3
ENDBRANCH   1   2
BRANCH   1  24
ATOM     24  C   UNL A   1      37.450  21.133  24.698  1.00  0.00     0.002 C 
BRANCH  24  25
ATOM     25  C   UNL A   1      38.229  19.846  24.976  1.00  0.00     0.021 C 
BRANCH  25  26
ATOM     26  C   UNL A   1      39.187  19.926  26.159  1.00  0.00     0.116 C 
BRANCH  26  27
ATOM     27  N   UNL A   1      40.411  19.177  25.924  1.00  0.00    -0.352 N 
ATOM     28  C   UNL A   1      41.714  19.608  25.953  1.00  0.00     0.251 C 
ATOM     29  H   UNL A   1      40.288  18.223  25.716  1.00  0.00     0.163 HD
ATOM     30  O   UNL A   1      42.614  18.883  25.543  1.00  0.00    -0.269 OA
BRANCH  28  31
ATOM     31  C   UNL A   1      42.034  20.958  26.465  1.00  0.00     0.039 A 
ATOM     32  C   UNL A   1      42.329  21.975  25.552  1.00  0.00     0.014 A 
ATOM     33  C   UNL A   1      42.059  21.219  27.837  1.00  0.00     0.014 A 
ATOM     34  C   UNL A   1      42.600  23.264  26.015  1.00  0.00     0.010 A 
ATOM     35  C   UNL A   1      42.251  22.520  28.293  1.00  0.00     0.010 A 
ATOM     36  C   UNL A   1      42.535  23.554  27.387  1.00  0.00    -0.014 A 
BRANCH  36  37
ATOM     37  C   UNL A   1      42.782  24.926  27.899  1.00  0.00     0.031 A 
ATOM     38  C   UNL A   1      44.175  25.352  28.274  1.00  0.00     0.074 A 
ATOM     39  C   UNL A   1      41.748  25.772  28.078  1.00  0.00     0.049 A 
ATOM     40  N   UNL A   1      44.583  26.483  28.793  1.00  0.00    -0.248 NA
ATOM     41  C   UNL A   1      45.250  24.368  28.063  1.00  0.00     0.031 C 
ATOM     42  C   UNL A   1      40.345  25.472  27.783  1.00  0.00     0.029 A 
ATOM     43  N   UNL A   1      41.719  27.058  28.557  1.00  0.00    -0.354 N 
ATOM     44  C   UNL A   1      45.951  26.339  28.984  1.00  0.00     0.074 A 
ATOM     45  C   UNL A   1      46.297  24.994  28.580  1.00  0.00     0.031 C 
ATOM     46  C   UNL A   1      39.598  26.553  28.060  1.00  0.00     0.029 A 
ATOM     47  C   UNL A   1      40.459  27.604  28.594  1.00  0.00     0.049 A 
ATOM     48  H   UNL A   1      42.525  27.543  28.847  1.00  0.00     0.167 HD
ATOM     49  C   UNL A   1      46.846  27.249  29.437  1.00  0.00     0.031 A 
ATOM     50  C   UNL A   1      40.041  28.812  29.016  1.00  0.00     0.031 A 
ATOM     51  C   UNL A   1      46.506  28.590  29.831  1.00  0.00     0.049 A 
ATOM     52  C   UNL A   1      41.052  29.797  29.538  1.00  0.00     0.074 A 
ATOM     53  C   UNL A   1      47.347  29.604  30.254  1.00  0.00     0.029 A 
ATOM     54  N   UNL A   1      45.218  29.103  29.851  1.00  0.00    -0.354 N 
ATOM     55  N   UNL A   1      42.352  29.666  29.653  1.00  0.00    -0.248 NA
ATOM     56  C   UNL A   1      40.537  31.102  29.976  1.00  0.00     0.031 C 
ATOM     57  C   UNL A   1      46.562  30.712  30.586  1.00  0.00     0.029 A 
ATOM     58  C   UNL A   1      45.240  30.412  30.305  1.00  0.00     0.049 A 
ATOM     59  H   UNL A   1      44.409  28.611  29.582  1.00  0.00     0.167 HD
ATOM     60  C   UNL A   1      42.812  30.882  30.144  1.00  0.00     0.074 A 
ATOM     61  C   UNL A   1      41.655  31.741  30.289  1.00  0.00     0.031 C 
ATOM     62  C   UNL A   1      44.081  31.255  30.443  1.00  0.00     0.031 A 
BRANCH  49  63
ATOM     63  C   UNL A   1      48.284  26.818  29.539  1.00  0.00    -0.014 A 
ATOM     64  C   UNL A   1      48.748  26.075  30.635  1.00  0.00     0.009 A 
ATOM     65  C   UNL A   1      49.180  27.128  28.504  1.00  0.00     0.009 A 
ATOM     66  C   UNL A   1      50.088  25.686  30.713  1.00  0.00     0.001 A 
ATOM     67  C   UNL A   1      50.511  26.710  28.567  1.00  0.00     0.001 A 
ATOM     68  C   UNL A   1      50.965  25.999  29.676  1.00  0.00     0.000 A 
ENDBRANCH  49  63
BRANCH  50  69
ATOM     69  C   UNL A   1      38.599  29.169  28.956  1.00  0.00    -0.014 A 
ATOM     70  C   UNL A   1      38.038  29.678  27.774  1.00  0.00     0.009 A 
ATOM     71  C   UNL A   1      37.778  29.022  30.085  1.00  0.00     0.009 A 
ATOM     72  C   UNL A   1      36.695  30.060  27.734  1.00  0.00     0.001 A 
ATOM     73  C   UNL A   1      36.428  29.375  30.033  1.00  0.00     0.001 A 
ATOM     74  C   UNL A   1      35.891  29.905  28.861  1.00  0.00     0.000 A 
ENDBRANCH  50  69
BRANCH  62  75
ATOM     75  C   UNL A   1      44.292  32.667  30.914  1.00  0.00    -0.014 A 
ATOM     76  C   UNL A   1      44.515  33.718  30.010  1.00  0.00     0.009 A 
ATOM     77  C   UNL A   1      44.225  32.955  32.287  1.00  0.00     0.009 A 
ATOM     78  C   UNL A   1      44.703  35.021  30.476  1.00  0.00     0.001 A 
ATOM     79  C   UNL A   1      44.378  34.262  32.747  1.00  0.00     0.001 A 
ATOM     80  C   UNL A   1      44.628  35.293  31.842  1.00  0.00     0.000 A 
ENDBRANCH  62  75
ENDBRANCH  36  37
ENDBRANCH  28  31
ENDBRANCH  26  27
ENDBRANCH  25  26
ENDBRANCH  24  25
ENDBRANCH   1  24
TORSDOF 16
ENDMDL
MODEL 3
REMARK VINA RESULT:     -10.7      5.334     10.187
REMARK SMILES CN(CC(=O)NCCCCCCNC(=O)c1ccc(-c2c3nc(c(-c4ccccc4)c4ccc([nH]4)c(-c4ccccc4)c4nc(c(-c5ccccc5)c5ccc2[nH]5)C=C4)C=C3)cc1)c1nc2cc(N)ccc2[nH]1
REMARK SMILES IDX 9 1 8 2 7 3 6 4 4 5 5 6 3 8 2 9 1 10 64 11 65 12 73 13 66 14
REMARK SMILES IDX 72 15 67 17 71 18 68 19 70 20 69 21 10 24 11 25 12 26 13 27
REMARK SMILES IDX 14 28 15 30 16 31 17 32 63 33 18 34 62 35 19 36 20 37 21 38
REMARK SMILES IDX 56 39 22 40 61 41 55 42 57 43 23 44 60 45 54 46 53 47 24 49
REMARK SMILES IDX 46 50 31 51 45 52 32 53 35 54 44 55 58 56 33 57 34 58 43 60
REMARK SMILES IDX 59 61 36 62 25 63 26 64 30 65 27 66 29 67 28 68 47 69 48 70
REMARK SMILES IDX 52 71 49 72 51 73 50 74 37 75 38 76 42 77 39 78 41 79 40 80
REMARK H PARENT 6 7 73 16 69 22 69 23 13 29 57 48 35 59
REMARK Flexibility Score: inf
ROOT
ATOM      1  C   UNL A   1      32.729  30.039  27.265  1.00  0.00     0.002 C 
ENDROOT
BRANCH   1   2
ATOM      2  C   UNL A   1      32.860  28.519  27.100  1.00  0.00     0.021 C 
BRANCH   2   3
ATOM      3  C   UNL A   1      31.648  27.848  26.459  1.00  0.00     0.116 C 
BRANCH   3   4
ATOM      4  N   UNL A   1      31.383  26.539  27.006  1.00  0.00    -0.355 N 
ATOM      5  C   UNL A   1      31.582  25.319  26.421  1.00  0.00     0.239 C 
ATOM      6  O   UNL A   1      31.441  24.313  27.124  1.00  0.00    -0.273 OA
ATOM      7  H   UNL A   1      31.011  26.523  27.917  1.00  0.00     0.163 HD
BRANCH   5   8
ATOM      8  C   UNL A   1      32.102  25.233  24.976  1.00  0.00     0.219 C 
BRANCH   8   9
ATOM      9  N   UNL A   1      31.057  25.138  23.935  1.00  0.00    -0.336 N 
ATOM     10  C   UNL A   1      30.597  23.833  23.514  1.00  0.00     0.147 C 
BRANCH   9  11
ATOM     11  C   UNL A   1      30.488  26.294  23.515  1.00  0.00     0.204 A 
ATOM     12  N   UNL A   1      31.104  27.313  22.970  1.00  0.00    -0.213 NA
ATOM     13  N   UNL A   1      29.146  26.564  23.647  1.00  0.00    -0.324 N 
ATOM     14  C   UNL A   1      30.153  28.267  22.751  1.00  0.00     0.093 A 
ATOM     15  C   UNL A   1      28.911  27.839  23.196  1.00  0.00     0.067 A 
ATOM     16  H   UNL A   1      28.467  25.946  24.006  1.00  0.00     0.170 HD
ATOM     17  C   UNL A   1      30.287  29.538  22.176  1.00  0.00     0.056 A 
ATOM     18  C   UNL A   1      27.769  28.637  23.133  1.00  0.00     0.030 A 
ATOM     19  C   UNL A   1      29.171  30.377  22.106  1.00  0.00     0.034 A 
ATOM     20  C   UNL A   1      27.932  29.915  22.569  1.00  0.00     0.028 A 
BRANCH  19  21
ATOM     21  N   UNL A   1      29.273  31.611  21.477  1.00  0.00    -0.399 N 
ATOM     22  H   UNL A   1      28.610  31.872  20.797  1.00  0.00     0.156 HD
ATOM     23  H   UNL A   1      30.006  32.224  21.712  1.00  0.00     0.156 HD
ENDBRANCH  19  21
ENDBRANCH   9  11
ENDBRANCH   8   9
ENDBRANCH   5   8
ENDBRANCH   3   4
ENDBRANCH   2   3
ENDBRANCH   1   2
BRANCH   1  24
ATOM     24  C   UNL A   1      31.569  30.686  26.501  1.00  0.00     0.002 C 
BRANCH  24  25
ATOM     25  C   UNL A   1      31.420  32.196  26.695  1.00  0.00     0.021 C 
BRANCH  25  26
ATOM     26  C   UNL A   1      32.720  32.927  27.012  1.00  0.00     0.116 C 
BRANCH  26  27
ATOM     27  N   UNL A   1      32.493  34.149  27.766  1.00  0.00    -0.352 N 
ATOM     28  C   UNL A   1      33.168  34.639  28.856  1.00  0.00     0.251 C 
ATOM     29  H   UNL A   1      31.747  34.708  27.447  1.00  0.00     0.163 HD
ATOM     30  O   UNL A   1      32.721  35.592  29.483  1.00  0.00    -0.269 OA
BRANCH  28  31
ATOM     31  C   UNL A   1      34.433  34.003  29.287  1.00  0.00     0.039 A 
ATOM     32  C   UNL A   1      35.620  34.351  28.637  1.00  0.00     0.014 A 
ATOM     33  C   UNL A   1      34.447  33.057  30.315  1.00  0.00     0.014 A 
ATOM     34  C   UNL A   1      36.828  33.788  29.053  1.00  0.00     0.010 A 
ATOM     35  C   UNL A   1      35.660  32.557  30.780  1.00  0.00     0.010 A 
ATOM     36  C   UNL A   1      36.861  32.908  30.146  1.00  0.00    -0.014 A 
BRANCH  36  37
ATOM     37  C   UNL A   1      38.139  32.326  30.630  1.00  0.00     0.031 A 
ATOM     38  C   UNL A   1      38.660  31.046  30.032  1.00  0.00     0.074 A 
ATOM     39  C   UNL A   1      38.805  32.916  31.642  1.00  0.00     0.049 A 
ATOM     40  N   UNL A   1      39.721  30.353  30.360  1.00  0.00    -0.248 NA
ATOM     41  C   UNL A   1      37.869  30.454  28.940  1.00  0.00     0.031 C 
ATOM     42  C   UNL A   1      38.393  34.142  32.329  1.00  0.00     0.029 A 
ATOM     43  N   UNL A   1      39.971  32.558  32.273  1.00  0.00    -0.354 N 
ATOM     44  C   UNL A   1      39.714  29.240  29.529  1.00  0.00     0.074 A 
ATOM     45  C   UNL A   1      38.517  29.319  28.721  1.00  0.00     0.031 C 
ATOM     46  C   UNL A   1      39.305  34.449  33.265  1.00  0.00     0.029 A 
ATOM     47  C   UNL A   1      40.342  33.421  33.275  1.00  0.00     0.049 A 
ATOM     48  H   UNL A   1      40.492  31.759  32.029  1.00  0.00     0.167 HD
ATOM     49  C   UNL A   1      40.632  28.248  29.430  1.00  0.00     0.031 A 
ATOM     50  C   UNL A   1      41.394  33.386  34.115  1.00  0.00     0.031 A 
ATOM     51  C   UNL A   1      41.829  28.172  30.225  1.00  0.00     0.049 A 
ATOM     52  C   UNL A   1      42.386  32.260  34.001  1.00  0.00     0.074 A 
ATOM     53  C   UNL A   1      42.846  27.236  30.164  1.00  0.00     0.029 A 
ATOM     54  N   UNL A   1      42.167  29.067  31.228  1.00  0.00    -0.354 N 
ATOM     55  N   UNL A   1      42.398  31.249  33.167  1.00  0.00    -0.248 NA
ATOM     56  C   UNL A   1      43.518  32.281  34.939  1.00  0.00     0.031 C 
ATOM     57  C   UNL A   1      43.771  27.531  31.170  1.00  0.00     0.029 A 
ATOM     58  C   UNL A   1      43.365  28.690  31.811  1.00  0.00     0.049 A 
ATOM     59  H   UNL A   1      41.635  29.855  31.487  1.00  0.00     0.167 HD
ATOM     60  C   UNL A   1      43.553  30.534  33.457  1.00  0.00     0.074 A 
ATOM     61  C   UNL A   1      44.223  31.235  34.532  1.00  0.00     0.031 C 
ATOM     62  C   UNL A   1      44.021  29.399  32.880  1.00  0.00     0.031 A 
BRANCH  49  63
ATOM     63  C   UNL A   1      40.371  27.157  28.427  1.00  0.00    -0.014 A 
ATOM     64  C   UNL A   1      40.902  27.215  27.129  1.00  0.00     0.009 A 
ATOM     65  C   UNL A   1      39.611  26.036  28.798  1.00  0.00     0.009 A 
ATOM     66  C   UNL A   1      40.646  26.194  26.211  1.00  0.00     0.001 A 
ATOM     67  C   UNL A   1      39.384  25.000  27.889  1.00  0.00     0.001 A 
ATOM     68  C   UNL A   1      39.893  25.086  26.594  1.00  0.00     0.000 A 
ENDBRANCH  49  63
BRANCH  50  69
ATOM     69  C   UNL A   1      41.575  34.454  35.134  1.00  0.00    -0.014 A 
ATOM     70  C   UNL A   1      42.310  35.611  34.832  1.00  0.00     0.009 A 
ATOM     71  C   UNL A   1      41.031  34.314  36.420  1.00  0.00     0.009 A 
ATOM     72  C   UNL A   1      42.522  36.589  35.806  1.00  0.00     0.001 A 
ATOM     73  C   UNL A   1      41.217  35.309  37.382  1.00  0.00     0.001 A 
ATOM     74  C   UNL A   1      41.973  36.440  37.078  1.00  0.00     0.000 A 
ENDBRANCH  50  69
BRANCH  62  75
ATOM     75  C   UNL A   1      45.340  28.869  33.368  1.00  0.00    -0.014 A 
ATOM     76  C   UNL A   1      46.556  29.316  32.828  1.00  0.00     0.009 A 
ATOM     77  C   UNL A   1      45.365  27.935  34.417  1.00  0.00     0.009 A 
ATOM     78  C   UNL A   1      47.768  28.810  33.305  1.00  0.00     0.001 A 
ATOM     79  C   UNL A   1      46.576  27.458  34.914  1.00  0.00     0.001 A 
ATOM     80  C   UNL A   1      47.777  27.888  34.350  1.00  0.00     0.000 A 
ENDBRANCH  62  75
ENDBRANCH  36  37
ENDBRANCH  28  31
ENDBRANCH  26  27
ENDBRANCH  25  26
ENDBRANCH  24  25
ENDBRANCH   1  24
TORSDOF 16
ENDMDL
