MODEL 1
REMARK VINA RESULT:      -8.2      0.000      0.000
REMARK SMILES O=C(CNc1nccs1)NCCCCCCNC(=O)c1ccc(-c2c3nc(c(-c4ccccc4)c4ccc([nH]4)c(-c4ccccc4)c4nc(c(-c5ccccc5)c5ccc2[nH]5)C=C4)C=C3)cc1
REMARK SMILES IDX 13 1 12 2 11 3 10 4 1 5 2 6 3 8 4 9 5 11 6 12 9 13 7 14 8 15
REMARK SMILES IDX 14 16 15 17 16 18 17 19 18 20 19 22 20 23 21 24 67 25 22 26
REMARK SMILES IDX 66 27 23 28 24 29 25 30 60 31 26 32 65 33 59 34 61 35 27 36
REMARK SMILES IDX 64 37 58 38 57 39 28 41 50 42 35 43 49 44 36 45 39 46 48 47
REMARK SMILES IDX 62 48 37 49 38 50 47 52 63 53 40 54 29 55 30 56 34 57 31 58
REMARK SMILES IDX 33 59 32 60 51 61 52 62 56 63 53 64 55 65 54 66 41 67 42 68
REMARK SMILES IDX 46 69 43 70 45 71 44 72
REMARK H PARENT 10 7 4 10 17 21 61 40 39 51
REMARK Flexibility Score: inf
ROOT
ATOM      1  C   UNL A   1      44.987  21.410  24.311  1.00  0.00     0.002 C 
ENDROOT
BRANCH   1   2
ATOM      2  C   UNL A   1      45.363  22.729  24.999  1.00  0.00     0.021 C 
BRANCH   2   3
ATOM      3  C   UNL A   1      44.584  23.951  24.513  1.00  0.00     0.116 C 
BRANCH   3   4
ATOM      4  N   UNL A   1      45.123  25.179  25.050  1.00  0.00    -0.355 N 
ATOM      5  O   UNL A   1      43.167  26.391  25.072  1.00  0.00    -0.273 OA
ATOM      6  C   UNL A   1      44.370  26.311  25.293  1.00  0.00     0.239 C 
ATOM      7  H   UNL A   1      46.085  25.210  25.256  1.00  0.00     0.163 HD
BRANCH   6   8
ATOM      8  C   UNL A   1      45.203  27.483  25.829  1.00  0.00     0.215 C 
BRANCH   8   9
ATOM      9  N   UNL A   1      44.356  28.367  26.623  1.00  0.00    -0.352 N 
ATOM     10  H   UNL A   1      43.585  27.988  27.103  1.00  0.00     0.163 HD
BRANCH   9  11
ATOM     11  C   UNL A   1      44.602  29.685  26.717  1.00  0.00     0.183 A 
ATOM     12  N   UNL A   1      43.690  30.622  26.826  1.00  0.00    -0.229 NA
ATOM     13  S   UNL A   1      46.227  30.260  26.652  1.00  0.00    -0.106 S 
ATOM     14  C   UNL A   1      44.286  31.866  26.873  1.00  0.00     0.125 A 
ATOM     15  C   UNL A   1      45.658  31.871  26.767  1.00  0.00     0.088 A 
ENDBRANCH   9  11
ENDBRANCH   8   9
ENDBRANCH   6   8
ENDBRANCH   3   4
ENDBRANCH   2   3
ENDBRANCH   1   2
BRANCH   1  16
ATOM     16  C   UNL A   1      45.398  20.134  25.053  1.00  0.00     0.002 C 
BRANCH  16  17
ATOM     17  C   UNL A   1      44.432  18.954  24.917  1.00  0.00     0.021 C 
BRANCH  17  18
ATOM     18  C   UNL A   1      43.567  18.678  26.144  1.00  0.00     0.116 C 
BRANCH  18  19
ATOM     19  N   UNL A   1      42.153  18.568  25.820  1.00  0.00    -0.352 N 
ATOM     20  C   UNL A   1      41.129  19.449  26.059  1.00  0.00     0.251 C 
ATOM     21  H   UNL A   1      41.892  17.736  25.360  1.00  0.00     0.163 HD
ATOM     22  O   UNL A   1      39.964  19.109  25.849  1.00  0.00    -0.269 OA
BRANCH  20  23
ATOM     23  C   UNL A   1      41.410  20.799  26.595  1.00  0.00     0.039 A 
ATOM     24  C   UNL A   1      41.506  20.968  27.979  1.00  0.00     0.014 A 
ATOM     25  C   UNL A   1      41.563  21.897  25.745  1.00  0.00     0.014 A 
ATOM     26  C   UNL A   1      41.819  22.224  28.506  1.00  0.00     0.010 A 
ATOM     27  C   UNL A   1      41.945  23.132  26.267  1.00  0.00     0.010 A 
ATOM     28  C   UNL A   1      42.075  23.310  27.653  1.00  0.00    -0.014 A 
BRANCH  28  29
ATOM     29  C   UNL A   1      42.487  24.630  28.192  1.00  0.00     0.031 A 
ATOM     30  C   UNL A   1      41.475  25.728  28.380  1.00  0.00     0.074 A 
ATOM     31  C   UNL A   1      43.787  24.866  28.459  1.00  0.00     0.049 A 
ATOM     32  N   UNL A   1      41.656  26.957  28.792  1.00  0.00    -0.248 NA
ATOM     33  C   UNL A   1      40.079  25.409  28.038  1.00  0.00     0.031 C 
ATOM     34  C   UNL A   1      44.877  23.903  28.285  1.00  0.00     0.029 A 
ATOM     35  N   UNL A   1      44.414  25.994  28.928  1.00  0.00    -0.354 N 
ATOM     36  C   UNL A   1      40.406  27.561  28.740  1.00  0.00     0.074 A 
ATOM     37  C   UNL A   1      39.484  26.579  28.214  1.00  0.00     0.031 C 
ATOM     38  C   UNL A   1      46.031  24.472  28.669  1.00  0.00     0.029 A 
ATOM     39  C   UNL A   1      45.771  25.849  29.076  1.00  0.00     0.049 A 
ATOM     40  H   UNL A   1      43.934  26.828  29.139  1.00  0.00     0.167 HD
ATOM     41  C   UNL A   1      40.051  28.815  29.114  1.00  0.00     0.031 A 
ATOM     42  C   UNL A   1      46.706  26.727  29.487  1.00  0.00     0.031 A 
ATOM     43  C   UNL A   1      40.965  29.791  29.647  1.00  0.00     0.049 A 
ATOM     44  C   UNL A   1      46.289  28.116  29.884  1.00  0.00     0.074 A 
ATOM     45  C   UNL A   1      40.690  31.066  30.108  1.00  0.00     0.029 A 
ATOM     46  N   UNL A   1      42.331  29.602  29.785  1.00  0.00    -0.354 N 
ATOM     47  N   UNL A   1      45.091  28.648  29.896  1.00  0.00    -0.248 NA
ATOM     48  C   UNL A   1      47.356  29.021  30.336  1.00  0.00     0.031 C 
ATOM     49  C   UNL A   1      41.897  31.669  30.476  1.00  0.00     0.029 A 
ATOM     50  C   UNL A   1      42.916  30.747  30.300  1.00  0.00     0.049 A 
ATOM     51  H   UNL A   1      42.814  28.776  29.551  1.00  0.00     0.167 HD
ATOM     52  C   UNL A   1      45.256  29.938  30.383  1.00  0.00     0.074 A 
ATOM     53  C   UNL A   1      46.666  30.102  30.671  1.00  0.00     0.031 C 
ATOM     54  C   UNL A   1      44.320  30.899  30.579  1.00  0.00     0.031 A 
BRANCH  41  55
ATOM     55  C   UNL A   1      38.608  29.205  28.949  1.00  0.00    -0.014 A 
ATOM     56  C   UNL A   1      37.706  29.132  30.022  1.00  0.00     0.009 A 
ATOM     57  C   UNL A   1      38.154  29.689  27.712  1.00  0.00     0.009 A 
ATOM     58  C   UNL A   1      36.368  29.498  29.848  1.00  0.00     0.001 A 
ATOM     59  C   UNL A   1      36.825  30.084  27.550  1.00  0.00     0.001 A 
ATOM     60  C   UNL A   1      35.931  29.979  28.615  1.00  0.00     0.000 A 
ENDBRANCH  41  55
BRANCH  42  61
ATOM     61  C   UNL A   1      48.132  26.314  29.561  1.00  0.00    -0.014 A 
ATOM     62  C   UNL A   1      48.972  26.449  28.444  1.00  0.00     0.009 A 
ATOM     63  C   UNL A   1      48.661  25.777  30.746  1.00  0.00     0.009 A 
ATOM     64  C   UNL A   1      50.303  26.031  28.504  1.00  0.00     0.001 A 
ATOM     65  C   UNL A   1      50.000  25.386  30.811  1.00  0.00     0.001 A 
ATOM     66  C   UNL A   1      50.817  25.504  29.688  1.00  0.00     0.000 A 
ENDBRANCH  42  61
BRANCH  54  67
ATOM     67  C   UNL A   1      44.786  32.203  31.164  1.00  0.00    -0.014 A 
ATOM     68  C   UNL A   1      45.231  33.254  30.348  1.00  0.00     0.009 A 
ATOM     69  C   UNL A   1      44.743  32.394  32.555  1.00  0.00     0.009 A 
ATOM     70  C   UNL A   1      45.657  34.457  30.916  1.00  0.00     0.001 A 
ATOM     71  C   UNL A   1      45.140  33.607  33.117  1.00  0.00     0.001 A 
ATOM     72  C   UNL A   1      45.607  34.634  32.298  1.00  0.00     0.000 A 
ENDBRANCH  54  67
ENDBRANCH  28  29
ENDBRANCH  20  23
ENDBRANCH  18  19
ENDBRANCH  17  18
ENDBRANCH  16  17
ENDBRANCH   1  16
TORSDOF 15
ENDMDL
MODEL 2
REMARK VINA RESULT:      -8.0      0.976      6.325
REMARK SMILES O=C(CNc1nccs1)NCCCCCCNC(=O)c1ccc(-c2c3nc(c(-c4ccccc4)c4ccc([nH]4)c(-c4ccccc4)c4nc(c(-c5ccccc5)c5ccc2[nH]5)C=C4)C=C3)cc1
REMARK SMILES IDX 13 1 12 2 11 3 10 4 1 5 2 6 3 8 4 9 5 11 6 12 9 13 7 14 8 15
REMARK SMILES IDX 14 16 15 17 16 18 17 19 18 20 19 22 20 23 21 24 67 25 22 26
REMARK SMILES IDX 66 27 23 28 24 29 25 30 60 31 26 32 65 33 59 34 61 35 27 36
REMARK SMILES IDX 64 37 58 38 57 39 28 41 50 42 35 43 49 44 36 45 39 46 48 47
REMARK SMILES IDX 62 48 37 49 38 50 47 52 63 53 40 54 29 55 30 56 34 57 31 58
REMARK SMILES IDX 33 59 32 60 51 61 52 62 56 63 53 64 55 65 54 66 41 67 42 68
REMARK SMILES IDX 46 69 43 70 45 71 44 72
REMARK H PARENT 10 7 4 10 17 21 61 40 39 51
REMARK Flexibility Score: inf
ROOT
ATOM      1  C   UNL A   1      45.981  20.711  24.573  1.00  0.00     0.002 C 
ENDROOT
BRANCH   1   2
ATOM      2  C   UNL A   1      45.835  22.039  25.328  1.00  0.00     0.021 C 
BRANCH   2   3
ATOM      3  C   UNL A   1      45.303  23.200  24.487  1.00  0.00     0.116 C 
BRANCH   3   4
ATOM      4  N   UNL A   1      45.575  24.477  25.104  1.00  0.00    -0.355 N 
ATOM      5  O   UNL A   1      47.595  24.891  24.081  1.00  0.00    -0.273 OA
ATOM      6  C   UNL A   1      46.704  25.232  24.852  1.00  0.00     0.239 C 
ATOM      7  H   UNL A   1      44.915  24.831  25.744  1.00  0.00     0.163 HD
BRANCH   6   8
ATOM      8  C   UNL A   1      46.756  26.528  25.672  1.00  0.00     0.215 C 
BRANCH   8   9
ATOM      9  N   UNL A   1      45.416  27.093  25.787  1.00  0.00    -0.352 N 
ATOM     10  H   UNL A   1      44.637  26.528  25.577  1.00  0.00     0.163 HD
BRANCH   9  11
ATOM     11  C   UNL A   1      45.215  28.366  26.170  1.00  0.00     0.183 A 
ATOM     12  N   UNL A   1      46.153  29.273  26.309  1.00  0.00    -0.229 NA
ATOM     13  S   UNL A   1      43.625  28.901  26.565  1.00  0.00    -0.106 S 
ATOM     14  C   UNL A   1      45.604  30.464  26.740  1.00  0.00     0.125 A 
ATOM     15  C   UNL A   1      44.245  30.447  26.959  1.00  0.00     0.088 A 
ENDBRANCH   9  11
ENDBRANCH   8   9
ENDBRANCH   6   8
ENDBRANCH   3   4
ENDBRANCH   2   3
ENDBRANCH   1   2
BRANCH   1  16
ATOM     16  C   UNL A   1      45.620  19.453  25.370  1.00  0.00     0.002 C 
BRANCH  16  17
ATOM     17  C   UNL A   1      44.284  18.802  25.004  1.00  0.00     0.021 C 
BRANCH  17  18
ATOM     18  C   UNL A   1      43.378  18.469  26.185  1.00  0.00     0.116 C 
BRANCH  18  19
ATOM     19  N   UNL A   1      41.965  18.536  25.845  1.00  0.00    -0.352 N 
ATOM     20  C   UNL A   1      41.059  19.543  26.065  1.00  0.00     0.251 C 
ATOM     21  H   UNL A   1      41.605  17.740  25.390  1.00  0.00     0.163 HD
ATOM     22  O   UNL A   1      39.863  19.352  25.843  1.00  0.00    -0.269 OA
BRANCH  20  23
ATOM     23  C   UNL A   1      41.504  20.851  26.592  1.00  0.00     0.039 A 
ATOM     24  C   UNL A   1      41.818  21.871  25.689  1.00  0.00     0.014 A 
ATOM     25  C   UNL A   1      41.630  21.073  27.966  1.00  0.00     0.014 A 
ATOM     26  C   UNL A   1      42.194  23.130  26.164  1.00  0.00     0.010 A 
ATOM     27  C   UNL A   1      41.936  22.348  28.440  1.00  0.00     0.010 A 
ATOM     28  C   UNL A   1      42.223  23.390  27.544  1.00  0.00    -0.014 A 
BRANCH  28  29
ATOM     29  C   UNL A   1      42.543  24.743  28.065  1.00  0.00     0.031 A 
ATOM     30  C   UNL A   1      43.948  25.092  28.472  1.00  0.00     0.074 A 
ATOM     31  C   UNL A   1      41.554  25.644  28.229  1.00  0.00     0.049 A 
ATOM     32  N   UNL A   1      44.406  26.204  28.991  1.00  0.00    -0.248 NA
ATOM     33  C   UNL A   1      44.970  24.047  28.293  1.00  0.00     0.031 C 
ATOM     34  C   UNL A   1      40.142  25.423  27.912  1.00  0.00     0.029 A 
ATOM     35  N   UNL A   1      41.587  26.930  28.713  1.00  0.00    -0.354 N 
ATOM     36  C   UNL A   1      45.759  25.985  29.217  1.00  0.00     0.074 A 
ATOM     37  C   UNL A   1      46.039  24.622  28.824  1.00  0.00     0.031 C 
ATOM     38  C   UNL A   1      39.450  26.542  28.182  1.00  0.00     0.029 A 
ATOM     39  C   UNL A   1      40.359  27.545  28.728  1.00  0.00     0.049 A 
ATOM     40  H   UNL A   1      42.414  27.369  29.017  1.00  0.00     0.167 HD
ATOM     41  C   UNL A   1      46.691  26.847  29.693  1.00  0.00     0.031 A 
ATOM     42  C   UNL A   1      40.000  28.774  29.142  1.00  0.00     0.031 A 
ATOM     43  C   UNL A   1      46.417  28.207  30.077  1.00  0.00     0.049 A 
ATOM     44  C   UNL A   1      41.051  29.707  29.679  1.00  0.00     0.074 A 
ATOM     45  C   UNL A   1      47.306  29.173  30.515  1.00  0.00     0.029 A 
ATOM     46  N   UNL A   1      45.161  28.792  30.074  1.00  0.00    -0.354 N 
ATOM     47  N   UNL A   1      42.339  29.508  29.820  1.00  0.00    -0.248 NA
ATOM     48  C   UNL A   1      40.596  31.040  30.102  1.00  0.00     0.031 C 
ATOM     49  C   UNL A   1      46.580  30.327  30.827  1.00  0.00     0.029 A 
ATOM     50  C   UNL A   1      45.246  30.097  30.526  1.00  0.00     0.049 A 
ATOM     51  H   UNL A   1      44.330  28.344  29.791  1.00  0.00     0.167 HD
ATOM     52  C   UNL A   1      42.852  30.698  30.319  1.00  0.00     0.074 A 
ATOM     53  C   UNL A   1      41.740  31.618  30.440  1.00  0.00     0.031 C 
ATOM     54  C   UNL A   1      44.133  31.002  30.645  1.00  0.00     0.031 A 
BRANCH  41  55
ATOM     55  C   UNL A   1      48.099  26.336  29.835  1.00  0.00    -0.014 A 
ATOM     56  C   UNL A   1      48.516  25.662  30.993  1.00  0.00     0.009 A 
ATOM     57  C   UNL A   1      49.009  26.498  28.778  1.00  0.00     0.009 A 
ATOM     58  C   UNL A   1      49.829  25.195  31.106  1.00  0.00     0.001 A 
ATOM     59  C   UNL A   1      50.310  26.003  28.881  1.00  0.00     0.001 A 
ATOM     60  C   UNL A   1      50.722  25.360  30.048  1.00  0.00     0.000 A 
ENDBRANCH  41  55
BRANCH  42  61
ATOM     61  C   UNL A   1      38.581  29.206  29.051  1.00  0.00    -0.014 A 
ATOM     62  C   UNL A   1      38.080  29.762  27.864  1.00  0.00     0.009 A 
ATOM     63  C   UNL A   1      37.720  29.072  30.152  1.00  0.00     0.009 A 
ATOM     64  C   UNL A   1      36.756  30.198  27.789  1.00  0.00     0.001 A 
ATOM     65  C   UNL A   1      36.389  29.483  30.065  1.00  0.00     0.001 A 
ATOM     66  C   UNL A   1      35.910  30.054  28.887  1.00  0.00     0.000 A 
ENDBRANCH  42  61
BRANCH  54  67
ATOM     67  C   UNL A   1      44.406  32.398  31.129  1.00  0.00    -0.014 A 
ATOM     68  C   UNL A   1      44.703  33.438  30.234  1.00  0.00     0.009 A 
ATOM     69  C   UNL A   1      44.329  32.685  32.501  1.00  0.00     0.009 A 
ATOM     70  C   UNL A   1      44.953  34.728  30.708  1.00  0.00     0.001 A 
ATOM     71  C   UNL A   1      44.548  33.980  32.969  1.00  0.00     0.001 A 
ATOM     72  C   UNL A   1      44.870  34.998  32.073  1.00  0.00     0.000 A 
ENDBRANCH  54  67
ENDBRANCH  28  29
ENDBRANCH  20  23
ENDBRANCH  18  19
ENDBRANCH  17  18
ENDBRANCH  16  17
ENDBRANCH   1  16
TORSDOF 15
ENDMDL
MODEL 3
REMARK VINA RESULT:      -7.4      1.908      6.681
REMARK SMILES O=C(CNc1nccs1)NCCCCCCNC(=O)c1ccc(-c2c3nc(c(-c4ccccc4)c4ccc([nH]4)c(-c4ccccc4)c4nc(c(-c5ccccc5)c5ccc2[nH]5)C=C4)C=C3)cc1
REMARK SMILES IDX 13 1 12 2 11 3 10 4 1 5 2 6 3 8 4 9 5 11 6 12 9 13 7 14 8 15
REMARK SMILES IDX 14 16 15 17 16 18 17 19 18 20 19 22 20 23 21 24 67 25 22 26
REMARK SMILES IDX 66 27 23 28 24 29 25 30 60 31 26 32 65 33 59 34 61 35 27 36
REMARK SMILES IDX 64 37 58 38 57 39 28 41 50 42 35 43 49 44 36 45 39 46 48 47
REMARK SMILES IDX 62 48 37 49 38 50 47 52 63 53 40 54 29 55 30 56 34 57 31 58
REMARK SMILES IDX 33 59 32 60 51 61 52 62 56 63 53 64 55 65 54 66 41 67 42 68
REMARK SMILES IDX 46 69 43 70 45 71 44 72
REMARK H PARENT 10 7 4 10 17 21 61 40 39 51
REMARK Flexibility Score: inf
ROOT
ATOM      1  C   UNL A   1      45.726  22.322  24.267  1.00  0.00     0.002 C 
ENDROOT
BRANCH   1   2
ATOM      2  C   UNL A   1      46.364  23.365  25.195  1.00  0.00     0.021 C 
BRANCH   2   3
ATOM      3  C   UNL A   1      45.879  24.798  24.980  1.00  0.00     0.116 C 
BRANCH   3   4
ATOM      4  N   UNL A   1      46.978  25.732  24.912  1.00  0.00    -0.355 N 
ATOM      5  O   UNL A   1      45.934  27.514  25.928  1.00  0.00    -0.273 OA
ATOM      6  C   UNL A   1      46.924  27.025  25.396  1.00  0.00     0.239 C 
ATOM      7  H   UNL A   1      47.817  25.429  24.495  1.00  0.00     0.163 HD
BRANCH   6   8
ATOM      8  C   UNL A   1      48.221  27.810  25.158  1.00  0.00     0.215 C 
BRANCH   8   9
ATOM      9  N   UNL A   1      49.174  26.980  24.430  1.00  0.00    -0.352 N 
ATOM     10  H   UNL A   1      49.716  26.324  24.925  1.00  0.00     0.163 HD
BRANCH   9  11
ATOM     11  C   UNL A   1      49.332  27.086  23.099  1.00  0.00     0.183 A 
ATOM     12  N   UNL A   1      48.539  26.559  22.196  1.00  0.00    -0.229 NA
ATOM     13  S   UNL A   1      50.690  27.937  22.463  1.00  0.00    -0.106 S 
ATOM     14  C   UNL A   1      49.006  26.840  20.928  1.00  0.00     0.125 A 
ATOM     15  C   UNL A   1      50.179  27.558  20.873  1.00  0.00     0.088 A 
ENDBRANCH   9  11
ENDBRANCH   8   9
ENDBRANCH   6   8
ENDBRANCH   3   4
ENDBRANCH   2   3
ENDBRANCH   1   2
BRANCH   1  16
ATOM     16  C   UNL A   1      46.113  20.865  24.541  1.00  0.00     0.002 C 
BRANCH  16  17
ATOM     17  C   UNL A   1      45.002  19.837  24.319  1.00  0.00     0.021 C 
BRANCH  17  18
ATOM     18  C   UNL A   1      44.439  19.203  25.587  1.00  0.00     0.116 C 
BRANCH  18  19
ATOM     19  N   UNL A   1      43.027  18.872  25.471  1.00  0.00    -0.352 N 
ATOM     20  C   UNL A   1      41.926  19.576  25.889  1.00  0.00     0.251 C 
ATOM     21  H   UNL A   1      42.833  18.015  25.026  1.00  0.00     0.163 HD
ATOM     22  O   UNL A   1      40.811  19.056  25.840  1.00  0.00    -0.269 OA
BRANCH  20  23
ATOM     23  C   UNL A   1      42.070  20.947  26.424  1.00  0.00     0.039 A 
ATOM     24  C   UNL A   1      42.012  21.141  27.807  1.00  0.00     0.014 A 
ATOM     25  C   UNL A   1      42.246  22.041  25.572  1.00  0.00     0.014 A 
ATOM     26  C   UNL A   1      42.194  22.420  28.338  1.00  0.00     0.010 A 
ATOM     27  C   UNL A   1      42.498  23.304  26.106  1.00  0.00     0.010 A 
ATOM     28  C   UNL A   1      42.474  23.508  27.495  1.00  0.00    -0.014 A 
BRANCH  28  29
ATOM     29  C   UNL A   1      42.749  24.858  28.047  1.00  0.00     0.031 A 
ATOM     30  C   UNL A   1      44.135  25.232  28.494  1.00  0.00     0.074 A 
ATOM     31  C   UNL A   1      41.736  25.733  28.204  1.00  0.00     0.049 A 
ATOM     32  N   UNL A   1      44.555  26.344  29.045  1.00  0.00    -0.248 NA
ATOM     33  C   UNL A   1      45.185  24.215  28.322  1.00  0.00     0.031 C 
ATOM     34  C   UNL A   1      40.337  25.486  27.849  1.00  0.00     0.029 A 
ATOM     35  N   UNL A   1      41.727  27.010  28.712  1.00  0.00    -0.354 N 
ATOM     36  C   UNL A   1      45.907  26.153  29.300  1.00  0.00     0.074 A 
ATOM     37  C   UNL A   1      46.228  24.804  28.888  1.00  0.00     0.031 C 
ATOM     38  C   UNL A   1      39.613  26.583  28.123  1.00  0.00     0.029 A 
ATOM     39  C   UNL A   1      40.485  27.596  28.709  1.00  0.00     0.049 A 
ATOM     40  H   UNL A   1      42.536  27.463  29.044  1.00  0.00     0.167 HD
ATOM     41  C   UNL A   1      46.807  27.027  29.814  1.00  0.00     0.031 A 
ATOM     42  C   UNL A   1      40.087  28.809  29.136  1.00  0.00     0.031 A 
ATOM     43  C   UNL A   1      46.492  28.373  30.216  1.00  0.00     0.049 A 
ATOM     44  C   UNL A   1      41.102  29.755  29.715  1.00  0.00     0.074 A 
ATOM     45  C   UNL A   1      47.347  29.351  30.693  1.00  0.00     0.029 A 
ATOM     46  N   UNL A   1      45.222  28.928  30.193  1.00  0.00    -0.354 N 
ATOM     47  N   UNL A   1      42.391  29.583  29.884  1.00  0.00    -0.248 NA
ATOM     48  C   UNL A   1      40.607  31.069  30.151  1.00  0.00     0.031 C 
ATOM     49  C   UNL A   1      46.586  30.481  31.008  1.00  0.00     0.029 A 
ATOM     50  C   UNL A   1      45.266  30.226  30.671  1.00  0.00     0.049 A 
ATOM     51  H   UNL A   1      44.409  28.466  29.881  1.00  0.00     0.167 HD
ATOM     52  C   UNL A   1      42.864  30.775  30.417  1.00  0.00     0.074 A 
ATOM     53  C   UNL A   1      41.728  31.667  30.528  1.00  0.00     0.031 C 
ATOM     54  C   UNL A   1      44.129  31.102  30.779  1.00  0.00     0.031 A 
BRANCH  41  55
ATOM     55  C   UNL A   1      48.222  26.546  29.980  1.00  0.00    -0.014 A 
ATOM     56  C   UNL A   1      48.624  25.846  31.129  1.00  0.00     0.009 A 
ATOM     57  C   UNL A   1      49.157  26.762  28.956  1.00  0.00     0.009 A 
ATOM     58  C   UNL A   1      49.944  25.408  31.265  1.00  0.00     0.001 A 
ATOM     59  C   UNL A   1      50.467  26.296  29.081  1.00  0.00     0.001 A 
ATOM     60  C   UNL A   1      50.862  25.628  30.239  1.00  0.00     0.000 A 
ENDBRANCH  41  55
BRANCH  42  61
ATOM     61  C   UNL A   1      38.661  29.209  29.019  1.00  0.00    -0.014 A 
ATOM     62  C   UNL A   1      38.168  29.745  27.819  1.00  0.00     0.009 A 
ATOM     63  C   UNL A   1      37.785  29.065  30.107  1.00  0.00     0.009 A 
ATOM     64  C   UNL A   1      36.836  30.152  27.719  1.00  0.00     0.001 A 
ATOM     65  C   UNL A   1      36.447  29.446  29.994  1.00  0.00     0.001 A 
ATOM     66  C   UNL A   1      35.975  29.998  28.805  1.00  0.00     0.000 A 
ENDBRANCH  42  61
BRANCH  54  67
ATOM     67  C   UNL A   1      44.358  32.496  31.295  1.00  0.00    -0.014 A 
ATOM     68  C   UNL A   1      44.286  32.789  32.665  1.00  0.00     0.009 A 
ATOM     69  C   UNL A   1      44.687  33.523  30.396  1.00  0.00     0.009 A 
ATOM     70  C   UNL A   1      44.505  34.092  33.120  1.00  0.00     0.001 A 
ATOM     71  C   UNL A   1      44.935  34.816  30.856  1.00  0.00     0.001 A 
ATOM     72  C   UNL A   1      44.833  35.102  32.217  1.00  0.00     0.000 A 
ENDBRANCH  54  67
ENDBRANCH  28  29
ENDBRANCH  20  23
ENDBRANCH  18  19
ENDBRANCH  17  18
ENDBRANCH  16  17
ENDBRANCH   1  16
TORSDOF 15
ENDMDL
