MODEL 1
REMARK VINA RESULT:     -10.3      0.000      0.000
REMARK SMILES NS(=O)(=O)c1ccc(-n2nc(C(=O)NCCCC(=O)NCCCCCCNC(=O)c3ccc(-c4c5nc(c(-c6ccccc6)c6ccc([nH]6)c(-c6ccccc6)c6nc(c(-c7ccccc7)c7ccc4[nH]7)C=C6)C=C5)cc3)cc2-c2ccccc2)cc1
REMARK SMILES IDX 21 1 20 2 18 3 19 4 17 6 16 7 15 8 14 9 12 10 13 11 11 13
REMARK SMILES IDX 9 14 10 15 79 16 78 17 8 18 5 19 6 20 87 21 7 22 86 23 2 24
REMARK SMILES IDX 3 25 4 26 1 27 80 30 81 31 85 32 82 33 84 34 83 35 22 36
REMARK SMILES IDX 23 37 24 38 25 39 26 40 27 41 28 42 29 44 30 45 31 46 77 47
REMARK SMILES IDX 32 48 76 49 33 50 34 51 35 52 70 53 36 54 75 55 69 56 71 57
REMARK SMILES IDX 37 58 74 59 68 60 67 61 38 63 60 64 45 65 59 66 46 67 49 68
REMARK SMILES IDX 58 69 72 70 47 71 48 72 57 74 73 75 50 76 39 77 40 78 44 79
REMARK SMILES IDX 41 80 43 81 42 82 61 83 62 84 66 85 63 86 65 87 64 88 51 89
REMARK SMILES IDX 52 90 56 91 53 92 55 93 54 94
REMARK H PARENT 20 5 14 12 1 28 1 29 27 43 71 62 49 73
REMARK Flexibility Score: inf
ROOT
ATOM      1  C   UNL A   1      41.039  40.876  26.410  1.00  0.00     0.116 C 
ENDROOT
BRANCH   1   2
ATOM      2  N   UNL A   1      41.577  41.450  25.191  1.00  0.00    -0.356 N 
ATOM      3  C   UNL A   1      42.760  42.081  24.966  1.00  0.00     0.220 C 
ATOM      4  O   UNL A   1      42.952  42.591  23.862  1.00  0.00    -0.275 OA
ATOM      5  H   UNL A   1      40.992  41.370  24.403  1.00  0.00     0.163 HD
BRANCH   3   6
ATOM      6  C   UNL A   1      43.821  42.146  26.046  1.00  0.00     0.102 C 
BRANCH   6   7
ATOM      7  C   UNL A   1      44.785  43.326  25.896  1.00  0.00     0.031 C 
BRANCH   7   8
ATOM      8  C   UNL A   1      46.267  42.961  25.880  1.00  0.00     0.116 C 
BRANCH   8   9
ATOM      9  N   UNL A   1      46.531  41.617  25.395  1.00  0.00    -0.351 N 
ATOM     10  C   UNL A   1      46.693  41.136  24.113  1.00  0.00     0.271 C 
ATOM     11  O   UNL A   1      46.953  39.938  23.994  1.00  0.00    -0.267 OA
ATOM     12  H   UNL A   1      46.608  40.935  26.100  1.00  0.00     0.163 HD
BRANCH  10  13
ATOM     13  C   UNL A   1      46.519  42.030  22.957  1.00  0.00     0.151 A 
ATOM     14  N   UNL A   1      45.567  42.896  21.239  1.00  0.00    -0.232 N 
ATOM     15  N   UNL A   1      45.485  41.864  22.107  1.00  0.00    -0.162 NA
ATOM     16  C   UNL A   1      46.538  43.807  21.634  1.00  0.00     0.075 A 
ATOM     17  C   UNL A   1      47.287  43.161  22.587  1.00  0.00     0.065 A 
BRANCH  14  18
ATOM     18  C   UNL A   1      44.636  43.072  20.176  1.00  0.00     0.065 A 
ATOM     19  C   UNL A   1      42.799  44.104  18.375  1.00  0.00     0.082 A 
ATOM     20  C   UNL A   1      44.157  44.155  18.067  1.00  0.00     0.024 A 
ATOM     21  C   UNL A   1      42.344  43.414  19.507  1.00  0.00     0.024 A 
ATOM     22  C   UNL A   1      45.074  43.634  18.968  1.00  0.00     0.030 A 
ATOM     23  C   UNL A   1      43.270  42.872  20.407  1.00  0.00     0.030 A 
BRANCH  19  24
ATOM     24  S   UNL A   1      41.655  45.051  17.416  1.00  0.00     0.238 S 
ATOM     25  O   UNL A   1      42.094  45.013  16.041  1.00  0.00    -0.207 OA
ATOM     26  O   UNL A   1      41.362  46.278  18.116  1.00  0.00    -0.207 OA
BRANCH  24  27
ATOM     27  N   UNL A   1      40.248  44.128  17.464  1.00  0.00    -0.225 NA
ATOM     28  H   UNL A   1      39.584  44.484  16.777  1.00  0.00     0.137 HD
ATOM     29  H   UNL A   1      39.837  44.185  18.396  1.00  0.00     0.137 HD
ENDBRANCH  24  27
ENDBRANCH  19  24
ENDBRANCH  14  18
BRANCH  16  30
ATOM     30  C   UNL A   1      46.563  45.216  21.265  1.00  0.00     0.000 A 
ATOM     31  C   UNL A   1      45.512  46.057  21.679  1.00  0.00     0.010 A 
ATOM     32  C   UNL A   1      47.598  45.733  20.495  1.00  0.00     0.010 A 
ATOM     33  C   UNL A   1      45.445  47.373  21.249  1.00  0.00     0.001 A 
ATOM     34  C   UNL A   1      47.545  47.063  20.098  1.00  0.00     0.001 A 
ATOM     35  C   UNL A   1      46.460  47.869  20.448  1.00  0.00     0.000 A 
ENDBRANCH  16  30
ENDBRANCH  10  13
ENDBRANCH   8   9
ENDBRANCH   7   8
ENDBRANCH   6   7
ENDBRANCH   3   6
ENDBRANCH   1   2
BRANCH   1  36
ATOM     36  C   UNL A   1      41.405  39.393  26.513  1.00  0.00     0.021 C 
BRANCH  36  37
ATOM     37  C   UNL A   1      42.219  39.035  27.760  1.00  0.00     0.002 C 
BRANCH  37  38
ATOM     38  C   UNL A   1      43.444  38.145  27.512  1.00  0.00     0.002 C 
BRANCH  38  39
ATOM     39  C   UNL A   1      44.539  38.744  26.617  1.00  0.00     0.021 C 
BRANCH  39  40
ATOM     40  C   UNL A   1      45.956  38.348  27.017  1.00  0.00     0.116 C 
BRANCH  40  41
ATOM     41  N   UNL A   1      46.551  37.430  26.055  1.00  0.00    -0.352 N 
ATOM     42  C   UNL A   1      46.552  36.056  26.053  1.00  0.00     0.251 C 
ATOM     43  H   UNL A   1      47.018  37.854  25.299  1.00  0.00     0.163 HD
ATOM     44  O   UNL A   1      47.351  35.436  25.360  1.00  0.00    -0.269 OA
BRANCH  42  45
ATOM     45  C   UNL A   1      45.606  35.325  26.914  1.00  0.00     0.039 A 
ATOM     46  C   UNL A   1      44.426  34.825  26.359  1.00  0.00     0.014 A 
ATOM     47  C   UNL A   1      45.890  35.136  28.268  1.00  0.00     0.014 A 
ATOM     48  C   UNL A   1      43.576  34.058  27.149  1.00  0.00     0.010 A 
ATOM     49  C   UNL A   1      45.079  34.315  29.035  1.00  0.00     0.010 A 
ATOM     50  C   UNL A   1      43.916  33.770  28.483  1.00  0.00    -0.014 A 
BRANCH  50  51
ATOM     51  C   UNL A   1      43.114  32.786  29.224  1.00  0.00     0.031 A 
ATOM     52  C   UNL A   1      43.500  31.355  29.022  1.00  0.00     0.074 A 
ATOM     53  C   UNL A   1      42.170  33.101  30.136  1.00  0.00     0.049 A 
ATOM     54  N   UNL A   1      42.751  30.393  28.591  1.00  0.00    -0.248 NA
ATOM     55  C   UNL A   1      44.896  30.960  29.241  1.00  0.00     0.031 C 
ATOM     56  C   UNL A   1      41.785  34.428  30.616  1.00  0.00     0.029 A 
ATOM     57  N   UNL A   1      41.401  32.267  30.899  1.00  0.00    -0.354 N 
ATOM     58  C   UNL A   1      43.540  29.241  28.555  1.00  0.00     0.074 A 
ATOM     59  C   UNL A   1      44.872  29.668  28.907  1.00  0.00     0.031 C 
ATOM     60  C   UNL A   1      41.006  34.300  31.711  1.00  0.00     0.029 A 
ATOM     61  C   UNL A   1      40.753  32.890  31.964  1.00  0.00     0.049 A 
ATOM     62  H   UNL A   1      41.312  31.304  30.711  1.00  0.00     0.167 HD
ATOM     63  C   UNL A   1      42.995  28.006  28.347  1.00  0.00     0.031 A 
ATOM     64  C   UNL A   1      40.099  32.290  32.994  1.00  0.00     0.031 A 
ATOM     65  C   UNL A   1      41.625  28.111  27.914  1.00  0.00     0.049 A 
ATOM     66  C   UNL A   1      39.769  30.916  32.545  1.00  0.00     0.074 A 
ATOM     67  C   UNL A   1      40.983  28.559  26.780  1.00  0.00     0.029 A 
ATOM     68  N   UNL A   1      40.661  27.971  28.882  1.00  0.00    -0.354 N 
ATOM     69  N   UNL A   1      38.789  30.657  31.731  1.00  0.00    -0.248 NA
ATOM     70  C   UNL A   1      40.730  29.831  32.718  1.00  0.00     0.031 C 
ATOM     71  C   UNL A   1      39.731  29.060  27.235  1.00  0.00     0.029 A 
ATOM     72  C   UNL A   1      39.666  28.867  28.615  1.00  0.00     0.049 A 
ATOM     73  H   UNL A   1      40.684  27.336  29.634  1.00  0.00     0.167 HD
ATOM     74  C   UNL A   1      39.252  29.612  30.951  1.00  0.00     0.074 A 
ATOM     75  C   UNL A   1      40.361  29.038  31.706  1.00  0.00     0.031 C 
ATOM     76  C   UNL A   1      38.886  29.518  29.639  1.00  0.00     0.031 A 
BRANCH  63  77
ATOM     77  C   UNL A   1      43.543  26.681  28.827  1.00  0.00    -0.014 A 
ATOM     78  C   UNL A   1      43.388  25.555  27.984  1.00  0.00     0.009 A 
ATOM     79  C   UNL A   1      43.981  26.418  30.131  1.00  0.00     0.009 A 
ATOM     80  C   UNL A   1      43.512  24.245  28.458  1.00  0.00     0.001 A 
ATOM     81  C   UNL A   1      44.160  25.108  30.595  1.00  0.00     0.001 A 
ATOM     82  C   UNL A   1      43.878  24.021  29.777  1.00  0.00     0.000 A 
ENDBRANCH  63  77
BRANCH  64  83
ATOM     83  C   UNL A   1      39.755  32.751  34.370  1.00  0.00    -0.014 A 
ATOM     84  C   UNL A   1      38.462  33.246  34.626  1.00  0.00     0.009 A 
ATOM     85  C   UNL A   1      40.558  32.486  35.493  1.00  0.00     0.009 A 
ATOM     86  C   UNL A   1      37.956  33.349  35.929  1.00  0.00     0.001 A 
ATOM     87  C   UNL A   1      40.054  32.582  36.800  1.00  0.00     0.001 A 
ATOM     88  C   UNL A   1      38.743  32.985  37.016  1.00  0.00     0.000 A 
ENDBRANCH  64  83
BRANCH  76  89
ATOM     89  C   UNL A   1      37.774  30.415  29.160  1.00  0.00    -0.014 A 
ATOM     90  C   UNL A   1      37.935  31.804  29.018  1.00  0.00     0.009 A 
ATOM     91  C   UNL A   1      36.588  29.828  28.698  1.00  0.00     0.009 A 
ATOM     92  C   UNL A   1      36.919  32.591  28.472  1.00  0.00     0.001 A 
ATOM     93  C   UNL A   1      35.584  30.611  28.125  1.00  0.00     0.001 A 
ATOM     94  C   UNL A   1      35.746  31.991  28.022  1.00  0.00     0.000 A 
ENDBRANCH  76  89
ENDBRANCH  50  51
ENDBRANCH  42  45
ENDBRANCH  40  41
ENDBRANCH  39  40
ENDBRANCH  38  39
ENDBRANCH  37  38
ENDBRANCH  36  37
ENDBRANCH   1  36
TORSDOF 21
ENDMDL
MODEL 2
REMARK VINA RESULT:     -10.1      9.192     14.278
REMARK SMILES NS(=O)(=O)c1ccc(-n2nc(C(=O)NCCCC(=O)NCCCCCCNC(=O)c3ccc(-c4c5nc(c(-c6ccccc6)c6ccc([nH]6)c(-c6ccccc6)c6nc(c(-c7ccccc7)c7ccc4[nH]7)C=C6)C=C5)cc3)cc2-c2ccccc2)cc1
REMARK SMILES IDX 21 1 20 2 18 3 19 4 17 6 16 7 15 8 14 9 12 10 13 11 11 13
REMARK SMILES IDX 9 14 10 15 79 16 78 17 8 18 5 19 6 20 87 21 7 22 86 23 2 24
REMARK SMILES IDX 3 25 4 26 1 27 80 30 81 31 85 32 82 33 84 34 83 35 22 36
REMARK SMILES IDX 23 37 24 38 25 39 26 40 27 41 28 42 29 44 30 45 31 46 77 47
REMARK SMILES IDX 32 48 76 49 33 50 34 51 35 52 70 53 36 54 75 55 69 56 71 57
REMARK SMILES IDX 37 58 74 59 68 60 67 61 38 63 60 64 45 65 59 66 46 67 49 68
REMARK SMILES IDX 58 69 72 70 47 71 48 72 57 74 73 75 50 76 39 77 40 78 44 79
REMARK SMILES IDX 41 80 43 81 42 82 61 83 62 84 66 85 63 86 65 87 64 88 51 89
REMARK SMILES IDX 52 90 56 91 53 92 55 93 54 94
REMARK H PARENT 20 5 14 12 1 28 1 29 27 43 71 62 49 73
REMARK Flexibility Score: inf
ROOT
ATOM      1  C   UNL A   1      40.809  22.104  26.719  1.00  0.00     0.116 C 
ENDROOT
BRANCH   1   2
ATOM      2  N   UNL A   1      39.454  22.615  26.628  1.00  0.00    -0.356 N 
ATOM      3  C   UNL A   1      39.001  23.897  26.586  1.00  0.00     0.220 C 
ATOM      4  O   UNL A   1      37.786  24.090  26.623  1.00  0.00    -0.275 OA
ATOM      5  H   UNL A   1      38.753  21.925  26.591  1.00  0.00     0.163 HD
BRANCH   3   6
ATOM      6  C   UNL A   1      39.970  25.058  26.488  1.00  0.00     0.102 C 
BRANCH   6   7
ATOM      7  C   UNL A   1      40.138  25.836  27.795  1.00  0.00     0.031 C 
BRANCH   7   8
ATOM      8  C   UNL A   1      41.309  26.814  27.828  1.00  0.00     0.116 C 
BRANCH   8   9
ATOM      9  N   UNL A   1      41.482  27.558  26.591  1.00  0.00    -0.351 N 
ATOM     10  C   UNL A   1      42.461  27.483  25.623  1.00  0.00     0.271 C 
ATOM     11  O   UNL A   1      42.334  28.217  24.641  1.00  0.00    -0.267 OA
ATOM     12  H   UNL A   1      40.783  28.227  26.414  1.00  0.00     0.163 HD
BRANCH  10  13
ATOM     13  C   UNL A   1      43.613  26.585  25.800  1.00  0.00     0.151 A 
ATOM     14  N   UNL A   1      44.805  24.814  25.578  1.00  0.00    -0.232 N 
ATOM     15  N   UNL A   1      43.572  25.315  25.347  1.00  0.00    -0.162 NA
ATOM     16  C   UNL A   1      45.675  25.805  26.014  1.00  0.00     0.075 A 
ATOM     17  C   UNL A   1      44.880  26.869  26.365  1.00  0.00     0.065 A 
BRANCH  14  18
ATOM     18  C   UNL A   1      45.161  23.479  25.231  1.00  0.00     0.065 A 
ATOM     19  C   UNL A   1      45.135  20.762  24.686  1.00  0.00     0.082 A 
ATOM     20  C   UNL A   1      44.910  21.666  23.650  1.00  0.00     0.024 A 
ATOM     21  C   UNL A   1      45.514  21.207  25.960  1.00  0.00     0.024 A 
ATOM     22  C   UNL A   1      44.928  23.025  23.924  1.00  0.00     0.030 A 
ATOM     23  C   UNL A   1      45.549  22.580  26.231  1.00  0.00     0.030 A 
BRANCH  19  24
ATOM     24  S   UNL A   1      44.785  19.047  24.433  1.00  0.00     0.238 S 
ATOM     25  O   UNL A   1      45.534  18.609  23.279  1.00  0.00    -0.207 OA
ATOM     26  O   UNL A   1      43.366  18.834  24.579  1.00  0.00    -0.207 OA
BRANCH  24  27
ATOM     27  N   UNL A   1      45.517  18.301  25.753  1.00  0.00    -0.225 NA
ATOM     28  H   UNL A   1      45.865  19.013  26.396  1.00  0.00     0.137 HD
ATOM     29  H   UNL A   1      46.294  17.726  25.430  1.00  0.00     0.137 HD
ENDBRANCH  24  27
ENDBRANCH  19  24
ENDBRANCH  14  18
BRANCH  16  30
ATOM     30  C   UNL A   1      47.125  25.764  25.877  1.00  0.00     0.000 A 
ATOM     31  C   UNL A   1      47.906  25.273  26.940  1.00  0.00     0.010 A 
ATOM     32  C   UNL A   1      47.744  26.222  24.719  1.00  0.00     0.010 A 
ATOM     33  C   UNL A   1      49.291  25.329  26.888  1.00  0.00     0.001 A 
ATOM     34  C   UNL A   1      49.132  26.240  24.658  1.00  0.00     0.001 A 
ATOM     35  C   UNL A   1      49.900  25.824  25.747  1.00  0.00     0.000 A 
ENDBRANCH  16  30
ENDBRANCH  10  13
ENDBRANCH   8   9
ENDBRANCH   7   8
ENDBRANCH   6   7
ENDBRANCH   3   6
ENDBRANCH   1   2
BRANCH   1  36
ATOM     36  C   UNL A   1      41.281  22.088  28.175  1.00  0.00     0.021 C 
BRANCH  36  37
ATOM     37  C   UNL A   1      42.761  22.436  28.356  1.00  0.00     0.002 C 
BRANCH  37  38
ATOM     38  C   UNL A   1      43.064  23.470  29.449  1.00  0.00     0.002 C 
BRANCH  38  39
ATOM     39  C   UNL A   1      44.074  23.036  30.523  1.00  0.00     0.021 C 
BRANCH  39  40
ATOM     40  C   UNL A   1      44.318  24.081  31.606  1.00  0.00     0.116 C 
BRANCH  40  41
ATOM     41  N   UNL A   1      44.370  23.480  32.932  1.00  0.00    -0.352 N 
ATOM     42  C   UNL A   1      44.212  24.074  34.160  1.00  0.00     0.251 C 
ATOM     43  H   UNL A   1      44.544  22.511  32.950  1.00  0.00     0.163 HD
ATOM     44  O   UNL A   1      44.592  23.507  35.179  1.00  0.00    -0.269 OA
BRANCH  42  45
ATOM     45  C   UNL A   1      43.608  25.415  34.250  1.00  0.00     0.039 A 
ATOM     46  C   UNL A   1      44.256  26.496  33.651  1.00  0.00     0.014 A 
ATOM     47  C   UNL A   1      42.401  25.597  34.928  1.00  0.00     0.014 A 
ATOM     48  C   UNL A   1      43.642  27.745  33.658  1.00  0.00     0.010 A 
ATOM     49  C   UNL A   1      41.758  26.823  34.874  1.00  0.00     0.010 A 
ATOM     50  C   UNL A   1      42.372  27.906  34.240  1.00  0.00    -0.014 A 
BRANCH  50  51
ATOM     51  C   UNL A   1      41.657  29.175  34.044  1.00  0.00     0.031 A 
ATOM     52  C   UNL A   1      40.865  29.282  32.780  1.00  0.00     0.074 A 
ATOM     53  C   UNL A   1      41.580  30.159  34.966  1.00  0.00     0.049 A 
ATOM     54  N   UNL A   1      40.983  30.173  31.851  1.00  0.00    -0.248 NA
ATOM     55  C   UNL A   1      39.886  28.233  32.468  1.00  0.00     0.031 C 
ATOM     56  C   UNL A   1      42.116  30.166  36.326  1.00  0.00     0.029 A 
ATOM     57  N   UNL A   1      40.916  31.352  34.894  1.00  0.00    -0.354 N 
ATOM     58  C   UNL A   1      40.045  29.865  30.863  1.00  0.00     0.074 A 
ATOM     59  C   UNL A   1      39.441  28.621  31.270  1.00  0.00     0.031 C 
ATOM     60  C   UNL A   1      41.597  31.210  37.008  1.00  0.00     0.029 A 
ATOM     61  C   UNL A   1      40.765  32.004  36.117  1.00  0.00     0.049 A 
ATOM     62  H   UNL A   1      40.572  31.720  34.048  1.00  0.00     0.167 HD
ATOM     63  C   UNL A   1      39.768  30.732  29.845  1.00  0.00     0.031 A 
ATOM     64  C   UNL A   1      39.984  33.085  36.383  1.00  0.00     0.031 A 
ATOM     65  C   UNL A   1      40.733  31.800  29.796  1.00  0.00     0.049 A 
ATOM     66  C   UNL A   1      39.712  33.742  35.082  1.00  0.00     0.074 A 
ATOM     67  C   UNL A   1      42.072  31.903  29.486  1.00  0.00     0.029 A 
ATOM     68  N   UNL A   1      40.380  32.977  30.407  1.00  0.00    -0.354 N 
ATOM     69  N   UNL A   1      40.586  34.486  34.471  1.00  0.00    -0.248 NA
ATOM     70  C   UNL A   1      38.584  33.316  34.259  1.00  0.00     0.031 C 
ATOM     71  C   UNL A   1      42.559  32.969  30.292  1.00  0.00     0.029 A 
ATOM     72  C   UNL A   1      41.488  33.477  31.029  1.00  0.00     0.049 A 
ATOM     73  H   UNL A   1      39.485  33.389  30.397  1.00  0.00     0.167 HD
ATOM     74  C   UNL A   1      40.385  34.227  33.127  1.00  0.00     0.074 A 
ATOM     75  C   UNL A   1      39.048  33.647  33.049  1.00  0.00     0.031 C 
ATOM     76  C   UNL A   1      41.440  34.225  32.261  1.00  0.00     0.031 A 
BRANCH  63  77
ATOM     77  C   UNL A   1      38.469  30.844  29.077  1.00  0.00    -0.014 A 
ATOM     78  C   UNL A   1      37.462  31.689  29.599  1.00  0.00     0.009 A 
ATOM     79  C   UNL A   1      38.085  30.006  28.023  1.00  0.00     0.009 A 
ATOM     80  C   UNL A   1      36.125  31.592  29.198  1.00  0.00     0.001 A 
ATOM     81  C   UNL A   1      36.756  29.945  27.581  1.00  0.00     0.001 A 
ATOM     82  C   UNL A   1      35.768  30.700  28.200  1.00  0.00     0.000 A 
ENDBRANCH  63  77
BRANCH  64  83
ATOM     83  C   UNL A   1      39.389  33.608  37.646  1.00  0.00    -0.014 A 
ATOM     84  C   UNL A   1      38.537  32.778  38.399  1.00  0.00     0.009 A 
ATOM     85  C   UNL A   1      39.825  34.789  38.271  1.00  0.00     0.009 A 
ATOM     86  C   UNL A   1      38.240  33.049  39.742  1.00  0.00     0.001 A 
ATOM     87  C   UNL A   1      39.536  35.062  39.617  1.00  0.00     0.001 A 
ATOM     88  C   UNL A   1      38.769  34.175  40.361  1.00  0.00     0.000 A 
ENDBRANCH  64  83
BRANCH  76  89
ATOM     89  C   UNL A   1      42.753  34.770  32.761  1.00  0.00    -0.014 A 
ATOM     90  C   UNL A   1      43.131  36.111  32.576  1.00  0.00     0.009 A 
ATOM     91  C   UNL A   1      43.557  33.954  33.569  1.00  0.00     0.009 A 
ATOM     92  C   UNL A   1      44.306  36.609  33.143  1.00  0.00     0.001 A 
ATOM     93  C   UNL A   1      44.715  34.460  34.161  1.00  0.00     0.001 A 
ATOM     94  C   UNL A   1      45.094  35.782  33.939  1.00  0.00     0.000 A 
ENDBRANCH  76  89
ENDBRANCH  50  51
ENDBRANCH  42  45
ENDBRANCH  40  41
ENDBRANCH  39  40
ENDBRANCH  38  39
ENDBRANCH  37  38
ENDBRANCH  36  37
ENDBRANCH   1  36
TORSDOF 21
ENDMDL
MODEL 3
REMARK VINA RESULT:     -10.0      6.923     13.550
REMARK SMILES NS(=O)(=O)c1ccc(-n2nc(C(=O)NCCCC(=O)NCCCCCCNC(=O)c3ccc(-c4c5nc(c(-c6ccccc6)c6ccc([nH]6)c(-c6ccccc6)c6nc(c(-c7ccccc7)c7ccc4[nH]7)C=C6)C=C5)cc3)cc2-c2ccccc2)cc1
REMARK SMILES IDX 21 1 20 2 18 3 19 4 17 6 16 7 15 8 14 9 12 10 13 11 11 13
REMARK SMILES IDX 9 14 10 15 79 16 78 17 8 18 5 19 6 20 87 21 7 22 86 23 2 24
REMARK SMILES IDX 3 25 4 26 1 27 80 30 81 31 85 32 82 33 84 34 83 35 22 36
REMARK SMILES IDX 23 37 24 38 25 39 26 40 27 41 28 42 29 44 30 45 31 46 77 47
REMARK SMILES IDX 32 48 76 49 33 50 34 51 35 52 70 53 36 54 75 55 69 56 71 57
REMARK SMILES IDX 37 58 74 59 68 60 67 61 38 63 60 64 45 65 59 66 46 67 49 68
REMARK SMILES IDX 58 69 72 70 47 71 48 72 57 74 73 75 50 76 39 77 40 78 44 79
REMARK SMILES IDX 41 80 43 81 42 82 61 83 62 84 66 85 63 86 65 87 64 88 51 89
REMARK SMILES IDX 52 90 56 91 53 92 55 93 54 94
REMARK H PARENT 20 5 14 12 1 28 1 29 27 43 71 62 49 73
REMARK Flexibility Score: inf
ROOT
ATOM      1  C   UNL A   1      49.640  32.237  29.085  1.00  0.00     0.116 C 
ENDROOT
BRANCH   1   2
ATOM      2  N   UNL A   1      49.975  31.779  27.751  1.00  0.00    -0.356 N 
ATOM      3  C   UNL A   1      50.359  30.548  27.316  1.00  0.00     0.220 C 
ATOM      4  O   UNL A   1      50.704  30.423  26.141  1.00  0.00    -0.275 OA
ATOM      5  H   UNL A   1      49.915  32.467  27.049  1.00  0.00     0.163 HD
BRANCH   3   6
ATOM      6  C   UNL A   1      50.352  29.358  28.255  1.00  0.00     0.102 C 
BRANCH   6   7
ATOM      7  C   UNL A   1      48.987  28.677  28.381  1.00  0.00     0.031 C 
BRANCH   7   8
ATOM      8  C   UNL A   1      48.550  27.860  27.168  1.00  0.00     0.116 C 
BRANCH   8   9
ATOM      9  N   UNL A   1      47.887  28.647  26.143  1.00  0.00    -0.351 N 
ATOM     10  C   UNL A   1      46.706  28.433  25.464  1.00  0.00     0.271 C 
ATOM     11  O   UNL A   1      46.356  29.301  24.663  1.00  0.00    -0.267 OA
ATOM     12  H   UNL A   1      48.359  29.473  25.891  1.00  0.00     0.163 HD
BRANCH  10  13
ATOM     13  C   UNL A   1      45.939  27.195  25.680  1.00  0.00     0.151 A 
ATOM     14  N   UNL A   1      45.344  25.153  25.400  1.00  0.00    -0.232 N 
ATOM     15  N   UNL A   1      46.107  26.131  24.867  1.00  0.00    -0.162 NA
ATOM     16  C   UNL A   1      44.831  25.532  26.634  1.00  0.00     0.075 A 
ATOM     17  C   UNL A   1      45.021  26.890  26.713  1.00  0.00     0.065 A 
BRANCH  14  18
ATOM     18  C   UNL A   1      45.256  23.855  24.818  1.00  0.00     0.065 A 
ATOM     19  C   UNL A   1      45.067  21.123  24.397  1.00  0.00     0.082 A 
ATOM     20  C   UNL A   1      43.901  21.880  24.479  1.00  0.00     0.024 A 
ATOM     21  C   UNL A   1      46.326  21.739  24.381  1.00  0.00     0.024 A 
ATOM     22  C   UNL A   1      43.997  23.249  24.685  1.00  0.00     0.030 A 
ATOM     23  C   UNL A   1      46.422  23.123  24.571  1.00  0.00     0.030 A 
BRANCH  19  24
ATOM     24  S   UNL A   1      44.963  19.359  24.474  1.00  0.00     0.238 S 
ATOM     25  O   UNL A   1      43.567  19.001  24.543  1.00  0.00    -0.207 OA
ATOM     26  O   UNL A   1      45.948  18.874  25.410  1.00  0.00    -0.207 OA
BRANCH  24  27
ATOM     27  N   UNL A   1      45.478  18.872  22.947  1.00  0.00    -0.225 NA
ATOM     28  H   UNL A   1      46.405  19.255  22.762  1.00  0.00     0.137 HD
ATOM     29  H   UNL A   1      44.823  19.214  22.243  1.00  0.00     0.137 HD
ENDBRANCH  24  27
ENDBRANCH  19  24
ENDBRANCH  14  18
BRANCH  16  30
ATOM     30  C   UNL A   1      44.416  24.613  27.685  1.00  0.00     0.000 A 
ATOM     31  C   UNL A   1      43.049  24.317  27.844  1.00  0.00     0.010 A 
ATOM     32  C   UNL A   1      45.350  24.042  28.542  1.00  0.00     0.010 A 
ATOM     33  C   UNL A   1      42.610  23.540  28.905  1.00  0.00     0.001 A 
ATOM     34  C   UNL A   1      44.908  23.234  29.581  1.00  0.00     0.001 A 
ATOM     35  C   UNL A   1      43.544  23.008  29.779  1.00  0.00     0.000 A 
ENDBRANCH  16  30
ENDBRANCH  10  13
ENDBRANCH   8   9
ENDBRANCH   7   8
ENDBRANCH   6   7
ENDBRANCH   3   6
ENDBRANCH   1   2
BRANCH   1  36
ATOM     36  C   UNL A   1      48.451  33.201  29.041  1.00  0.00     0.021 C 
BRANCH  36  37
ATOM     37  C   UNL A   1      47.100  32.518  28.811  1.00  0.00     0.002 C 
BRANCH  37  38
ATOM     38  C   UNL A   1      46.525  32.662  27.396  1.00  0.00     0.002 C 
BRANCH  38  39
ATOM     39  C   UNL A   1      47.222  33.686  26.488  1.00  0.00     0.021 C 
BRANCH  39  40
ATOM     40  C   UNL A   1      46.370  34.908  26.159  1.00  0.00     0.116 C 
BRANCH  40  41
ATOM     41  N   UNL A   1      46.661  36.022  27.052  1.00  0.00    -0.352 N 
ATOM     42  C   UNL A   1      45.930  36.496  28.114  1.00  0.00     0.251 C 
ATOM     43  H   UNL A   1      47.500  36.504  26.868  1.00  0.00     0.163 HD
ATOM     44  O   UNL A   1      46.141  37.618  28.563  1.00  0.00    -0.269 OA
BRANCH  42  45
ATOM     45  C   UNL A   1      44.865  35.662  28.697  1.00  0.00     0.039 A 
ATOM     46  C   UNL A   1      43.728  35.378  27.938  1.00  0.00     0.014 A 
ATOM     47  C   UNL A   1      44.994  35.163  29.995  1.00  0.00     0.014 A 
ATOM     48  C   UNL A   1      42.764  34.517  28.453  1.00  0.00     0.010 A 
ATOM     49  C   UNL A   1      44.070  34.252  30.480  1.00  0.00     0.010 A 
ATOM     50  C   UNL A   1      42.948  33.922  29.714  1.00  0.00    -0.014 A 
BRANCH  50  51
ATOM     51  C   UNL A   1      42.028  32.858  30.138  1.00  0.00     0.031 A 
ATOM     52  C   UNL A   1      40.786  33.317  30.835  1.00  0.00     0.074 A 
ATOM     53  C   UNL A   1      42.178  31.551  29.834  1.00  0.00     0.049 A 
ATOM     54  N   UNL A   1      40.380  32.986  32.017  1.00  0.00    -0.248 NA
ATOM     55  C   UNL A   1      39.940  34.323  30.183  1.00  0.00     0.031 C 
ATOM     56  C   UNL A   1      43.210  30.931  29.004  1.00  0.00     0.029 A 
ATOM     57  N   UNL A   1      41.366  30.497  30.148  1.00  0.00    -0.354 N 
ATOM     58  C   UNL A   1      39.183  33.667  32.248  1.00  0.00     0.074 A 
ATOM     59  C   UNL A   1      38.995  34.527  31.105  1.00  0.00     0.031 C 
ATOM     60  C   UNL A   1      42.855  29.658  28.724  1.00  0.00     0.029 A 
ATOM     61  C   UNL A   1      41.623  29.333  29.425  1.00  0.00     0.049 A 
ATOM     62  H   UNL A   1      40.657  30.556  30.829  1.00  0.00     0.167 HD
ATOM     63  C   UNL A   1      38.388  33.375  33.319  1.00  0.00     0.031 A 
ATOM     64  C   UNL A   1      40.859  28.210  29.376  1.00  0.00     0.031 A 
ATOM     65  C   UNL A   1      39.073  32.522  34.256  1.00  0.00     0.049 A 
ATOM     66  C   UNL A   1      39.986  28.236  30.574  1.00  0.00     0.074 A 
ATOM     67  C   UNL A   1      40.140  32.664  35.117  1.00  0.00     0.029 A 
ATOM     68  N   UNL A   1      38.820  31.176  34.163  1.00  0.00    -0.354 N 
ATOM     69  N   UNL A   1      40.413  27.930  31.763  1.00  0.00    -0.248 NA
ATOM     70  C   UNL A   1      38.703  28.931  30.540  1.00  0.00     0.031 C 
ATOM     71  C   UNL A   1      40.740  31.375  35.181  1.00  0.00     0.029 A 
ATOM     72  C   UNL A   1      39.993  30.512  34.379  1.00  0.00     0.049 A 
ATOM     73  H   UNL A   1      37.945  30.764  33.976  1.00  0.00     0.167 HD
ATOM     74  C   UNL A   1      39.730  28.785  32.609  1.00  0.00     0.074 A 
ATOM     75  C   UNL A   1      38.581  29.246  31.834  1.00  0.00     0.031 C 
ATOM     76  C   UNL A   1      40.331  29.266  33.737  1.00  0.00     0.031 A 
BRANCH  63  77
ATOM     77  C   UNL A   1      36.889  33.561  33.413  1.00  0.00    -0.014 A 
ATOM     78  C   UNL A   1      36.080  32.924  32.443  1.00  0.00     0.009 A 
ATOM     79  C   UNL A   1      36.247  34.495  34.234  1.00  0.00     0.009 A 
ATOM     80  C   UNL A   1      34.757  33.309  32.207  1.00  0.00     0.001 A 
ATOM     81  C   UNL A   1      34.904  34.846  34.036  1.00  0.00     0.001 A 
ATOM     82  C   UNL A   1      34.174  34.290  32.994  1.00  0.00     0.000 A 
ENDBRANCH  63  77
BRANCH  64  83
ATOM     83  C   UNL A   1      40.751  27.111  28.373  1.00  0.00    -0.014 A 
ATOM     84  C   UNL A   1      39.951  25.990  28.665  1.00  0.00     0.009 A 
ATOM     85  C   UNL A   1      41.192  27.236  27.044  1.00  0.00     0.009 A 
ATOM     86  C   UNL A   1      39.513  25.115  27.662  1.00  0.00     0.001 A 
ATOM     87  C   UNL A   1      40.751  26.367  26.035  1.00  0.00     0.001 A 
ATOM     88  C   UNL A   1      39.886  25.324  26.339  1.00  0.00     0.000 A 
ENDBRANCH  64  83
BRANCH  76  89
ATOM     89  C   UNL A   1      41.633  28.632  34.155  1.00  0.00    -0.014 A 
ATOM     90  C   UNL A   1      42.881  29.176  33.807  1.00  0.00     0.009 A 
ATOM     91  C   UNL A   1      41.599  27.551  35.046  1.00  0.00     0.009 A 
ATOM     92  C   UNL A   1      44.066  28.624  34.299  1.00  0.00     0.001 A 
ATOM     93  C   UNL A   1      42.781  27.018  35.562  1.00  0.00     0.001 A 
ATOM     94  C   UNL A   1      44.013  27.548  35.181  1.00  0.00     0.000 A 
ENDBRANCH  76  89
ENDBRANCH  50  51
ENDBRANCH  42  45
ENDBRANCH  40  41
ENDBRANCH  39  40
ENDBRANCH  38  39
ENDBRANCH  37  38
ENDBRANCH  36  37
ENDBRANCH   1  36
TORSDOF 21
ENDMDL
