MODEL 1
REMARK VINA RESULT:     -11.8      0.000      0.000
REMARK SMILES Cc1cc(OC(F)(F)F)cc2c1O[C@@H](C(F)(F)F)C(C(=O)NCCCCCCNC(=O)c1ccc(-c3c4nc(c(-c5ccccc5)c5ccc([nH]5)c(-c5ccccc5)c5nc(c(-c6ccccc6)c6ccc3[nH]6)C=C5)C=C4)cc1)=C2
REMARK SMILES IDX 25 1 24 2 23 3 22 4 20 5 21 6 19 8 1 9 2 10 3 11 12 12 4 13
REMARK SMILES IDX 11 14 13 15 10 16 80 17 14 18 5 19 6 20 7 21 8 22 9 23 15 24
REMARK SMILES IDX 16 25 17 26 18 27 26 28 27 29 28 30 29 31 30 32 31 34 32 35
REMARK SMILES IDX 33 36 79 37 34 38 78 39 35 40 36 41 37 42 72 43 38 44 77 45
REMARK SMILES IDX 71 46 73 47 39 48 76 49 70 50 69 51 40 53 62 54 47 55 61 56
REMARK SMILES IDX 48 57 51 58 60 59 74 60 49 61 50 62 59 64 75 65 52 66 41 67
REMARK SMILES IDX 42 68 46 69 43 70 45 71 44 72 63 73 64 74 68 75 65 76 67 77
REMARK SMILES IDX 66 78 53 79 54 80 58 81 55 82 57 83 56 84
REMARK H PARENT 22 7 29 33 73 52 51 63
REMARK Flexibility Score: inf
ROOT
ATOM      1  C   UNL A   1      34.549  20.273  24.729  1.00  0.00     0.002 C 
ENDROOT
BRANCH   1   2
ATOM      2  C   UNL A   1      33.464  20.607  25.756  1.00  0.00     0.021 C 
BRANCH   2   3
ATOM      3  C   UNL A   1      32.168  21.127  25.137  1.00  0.00     0.116 C 
BRANCH   3   4
ATOM      4  N   UNL A   1      31.407  21.924  26.082  1.00  0.00    -0.352 N 
ATOM      5  C   UNL A   1      31.073  23.225  26.251  1.00  0.00     0.251 C 
ATOM      6  O   UNL A   1      30.353  23.457  27.228  1.00  0.00    -0.270 OA
ATOM      7  H   UNL A   1      31.027  21.364  26.796  1.00  0.00     0.163 HD
BRANCH   5   8
ATOM      8  C   UNL A   1      31.498  24.354  25.368  1.00  0.00     0.067 C 
ATOM      9  C   UNL A   1      33.737  27.494  21.991  1.00  0.00     0.048 C 
ATOM     10  C   UNL A   1      32.474  27.540  22.804  1.00  0.00    -0.005 A 
ATOM     11  C   UNL A   1      31.641  28.667  22.762  1.00  0.00     0.054 A 
ATOM     12  C   UNL A   1      32.120  26.463  23.625  1.00  0.00     0.131 A 
ATOM     13  C   UNL A   1      30.466  28.712  23.518  1.00  0.00     0.130 A 
ATOM     14  C   UNL A   1      30.953  26.495  24.389  1.00  0.00     0.021 A 
ATOM     15  O   UNL A   1      32.943  25.375  23.600  1.00  0.00    -0.475 OA
ATOM     16  C   UNL A   1      30.131  27.622  24.331  1.00  0.00     0.058 A 
ATOM     17  C   UNL A   1      30.598  25.342  25.207  1.00  0.00     0.025 C 
ATOM     18  C   UNL A   1      32.846  24.455  24.716  1.00  0.00     0.314 C 
BRANCH  13  19
ATOM     19  O   UNL A   1      29.570  29.742  23.555  1.00  0.00    -0.406 OA
BRANCH  19  20
ATOM     20  C   UNL A   1      28.870  30.049  22.361  1.00  0.00     0.573 C 
ATOM     21  F   UNL A   1      29.724  30.248  21.335  1.00  0.00    -0.132 F 
ATOM     22  F   UNL A   1      27.999  29.069  22.041  1.00  0.00    -0.132 F 
ATOM     23  F   UNL A   1      28.168  31.188  22.550  1.00  0.00    -0.132 F 
ENDBRANCH  19  20
ENDBRANCH  13  19
BRANCH  18  24
ATOM     24  C   UNL A   1      33.987  24.737  25.708  1.00  0.00     0.429 C 
ATOM     25  F   UNL A   1      35.162  24.889  25.044  1.00  0.00    -0.167 F 
ATOM     26  F   UNL A   1      33.787  25.862  26.431  1.00  0.00    -0.167 F 
ATOM     27  F   UNL A   1      34.175  23.732  26.595  1.00  0.00    -0.167 F 
ENDBRANCH  18  24
ENDBRANCH   5   8
ENDBRANCH   3   4
ENDBRANCH   2   3
ENDBRANCH   1   2
BRANCH   1  28
ATOM     28  C   UNL A   1      35.919  20.907  25.001  1.00  0.00     0.002 C 
BRANCH  28  29
ATOM     29  C   UNL A   1      37.109  19.948  24.922  1.00  0.00     0.021 C 
BRANCH  29  30
ATOM     30  C   UNL A   1      38.443  20.570  25.320  1.00  0.00     0.116 C 
BRANCH  30  31
ATOM     31  N   UNL A   1      39.453  19.552  25.561  1.00  0.00    -0.352 N 
ATOM     32  C   UNL A   1      40.746  19.713  25.984  1.00  0.00     0.251 C 
ATOM     33  H   UNL A   1      39.170  18.623  25.398  1.00  0.00     0.163 HD
ATOM     34  O   UNL A   1      41.555  18.795  25.908  1.00  0.00    -0.269 OA
BRANCH  32  35
ATOM     35  C   UNL A   1      41.158  21.017  26.538  1.00  0.00     0.039 A 
ATOM     36  C   UNL A   1      41.030  21.247  27.909  1.00  0.00     0.014 A 
ATOM     37  C   UNL A   1      41.665  22.006  25.689  1.00  0.00     0.014 A 
ATOM     38  C   UNL A   1      41.448  22.468  28.440  1.00  0.00     0.010 A 
ATOM     39  C   UNL A   1      42.127  23.202  26.226  1.00  0.00     0.010 A 
ATOM     40  C   UNL A   1      42.009  23.446  27.603  1.00  0.00    -0.014 A 
BRANCH  40  41
ATOM     41  C   UNL A   1      42.430  24.758  28.144  1.00  0.00     0.031 A 
ATOM     42  C   UNL A   1      41.411  25.845  28.323  1.00  0.00     0.074 A 
ATOM     43  C   UNL A   1      43.723  24.977  28.449  1.00  0.00     0.049 A 
ATOM     44  N   UNL A   1      41.581  27.069  28.751  1.00  0.00    -0.248 NA
ATOM     45  C   UNL A   1      40.018  25.520  27.966  1.00  0.00     0.031 C 
ATOM     46  C   UNL A   1      44.804  23.999  28.311  1.00  0.00     0.029 A 
ATOM     47  N   UNL A   1      44.344  26.096  28.942  1.00  0.00    -0.354 N 
ATOM     48  C   UNL A   1      40.324  27.657  28.716  1.00  0.00     0.074 A 
ATOM     49  C   UNL A   1      39.406  26.676  28.183  1.00  0.00     0.031 C 
ATOM     50  C   UNL A   1      45.951  24.554  28.739  1.00  0.00     0.029 A 
ATOM     51  C   UNL A   1      45.692  25.931  29.149  1.00  0.00     0.049 A 
ATOM     52  H   UNL A   1      43.869  26.938  29.131  1.00  0.00     0.167 HD
ATOM     53  C   UNL A   1      39.965  28.896  29.116  1.00  0.00     0.031 A 
ATOM     54  C   UNL A   1      46.613  26.793  29.619  1.00  0.00     0.031 A 
ATOM     55  C   UNL A   1      40.872  29.865  29.663  1.00  0.00     0.049 A 
ATOM     56  C   UNL A   1      46.194  28.181  30.015  1.00  0.00     0.074 A 
ATOM     57  C   UNL A   1      40.588  31.137  30.128  1.00  0.00     0.029 A 
ATOM     58  N   UNL A   1      42.233  29.669  29.822  1.00  0.00    -0.354 N 
ATOM     59  N   UNL A   1      44.996  28.712  30.002  1.00  0.00    -0.248 NA
ATOM     60  C   UNL A   1      47.250  29.088  30.489  1.00  0.00     0.031 C 
ATOM     61  C   UNL A   1      41.787  31.726  30.534  1.00  0.00     0.029 A 
ATOM     62  C   UNL A   1      42.807  30.804  30.362  1.00  0.00     0.049 A 
ATOM     63  H   UNL A   1      42.719  28.845  29.586  1.00  0.00     0.167 HD
ATOM     64  C   UNL A   1      45.150  30.004  30.484  1.00  0.00     0.074 A 
ATOM     65  C   UNL A   1      46.554  30.178  30.788  1.00  0.00     0.031 C 
ATOM     66  C   UNL A   1      44.206  30.960  30.661  1.00  0.00     0.031 A 
BRANCH  53  67
ATOM     67  C   UNL A   1      38.520  29.279  29.006  1.00  0.00    -0.014 A 
ATOM     68  C   UNL A   1      37.663  29.157  30.109  1.00  0.00     0.009 A 
ATOM     69  C   UNL A   1      38.039  29.865  27.825  1.00  0.00     0.009 A 
ATOM     70  C   UNL A   1      36.346  29.612  30.032  1.00  0.00     0.001 A 
ATOM     71  C   UNL A   1      36.726  30.337  27.757  1.00  0.00     0.001 A 
ATOM     72  C   UNL A   1      35.883  30.211  28.860  1.00  0.00     0.000 A 
ENDBRANCH  53  67
BRANCH  54  73
ATOM     73  C   UNL A   1      48.023  26.351  29.770  1.00  0.00    -0.014 A 
ATOM     74  C   UNL A   1      48.460  25.787  30.978  1.00  0.00     0.009 A 
ATOM     75  C   UNL A   1      48.929  26.465  28.704  1.00  0.00     0.009 A 
ATOM     76  C   UNL A   1      49.780  25.353  31.119  1.00  0.00     0.001 A 
ATOM     77  C   UNL A   1      50.242  26.011  28.841  1.00  0.00     0.001 A 
ATOM     78  C   UNL A   1      50.668  25.460  30.048  1.00  0.00     0.000 A 
ENDBRANCH  54  73
BRANCH  66  79
ATOM     79  C   UNL A   1      44.638  32.282  31.219  1.00  0.00    -0.014 A 
ATOM     80  C   UNL A   1      44.983  33.342  30.367  1.00  0.00     0.009 A 
ATOM     81  C   UNL A   1      44.569  32.509  32.603  1.00  0.00     0.009 A 
ATOM     82  C   UNL A   1      45.255  34.606  30.894  1.00  0.00     0.001 A 
ATOM     83  C   UNL A   1      44.820  33.779  33.123  1.00  0.00     0.001 A 
ATOM     84  C   UNL A   1      45.163  34.825  32.268  1.00  0.00     0.000 A 
ENDBRANCH  66  79
ENDBRANCH  40  41
ENDBRANCH  32  35
ENDBRANCH  30  31
ENDBRANCH  29  30
ENDBRANCH  28  29
ENDBRANCH   1  28
TORSDOF 16
ENDMDL
MODEL 2
REMARK VINA RESULT:     -11.8      3.264      8.751
REMARK SMILES Cc1cc(OC(F)(F)F)cc2c1O[C@@H](C(F)(F)F)C(C(=O)NCCCCCCNC(=O)c1ccc(-c3c4nc(c(-c5ccccc5)c5ccc([nH]5)c(-c5ccccc5)c5nc(c(-c6ccccc6)c6ccc3[nH]6)C=C5)C=C4)cc1)=C2
REMARK SMILES IDX 25 1 24 2 23 3 22 4 20 5 21 6 19 8 1 9 2 10 3 11 12 12 4 13
REMARK SMILES IDX 11 14 13 15 10 16 80 17 14 18 5 19 6 20 7 21 8 22 9 23 15 24
REMARK SMILES IDX 16 25 17 26 18 27 26 28 27 29 28 30 29 31 30 32 31 34 32 35
REMARK SMILES IDX 33 36 79 37 34 38 78 39 35 40 36 41 37 42 72 43 38 44 77 45
REMARK SMILES IDX 71 46 73 47 39 48 76 49 70 50 69 51 40 53 62 54 47 55 61 56
REMARK SMILES IDX 48 57 51 58 60 59 74 60 49 61 50 62 59 64 75 65 52 66 41 67
REMARK SMILES IDX 42 68 46 69 43 70 45 71 44 72 63 73 64 74 68 75 65 76 67 77
REMARK SMILES IDX 66 78 53 79 54 80 58 81 55 82 57 83 56 84
REMARK H PARENT 22 7 29 33 73 52 51 63
REMARK Flexibility Score: inf
ROOT
ATOM      1  C   UNL A   1      30.770  29.228  24.381  1.00  0.00     0.002 C 
ENDROOT
BRANCH   1   2
ATOM      2  C   UNL A   1      31.223  28.905  22.955  1.00  0.00     0.021 C 
BRANCH   2   3
ATOM      3  C   UNL A   1      30.684  27.579  22.422  1.00  0.00     0.116 C 
BRANCH   3   4
ATOM      4  N   UNL A   1      31.666  26.894  21.600  1.00  0.00    -0.352 N 
ATOM      5  C   UNL A   1      32.471  25.810  21.699  1.00  0.00     0.251 C 
ATOM      6  O   UNL A   1      33.155  25.575  20.697  1.00  0.00    -0.270 OA
ATOM      7  H   UNL A   1      31.776  27.341  20.730  1.00  0.00     0.163 HD
BRANCH   5   8
ATOM      8  C   UNL A   1      32.580  24.914  22.890  1.00  0.00     0.067 C 
ATOM      9  C   UNL A   1      32.480  22.705  27.515  1.00  0.00     0.048 C 
ATOM     10  C   UNL A   1      32.772  22.228  26.119  1.00  0.00    -0.005 A 
ATOM     11  C   UNL A   1      33.168  20.903  25.888  1.00  0.00     0.054 A 
ATOM     12  C   UNL A   1      32.666  23.106  25.034  1.00  0.00     0.131 A 
ATOM     13  C   UNL A   1      33.441  20.459  24.591  1.00  0.00     0.130 A 
ATOM     14  C   UNL A   1      32.940  22.679  23.735  1.00  0.00     0.021 A 
ATOM     15  O   UNL A   1      32.239  24.372  25.308  1.00  0.00    -0.475 OA
ATOM     16  C   UNL A   1      33.327  21.354  23.520  1.00  0.00     0.058 A 
ATOM     17  C   UNL A   1      32.786  23.610  22.624  1.00  0.00     0.025 C 
ATOM     18  C   UNL A   1      32.520  25.389  24.313  1.00  0.00     0.314 C 
BRANCH  13  19
ATOM     19  O   UNL A   1      33.823  19.197  24.235  1.00  0.00    -0.406 OA
BRANCH  19  20
ATOM     20  C   UNL A   1      32.802  18.262  23.929  1.00  0.00     0.573 C 
ATOM     21  F   UNL A   1      33.323  17.052  23.637  1.00  0.00    -0.132 F 
ATOM     22  F   UNL A   1      31.928  18.143  24.951  1.00  0.00    -0.132 F 
ATOM     23  F   UNL A   1      32.123  18.700  22.846  1.00  0.00    -0.132 F 
ENDBRANCH  19  20
ENDBRANCH  13  19
BRANCH  18  24
ATOM     24  C   UNL A   1      33.759  26.193  24.743  1.00  0.00     0.429 C 
ATOM     25  F   UNL A   1      33.575  26.714  25.984  1.00  0.00    -0.167 F 
ATOM     26  F   UNL A   1      34.883  25.441  24.787  1.00  0.00    -0.167 F 
ATOM     27  F   UNL A   1      34.020  27.236  23.923  1.00  0.00    -0.167 F 
ENDBRANCH  18  24
ENDBRANCH   5   8
ENDBRANCH   3   4
ENDBRANCH   2   3
ENDBRANCH   1   2
BRANCH   1  28
ATOM     28  C   UNL A   1      31.856  29.811  25.293  1.00  0.00     0.002 C 
BRANCH  28  29
ATOM     29  C   UNL A   1      31.431  31.031  26.115  1.00  0.00     0.021 C 
BRANCH  29  30
ATOM     30  C   UNL A   1      32.501  31.543  27.075  1.00  0.00     0.116 C 
BRANCH  30  31
ATOM     31  N   UNL A   1      32.326  32.958  27.359  1.00  0.00    -0.352 N 
ATOM     32  C   UNL A   1      33.074  33.765  28.174  1.00  0.00     0.251 C 
ATOM     33  H   UNL A   1      31.568  33.394  26.905  1.00  0.00     0.163 HD
ATOM     34  O   UNL A   1      32.668  34.872  28.512  1.00  0.00    -0.269 OA
BRANCH  32  35
ATOM     35  C   UNL A   1      34.385  33.283  28.648  1.00  0.00     0.039 A 
ATOM     36  C   UNL A   1      34.469  32.635  29.881  1.00  0.00     0.014 A 
ATOM     37  C   UNL A   1      35.526  33.485  27.865  1.00  0.00     0.014 A 
ATOM     38  C   UNL A   1      35.702  32.151  30.317  1.00  0.00     0.010 A 
ATOM     39  C   UNL A   1      36.745  32.959  28.278  1.00  0.00     0.010 A 
ATOM     40  C   UNL A   1      36.843  32.300  29.513  1.00  0.00    -0.014 A 
BRANCH  40  41
ATOM     41  C   UNL A   1      38.165  31.819  29.973  1.00  0.00     0.031 A 
ATOM     42  C   UNL A   1      38.676  30.491  29.496  1.00  0.00     0.074 A 
ATOM     43  C   UNL A   1      38.890  32.561  30.832  1.00  0.00     0.049 A 
ATOM     44  N   UNL A   1      39.790  29.881  29.804  1.00  0.00    -0.248 NA
ATOM     45  C   UNL A   1      37.820  29.745  28.556  1.00  0.00     0.031 C 
ATOM     46  C   UNL A   1      38.494  33.864  31.370  1.00  0.00     0.029 A 
ATOM     47  N   UNL A   1      40.115  32.323  31.400  1.00  0.00    -0.354 N 
ATOM     48  C   UNL A   1      39.770  28.685  29.100  1.00  0.00     0.074 A 
ATOM     49  C   UNL A   1      38.516  28.630  28.382  1.00  0.00     0.031 C 
ATOM     50  C   UNL A   1      39.473  34.323  32.167  1.00  0.00     0.029 A 
ATOM     51  C   UNL A   1      40.548  33.335  32.222  1.00  0.00     0.049 A 
ATOM     52  H   UNL A   1      40.636  31.504  31.235  1.00  0.00     0.167 HD
ATOM     53  C   UNL A   1      40.724  27.730  29.036  1.00  0.00     0.031 A 
ATOM     54  C   UNL A   1      41.683  33.453  32.936  1.00  0.00     0.031 A 
ATOM     55  C   UNL A   1      41.977  27.791  29.733  1.00  0.00     0.049 A 
ATOM     56  C   UNL A   1      42.707  32.355  32.884  1.00  0.00     0.074 A 
ATOM     57  C   UNL A   1      43.020  26.882  29.700  1.00  0.00     0.029 A 
ATOM     58  N   UNL A   1      42.359  28.817  30.581  1.00  0.00    -0.354 N 
ATOM     59  N   UNL A   1      42.685  31.244  32.189  1.00  0.00    -0.248 NA
ATOM     60  C   UNL A   1      43.911  32.525  33.710  1.00  0.00     0.031 C 
ATOM     61  C   UNL A   1      44.020  27.340  30.561  1.00  0.00     0.029 A 
ATOM     62  C   UNL A   1      43.616  28.555  31.093  1.00  0.00     0.049 A 
ATOM     63  H   UNL A   1      41.817  29.613  30.788  1.00  0.00     0.167 HD
ATOM     64  C   UNL A   1      43.876  30.593  32.478  1.00  0.00     0.074 A 
ATOM     65  C   UNL A   1      44.604  31.435  33.404  1.00  0.00     0.031 C 
ATOM     66  C   UNL A   1      44.326  29.403  32.011  1.00  0.00     0.031 A 
BRANCH  53  67
ATOM     67  C   UNL A   1      40.469  26.538  28.164  1.00  0.00    -0.014 A 
ATOM     68  C   UNL A   1      39.706  25.459  28.636  1.00  0.00     0.009 A 
ATOM     69  C   UNL A   1      40.903  26.540  26.830  1.00  0.00     0.009 A 
ATOM     70  C   UNL A   1      39.385  24.399  27.786  1.00  0.00     0.001 A 
ATOM     71  C   UNL A   1      40.564  25.487  25.978  1.00  0.00     0.001 A 
ATOM     72  C   UNL A   1      39.805  24.420  26.456  1.00  0.00     0.000 A 
ENDBRANCH  53  67
BRANCH  54  73
ATOM     73  C   UNL A   1      41.921  34.679  33.738  1.00  0.00    -0.014 A 
ATOM     74  C   UNL A   1      42.667  35.740  33.202  1.00  0.00     0.009 A 
ATOM     75  C   UNL A   1      41.385  34.808  35.029  1.00  0.00     0.009 A 
ATOM     76  C   UNL A   1      42.878  36.904  33.946  1.00  0.00     0.001 A 
ATOM     77  C   UNL A   1      41.581  35.980  35.762  1.00  0.00     0.001 A 
ATOM     78  C   UNL A   1      42.330  37.025  35.223  1.00  0.00     0.000 A 
ENDBRANCH  54  73
BRANCH  66  79
ATOM     79  C   UNL A   1      45.671  28.928  32.473  1.00  0.00    -0.014 A 
ATOM     80  C   UNL A   1      45.789  28.078  33.583  1.00  0.00     0.009 A 
ATOM     81  C   UNL A   1      46.813  29.226  31.712  1.00  0.00     0.009 A 
ATOM     82  C   UNL A   1      47.030  27.536  33.923  1.00  0.00     0.001 A 
ATOM     83  C   UNL A   1      48.047  28.665  32.043  1.00  0.00     0.001 A 
ATOM     84  C   UNL A   1      48.154  27.821  33.147  1.00  0.00     0.000 A 
ENDBRANCH  66  79
ENDBRANCH  40  41
ENDBRANCH  32  35
ENDBRANCH  30  31
ENDBRANCH  29  30
ENDBRANCH  28  29
ENDBRANCH   1  28
TORSDOF 16
ENDMDL
MODEL 3
REMARK VINA RESULT:     -11.7      0.556      5.742
REMARK SMILES Cc1cc(OC(F)(F)F)cc2c1O[C@@H](C(F)(F)F)C(C(=O)NCCCCCCNC(=O)c1ccc(-c3c4nc(c(-c5ccccc5)c5ccc([nH]5)c(-c5ccccc5)c5nc(c(-c6ccccc6)c6ccc3[nH]6)C=C5)C=C4)cc1)=C2
REMARK SMILES IDX 25 1 24 2 23 3 22 4 20 5 21 6 19 8 1 9 2 10 3 11 12 12 4 13
REMARK SMILES IDX 11 14 13 15 10 16 80 17 14 18 5 19 6 20 7 21 8 22 9 23 15 24
REMARK SMILES IDX 16 25 17 26 18 27 26 28 27 29 28 30 29 31 30 32 31 34 32 35
REMARK SMILES IDX 33 36 79 37 34 38 78 39 35 40 36 41 37 42 72 43 38 44 77 45
REMARK SMILES IDX 71 46 73 47 39 48 76 49 70 50 69 51 40 53 62 54 47 55 61 56
REMARK SMILES IDX 48 57 51 58 60 59 74 60 49 61 50 62 59 64 75 65 52 66 41 67
REMARK SMILES IDX 42 68 46 69 43 70 45 71 44 72 63 73 64 74 68 75 65 76 67 77
REMARK SMILES IDX 66 78 53 79 54 80 58 81 55 82 57 83 56 84
REMARK H PARENT 22 7 29 33 73 52 51 63
REMARK Flexibility Score: inf
ROOT
ATOM      1  C   UNL A   1      34.520  20.087  24.767  1.00  0.00     0.002 C 
ENDROOT
BRANCH   1   2
ATOM      2  C   UNL A   1      33.396  20.385  25.763  1.00  0.00     0.021 C 
BRANCH   2   3
ATOM      3  C   UNL A   1      32.183  21.071  25.138  1.00  0.00     0.116 C 
BRANCH   3   4
ATOM      4  N   UNL A   1      31.470  21.884  26.107  1.00  0.00    -0.352 N 
ATOM      5  C   UNL A   1      31.185  23.194  26.295  1.00  0.00     0.251 C 
ATOM      6  O   UNL A   1      30.494  23.439  27.290  1.00  0.00    -0.270 OA
ATOM      7  H   UNL A   1      31.088  21.329  26.824  1.00  0.00     0.163 HD
BRANCH   5   8
ATOM      8  C   UNL A   1      31.628  24.316  25.414  1.00  0.00     0.067 C 
ATOM      9  C   UNL A   1      33.838  27.389  21.956  1.00  0.00     0.048 C 
ATOM     10  C   UNL A   1      32.652  27.506  22.873  1.00  0.00    -0.005 A 
ATOM     11  C   UNL A   1      31.913  28.696  22.934  1.00  0.00     0.054 A 
ATOM     12  C   UNL A   1      32.279  26.431  23.689  1.00  0.00     0.131 A 
ATOM     13  C   UNL A   1      30.812  28.806  23.786  1.00  0.00     0.130 A 
ATOM     14  C   UNL A   1      31.184  26.528  24.548  1.00  0.00     0.021 A 
ATOM     15  O   UNL A   1      33.004  25.283  23.563  1.00  0.00    -0.475 OA
ATOM     16  C   UNL A   1      30.455  27.718  24.592  1.00  0.00     0.058 A 
ATOM     17  C   UNL A   1      30.802  25.378  25.358  1.00  0.00     0.025 C 
ATOM     18  C   UNL A   1      32.923  24.333  24.655  1.00  0.00     0.314 C 
BRANCH  13  19
ATOM     19  O   UNL A   1      30.009  29.902  23.928  1.00  0.00    -0.406 OA
BRANCH  19  20
ATOM     20  C   UNL A   1      29.048  30.150  22.915  1.00  0.00     0.573 C 
ATOM     21  F   UNL A   1      29.488  31.085  22.047  1.00  0.00    -0.132 F 
ATOM     22  F   UNL A   1      28.743  29.019  22.245  1.00  0.00    -0.132 F 
ATOM     23  F   UNL A   1      27.918  30.613  23.494  1.00  0.00    -0.132 F 
ENDBRANCH  19  20
ENDBRANCH  13  19
BRANCH  18  24
ATOM     24  C   UNL A   1      34.160  24.487  25.557  1.00  0.00     0.429 C 
ATOM     25  F   UNL A   1      35.293  24.261  24.844  1.00  0.00    -0.167 F 
ATOM     26  F   UNL A   1      34.264  25.724  26.096  1.00  0.00    -0.167 F 
ATOM     27  F   UNL A   1      34.173  23.611  26.587  1.00  0.00    -0.167 F 
ENDBRANCH  18  24
ENDBRANCH   5   8
ENDBRANCH   3   4
ENDBRANCH   2   3
ENDBRANCH   1   2
BRANCH   1  28
ATOM     28  C   UNL A   1      35.877  20.713  25.110  1.00  0.00     0.002 C 
BRANCH  28  29
ATOM     29  C   UNL A   1      37.082  19.781  24.957  1.00  0.00     0.021 C 
BRANCH  29  30
ATOM     30  C   UNL A   1      38.422  20.431  25.284  1.00  0.00     0.116 C 
BRANCH  30  31
ATOM     31  N   UNL A   1      39.430  19.435  25.609  1.00  0.00    -0.352 N 
ATOM     32  C   UNL A   1      40.713  19.628  26.051  1.00  0.00     0.251 C 
ATOM     33  H   UNL A   1      39.155  18.496  25.497  1.00  0.00     0.163 HD
ATOM     34  O   UNL A   1      41.527  18.711  26.048  1.00  0.00    -0.269 OA
BRANCH  32  35
ATOM     35  C   UNL A   1      41.108  20.965  26.532  1.00  0.00     0.039 A 
ATOM     36  C   UNL A   1      41.052  21.242  27.900  1.00  0.00     0.014 A 
ATOM     37  C   UNL A   1      41.526  21.940  25.621  1.00  0.00     0.014 A 
ATOM     38  C   UNL A   1      41.454  22.495  28.362  1.00  0.00     0.010 A 
ATOM     39  C   UNL A   1      41.973  23.170  26.087  1.00  0.00     0.010 A 
ATOM     40  C   UNL A   1      41.928  23.461  27.459  1.00  0.00    -0.014 A 
BRANCH  40  41
ATOM     41  C   UNL A   1      42.330  24.806  27.928  1.00  0.00     0.031 A 
ATOM     42  C   UNL A   1      43.786  25.117  28.119  1.00  0.00     0.074 A 
ATOM     43  C   UNL A   1      41.392  25.732  28.201  1.00  0.00     0.049 A 
ATOM     44  N   UNL A   1      44.341  26.220  28.550  1.00  0.00    -0.248 NA
ATOM     45  C   UNL A   1      44.746  24.046  27.796  1.00  0.00     0.031 C 
ATOM     46  C   UNL A   1      39.947  25.543  28.059  1.00  0.00     0.029 A 
ATOM     47  N   UNL A   1      41.519  27.021  28.653  1.00  0.00    -0.354 N 
ATOM     48  C   UNL A   1      45.708  25.978  28.547  1.00  0.00     0.074 A 
ATOM     49  C   UNL A   1      45.901  24.611  28.118  1.00  0.00     0.031 C 
ATOM     50  C   UNL A   1      39.323  26.687  28.390  1.00  0.00     0.029 A 
ATOM     51  C   UNL A   1      40.320  27.675  28.796  1.00  0.00     0.049 A 
ATOM     52  H   UNL A   1      42.387  27.439  28.856  1.00  0.00     0.167 HD
ATOM     53  C   UNL A   1      46.712  26.828  28.851  1.00  0.00     0.031 A 
ATOM     54  C   UNL A   1      40.054  28.929  29.205  1.00  0.00     0.031 A 
ATOM     55  C   UNL A   1      46.523  28.191  29.260  1.00  0.00     0.049 A 
ATOM     56  C   UNL A   1      41.188  29.840  29.582  1.00  0.00     0.074 A 
ATOM     57  C   UNL A   1      47.488  29.138  29.556  1.00  0.00     0.029 A 
ATOM     58  N   UNL A   1      45.292  28.801  29.424  1.00  0.00    -0.354 N 
ATOM     59  N   UNL A   1      42.477  29.604  29.546  1.00  0.00    -0.248 NA
ATOM     60  C   UNL A   1      40.835  31.187  30.053  1.00  0.00     0.031 C 
ATOM     61  C   UNL A   1      46.838  30.313  29.938  1.00  0.00     0.029 A 
ATOM     62  C   UNL A   1      45.470  30.108  29.837  1.00  0.00     0.049 A 
ATOM     63  H   UNL A   1      44.420  28.369  29.271  1.00  0.00     0.167 HD
ATOM     64  C   UNL A   1      43.088  30.777  29.969  1.00  0.00     0.074 A 
ATOM     65  C   UNL A   1      42.032  31.726  30.250  1.00  0.00     0.031 C 
ATOM     66  C   UNL A   1      44.409  31.040  30.109  1.00  0.00     0.031 A 
BRANCH  53  67
ATOM     67  C   UNL A   1      48.120  26.325  28.732  1.00  0.00    -0.014 A 
ATOM     68  C   UNL A   1      48.754  25.717  29.826  1.00  0.00     0.009 A 
ATOM     69  C   UNL A   1      48.776  26.365  27.493  1.00  0.00     0.009 A 
ATOM     70  C   UNL A   1      50.024  25.158  29.681  1.00  0.00     0.001 A 
ATOM     71  C   UNL A   1      50.039  25.787  27.347  1.00  0.00     0.001 A 
ATOM     72  C   UNL A   1      50.660  25.184  28.440  1.00  0.00     0.000 A 
ENDBRANCH  53  67
BRANCH  54  73
ATOM     73  C   UNL A   1      38.648  29.406  29.249  1.00  0.00    -0.014 A 
ATOM     74  C   UNL A   1      38.061  29.978  28.110  1.00  0.00     0.009 A 
ATOM     75  C   UNL A   1      37.879  29.267  30.415  1.00  0.00     0.009 A 
ATOM     76  C   UNL A   1      36.733  30.411  28.141  1.00  0.00     0.001 A 
ATOM     77  C   UNL A   1      36.546  29.682  30.436  1.00  0.00     0.001 A 
ATOM     78  C   UNL A   1      35.975  30.257  29.302  1.00  0.00     0.000 A 
ENDBRANCH  54  73
BRANCH  66  79
ATOM     79  C   UNL A   1      44.810  32.408  30.574  1.00  0.00    -0.014 A 
ATOM     80  C   UNL A   1      45.006  32.674  31.937  1.00  0.00     0.009 A 
ATOM     81  C   UNL A   1      45.123  33.399  29.629  1.00  0.00     0.009 A 
ATOM     82  C   UNL A   1      45.506  33.911  32.346  1.00  0.00     0.001 A 
ATOM     83  C   UNL A   1      45.644  34.627  30.041  1.00  0.00     0.001 A 
ATOM     84  C   UNL A   1      45.834  34.881  31.398  1.00  0.00     0.000 A 
ENDBRANCH  66  79
ENDBRANCH  40  41
ENDBRANCH  32  35
ENDBRANCH  30  31
ENDBRANCH  29  30
ENDBRANCH  28  29
ENDBRANCH   1  28
TORSDOF 16
ENDMDL
