MODEL 1
REMARK VINA RESULT:      -9.7      0.000      0.000
REMARK SMILES O=C(CS(=O)(=O)N1CCC1)NCCCCCCNC(=O)c1ccc(-c2c3nc(c(-c4ccccc4)c4ccc([nH]4)c(-c4ccccc4)c4nc(c(-c5ccccc5)c5ccc2[nH]5)C=C4)C=C3)cc1
REMARK SMILES IDX 14 1 13 2 12 3 11 4 1 5 2 6 3 8 4 9 5 10 6 11 7 12 8 13
REMARK SMILES IDX 10 14 9 15 15 16 16 17 17 18 18 19 19 20 20 22 21 23 22 24
REMARK SMILES IDX 68 25 23 26 67 27 24 28 25 29 26 30 61 31 27 32 66 33 60 34
REMARK SMILES IDX 62 35 28 36 65 37 59 38 58 39 29 41 51 42 36 43 50 44 37 45
REMARK SMILES IDX 40 46 49 47 63 48 38 49 39 50 48 52 64 53 41 54 30 55 31 56
REMARK SMILES IDX 35 57 32 58 34 59 33 60 52 61 53 62 57 63 54 64 56 65 55 66
REMARK SMILES IDX 42 67 43 68 47 69 44 70 46 71 45 72
REMARK H PARENT 11 7 18 21 62 40 40 51
REMARK Flexibility Score: inf
ROOT
ATOM      1  C   UNL A   1      42.062  20.434  26.258  1.00  0.00     0.002 C 
ENDROOT
BRANCH   1   2
ATOM      2  C   UNL A   1      42.274  18.916  26.177  1.00  0.00     0.021 C 
BRANCH   2   3
ATOM      3  C   UNL A   1      43.649  18.488  25.667  1.00  0.00     0.116 C 
BRANCH   3   4
ATOM      4  N   UNL A   1      44.535  19.622  25.507  1.00  0.00    -0.355 N 
ATOM      5  O   UNL A   1      45.657  18.825  23.685  1.00  0.00    -0.274 OA
ATOM      6  C   UNL A   1      45.481  19.717  24.517  1.00  0.00     0.236 C 
ATOM      7  H   UNL A   1      44.454  20.368  26.143  1.00  0.00     0.163 HD
BRANCH   6   8
ATOM      8  C   UNL A   1      46.381  20.915  24.549  1.00  0.00     0.253 C 
BRANCH   8   9
ATOM      9  S   UNL A   1      45.501  22.450  24.450  1.00  0.00     0.223 S 
ATOM     10  O   UNL A   1      46.394  23.442  23.877  1.00  0.00    -0.212 OA
ATOM     11  O   UNL A   1      44.227  22.173  23.820  1.00  0.00    -0.212 OA
BRANCH   9  12
ATOM     12  N   UNL A   1      45.189  22.882  26.020  1.00  0.00    -0.201 NA
ATOM     13  C   UNL A   1      46.028  23.690  26.941  1.00  0.00     0.103 C 
ATOM     14  C   UNL A   1      43.969  23.382  26.697  1.00  0.00     0.103 C 
ATOM     15  C   UNL A   1      44.833  23.774  27.911  1.00  0.00     0.033 C 
ENDBRANCH   9  12
ENDBRANCH   8   9
ENDBRANCH   6   8
ENDBRANCH   3   4
ENDBRANCH   2   3
ENDBRANCH   1   2
BRANCH   1  16
ATOM     16  C   UNL A   1      40.648  20.887  26.638  1.00  0.00     0.002 C 
BRANCH  16  17
ATOM     17  C   UNL A   1      40.571  22.048  27.632  1.00  0.00     0.021 C 
BRANCH  17  18
ATOM     18  C   UNL A   1      39.739  23.244  27.178  1.00  0.00     0.116 C 
BRANCH  18  19
ATOM     19  N   UNL A   1      40.382  24.012  26.124  1.00  0.00    -0.352 N 
ATOM     20  C   UNL A   1      40.803  25.320  26.124  1.00  0.00     0.251 C 
ATOM     21  H   UNL A   1      40.539  23.522  25.284  1.00  0.00     0.163 HD
ATOM     22  O   UNL A   1      41.210  25.838  25.088  1.00  0.00    -0.269 OA
BRANCH  20  23
ATOM     23  C   UNL A   1      40.740  26.124  27.365  1.00  0.00     0.039 A 
ATOM     24  C   UNL A   1      41.646  27.176  27.530  1.00  0.00     0.014 A 
ATOM     25  C   UNL A   1      39.801  25.846  28.362  1.00  0.00     0.014 A 
ATOM     26  C   UNL A   1      41.560  27.998  28.656  1.00  0.00     0.010 A 
ATOM     27  C   UNL A   1      39.677  26.703  29.455  1.00  0.00     0.010 A 
ATOM     28  C   UNL A   1      40.548  27.792  29.606  1.00  0.00    -0.014 A 
BRANCH  28  29
ATOM     29  C   UNL A   1      40.359  28.730  30.742  1.00  0.00     0.031 A 
ATOM     30  C   UNL A   1      39.330  29.822  30.673  1.00  0.00     0.074 A 
ATOM     31  C   UNL A   1      41.174  28.645  31.811  1.00  0.00     0.049 A 
ATOM     32  N   UNL A   1      39.072  30.767  31.541  1.00  0.00    -0.248 NA
ATOM     33  C   UNL A   1      38.499  29.871  29.461  1.00  0.00     0.031 C 
ATOM     34  C   UNL A   1      42.246  27.663  31.983  1.00  0.00     0.029 A 
ATOM     35  N   UNL A   1      41.237  29.409  32.949  1.00  0.00    -0.354 N 
ATOM     36  C   UNL A   1      38.058  31.531  30.976  1.00  0.00     0.074 A 
ATOM     37  C   UNL A   1      37.781  30.965  29.672  1.00  0.00     0.031 C 
ATOM     38  C   UNL A   1      42.850  27.875  33.162  1.00  0.00     0.029 A 
ATOM     39  C   UNL A   1      42.235  29.026  33.813  1.00  0.00     0.049 A 
ATOM     40  H   UNL A   1      40.627  30.160  33.130  1.00  0.00     0.167 HD
ATOM     41  C   UNL A   1      37.406  32.596  31.500  1.00  0.00     0.031 A 
ATOM     42  C   UNL A   1      42.621  29.549  34.991  1.00  0.00     0.031 A 
ATOM     43  C   UNL A   1      37.680  33.163  32.794  1.00  0.00     0.049 A 
ATOM     44  C   UNL A   1      41.894  30.738  35.547  1.00  0.00     0.074 A 
ATOM     45  C   UNL A   1      37.030  34.204  33.436  1.00  0.00     0.029 A 
ATOM     46  N   UNL A   1      38.692  32.742  33.641  1.00  0.00    -0.354 N 
ATOM     47  N   UNL A   1      40.889  31.404  35.032  1.00  0.00    -0.248 NA
ATOM     48  C   UNL A   1      42.349  31.243  36.850  1.00  0.00     0.031 C 
ATOM     49  C   UNL A   1      37.681  34.443  34.651  1.00  0.00     0.029 A 
ATOM     50  C   UNL A   1      38.705  33.520  34.787  1.00  0.00     0.049 A 
ATOM     51  H   UNL A   1      39.311  31.997  33.456  1.00  0.00     0.167 HD
ATOM     52  C   UNL A   1      40.583  32.398  35.951  1.00  0.00     0.074 A 
ATOM     53  C   UNL A   1      41.496  32.235  37.065  1.00  0.00     0.031 C 
ATOM     54  C   UNL A   1      39.631  33.360  35.879  1.00  0.00     0.031 A 
BRANCH  41  55
ATOM     55  C   UNL A   1      36.334  33.225  30.654  1.00  0.00    -0.014 A 
ATOM     56  C   UNL A   1      34.974  33.070  30.969  1.00  0.00     0.009 A 
ATOM     57  C   UNL A   1      36.688  33.995  29.534  1.00  0.00     0.009 A 
ATOM     58  C   UNL A   1      33.990  33.635  30.155  1.00  0.00     0.001 A 
ATOM     59  C   UNL A   1      35.701  34.582  28.738  1.00  0.00     0.001 A 
ATOM     60  C   UNL A   1      34.354  34.392  29.042  1.00  0.00     0.000 A 
ENDBRANCH  41  55
BRANCH  42  61
ATOM     61  C   UNL A   1      43.757  28.937  35.726  1.00  0.00    -0.014 A 
ATOM     62  C   UNL A   1      45.060  29.423  35.554  1.00  0.00     0.009 A 
ATOM     63  C   UNL A   1      43.536  27.880  36.625  1.00  0.00     0.009 A 
ATOM     64  C   UNL A   1      46.124  28.855  36.257  1.00  0.00     0.001 A 
ATOM     65  C   UNL A   1      44.598  27.330  37.344  1.00  0.00     0.001 A 
ATOM     66  C   UNL A   1      45.892  27.813  37.155  1.00  0.00     0.000 A 
ENDBRANCH  42  61
BRANCH  54  67
ATOM     67  C   UNL A   1      39.526  34.307  37.040  1.00  0.00    -0.014 A 
ATOM     68  C   UNL A   1      40.125  35.576  36.996  1.00  0.00     0.009 A 
ATOM     69  C   UNL A   1      38.791  33.939  38.177  1.00  0.00     0.009 A 
ATOM     70  C   UNL A   1      40.014  36.447  38.082  1.00  0.00     0.001 A 
ATOM     71  C   UNL A   1      38.659  34.821  39.251  1.00  0.00     0.001 A 
ATOM     72  C   UNL A   1      39.277  36.071  39.205  1.00  0.00     0.000 A 
ENDBRANCH  54  67
ENDBRANCH  28  29
ENDBRANCH  20  23
ENDBRANCH  18  19
ENDBRANCH  17  18
ENDBRANCH  16  17
ENDBRANCH   1  16
TORSDOF 15
ENDMDL
MODEL 2
REMARK VINA RESULT:      -9.7      5.120      8.363
REMARK SMILES O=C(CS(=O)(=O)N1CCC1)NCCCCCCNC(=O)c1ccc(-c2c3nc(c(-c4ccccc4)c4ccc([nH]4)c(-c4ccccc4)c4nc(c(-c5ccccc5)c5ccc2[nH]5)C=C4)C=C3)cc1
REMARK SMILES IDX 14 1 13 2 12 3 11 4 1 5 2 6 3 8 4 9 5 10 6 11 7 12 8 13
REMARK SMILES IDX 10 14 9 15 15 16 16 17 17 18 18 19 19 20 20 22 21 23 22 24
REMARK SMILES IDX 68 25 23 26 67 27 24 28 25 29 26 30 61 31 27 32 66 33 60 34
REMARK SMILES IDX 62 35 28 36 65 37 59 38 58 39 29 41 51 42 36 43 50 44 37 45
REMARK SMILES IDX 40 46 49 47 63 48 38 49 39 50 48 52 64 53 41 54 30 55 31 56
REMARK SMILES IDX 35 57 32 58 34 59 33 60 52 61 53 62 57 63 54 64 56 65 55 66
REMARK SMILES IDX 42 67 43 68 47 69 44 70 46 71 45 72
REMARK H PARENT 11 7 18 21 62 40 40 51
REMARK Flexibility Score: inf
ROOT
ATOM      1  C   UNL A   1      36.089  22.669  25.349  1.00  0.00     0.002 C 
ENDROOT
BRANCH   1   2
ATOM      2  C   UNL A   1      34.743  23.404  25.359  1.00  0.00     0.021 C 
BRANCH   2   3
ATOM      3  C   UNL A   1      34.835  24.908  25.613  1.00  0.00     0.116 C 
BRANCH   3   4
ATOM      4  N   UNL A   1      34.173  25.666  24.572  1.00  0.00    -0.355 N 
ATOM      5  O   UNL A   1      32.413  26.377  25.841  1.00  0.00    -0.274 OA
ATOM      6  C   UNL A   1      33.002  26.358  24.760  1.00  0.00     0.236 C 
ATOM      7  H   UNL A   1      34.586  25.687  23.679  1.00  0.00     0.163 HD
BRANCH   6   8
ATOM      8  C   UNL A   1      32.399  27.013  23.553  1.00  0.00     0.253 C 
BRANCH   8   9
ATOM      9  S   UNL A   1      32.476  26.002  22.101  1.00  0.00     0.223 S 
ATOM     10  O   UNL A   1      31.294  26.275  21.302  1.00  0.00    -0.212 OA
ATOM     11  O   UNL A   1      33.794  26.178  21.526  1.00  0.00    -0.212 OA
BRANCH   9  12
ATOM     12  N   UNL A   1      32.382  24.439  22.644  1.00  0.00    -0.201 NA
ATOM     13  C   UNL A   1      31.190  23.699  23.130  1.00  0.00     0.103 C 
ATOM     14  C   UNL A   1      32.964  23.170  22.147  1.00  0.00     0.103 C 
ATOM     15  C   UNL A   1      32.012  22.397  23.080  1.00  0.00     0.033 C 
ENDBRANCH   9  12
ENDBRANCH   8   9
ENDBRANCH   6   8
ENDBRANCH   3   4
ENDBRANCH   2   3
ENDBRANCH   1   2
BRANCH   1  16
ATOM     16  C   UNL A   1      36.011  21.139  25.302  1.00  0.00     0.002 C 
BRANCH  16  17
ATOM     17  C   UNL A   1      37.288  20.426  24.853  1.00  0.00     0.021 C 
BRANCH  17  18
ATOM     18  C   UNL A   1      38.558  20.826  25.600  1.00  0.00     0.116 C 
BRANCH  18  19
ATOM     19  N   UNL A   1      39.558  19.771  25.620  1.00  0.00    -0.352 N 
ATOM     20  C   UNL A   1      40.877  19.820  26.001  1.00  0.00     0.251 C 
ATOM     21  H   UNL A   1      39.243  18.889  25.314  1.00  0.00     0.163 HD
ATOM     22  O   UNL A   1      41.607  18.849  25.824  1.00  0.00    -0.269 OA
BRANCH  20  23
ATOM     23  C   UNL A   1      41.436  21.053  26.598  1.00  0.00     0.039 A 
ATOM     24  C   UNL A   1      41.980  22.022  25.751  1.00  0.00     0.014 A 
ATOM     25  C   UNL A   1      41.428  21.257  27.981  1.00  0.00     0.014 A 
ATOM     26  C   UNL A   1      42.445  23.228  26.280  1.00  0.00     0.010 A 
ATOM     27  C   UNL A   1      41.836  22.484  28.502  1.00  0.00     0.010 A 
ATOM     28  C   UNL A   1      42.338  23.484  27.656  1.00  0.00    -0.014 A 
BRANCH  28  29
ATOM     29  C   UNL A   1      42.707  24.807  28.221  1.00  0.00     0.031 A 
ATOM     30  C   UNL A   1      41.669  25.874  28.419  1.00  0.00     0.074 A 
ATOM     31  C   UNL A   1      44.000  25.074  28.487  1.00  0.00     0.049 A 
ATOM     32  N   UNL A   1      41.821  27.104  28.839  1.00  0.00    -0.248 NA
ATOM     33  C   UNL A   1      40.283  25.519  28.077  1.00  0.00     0.031 C 
ATOM     34  C   UNL A   1      45.115  24.143  28.295  1.00  0.00     0.029 A 
ATOM     35  N   UNL A   1      44.598  26.214  28.960  1.00  0.00    -0.354 N 
ATOM     36  C   UNL A   1      40.555  27.675  28.802  1.00  0.00     0.074 A 
ATOM     37  C   UNL A   1      39.656  26.670  28.274  1.00  0.00     0.031 C 
ATOM     38  C   UNL A   1      46.257  24.745  28.660  1.00  0.00     0.029 A 
ATOM     39  C   UNL A   1      45.963  26.112  29.077  1.00  0.00     0.049 A 
ATOM     40  H   UNL A   1      44.097  27.029  29.193  1.00  0.00     0.167 HD
ATOM     41  C   UNL A   1      40.172  28.917  29.185  1.00  0.00     0.031 A 
ATOM     42  C   UNL A   1      46.879  27.017  29.465  1.00  0.00     0.031 A 
ATOM     43  C   UNL A   1      41.063  29.919  29.707  1.00  0.00     0.049 A 
ATOM     44  C   UNL A   1      46.435  28.392  29.873  1.00  0.00     0.074 A 
ATOM     45  C   UNL A   1      40.758  31.184  30.179  1.00  0.00     0.029 A 
ATOM     46  N   UNL A   1      42.437  29.772  29.817  1.00  0.00    -0.354 N 
ATOM     47  N   UNL A   1      45.224  28.892  29.899  1.00  0.00    -0.248 NA
ATOM     48  C   UNL A   1      47.484  29.324  30.310  1.00  0.00     0.031 C 
ATOM     49  C   UNL A   1      41.953  31.820  30.530  1.00  0.00     0.029 A 
ATOM     50  C   UNL A   1      42.997  30.934  30.322  1.00  0.00     0.049 A 
ATOM     51  H   UNL A   1      42.940  28.961  29.573  1.00  0.00     0.167 HD
ATOM     52  C   UNL A   1      45.361  30.192  30.367  1.00  0.00     0.074 A 
ATOM     53  C   UNL A   1      46.772  30.395  30.631  1.00  0.00     0.031 C 
ATOM     54  C   UNL A   1      44.404  31.131  30.561  1.00  0.00     0.031 A 
BRANCH  41  55
ATOM     55  C   UNL A   1      38.716  29.258  29.037  1.00  0.00    -0.014 A 
ATOM     56  C   UNL A   1      37.830  29.153  30.122  1.00  0.00     0.009 A 
ATOM     57  C   UNL A   1      38.223  29.705  27.800  1.00  0.00     0.009 A 
ATOM     58  C   UNL A   1      36.474  29.445  29.961  1.00  0.00     0.001 A 
ATOM     59  C   UNL A   1      36.872  30.023  27.649  1.00  0.00     0.001 A 
ATOM     60  C   UNL A   1      35.997  29.882  28.725  1.00  0.00     0.000 A 
ENDBRANCH  41  55
BRANCH  42  61
ATOM     61  C   UNL A   1      48.316  26.641  29.490  1.00  0.00    -0.014 A 
ATOM     62  C   UNL A   1      48.868  26.018  30.618  1.00  0.00     0.009 A 
ATOM     63  C   UNL A   1      49.133  26.880  28.374  1.00  0.00     0.009 A 
ATOM     64  C   UNL A   1      50.216  25.653  30.633  1.00  0.00     0.001 A 
ATOM     65  C   UNL A   1      50.474  26.492  28.383  1.00  0.00     0.001 A 
ATOM     66  C   UNL A   1      51.016  25.885  29.515  1.00  0.00     0.000 A 
ENDBRANCH  42  61
BRANCH  54  67
ATOM     67  C   UNL A   1      44.852  32.464  31.089  1.00  0.00    -0.014 A 
ATOM     68  C   UNL A   1      45.198  33.509  30.216  1.00  0.00     0.009 A 
ATOM     69  C   UNL A   1      44.896  32.689  32.473  1.00  0.00     0.009 A 
ATOM     70  C   UNL A   1      45.607  34.744  30.724  1.00  0.00     0.001 A 
ATOM     71  C   UNL A   1      45.281  33.932  32.977  1.00  0.00     0.001 A 
ATOM     72  C   UNL A   1      45.643  34.956  32.102  1.00  0.00     0.000 A 
ENDBRANCH  54  67
ENDBRANCH  28  29
ENDBRANCH  20  23
ENDBRANCH  18  19
ENDBRANCH  17  18
ENDBRANCH  16  17
ENDBRANCH   1  16
TORSDOF 15
ENDMDL
MODEL 3
REMARK VINA RESULT:      -9.6      4.852      9.609
REMARK SMILES O=C(CS(=O)(=O)N1CCC1)NCCCCCCNC(=O)c1ccc(-c2c3nc(c(-c4ccccc4)c4ccc([nH]4)c(-c4ccccc4)c4nc(c(-c5ccccc5)c5ccc2[nH]5)C=C4)C=C3)cc1
REMARK SMILES IDX 14 1 13 2 12 3 11 4 1 5 2 6 3 8 4 9 5 10 6 11 7 12 8 13
REMARK SMILES IDX 10 14 9 15 15 16 16 17 17 18 18 19 19 20 20 22 21 23 22 24
REMARK SMILES IDX 68 25 23 26 67 27 24 28 25 29 26 30 61 31 27 32 66 33 60 34
REMARK SMILES IDX 62 35 28 36 65 37 59 38 58 39 29 41 51 42 36 43 50 44 37 45
REMARK SMILES IDX 40 46 49 47 63 48 38 49 39 50 48 52 64 53 41 54 30 55 31 56
REMARK SMILES IDX 35 57 32 58 34 59 33 60 52 61 53 62 57 63 54 64 56 65 55 66
REMARK SMILES IDX 42 67 43 68 47 69 44 70 46 71 45 72
REMARK H PARENT 11 7 18 21 62 40 40 51
REMARK Flexibility Score: inf
ROOT
ATOM      1  C   UNL A   1      32.108  29.394  27.230  1.00  0.00     0.002 C 
ENDROOT
BRANCH   1   2
ATOM      2  C   UNL A   1      31.421  28.037  27.027  1.00  0.00     0.021 C 
BRANCH   2   3
ATOM      3  C   UNL A   1      31.401  27.538  25.583  1.00  0.00     0.116 C 
BRANCH   3   4
ATOM      4  N   UNL A   1      31.018  26.144  25.506  1.00  0.00    -0.355 N 
ATOM      5  O   UNL A   1      32.518  25.547  23.892  1.00  0.00    -0.274 OA
ATOM      6  C   UNL A   1      31.611  25.236  24.664  1.00  0.00     0.236 C 
ATOM      7  H   UNL A   1      30.292  25.829  26.091  1.00  0.00     0.163 HD
BRANCH   6   8
ATOM      8  C   UNL A   1      31.032  23.853  24.640  1.00  0.00     0.253 C 
BRANCH   8   9
ATOM      9  S   UNL A   1      31.240  22.984  26.169  1.00  0.00     0.223 S 
ATOM     10  O   UNL A   1      31.110  23.945  27.252  1.00  0.00    -0.212 OA
ATOM     11  O   UNL A   1      30.374  21.824  26.124  1.00  0.00    -0.212 OA
BRANCH   9  12
ATOM     12  N   UNL A   1      32.803  22.432  26.155  1.00  0.00    -0.201 NA
ATOM     13  C   UNL A   1      33.979  22.964  26.887  1.00  0.00     0.103 C 
ATOM     14  C   UNL A   1      33.383  21.069  26.219  1.00  0.00     0.103 C 
ATOM     15  C   UNL A   1      34.763  21.697  26.494  1.00  0.00     0.033 C 
ENDBRANCH   9  12
ENDBRANCH   8   9
ENDBRANCH   6   8
ENDBRANCH   3   4
ENDBRANCH   2   3
ENDBRANCH   1   2
BRANCH   1  16
ATOM     16  C   UNL A   1      31.800  30.460  26.172  1.00  0.00     0.002 C 
BRANCH  16  17
ATOM     17  C   UNL A   1      31.507  31.861  26.712  1.00  0.00     0.021 C 
BRANCH  17  18
ATOM     18  C   UNL A   1      32.713  32.612  27.272  1.00  0.00     0.116 C 
BRANCH  18  19
ATOM     19  N   UNL A   1      32.415  33.997  27.600  1.00  0.00    -0.352 N 
ATOM     20  C   UNL A   1      33.006  34.826  28.522  1.00  0.00     0.251 C 
ATOM     21  H   UNL A   1      31.679  34.400  27.084  1.00  0.00     0.163 HD
ATOM     22  O   UNL A   1      32.528  35.933  28.751  1.00  0.00    -0.269 OA
BRANCH  20  23
ATOM     23  C   UNL A   1      34.203  34.379  29.269  1.00  0.00     0.039 A 
ATOM     24  C   UNL A   1      34.026  33.749  30.504  1.00  0.00     0.014 A 
ATOM     25  C   UNL A   1      35.490  34.580  28.763  1.00  0.00     0.014 A 
ATOM     26  C   UNL A   1      35.132  33.249  31.194  1.00  0.00     0.010 A 
ATOM     27  C   UNL A   1      36.587  34.028  29.422  1.00  0.00     0.010 A 
ATOM     28  C   UNL A   1      36.417  33.349  30.638  1.00  0.00    -0.014 A 
BRANCH  28  29
ATOM     29  C   UNL A   1      37.588  32.713  31.293  1.00  0.00     0.031 A 
ATOM     30  C   UNL A   1      38.255  31.515  30.678  1.00  0.00     0.074 A 
ATOM     31  C   UNL A   1      38.006  33.170  32.489  1.00  0.00     0.049 A 
ATOM     32  N   UNL A   1      39.246  30.795  31.141  1.00  0.00    -0.248 NA
ATOM     33  C   UNL A   1      37.724  31.053  29.387  1.00  0.00     0.031 C 
ATOM     34  C   UNL A   1      37.416  34.295  33.219  1.00  0.00     0.029 A 
ATOM     35  N   UNL A   1      39.015  32.735  33.310  1.00  0.00    -0.354 N 
ATOM     36  C   UNL A   1      39.450  29.789  30.205  1.00  0.00     0.074 A 
ATOM     37  C   UNL A   1      38.450  29.965  29.173  1.00  0.00     0.031 C 
ATOM     38  C   UNL A   1      38.082  34.468  34.370  1.00  0.00     0.029 A 
ATOM     39  C   UNL A   1      39.120  33.449  34.478  1.00  0.00     0.049 A 
ATOM     40  H   UNL A   1      39.607  31.981  33.084  1.00  0.00     0.167 HD
ATOM     41  C   UNL A   1      40.392  28.816  30.198  1.00  0.00     0.031 A 
ATOM     42  C   UNL A   1      39.951  33.297  35.526  1.00  0.00     0.031 A 
ATOM     43  C   UNL A   1      41.385  28.636  31.223  1.00  0.00     0.049 A 
ATOM     44  C   UNL A   1      40.978  32.203  35.504  1.00  0.00     0.074 A 
ATOM     45  C   UNL A   1      42.419  27.716  31.272  1.00  0.00     0.029 A 
ATOM     46  N   UNL A   1      41.463  29.385  32.386  1.00  0.00    -0.354 N 
ATOM     47  N   UNL A   1      41.203  31.304  34.577  1.00  0.00    -0.248 NA
ATOM     48  C   UNL A   1      41.870  32.108  36.668  1.00  0.00     0.031 C 
ATOM     49  C   UNL A   1      43.093  27.879  32.487  1.00  0.00     0.029 A 
ATOM     50  C   UNL A   1      42.509  28.931  33.172  1.00  0.00     0.049 A 
ATOM     51  H   UNL A   1      40.864  30.132  32.618  1.00  0.00     0.167 HD
ATOM     52  C   UNL A   1      42.270  30.544  35.038  1.00  0.00     0.074 A 
ATOM     53  C   UNL A   1      42.659  31.102  36.319  1.00  0.00     0.031 C 
ATOM     54  C   UNL A   1      42.873  29.481  34.453  1.00  0.00     0.031 A 
BRANCH  41  55
ATOM     55  C   UNL A   1      40.377  27.860  29.037  1.00  0.00    -0.014 A 
ATOM     56  C   UNL A   1      41.092  28.134  27.860  1.00  0.00     0.009 A 
ATOM     57  C   UNL A   1      39.651  26.662  29.126  1.00  0.00     0.009 A 
ATOM     58  C   UNL A   1      41.043  27.251  26.780  1.00  0.00     0.001 A 
ATOM     59  C   UNL A   1      39.627  25.767  28.055  1.00  0.00     0.001 A 
ATOM     60  C   UNL A   1      40.313  26.067  26.879  1.00  0.00     0.000 A 
ENDBRANCH  41  55
BRANCH  42  61
ATOM     61  C   UNL A   1      39.841  34.217  36.687  1.00  0.00    -0.014 A 
ATOM     62  C   UNL A   1      40.517  35.445  36.687  1.00  0.00     0.009 A 
ATOM     63  C   UNL A   1      39.037  33.881  37.788  1.00  0.00     0.009 A 
ATOM     64  C   UNL A   1      40.401  36.314  37.774  1.00  0.00     0.001 A 
ATOM     65  C   UNL A   1      38.904  34.763  38.862  1.00  0.00     0.001 A 
ATOM     66  C   UNL A   1      39.592  35.975  38.857  1.00  0.00     0.000 A 
ENDBRANCH  42  61
BRANCH  54  67
ATOM     67  C   UNL A   1      44.020  28.854  35.193  1.00  0.00    -0.014 A 
ATOM     68  C   UNL A   1      43.822  27.741  36.027  1.00  0.00     0.009 A 
ATOM     69  C   UNL A   1      45.318  29.359  35.026  1.00  0.00     0.009 A 
ATOM     70  C   UNL A   1      44.901  27.166  36.702  1.00  0.00     0.001 A 
ATOM     71  C   UNL A   1      46.398  28.766  35.683  1.00  0.00     0.001 A 
ATOM     72  C   UNL A   1      46.187  27.676  36.526  1.00  0.00     0.000 A 
ENDBRANCH  54  67
ENDBRANCH  28  29
ENDBRANCH  20  23
ENDBRANCH  18  19
ENDBRANCH  17  18
ENDBRANCH  16  17
ENDBRANCH   1  16
TORSDOF 15
ENDMDL
