MODEL 1
REMARK VINA RESULT:     -11.3      0.000      0.000
REMARK SMILES CN(C(=O)C[C@@H]1SC(=O)N(c2ccccc2)C1=O)c1ccccc1C(=O)NCCCCCCNC(=O)c1ccc(-c2c3nc(c(-c4ccccc4)c4ccc([nH]4)c(-c4ccccc4)c4nc(c(-c5ccccc5)c5ccc2[nH]5)C=C4)C=C3)cc1
REMARK SMILES IDX 29 1 28 2 27 3 25 4 26 5 24 7 19 8 20 9 21 10 23 11 22 12
REMARK SMILES IDX 2 13 1 14 3 15 4 16 5 17 6 18 7 19 17 20 8 21 10 22 18 23
REMARK SMILES IDX 9 24 11 25 12 26 16 27 13 28 15 29 14 30 30 31 31 32 32 33
REMARK SMILES IDX 33 34 34 35 35 36 36 38 37 39 38 40 84 41 39 42 83 43 40 44
REMARK SMILES IDX 41 45 42 46 77 47 43 48 82 49 76 50 78 51 44 52 81 53 75 54
REMARK SMILES IDX 74 55 45 57 67 58 52 59 66 60 53 61 56 62 65 63 79 64 54 65
REMARK SMILES IDX 55 66 64 68 80 69 57 70 46 71 47 72 51 73 48 74 50 75 49 76
REMARK SMILES IDX 68 77 69 78 73 79 70 80 72 81 71 82 58 83 59 84 63 85 60 86
REMARK SMILES IDX 62 87 61 88
REMARK H PARENT 27 6 34 37 78 56 56 67
REMARK Flexibility Score: inf
ROOT
ATOM      1  C   UNL A   1      37.320  22.855  25.630  1.00  0.00     0.021 C 
ENDROOT
BRANCH   1   2
ATOM      2  C   UNL A   1      36.063  23.645  25.274  1.00  0.00     0.116 C 
BRANCH   2   3
ATOM      3  N   UNL A   1      35.013  23.400  26.239  1.00  0.00    -0.352 N 
ATOM      4  C   UNL A   1      33.875  22.635  26.214  1.00  0.00     0.253 C 
ATOM      5  O   UNL A   1      33.250  22.560  27.277  1.00  0.00    -0.269 OA
ATOM      6  H   UNL A   1      35.141  23.883  27.088  1.00  0.00     0.163 HD
BRANCH   4   7
ATOM      7  C   UNL A   1      33.409  21.791  25.073  1.00  0.00     0.063 A 
ATOM      8  C   UNL A   1      32.718  22.174  23.905  1.00  0.00     0.056 A 
ATOM      9  C   UNL A   1      32.259  21.173  23.017  1.00  0.00     0.027 A 
ATOM     10  C   UNL A   1      32.457  19.818  23.270  1.00  0.00     0.002 A 
ATOM     11  C   UNL A   1      33.618  20.407  25.291  1.00  0.00     0.016 A 
ATOM     12  C   UNL A   1      33.144  19.433  24.408  1.00  0.00     0.001 A 
BRANCH   8  13
ATOM     13  N   UNL A   1      32.289  23.501  23.589  1.00  0.00    -0.315 N 
ATOM     14  C   UNL A   1      31.045  23.925  24.246  1.00  0.00     0.153 C 
BRANCH  13  15
ATOM     15  C   UNL A   1      33.225  24.355  23.004  1.00  0.00     0.228 C 
ATOM     16  O   UNL A   1      33.864  24.053  21.996  1.00  0.00    -0.274 OA
BRANCH  15  17
ATOM     17  C   UNL A   1      33.506  25.682  23.692  1.00  0.00     0.125 C 
BRANCH  17  18
ATOM     18  C   UNL A   1      33.174  26.916  22.853  1.00  0.00     0.156 C 
ATOM     19  S   UNL A   1      33.653  28.445  23.676  1.00  0.00    -0.050 SA
ATOM     20  C   UNL A   1      31.719  27.119  22.462  1.00  0.00     0.248 C 
ATOM     21  C   UNL A   1      31.988  28.842  24.004  1.00  0.00     0.293 C 
ATOM     22  N   UNL A   1      31.202  28.285  23.020  1.00  0.00    -0.240 N 
ATOM     23  O   UNL A   1      31.183  26.332  21.685  1.00  0.00    -0.273 OA
ATOM     24  O   UNL A   1      31.696  29.528  24.960  1.00  0.00    -0.261 OA
BRANCH  22  25
ATOM     25  C   UNL A   1      30.007  28.940  22.585  1.00  0.00     0.053 A 
ATOM     26  C   UNL A   1      30.022  30.078  21.770  1.00  0.00     0.027 A 
ATOM     27  C   UNL A   1      28.761  28.544  23.113  1.00  0.00     0.027 A 
ATOM     28  C   UNL A   1      28.857  30.824  21.550  1.00  0.00     0.002 A 
ATOM     29  C   UNL A   1      27.601  29.288  22.901  1.00  0.00     0.002 A 
ATOM     30  C   UNL A   1      27.652  30.440  22.132  1.00  0.00     0.000 A 
ENDBRANCH  22  25
ENDBRANCH  17  18
ENDBRANCH  15  17
ENDBRANCH  13  15
ENDBRANCH   8  13
ENDBRANCH   4   7
ENDBRANCH   2   3
ENDBRANCH   1   2
BRANCH   1  31
ATOM     31  C   UNL A   1      38.361  23.571  26.502  1.00  0.00     0.002 C 
BRANCH  31  32
ATOM     32  C   UNL A   1      39.562  22.688  26.872  1.00  0.00     0.002 C 
BRANCH  32  33
ATOM     33  C   UNL A   1      39.696  21.343  26.136  1.00  0.00     0.021 C 
BRANCH  33  34
ATOM     34  C   UNL A   1      40.508  20.259  26.839  1.00  0.00     0.116 C 
BRANCH  34  35
ATOM     35  N   UNL A   1      41.681  19.847  26.094  1.00  0.00    -0.352 N 
ATOM     36  C   UNL A   1      42.785  20.568  25.710  1.00  0.00     0.251 C 
ATOM     37  H   UNL A   1      41.688  18.902  25.821  1.00  0.00     0.163 HD
ATOM     38  O   UNL A   1      43.600  20.077  24.934  1.00  0.00    -0.269 OA
BRANCH  36  39
ATOM     39  C   UNL A   1      42.994  21.948  26.203  1.00  0.00     0.039 A 
ATOM     40  C   UNL A   1      42.960  22.998  25.280  1.00  0.00     0.014 A 
ATOM     41  C   UNL A   1      43.272  22.209  27.547  1.00  0.00     0.014 A 
ATOM     42  C   UNL A   1      43.140  24.314  25.715  1.00  0.00     0.010 A 
ATOM     43  C   UNL A   1      43.397  23.528  27.989  1.00  0.00     0.010 A 
ATOM     44  C   UNL A   1      43.330  24.594  27.078  1.00  0.00    -0.014 A 
BRANCH  44  45
ATOM     45  C   UNL A   1      43.442  25.997  27.558  1.00  0.00     0.031 A 
ATOM     46  C   UNL A   1      44.783  26.669  27.661  1.00  0.00     0.074 A 
ATOM     47  C   UNL A   1      42.334  26.659  27.945  1.00  0.00     0.049 A 
ATOM     48  N   UNL A   1      45.071  27.876  28.082  1.00  0.00    -0.248 NA
ATOM     49  C   UNL A   1      45.956  25.878  27.256  1.00  0.00     0.031 C 
ATOM     50  C   UNL A   1      40.973  26.117  27.926  1.00  0.00     0.029 A 
ATOM     51  N   UNL A   1      42.175  27.933  28.433  1.00  0.00    -0.354 N 
ATOM     52  C   UNL A   1      46.455  27.984  28.006  1.00  0.00     0.074 A 
ATOM     53  C   UNL A   1      46.951  26.706  27.540  1.00  0.00     0.031 C 
ATOM     54  C   UNL A   1      40.119  27.058  28.356  1.00  0.00     0.029 A 
ATOM     55  C   UNL A   1      40.870  28.257  28.715  1.00  0.00     0.049 A 
ATOM     56  H   UNL A   1      42.926  28.555  28.567  1.00  0.00     0.167 HD
ATOM     57  C   UNL A   1      47.241  29.053  28.283  1.00  0.00     0.031 A 
ATOM     58  C   UNL A   1      40.336  29.389  29.211  1.00  0.00     0.031 A 
ATOM     59  C   UNL A   1      46.753  30.327  28.738  1.00  0.00     0.049 A 
ATOM     60  C   UNL A   1      41.231  30.555  29.525  1.00  0.00     0.074 A 
ATOM     61  C   UNL A   1      47.470  31.484  28.992  1.00  0.00     0.029 A 
ATOM     62  N   UNL A   1      45.425  30.612  29.013  1.00  0.00    -0.354 N 
ATOM     63  N   UNL A   1      42.530  30.659  29.383  1.00  0.00    -0.248 NA
ATOM     64  C   UNL A   1      40.582  31.762  30.056  1.00  0.00     0.031 C 
ATOM     65  C   UNL A   1      46.582  32.455  29.467  1.00  0.00     0.029 A 
ATOM     66  C   UNL A   1      45.304  31.918  29.458  1.00  0.00     0.049 A 
ATOM     67  H   UNL A   1      44.678  29.979  28.907  1.00  0.00     0.167 HD
ATOM     68  C   UNL A   1      42.850  31.950  29.782  1.00  0.00     0.074 A 
ATOM     69  C   UNL A   1      41.609  32.596  30.156  1.00  0.00     0.031 C 
ATOM     70  C   UNL A   1      44.065  32.549  29.830  1.00  0.00     0.031 A 
BRANCH  57  71
ATOM     71  C   UNL A   1      48.725  28.883  28.107  1.00  0.00    -0.014 A 
ATOM     72  C   UNL A   1      49.355  29.198  26.892  1.00  0.00     0.009 A 
ATOM     73  C   UNL A   1      49.511  28.439  29.183  1.00  0.00     0.009 A 
ATOM     74  C   UNL A   1      50.735  29.035  26.747  1.00  0.00     0.001 A 
ATOM     75  C   UNL A   1      50.893  28.306  29.044  1.00  0.00     0.001 A 
ATOM     76  C   UNL A   1      51.503  28.593  27.824  1.00  0.00     0.000 A 
ENDBRANCH  57  71
BRANCH  58  77
ATOM     77  C   UNL A   1      38.869  29.485  29.429  1.00  0.00    -0.014 A 
ATOM     78  C   UNL A   1      38.013  29.831  28.372  1.00  0.00     0.009 A 
ATOM     79  C   UNL A   1      38.317  29.240  30.696  1.00  0.00     0.009 A 
ATOM     80  C   UNL A   1      36.639  29.955  28.585  1.00  0.00     0.001 A 
ATOM     81  C   UNL A   1      36.939  29.336  30.900  1.00  0.00     0.001 A 
ATOM     82  C   UNL A   1      36.102  29.703  29.848  1.00  0.00     0.000 A 
ENDBRANCH  58  77
BRANCH  70  83
ATOM     83  C   UNL A   1      44.108  33.984  30.274  1.00  0.00    -0.014 A 
ATOM     84  C   UNL A   1      43.874  35.034  29.372  1.00  0.00     0.009 A 
ATOM     85  C   UNL A   1      44.348  34.286  31.624  1.00  0.00     0.009 A 
ATOM     86  C   UNL A   1      43.911  36.360  29.809  1.00  0.00     0.001 A 
ATOM     87  C   UNL A   1      44.356  35.611  32.062  1.00  0.00     0.001 A 
ATOM     88  C   UNL A   1      44.147  36.646  31.153  1.00  0.00     0.000 A 
ENDBRANCH  70  83
ENDBRANCH  44  45
ENDBRANCH  36  39
ENDBRANCH  34  35
ENDBRANCH  33  34
ENDBRANCH  32  33
ENDBRANCH  31  32
ENDBRANCH   1  31
TORSDOF 18
ENDMDL
MODEL 2
REMARK VINA RESULT:     -11.1      0.688      5.673
REMARK SMILES CN(C(=O)C[C@@H]1SC(=O)N(c2ccccc2)C1=O)c1ccccc1C(=O)NCCCCCCNC(=O)c1ccc(-c2c3nc(c(-c4ccccc4)c4ccc([nH]4)c(-c4ccccc4)c4nc(c(-c5ccccc5)c5ccc2[nH]5)C=C4)C=C3)cc1
REMARK SMILES IDX 29 1 28 2 27 3 25 4 26 5 24 7 19 8 20 9 21 10 23 11 22 12
REMARK SMILES IDX 2 13 1 14 3 15 4 16 5 17 6 18 7 19 17 20 8 21 10 22 18 23
REMARK SMILES IDX 9 24 11 25 12 26 16 27 13 28 15 29 14 30 30 31 31 32 32 33
REMARK SMILES IDX 33 34 34 35 35 36 36 38 37 39 38 40 84 41 39 42 83 43 40 44
REMARK SMILES IDX 41 45 42 46 77 47 43 48 82 49 76 50 78 51 44 52 81 53 75 54
REMARK SMILES IDX 74 55 45 57 67 58 52 59 66 60 53 61 56 62 65 63 79 64 54 65
REMARK SMILES IDX 55 66 64 68 80 69 57 70 46 71 47 72 51 73 48 74 50 75 49 76
REMARK SMILES IDX 68 77 69 78 73 79 70 80 72 81 71 82 58 83 59 84 63 85 60 86
REMARK SMILES IDX 62 87 61 88
REMARK H PARENT 27 6 34 37 78 56 56 67
REMARK Flexibility Score: inf
ROOT
ATOM      1  C   UNL A   1      37.308  23.126  25.853  1.00  0.00     0.021 C 
ENDROOT
BRANCH   1   2
ATOM      2  C   UNL A   1      35.952  23.820  25.971  1.00  0.00     0.116 C 
BRANCH   2   3
ATOM      3  N   UNL A   1      35.051  23.047  26.797  1.00  0.00    -0.352 N 
ATOM      4  C   UNL A   1      33.893  22.360  26.536  1.00  0.00     0.253 C 
ATOM      5  O   UNL A   1      33.433  21.698  27.472  1.00  0.00    -0.269 OA
ATOM      6  H   UNL A   1      35.324  23.007  27.743  1.00  0.00     0.163 HD
BRANCH   4   7
ATOM      7  C   UNL A   1      33.229  22.234  25.203  1.00  0.00     0.063 A 
ATOM      8  C   UNL A   1      32.401  23.156  24.531  1.00  0.00     0.056 A 
ATOM      9  C   UNL A   1      31.771  22.763  23.326  1.00  0.00     0.027 A 
ATOM     10  C   UNL A   1      31.933  21.486  22.793  1.00  0.00     0.002 A 
ATOM     11  C   UNL A   1      33.396  20.953  24.624  1.00  0.00     0.016 A 
ATOM     12  C   UNL A   1      32.753  20.580  23.440  1.00  0.00     0.001 A 
BRANCH   8  13
ATOM     13  N   UNL A   1      31.999  24.434  25.031  1.00  0.00    -0.315 N 
ATOM     14  C   UNL A   1      30.776  24.426  25.845  1.00  0.00     0.153 C 
BRANCH  13  15
ATOM     15  C   UNL A   1      32.946  25.458  25.006  1.00  0.00     0.228 C 
ATOM     16  O   UNL A   1      33.077  26.267  25.924  1.00  0.00    -0.274 OA
BRANCH  15  17
ATOM     17  C   UNL A   1      33.799  25.609  23.754  1.00  0.00     0.125 C 
BRANCH  17  18
ATOM     18  C   UNL A   1      33.361  26.737  22.820  1.00  0.00     0.156 C 
ATOM     19  S   UNL A   1      33.874  28.354  23.424  1.00  0.00    -0.050 SA
ATOM     20  C   UNL A   1      31.872  26.874  22.547  1.00  0.00     0.248 C 
ATOM     21  C   UNL A   1      32.237  28.761  23.860  1.00  0.00     0.293 C 
ATOM     22  N   UNL A   1      31.379  28.087  23.020  1.00  0.00    -0.240 N 
ATOM     23  O   UNL A   1      31.287  25.999  21.913  1.00  0.00    -0.273 OA
ATOM     24  O   UNL A   1      32.015  29.543  24.760  1.00  0.00    -0.261 OA
BRANCH  22  25
ATOM     25  C   UNL A   1      30.134  28.672  22.629  1.00  0.00     0.053 A 
ATOM     26  C   UNL A   1      30.054  29.836  21.856  1.00  0.00     0.027 A 
ATOM     27  C   UNL A   1      28.928  28.172  23.163  1.00  0.00     0.027 A 
ATOM     28  C   UNL A   1      28.837  30.507  21.683  1.00  0.00     0.002 A 
ATOM     29  C   UNL A   1      27.715  28.840  22.998  1.00  0.00     0.002 A 
ATOM     30  C   UNL A   1      27.672  30.020  22.270  1.00  0.00     0.000 A 
ENDBRANCH  22  25
ENDBRANCH  17  18
ENDBRANCH  15  17
ENDBRANCH  13  15
ENDBRANCH   8  13
ENDBRANCH   4   7
ENDBRANCH   2   3
ENDBRANCH   1   2
BRANCH   1  31
ATOM     31  C   UNL A   1      38.517  23.871  26.435  1.00  0.00     0.002 C 
BRANCH  31  32
ATOM     32  C   UNL A   1      39.685  22.946  26.807  1.00  0.00     0.002 C 
BRANCH  32  33
ATOM     33  C   UNL A   1      39.740  21.573  26.114  1.00  0.00     0.021 C 
BRANCH  33  34
ATOM     34  C   UNL A   1      40.545  20.485  26.820  1.00  0.00     0.116 C 
BRANCH  34  35
ATOM     35  N   UNL A   1      41.715  20.064  26.075  1.00  0.00    -0.352 N 
ATOM     36  C   UNL A   1      42.844  20.764  25.728  1.00  0.00     0.251 C 
ATOM     37  H   UNL A   1      41.698  19.128  25.770  1.00  0.00     0.163 HD
ATOM     38  O   UNL A   1      43.654  20.275  24.946  1.00  0.00    -0.269 OA
BRANCH  36  39
ATOM     39  C   UNL A   1      43.088  22.120  26.269  1.00  0.00     0.039 A 
ATOM     40  C   UNL A   1      43.135  23.196  25.377  1.00  0.00     0.014 A 
ATOM     41  C   UNL A   1      43.317  22.333  27.631  1.00  0.00     0.014 A 
ATOM     42  C   UNL A   1      43.349  24.491  25.856  1.00  0.00     0.010 A 
ATOM     43  C   UNL A   1      43.476  23.633  28.115  1.00  0.00     0.010 A 
ATOM     44  C   UNL A   1      43.491  24.725  27.234  1.00  0.00    -0.014 A 
BRANCH  44  45
ATOM     45  C   UNL A   1      43.639  26.109  27.758  1.00  0.00     0.031 A 
ATOM     46  C   UNL A   1      42.432  26.923  28.131  1.00  0.00     0.074 A 
ATOM     47  C   UNL A   1      44.868  26.654  27.858  1.00  0.00     0.049 A 
ATOM     48  N   UNL A   1      42.372  28.154  28.578  1.00  0.00    -0.248 NA
ATOM     49  C   UNL A   1      41.119  26.281  27.963  1.00  0.00     0.031 C 
ATOM     50  C   UNL A   1      46.123  25.988  27.502  1.00  0.00     0.029 A 
ATOM     51  N   UNL A   1      45.264  27.897  28.288  1.00  0.00    -0.354 N 
ATOM     52  C   UNL A   1      41.020  28.436  28.732  1.00  0.00     0.074 A 
ATOM     53  C   UNL A   1      40.293  27.265  28.289  1.00  0.00     0.031 C 
ATOM     54  C   UNL A   1      47.148  26.818  27.752  1.00  0.00     0.029 A 
ATOM     55  C   UNL A   1      46.625  28.085  28.251  1.00  0.00     0.049 A 
ATOM     56  H   UNL A   1      44.633  28.587  28.594  1.00  0.00     0.167 HD
ATOM     57  C   UNL A   1      40.435  29.560  29.212  1.00  0.00     0.031 A 
ATOM     58  C   UNL A   1      47.370  29.158  28.578  1.00  0.00     0.031 A 
ATOM     59  C   UNL A   1      41.153  30.723  29.661  1.00  0.00     0.049 A 
ATOM     60  C   UNL A   1      46.696  30.399  29.093  1.00  0.00     0.074 A 
ATOM     61  C   UNL A   1      40.647  31.888  30.214  1.00  0.00     0.029 A 
ATOM     62  N   UNL A   1      42.529  30.873  29.605  1.00  0.00    -0.354 N 
ATOM     63  N   UNL A   1      45.420  30.622  29.294  1.00  0.00    -0.248 NA
ATOM     64  C   UNL A   1      47.569  31.530  29.438  1.00  0.00     0.031 C 
ATOM     65  C   UNL A   1      41.713  32.763  30.447  1.00  0.00     0.029 A 
ATOM     66  C   UNL A   1      42.888  32.120  30.089  1.00  0.00     0.049 A 
ATOM     67  H   UNL A   1      43.158  30.194  29.270  1.00  0.00     0.167 HD
ATOM     68  C   UNL A   1      45.339  31.908  29.813  1.00  0.00     0.074 A 
ATOM     69  C   UNL A   1      46.694  32.409  29.910  1.00  0.00     0.031 C 
ATOM     70  C   UNL A   1      44.239  32.609  30.179  1.00  0.00     0.031 A 
BRANCH  57  71
ATOM     71  C   UNL A   1      38.932  29.587  29.268  1.00  0.00    -0.014 A 
ATOM     72  C   UNL A   1      38.241  29.245  30.441  1.00  0.00     0.009 A 
ATOM     73  C   UNL A   1      38.198  29.999  28.145  1.00  0.00     0.009 A 
ATOM     74  C   UNL A   1      36.845  29.277  30.476  1.00  0.00     0.001 A 
ATOM     75  C   UNL A   1      36.805  30.059  28.191  1.00  0.00     0.001 A 
ATOM     76  C   UNL A   1      36.128  29.688  29.352  1.00  0.00     0.000 A 
ENDBRANCH  57  71
BRANCH  58  77
ATOM     77  C   UNL A   1      48.849  29.104  28.443  1.00  0.00    -0.014 A 
ATOM     78  C   UNL A   1      49.646  28.657  29.508  1.00  0.00     0.009 A 
ATOM     79  C   UNL A   1      49.473  29.508  27.252  1.00  0.00     0.009 A 
ATOM     80  C   UNL A   1      51.037  28.640  29.393  1.00  0.00     0.001 A 
ATOM     81  C   UNL A   1      50.863  29.462  27.129  1.00  0.00     0.001 A 
ATOM     82  C   UNL A   1      51.644  29.038  28.202  1.00  0.00     0.000 A 
ENDBRANCH  58  77
BRANCH  70  83
ATOM     83  C   UNL A   1      44.457  33.982  30.749  1.00  0.00    -0.014 A 
ATOM     84  C   UNL A   1      44.697  34.175  32.118  1.00  0.00     0.009 A 
ATOM     85  C   UNL A   1      44.460  35.096  29.894  1.00  0.00     0.009 A 
ATOM     86  C   UNL A   1      44.905  35.459  32.625  1.00  0.00     0.001 A 
ATOM     87  C   UNL A   1      44.697  36.376  30.399  1.00  0.00     0.001 A 
ATOM     88  C   UNL A   1      44.910  36.557  31.765  1.00  0.00     0.000 A 
ENDBRANCH  70  83
ENDBRANCH  44  45
ENDBRANCH  36  39
ENDBRANCH  34  35
ENDBRANCH  33  34
ENDBRANCH  32  33
ENDBRANCH  31  32
ENDBRANCH   1  31
TORSDOF 18
ENDMDL
MODEL 3
REMARK VINA RESULT:     -11.0      2.174      5.199
REMARK SMILES CN(C(=O)C[C@@H]1SC(=O)N(c2ccccc2)C1=O)c1ccccc1C(=O)NCCCCCCNC(=O)c1ccc(-c2c3nc(c(-c4ccccc4)c4ccc([nH]4)c(-c4ccccc4)c4nc(c(-c5ccccc5)c5ccc2[nH]5)C=C4)C=C3)cc1
REMARK SMILES IDX 29 1 28 2 27 3 25 4 26 5 24 7 19 8 20 9 21 10 23 11 22 12
REMARK SMILES IDX 2 13 1 14 3 15 4 16 5 17 6 18 7 19 17 20 8 21 10 22 18 23
REMARK SMILES IDX 9 24 11 25 12 26 16 27 13 28 15 29 14 30 30 31 31 32 32 33
REMARK SMILES IDX 33 34 34 35 35 36 36 38 37 39 38 40 84 41 39 42 83 43 40 44
REMARK SMILES IDX 41 45 42 46 77 47 43 48 82 49 76 50 78 51 44 52 81 53 75 54
REMARK SMILES IDX 74 55 45 57 67 58 52 59 66 60 53 61 56 62 65 63 79 64 54 65
REMARK SMILES IDX 55 66 64 68 80 69 57 70 46 71 47 72 51 73 48 74 50 75 49 76
REMARK SMILES IDX 68 77 69 78 73 79 70 80 72 81 71 82 58 83 59 84 63 85 60 86
REMARK SMILES IDX 62 87 61 88
REMARK H PARENT 27 6 34 37 78 56 56 67
REMARK Flexibility Score: inf
ROOT
ATOM      1  C   UNL A   1      36.705  23.899  25.275  1.00  0.00     0.021 C 
ENDROOT
BRANCH   1   2
ATOM      2  C   UNL A   1      35.215  24.216  25.166  1.00  0.00     0.116 C 
BRANCH   2   3
ATOM      3  N   UNL A   1      34.840  24.448  23.788  1.00  0.00    -0.352 N 
ATOM      4  C   UNL A   1      34.048  25.385  23.176  1.00  0.00     0.253 C 
ATOM      5  O   UNL A   1      34.039  25.362  21.941  1.00  0.00    -0.269 OA
ATOM      6  H   UNL A   1      35.234  23.798  23.161  1.00  0.00     0.163 HD
BRANCH   4   7
ATOM      7  C   UNL A   1      33.318  26.497  23.856  1.00  0.00     0.063 A 
ATOM      8  C   UNL A   1      32.282  26.430  24.809  1.00  0.00     0.056 A 
ATOM      9  C   UNL A   1      31.646  27.626  25.219  1.00  0.00     0.027 A 
ATOM     10  C   UNL A   1      32.003  28.867  24.696  1.00  0.00     0.002 A 
ATOM     11  C   UNL A   1      33.678  27.775  23.361  1.00  0.00     0.016 A 
ATOM     12  C   UNL A   1      33.028  28.943  23.769  1.00  0.00     0.001 A 
BRANCH   8  13
ATOM     13  N   UNL A   1      31.687  25.230  25.310  1.00  0.00    -0.315 N 
ATOM     14  C   UNL A   1      31.558  25.164  26.772  1.00  0.00     0.153 C 
BRANCH  13  15
ATOM     15  C   UNL A   1      30.992  24.432  24.400  1.00  0.00     0.228 C 
ATOM     16  O   UNL A   1      30.354  24.899  23.457  1.00  0.00    -0.274 OA
BRANCH  15  17
ATOM     17  C   UNL A   1      30.975  22.930  24.639  1.00  0.00     0.125 C 
BRANCH  17  18
ATOM     18  C   UNL A   1      32.317  22.235  24.408  1.00  0.00     0.156 C 
ATOM     19  S   UNL A   1      32.532  21.730  22.692  1.00  0.00    -0.050 SA
ATOM     20  C   UNL A   1      32.602  20.985  25.224  1.00  0.00     0.248 C 
ATOM     21  C   UNL A   1      32.309  20.053  23.111  1.00  0.00     0.293 C 
ATOM     22  N   UNL A   1      32.733  19.865  24.408  1.00  0.00    -0.240 N 
ATOM     23  O   UNL A   1      32.755  21.075  26.440  1.00  0.00    -0.273 OA
ATOM     24  O   UNL A   1      31.867  19.269  22.299  1.00  0.00    -0.261 OA
BRANCH  22  25
ATOM     25  C   UNL A   1      33.332  18.629  24.806  1.00  0.00     0.053 A 
ATOM     26  C   UNL A   1      34.641  18.276  24.457  1.00  0.00     0.027 A 
ATOM     27  C   UNL A   1      32.546  17.641  25.433  1.00  0.00     0.027 A 
ATOM     28  C   UNL A   1      35.117  16.975  24.664  1.00  0.00     0.002 A 
ATOM     29  C   UNL A   1      33.015  16.343  25.635  1.00  0.00     0.002 A 
ATOM     30  C   UNL A   1      34.298  16.004  25.234  1.00  0.00     0.000 A 
ENDBRANCH  22  25
ENDBRANCH  17  18
ENDBRANCH  15  17
ENDBRANCH  13  15
ENDBRANCH   8  13
ENDBRANCH   4   7
ENDBRANCH   2   3
ENDBRANCH   1   2
BRANCH   1  31
ATOM     31  C   UNL A   1      37.162  22.535  24.739  1.00  0.00     0.002 C 
BRANCH  31  32
ATOM     32  C   UNL A   1      38.165  21.821  25.658  1.00  0.00     0.002 C 
BRANCH  32  33
ATOM     33  C   UNL A   1      38.788  20.515  25.134  1.00  0.00     0.021 C 
BRANCH  33  34
ATOM     34  C   UNL A   1      39.252  19.511  26.186  1.00  0.00     0.116 C 
BRANCH  34  35
ATOM     35  N   UNL A   1      40.547  18.931  25.892  1.00  0.00    -0.352 N 
ATOM     36  C   UNL A   1      41.796  19.501  25.900  1.00  0.00     0.251 C 
ATOM     37  H   UNL A   1      40.529  17.977  25.649  1.00  0.00     0.163 HD
ATOM     38  O   UNL A   1      42.758  18.881  25.456  1.00  0.00    -0.269 OA
BRANCH  36  39
ATOM     39  C   UNL A   1      41.996  20.873  26.418  1.00  0.00     0.039 A 
ATOM     40  C   UNL A   1      41.830  21.099  27.788  1.00  0.00     0.014 A 
ATOM     41  C   UNL A   1      42.295  21.940  25.566  1.00  0.00     0.014 A 
ATOM     42  C   UNL A   1      42.025  22.379  28.313  1.00  0.00     0.010 A 
ATOM     43  C   UNL A   1      42.544  23.207  26.098  1.00  0.00     0.010 A 
ATOM     44  C   UNL A   1      42.415  23.439  27.476  1.00  0.00    -0.014 A 
BRANCH  44  45
ATOM     45  C   UNL A   1      42.702  24.786  28.040  1.00  0.00     0.031 A 
ATOM     46  C   UNL A   1      44.091  25.153  28.483  1.00  0.00     0.074 A 
ATOM     47  C   UNL A   1      41.696  25.670  28.194  1.00  0.00     0.049 A 
ATOM     48  N   UNL A   1      44.517  26.270  29.020  1.00  0.00    -0.248 NA
ATOM     49  C   UNL A   1      45.134  24.129  28.318  1.00  0.00     0.031 C 
ATOM     50  C   UNL A   1      40.296  25.433  27.836  1.00  0.00     0.029 A 
ATOM     51  N   UNL A   1      41.697  26.948  28.698  1.00  0.00    -0.354 N 
ATOM     52  C   UNL A   1      45.871  26.078  29.270  1.00  0.00     0.074 A 
ATOM     53  C   UNL A   1      46.184  24.723  28.866  1.00  0.00     0.031 C 
ATOM     54  C   UNL A   1      39.581  26.536  28.105  1.00  0.00     0.029 A 
ATOM     55  C   UNL A   1      40.459  27.545  28.688  1.00  0.00     0.049 A 
ATOM     56  H   UNL A   1      42.508  27.394  29.033  1.00  0.00     0.167 HD
ATOM     57  C   UNL A   1      46.774  26.952  29.774  1.00  0.00     0.031 A 
ATOM     58  C   UNL A   1      40.072  28.765  29.104  1.00  0.00     0.031 A 
ATOM     59  C   UNL A   1      46.470  28.302  30.169  1.00  0.00     0.049 A 
ATOM     60  C   UNL A   1      41.091  29.711  29.675  1.00  0.00     0.074 A 
ATOM     61  C   UNL A   1      47.332  29.278  30.640  1.00  0.00     0.029 A 
ATOM     62  N   UNL A   1      45.204  28.865  30.145  1.00  0.00    -0.354 N 
ATOM     63  N   UNL A   1      42.379  29.534  29.841  1.00  0.00    -0.248 NA
ATOM     64  C   UNL A   1      40.602  31.029  30.104  1.00  0.00     0.031 C 
ATOM     65  C   UNL A   1      46.580  30.417  30.947  1.00  0.00     0.029 A 
ATOM     66  C   UNL A   1      45.258  30.167  30.616  1.00  0.00     0.049 A 
ATOM     67  H   UNL A   1      44.388  28.408  29.839  1.00  0.00     0.167 HD
ATOM     68  C   UNL A   1      42.859  30.726  30.368  1.00  0.00     0.074 A 
ATOM     69  C   UNL A   1      41.728  31.623  30.479  1.00  0.00     0.031 C 
ATOM     70  C   UNL A   1      44.126  31.049  30.725  1.00  0.00     0.031 A 
BRANCH  57  71
ATOM     71  C   UNL A   1      48.189  26.467  29.936  1.00  0.00    -0.014 A 
ATOM     72  C   UNL A   1      49.143  26.657  28.924  1.00  0.00     0.009 A 
ATOM     73  C   UNL A   1      48.583  25.848  31.133  1.00  0.00     0.009 A 
ATOM     74  C   UNL A   1      50.453  26.201  29.092  1.00  0.00     0.001 A 
ATOM     75  C   UNL A   1      49.900  25.420  31.309  1.00  0.00     0.001 A 
ATOM     76  C   UNL A   1      50.831  25.587  30.286  1.00  0.00     0.000 A 
ENDBRANCH  57  71
BRANCH  58  77
ATOM     77  C   UNL A   1      38.648  29.174  28.984  1.00  0.00    -0.014 A 
ATOM     78  C   UNL A   1      37.768  29.016  30.065  1.00  0.00     0.009 A 
ATOM     79  C   UNL A   1      38.160  29.718  27.785  1.00  0.00     0.009 A 
ATOM     80  C   UNL A   1      36.423  29.369  29.940  1.00  0.00     0.001 A 
ATOM     81  C   UNL A   1      36.821  30.096  27.673  1.00  0.00     0.001 A 
ATOM     82  C   UNL A   1      35.951  29.913  28.746  1.00  0.00     0.000 A 
ENDBRANCH  58  77
BRANCH  70  83
ATOM     83  C   UNL A   1      44.362  32.441  31.240  1.00  0.00    -0.014 A 
ATOM     84  C   UNL A   1      44.701  33.492  30.373  1.00  0.00     0.009 A 
ATOM     85  C   UNL A   1      44.203  32.712  32.608  1.00  0.00     0.009 A 
ATOM     86  C   UNL A   1      44.908  34.779  30.872  1.00  0.00     0.001 A 
ATOM     87  C   UNL A   1      44.383  34.005  33.100  1.00  0.00     0.001 A 
ATOM     88  C   UNL A   1      44.743  35.035  32.233  1.00  0.00     0.000 A 
ENDBRANCH  70  83
ENDBRANCH  44  45
ENDBRANCH  36  39
ENDBRANCH  34  35
ENDBRANCH  33  34
ENDBRANCH  32  33
ENDBRANCH  31  32
ENDBRANCH   1  31
TORSDOF 18
ENDMDL
