MODEL 1
REMARK VINA RESULT:     -13.4      0.000      0.000
REMARK SMILES Cc1ccc(C(=O)N2CCCC[C@@H]2C(=O)NCCCCCCNC(=O)c2ccc(-c3c4nc(c(-c5ccccc5)c5ccc([nH]5)c(-c5ccccc5)c5nc(c(-c6ccccc6)c6ccc3[nH]6)C=C5)C=C4)cc2)cc1S(=O)(=O)N1CCCCC1
REMARK SMILES IDX 18 1 17 2 16 3 14 4 15 5 13 7 8 8 9 9 10 10 12 11 11 12 6 13
REMARK SMILES IDX 7 14 5 15 1 16 2 17 3 18 75 19 4 20 74 21 76 22 77 23 78 24
REMARK SMILES IDX 79 25 80 26 84 27 81 28 83 29 82 30 19 31 20 32 21 33 22 34
REMARK SMILES IDX 23 35 24 36 25 38 26 39 27 40 73 41 28 42 72 43 29 44 30 45
REMARK SMILES IDX 31 46 66 47 32 48 71 49 65 50 67 51 33 52 70 53 64 54 63 55
REMARK SMILES IDX 34 57 56 58 41 59 55 60 42 61 45 62 54 63 68 64 43 65 44 66
REMARK SMILES IDX 53 68 69 69 46 70 35 71 36 72 40 73 37 74 39 75 38 76 57 77
REMARK SMILES IDX 58 78 62 79 59 80 61 81 60 82 47 83 48 84 52 85 49 86 51 87
REMARK SMILES IDX 50 88
REMARK H PARENT 16 6 23 37 67 56 45 67
REMARK Flexibility Score: inf
ROOT
ATOM      1  C   UNL A   1      33.509  27.012  24.684  1.00  0.00     0.021 C 
ENDROOT
BRANCH   1   2
ATOM      2  C   UNL A   1      34.100  25.603  24.677  1.00  0.00     0.116 C 
BRANCH   2   3
ATOM      3  N   UNL A   1      33.817  24.954  23.414  1.00  0.00    -0.354 N 
ATOM      4  C   UNL A   1      33.813  23.630  23.102  1.00  0.00     0.242 C 
ATOM      5  O   UNL A   1      33.823  23.331  21.905  1.00  0.00    -0.273 OA
ATOM      6  H   UNL A   1      33.592  25.561  22.672  1.00  0.00     0.163 HD
BRANCH   4   7
ATOM      7  C   UNL A   1      33.903  22.543  24.197  1.00  0.00     0.174 C 
ATOM      8  N   UNL A   1      35.208  21.829  24.243  1.00  0.00    -0.327 N 
ATOM      9  C   UNL A   1      35.251  20.599  25.024  1.00  0.00     0.120 C 
ATOM     10  C   UNL A   1      34.153  19.630  24.645  1.00  0.00     0.022 C 
ATOM     11  C   UNL A   1      32.719  21.572  23.964  1.00  0.00     0.035 C 
ATOM     12  C   UNL A   1      32.793  20.296  24.791  1.00  0.00     0.004 C 
BRANCH   8  13
ATOM     13  C   UNL A   1      36.464  22.383  23.973  1.00  0.00     0.254 C 
ATOM     14  O   UNL A   1      36.803  22.686  22.828  1.00  0.00    -0.269 OA
BRANCH  13  15
ATOM     15  C   UNL A   1      37.460  22.601  25.045  1.00  0.00     0.041 A 
ATOM     16  C   UNL A   1      40.546  23.708  27.838  1.00  0.00     0.046 C 
ATOM     17  C   UNL A   1      39.525  23.165  26.893  1.00  0.00    -0.031 A 
ATOM     18  C   UNL A   1      38.515  24.110  26.585  1.00  0.00     0.005 A 
ATOM     19  C   UNL A   1      39.471  21.904  26.271  1.00  0.00     0.086 A 
ATOM     20  C   UNL A   1      37.497  23.837  25.679  1.00  0.00     0.014 A 
ATOM     21  C   UNL A   1      38.449  21.660  25.324  1.00  0.00     0.035 A 
BRANCH  19  22
ATOM     22  S   UNL A   1      40.529  20.456  26.452  1.00  0.00     0.243 S 
ATOM     23  O   UNL A   1      40.786  20.344  27.879  1.00  0.00    -0.207 OA
ATOM     24  O   UNL A   1      39.838  19.398  25.750  1.00  0.00    -0.207 OA
BRANCH  22  25
ATOM     25  N   UNL A   1      42.027  20.655  25.695  1.00  0.00    -0.198 NA
ATOM     26  C   UNL A   1      42.566  22.028  25.668  1.00  0.00     0.102 C 
ATOM     27  C   UNL A   1      42.880  19.455  25.581  1.00  0.00     0.102 C 
ATOM     28  C   UNL A   1      43.934  22.155  25.018  1.00  0.00     0.017 C 
ATOM     29  C   UNL A   1      44.251  19.703  24.970  1.00  0.00     0.017 C 
ATOM     30  C   UNL A   1      44.875  21.023  25.385  1.00  0.00     0.003 C 
ENDBRANCH  22  25
ENDBRANCH  19  22
ENDBRANCH  13  15
ENDBRANCH   8  13
ENDBRANCH   4   7
ENDBRANCH   2   3
ENDBRANCH   1   2
BRANCH   1  31
ATOM     31  C   UNL A   1      32.545  27.279  25.847  1.00  0.00     0.002 C 
BRANCH  31  32
ATOM     32  C   UNL A   1      33.086  28.201  26.949  1.00  0.00     0.002 C 
BRANCH  32  33
ATOM     33  C   UNL A   1      34.539  28.635  26.777  1.00  0.00     0.021 C 
BRANCH  33  34
ATOM     34  C   UNL A   1      34.929  29.814  27.646  1.00  0.00     0.116 C 
BRANCH  34  35
ATOM     35  N   UNL A   1      34.125  30.998  27.384  1.00  0.00    -0.352 N 
ATOM     36  C   UNL A   1      34.054  32.203  28.051  1.00  0.00     0.251 C 
ATOM     37  H   UNL A   1      33.532  30.927  26.601  1.00  0.00     0.163 HD
ATOM     38  O   UNL A   1      33.180  33.008  27.739  1.00  0.00    -0.269 OA
BRANCH  36  39
ATOM     39  C   UNL A   1      35.148  32.625  28.967  1.00  0.00     0.039 A 
ATOM     40  C   UNL A   1      36.215  33.293  28.346  1.00  0.00     0.014 A 
ATOM     41  C   UNL A   1      35.339  31.987  30.182  1.00  0.00     0.014 A 
ATOM     42  C   UNL A   1      37.508  32.990  28.733  1.00  0.00     0.010 A 
ATOM     43  C   UNL A   1      36.602  31.546  30.466  1.00  0.00     0.010 A 
ATOM     44  C   UNL A   1      37.667  31.997  29.687  1.00  0.00    -0.014 A 
BRANCH  44  45
ATOM     45  C   UNL A   1      38.927  31.394  30.031  1.00  0.00     0.031 A 
ATOM     46  C   UNL A   1      39.225  30.115  29.386  1.00  0.00     0.074 A 
ATOM     47  C   UNL A   1      39.807  32.119  30.752  1.00  0.00     0.049 A 
ATOM     48  N   UNL A   1      40.076  29.270  29.831  1.00  0.00    -0.248 NA
ATOM     49  C   UNL A   1      38.517  29.648  28.191  1.00  0.00     0.031 C 
ATOM     50  C   UNL A   1      41.234  31.907  30.950  1.00  0.00     0.029 A 
ATOM     51  N   UNL A   1      39.490  33.139  31.648  1.00  0.00    -0.354 N 
ATOM     52  C   UNL A   1      40.296  28.367  28.818  1.00  0.00     0.074 A 
ATOM     53  C   UNL A   1      39.211  28.549  27.889  1.00  0.00     0.031 C 
ATOM     54  C   UNL A   1      41.617  32.550  32.070  1.00  0.00     0.029 A 
ATOM     55  C   UNL A   1      40.409  33.051  32.709  1.00  0.00     0.049 A 
ATOM     56  H   UNL A   1      38.761  33.795  31.556  1.00  0.00     0.167 HD
ATOM     57  C   UNL A   1      41.485  27.709  28.800  1.00  0.00     0.031 A 
ATOM     58  C   UNL A   1      39.963  32.663  33.943  1.00  0.00     0.031 A 
ATOM     59  C   UNL A   1      42.278  28.065  29.977  1.00  0.00     0.049 A 
ATOM     60  C   UNL A   1      40.499  31.304  34.363  1.00  0.00     0.074 A 
ATOM     61  C   UNL A   1      43.320  28.955  30.184  1.00  0.00     0.029 A 
ATOM     62  N   UNL A   1      41.752  27.792  31.231  1.00  0.00    -0.354 N 
ATOM     63  N   UNL A   1      41.044  30.439  33.550  1.00  0.00    -0.248 NA
ATOM     64  C   UNL A   1      40.440  30.806  35.732  1.00  0.00     0.031 C 
ATOM     65  C   UNL A   1      43.401  29.218  31.583  1.00  0.00     0.029 A 
ATOM     66  C   UNL A   1      42.431  28.468  32.223  1.00  0.00     0.049 A 
ATOM     67  H   UNL A   1      40.989  27.190  31.393  1.00  0.00     0.167 HD
ATOM     68  C   UNL A   1      41.421  29.311  34.237  1.00  0.00     0.074 A 
ATOM     69  C   UNL A   1      40.984  29.582  35.597  1.00  0.00     0.031 C 
ATOM     70  C   UNL A   1      42.045  28.258  33.616  1.00  0.00     0.031 A 
BRANCH  57  71
ATOM     71  C   UNL A   1      42.038  26.990  27.601  1.00  0.00    -0.014 A 
ATOM     72  C   UNL A   1      43.230  26.257  27.745  1.00  0.00     0.009 A 
ATOM     73  C   UNL A   1      41.476  27.008  26.313  1.00  0.00     0.009 A 
ATOM     74  C   UNL A   1      43.855  25.631  26.661  1.00  0.00     0.001 A 
ATOM     75  C   UNL A   1      42.108  26.402  25.216  1.00  0.00     0.001 A 
ATOM     76  C   UNL A   1      43.302  25.715  25.390  1.00  0.00     0.000 A 
ENDBRANCH  57  71
BRANCH  58  77
ATOM     77  C   UNL A   1      38.587  33.193  34.228  1.00  0.00    -0.014 A 
ATOM     78  C   UNL A   1      38.326  34.538  33.873  1.00  0.00     0.009 A 
ATOM     79  C   UNL A   1      37.498  32.320  34.358  1.00  0.00     0.009 A 
ATOM     80  C   UNL A   1      37.049  34.935  33.458  1.00  0.00     0.001 A 
ATOM     81  C   UNL A   1      36.214  32.737  33.976  1.00  0.00     0.001 A 
ATOM     82  C   UNL A   1      36.003  34.020  33.468  1.00  0.00     0.000 A 
ENDBRANCH  58  77
BRANCH  70  83
ATOM     83  C   UNL A   1      42.352  26.892  34.213  1.00  0.00    -0.014 A 
ATOM     84  C   UNL A   1      43.517  26.159  33.988  1.00  0.00     0.009 A 
ATOM     85  C   UNL A   1      41.392  26.269  35.053  1.00  0.00     0.009 A 
ATOM     86  C   UNL A   1      43.753  24.937  34.641  1.00  0.00     0.001 A 
ATOM     87  C   UNL A   1      41.615  25.056  35.704  1.00  0.00     0.001 A 
ATOM     88  C   UNL A   1      42.812  24.396  35.512  1.00  0.00     0.000 A 
ENDBRANCH  70  83
ENDBRANCH  44  45
ENDBRANCH  36  39
ENDBRANCH  34  35
ENDBRANCH  33  34
ENDBRANCH  32  33
ENDBRANCH  31  32
ENDBRANCH   1  31
TORSDOF 17
ENDMDL
MODEL 2
REMARK VINA RESULT:     -12.3      3.280     10.163
REMARK SMILES Cc1ccc(C(=O)N2CCCC[C@@H]2C(=O)NCCCCCCNC(=O)c2ccc(-c3c4nc(c(-c5ccccc5)c5ccc([nH]5)c(-c5ccccc5)c5nc(c(-c6ccccc6)c6ccc3[nH]6)C=C5)C=C4)cc2)cc1S(=O)(=O)N1CCCCC1
REMARK SMILES IDX 18 1 17 2 16 3 14 4 15 5 13 7 8 8 9 9 10 10 12 11 11 12 6 13
REMARK SMILES IDX 7 14 5 15 1 16 2 17 3 18 75 19 4 20 74 21 76 22 77 23 78 24
REMARK SMILES IDX 79 25 80 26 84 27 81 28 83 29 82 30 19 31 20 32 21 33 22 34
REMARK SMILES IDX 23 35 24 36 25 38 26 39 27 40 73 41 28 42 72 43 29 44 30 45
REMARK SMILES IDX 31 46 66 47 32 48 71 49 65 50 67 51 33 52 70 53 64 54 63 55
REMARK SMILES IDX 34 57 56 58 41 59 55 60 42 61 45 62 54 63 68 64 43 65 44 66
REMARK SMILES IDX 53 68 69 69 46 70 35 71 36 72 40 73 37 74 39 75 38 76 57 77
REMARK SMILES IDX 58 78 62 79 59 80 61 81 60 82 47 83 48 84 52 85 49 86 51 87
REMARK SMILES IDX 50 88
REMARK H PARENT 16 6 23 37 67 56 45 67
REMARK Flexibility Score: inf
ROOT
ATOM      1  C   UNL A   1      34.723  24.064  25.711  1.00  0.00     0.021 C 
ENDROOT
BRANCH   1   2
ATOM      2  C   UNL A   1      34.005  25.408  25.588  1.00  0.00     0.116 C 
BRANCH   2   3
ATOM      3  N   UNL A   1      32.629  25.275  26.017  1.00  0.00    -0.354 N 
ATOM      4  C   UNL A   1      31.588  26.137  25.868  1.00  0.00     0.242 C 
ATOM      5  O   UNL A   1      30.586  25.939  26.560  1.00  0.00    -0.273 OA
ATOM      6  H   UNL A   1      32.415  24.435  26.484  1.00  0.00     0.163 HD
BRANCH   4   7
ATOM      7  C   UNL A   1      31.693  27.380  24.954  1.00  0.00     0.174 C 
ATOM      8  N   UNL A   1      31.553  28.678  25.669  1.00  0.00    -0.327 N 
ATOM      9  C   UNL A   1      31.328  29.856  24.841  1.00  0.00     0.120 C 
ATOM     10  C   UNL A   1      30.176  29.678  23.876  1.00  0.00     0.022 C 
ATOM     11  C   UNL A   1      30.628  27.210  23.843  1.00  0.00     0.035 C 
ATOM     12  C   UNL A   1      30.412  28.459  22.998  1.00  0.00     0.004 C 
BRANCH   8  13
ATOM     13  C   UNL A   1      31.998  28.961  26.964  1.00  0.00     0.254 C 
ATOM     14  O   UNL A   1      31.406  28.538  27.958  1.00  0.00    -0.269 OA
BRANCH  13  15
ATOM     15  C   UNL A   1      33.184  29.813  27.205  1.00  0.00     0.041 A 
ATOM     16  C   UNL A   1      36.746  31.931  28.379  1.00  0.00     0.046 C 
ATOM     17  C   UNL A   1      35.440  31.348  27.948  1.00  0.00    -0.031 A 
ATOM     18  C   UNL A   1      35.541  29.971  27.631  1.00  0.00     0.005 A 
ATOM     19  C   UNL A   1      34.177  31.962  27.862  1.00  0.00     0.086 A 
ATOM     20  C   UNL A   1      34.435  29.212  27.264  1.00  0.00     0.014 A 
ATOM     21  C   UNL A   1      33.059  31.164  27.523  1.00  0.00     0.035 A 
BRANCH  19  22
ATOM     22  S   UNL A   1      33.679  33.673  28.131  1.00  0.00     0.243 S 
ATOM     23  O   UNL A   1      34.733  34.478  27.535  1.00  0.00    -0.207 OA
ATOM     24  O   UNL A   1      32.327  33.753  27.625  1.00  0.00    -0.207 OA
BRANCH  22  25
ATOM     25  N   UNL A   1      33.618  34.075  29.771  1.00  0.00    -0.198 NA
ATOM     26  C   UNL A   1      34.639  33.450  30.633  1.00  0.00     0.102 C 
ATOM     27  C   UNL A   1      32.931  35.334  30.123  1.00  0.00     0.102 C 
ATOM     28  C   UNL A   1      34.576  33.873  32.092  1.00  0.00     0.017 C 
ATOM     29  C   UNL A   1      32.977  35.694  31.600  1.00  0.00     0.017 C 
ATOM     30  C   UNL A   1      34.295  35.354  32.271  1.00  0.00     0.003 C 
ENDBRANCH  22  25
ENDBRANCH  19  22
ENDBRANCH  13  15
ENDBRANCH   8  13
ENDBRANCH   4   7
ENDBRANCH   2   3
ENDBRANCH   1   2
BRANCH   1  31
ATOM     31  C   UNL A   1      36.144  24.059  25.133  1.00  0.00     0.002 C 
BRANCH  31  32
ATOM     32  C   UNL A   1      36.373  23.093  23.962  1.00  0.00     0.002 C 
BRANCH  32  33
ATOM     33  C   UNL A   1      37.270  21.897  24.273  1.00  0.00     0.021 C 
BRANCH  33  34
ATOM     34  C   UNL A   1      37.509  21.684  25.755  1.00  0.00     0.116 C 
BRANCH  34  35
ATOM     35  N   UNL A   1      38.916  21.513  26.081  1.00  0.00    -0.352 N 
ATOM     36  C   UNL A   1      39.892  22.443  26.371  1.00  0.00     0.251 C 
ATOM     37  H   UNL A   1      39.223  20.577  26.097  1.00  0.00     0.163 HD
ATOM     38  O   UNL A   1      41.060  22.073  26.464  1.00  0.00    -0.269 OA
BRANCH  36  39
ATOM     39  C   UNL A   1      39.522  23.820  26.794  1.00  0.00     0.039 A 
ATOM     40  C   UNL A   1      39.869  24.832  25.885  1.00  0.00     0.014 A 
ATOM     41  C   UNL A   1      39.333  24.123  28.133  1.00  0.00     0.014 A 
ATOM     42  C   UNL A   1      40.394  26.015  26.372  1.00  0.00     0.010 A 
ATOM     43  C   UNL A   1      40.002  25.207  28.631  1.00  0.00     0.010 A 
ATOM     44  C   UNL A   1      40.591  26.104  27.741  1.00  0.00    -0.014 A 
BRANCH  44  45
ATOM     45  C   UNL A   1      41.337  27.151  28.389  1.00  0.00     0.031 A 
ATOM     46  C   UNL A   1      40.590  28.366  28.713  1.00  0.00     0.074 A 
ATOM     47  C   UNL A   1      42.586  26.874  28.817  1.00  0.00     0.049 A 
ATOM     48  N   UNL A   1      41.134  29.504  28.930  1.00  0.00    -0.248 NA
ATOM     49  C   UNL A   1      39.127  28.408  28.754  1.00  0.00     0.031 C 
ATOM     50  C   UNL A   1      43.417  27.599  29.768  1.00  0.00     0.029 A 
ATOM     51  N   UNL A   1      43.447  25.922  28.274  1.00  0.00    -0.354 N 
ATOM     52  C   UNL A   1      40.163  30.300  29.491  1.00  0.00     0.074 A 
ATOM     53  C   UNL A   1      38.913  29.637  29.226  1.00  0.00     0.031 C 
ATOM     54  C   UNL A   1      44.706  27.270  29.557  1.00  0.00     0.029 A 
ATOM     55  C   UNL A   1      44.747  26.453  28.353  1.00  0.00     0.049 A 
ATOM     56  H   UNL A   1      43.193  25.044  27.905  1.00  0.00     0.167 HD
ATOM     57  C   UNL A   1      40.565  31.328  30.282  1.00  0.00     0.031 A 
ATOM     58  C   UNL A   1      45.392  26.802  27.198  1.00  0.00     0.031 A 
ATOM     59  C   UNL A   1      42.026  31.417  30.294  1.00  0.00     0.049 A 
ATOM     60  C   UNL A   1      45.600  28.302  27.068  1.00  0.00     0.074 A 
ATOM     61  C   UNL A   1      42.995  30.985  31.185  1.00  0.00     0.029 A 
ATOM     62  N   UNL A   1      42.680  31.634  29.091  1.00  0.00    -0.354 N 
ATOM     63  N   UNL A   1      44.969  29.201  27.775  1.00  0.00    -0.248 NA
ATOM     64  C   UNL A   1      46.520  28.905  26.112  1.00  0.00     0.031 C 
ATOM     65  C   UNL A   1      44.239  30.935  30.491  1.00  0.00     0.029 A 
ATOM     66  C   UNL A   1      44.030  31.363  29.193  1.00  0.00     0.049 A 
ATOM     67  H   UNL A   1      42.238  31.941  28.266  1.00  0.00     0.167 HD
ATOM     68  C   UNL A   1      45.378  30.462  27.416  1.00  0.00     0.074 A 
ATOM     69  C   UNL A   1      46.327  30.217  26.342  1.00  0.00     0.031 C 
ATOM     70  C   UNL A   1      44.887  31.586  28.031  1.00  0.00     0.031 A 
BRANCH  57  71
ATOM     71  C   UNL A   1      39.672  32.050  31.254  1.00  0.00    -0.014 A 
ATOM     72  C   UNL A   1      39.105  33.276  30.866  1.00  0.00     0.009 A 
ATOM     73  C   UNL A   1      39.370  31.614  32.556  1.00  0.00     0.009 A 
ATOM     74  C   UNL A   1      38.333  34.051  31.739  1.00  0.00     0.001 A 
ATOM     75  C   UNL A   1      38.616  32.395  33.446  1.00  0.00     0.001 A 
ATOM     76  C   UNL A   1      38.100  33.617  33.037  1.00  0.00     0.000 A 
ENDBRANCH  57  71
BRANCH  58  77
ATOM     77  C   UNL A   1      45.071  25.857  26.075  1.00  0.00    -0.014 A 
ATOM     78  C   UNL A   1      45.864  24.690  25.965  1.00  0.00     0.009 A 
ATOM     79  C   UNL A   1      43.796  25.848  25.493  1.00  0.00     0.009 A 
ATOM     80  C   UNL A   1      45.318  23.496  25.480  1.00  0.00     0.001 A 
ATOM     81  C   UNL A   1      43.270  24.655  24.973  1.00  0.00     0.001 A 
ATOM     82  C   UNL A   1      44.005  23.470  25.025  1.00  0.00     0.000 A 
ENDBRANCH  58  77
BRANCH  70  83
ATOM     83  C   UNL A   1      45.116  33.033  27.618  1.00  0.00    -0.014 A 
ATOM     84  C   UNL A   1      44.559  33.648  26.496  1.00  0.00     0.009 A 
ATOM     85  C   UNL A   1      45.977  33.850  28.396  1.00  0.00     0.009 A 
ATOM     86  C   UNL A   1      44.763  35.013  26.230  1.00  0.00     0.001 A 
ATOM     87  C   UNL A   1      46.188  35.204  28.140  1.00  0.00     0.001 A 
ATOM     88  C   UNL A   1      45.560  35.794  27.060  1.00  0.00     0.000 A 
ENDBRANCH  70  83
ENDBRANCH  44  45
ENDBRANCH  36  39
ENDBRANCH  34  35
ENDBRANCH  33  34
ENDBRANCH  32  33
ENDBRANCH  31  32
ENDBRANCH   1  31
TORSDOF 17
ENDMDL
MODEL 3
REMARK VINA RESULT:     -12.0      3.786      9.976
REMARK SMILES Cc1ccc(C(=O)N2CCCC[C@@H]2C(=O)NCCCCCCNC(=O)c2ccc(-c3c4nc(c(-c5ccccc5)c5ccc([nH]5)c(-c5ccccc5)c5nc(c(-c6ccccc6)c6ccc3[nH]6)C=C5)C=C4)cc2)cc1S(=O)(=O)N1CCCCC1
REMARK SMILES IDX 18 1 17 2 16 3 14 4 15 5 13 7 8 8 9 9 10 10 12 11 11 12 6 13
REMARK SMILES IDX 7 14 5 15 1 16 2 17 3 18 75 19 4 20 74 21 76 22 77 23 78 24
REMARK SMILES IDX 79 25 80 26 84 27 81 28 83 29 82 30 19 31 20 32 21 33 22 34
REMARK SMILES IDX 23 35 24 36 25 38 26 39 27 40 73 41 28 42 72 43 29 44 30 45
REMARK SMILES IDX 31 46 66 47 32 48 71 49 65 50 67 51 33 52 70 53 64 54 63 55
REMARK SMILES IDX 34 57 56 58 41 59 55 60 42 61 45 62 54 63 68 64 43 65 44 66
REMARK SMILES IDX 53 68 69 69 46 70 35 71 36 72 40 73 37 74 39 75 38 76 57 77
REMARK SMILES IDX 58 78 62 79 59 80 61 81 60 82 47 83 48 84 52 85 49 86 51 87
REMARK SMILES IDX 50 88
REMARK H PARENT 16 6 23 37 67 56 45 67
REMARK Flexibility Score: inf
ROOT
ATOM      1  C   UNL A   1      37.285  23.667  25.616  1.00  0.00     0.021 C 
ENDROOT
BRANCH   1   2
ATOM      2  C   UNL A   1      36.596  22.375  25.179  1.00  0.00     0.116 C 
BRANCH   2   3
ATOM      3  N   UNL A   1      35.745  21.885  26.243  1.00  0.00    -0.354 N 
ATOM      4  C   UNL A   1      34.639  21.096  26.173  1.00  0.00     0.242 C 
ATOM      5  O   UNL A   1      33.917  21.045  27.173  1.00  0.00    -0.273 OA
ATOM      6  H   UNL A   1      36.006  22.162  27.150  1.00  0.00     0.163 HD
BRANCH   4   7
ATOM      7  C   UNL A   1      34.239  20.380  24.863  1.00  0.00     0.174 C 
ATOM      8  N   UNL A   1      32.793  20.488  24.525  1.00  0.00    -0.327 N 
ATOM      9  C   UNL A   1      32.297  19.587  23.492  1.00  0.00     0.120 C 
ATOM     10  C   UNL A   1      32.651  18.140  23.763  1.00  0.00     0.022 C 
ATOM     11  C   UNL A   1      34.695  18.907  25.000  1.00  0.00     0.035 C 
ATOM     12  C   UNL A   1      34.158  17.989  23.910  1.00  0.00     0.004 C 
BRANCH   8  13
ATOM     13  C   UNL A   1      31.964  21.585  24.777  1.00  0.00     0.254 C 
ATOM     14  O   UNL A   1      30.997  21.504  25.535  1.00  0.00    -0.269 OA
BRANCH  13  15
ATOM     15  C   UNL A   1      32.189  22.891  24.119  1.00  0.00     0.041 A 
ATOM     16  C   UNL A   1      33.424  26.530  22.171  1.00  0.00     0.046 C 
ATOM     17  C   UNL A   1      32.902  25.365  22.947  1.00  0.00    -0.031 A 
ATOM     18  C   UNL A   1      33.137  24.130  22.293  1.00  0.00     0.005 A 
ATOM     19  C   UNL A   1      32.271  25.345  24.204  1.00  0.00     0.086 A 
ATOM     20  C   UNL A   1      32.787  22.911  22.865  1.00  0.00     0.014 A 
ATOM     21  C   UNL A   1      31.958  24.093  24.785  1.00  0.00     0.035 A 
BRANCH  19  22
ATOM     22  S   UNL A   1      31.768  26.693  25.290  1.00  0.00     0.243 S 
ATOM     23  O   UNL A   1      31.121  26.052  26.423  1.00  0.00    -0.207 OA
ATOM     24  O   UNL A   1      32.963  27.483  25.484  1.00  0.00    -0.207 OA
BRANCH  22  25
ATOM     25  N   UNL A   1      30.619  27.703  24.572  1.00  0.00    -0.198 NA
ATOM     26  C   UNL A   1      31.036  29.098  24.335  1.00  0.00     0.102 C 
ATOM     27  C   UNL A   1      29.540  27.046  23.807  1.00  0.00     0.102 C 
ATOM     28  C   UNL A   1      29.990  29.960  23.648  1.00  0.00     0.017 C 
ATOM     29  C   UNL A   1      28.581  28.000  23.111  1.00  0.00     0.017 C 
ATOM     30  C   UNL A   1      29.255  29.233  22.537  1.00  0.00     0.003 C 
ENDBRANCH  22  25
ENDBRANCH  19  22
ENDBRANCH  13  15
ENDBRANCH   8  13
ENDBRANCH   4   7
ENDBRANCH   2   3
ENDBRANCH   1   2
BRANCH   1  31
ATOM     31  C   UNL A   1      38.703  23.464  26.167  1.00  0.00     0.002 C 
BRANCH  31  32
ATOM     32  C   UNL A   1      39.144  22.001  26.320  1.00  0.00     0.002 C 
BRANCH  32  33
ATOM     33  C   UNL A   1      40.529  21.801  26.929  1.00  0.00     0.021 C 
BRANCH  33  34
ATOM     34  C   UNL A   1      41.643  22.450  26.133  1.00  0.00     0.116 C 
BRANCH  34  35
ATOM     35  N   UNL A   1      42.514  21.481  25.487  1.00  0.00    -0.352 N 
ATOM     36  C   UNL A   1      43.861  21.536  25.192  1.00  0.00     0.251 C 
ATOM     37  H   UNL A   1      42.068  20.647  25.214  1.00  0.00     0.163 HD
ATOM     38  O   UNL A   1      44.356  20.654  24.495  1.00  0.00    -0.269 OA
BRANCH  36  39
ATOM     39  C   UNL A   1      44.747  22.507  25.888  1.00  0.00     0.039 A 
ATOM     40  C   UNL A   1      44.742  22.415  27.289  1.00  0.00     0.014 A 
ATOM     41  C   UNL A   1      45.125  23.689  25.270  1.00  0.00     0.014 A 
ATOM     42  C   UNL A   1      44.731  23.579  28.035  1.00  0.00     0.010 A 
ATOM     43  C   UNL A   1      44.946  24.848  25.973  1.00  0.00     0.010 A 
ATOM     44  C   UNL A   1      44.675  24.776  27.339  1.00  0.00    -0.014 A 
BRANCH  44  45
ATOM     45  C   UNL A   1      44.421  26.058  27.942  1.00  0.00     0.031 A 
ATOM     46  C   UNL A   1      43.064  26.584  27.786  1.00  0.00     0.074 A 
ATOM     47  C   UNL A   1      45.364  26.581  28.753  1.00  0.00     0.049 A 
ATOM     48  N   UNL A   1      42.758  27.820  27.909  1.00  0.00    -0.248 NA
ATOM     49  C   UNL A   1      41.929  25.742  27.402  1.00  0.00     0.031 C 
ATOM     50  C   UNL A   1      45.248  27.654  29.730  1.00  0.00     0.029 A 
ATOM     51  N   UNL A   1      46.734  26.335  28.682  1.00  0.00    -0.354 N 
ATOM     52  C   UNL A   1      41.387  27.875  27.998  1.00  0.00     0.074 A 
ATOM     53  C   UNL A   1      40.913  26.598  27.533  1.00  0.00     0.031 C 
ATOM     54  C   UNL A   1      46.474  28.162  29.963  1.00  0.00     0.029 A 
ATOM     55  C   UNL A   1      47.383  27.538  29.014  1.00  0.00     0.049 A 
ATOM     56  H   UNL A   1      47.165  25.482  28.444  1.00  0.00     0.167 HD
ATOM     57  C   UNL A   1      40.835  28.936  28.643  1.00  0.00     0.031 A 
ATOM     58  C   UNL A   1      48.075  28.209  28.042  1.00  0.00     0.031 A 
ATOM     59  C   UNL A   1      41.876  29.881  29.048  1.00  0.00     0.049 A 
ATOM     60  C   UNL A   1      47.433  29.536  27.672  1.00  0.00     0.074 A 
ATOM     61  C   UNL A   1      42.535  30.109  30.245  1.00  0.00     0.029 A 
ATOM     62  N   UNL A   1      42.666  30.451  28.060  1.00  0.00    -0.354 N 
ATOM     63  N   UNL A   1      46.208  29.876  27.971  1.00  0.00    -0.248 NA
ATOM     64  C   UNL A   1      48.118  30.574  26.911  1.00  0.00     0.031 C 
ATOM     65  C   UNL A   1      43.739  30.816  29.956  1.00  0.00     0.029 A 
ATOM     66  C   UNL A   1      43.794  31.041  28.593  1.00  0.00     0.049 A 
ATOM     67  H   UNL A   1      42.448  30.437  27.100  1.00  0.00     0.167 HD
ATOM     68  C   UNL A   1      45.931  31.133  27.493  1.00  0.00     0.074 A 
ATOM     69  C   UNL A   1      47.156  31.509  26.804  1.00  0.00     0.031 C 
ATOM     70  C   UNL A   1      44.717  31.738  27.700  1.00  0.00     0.031 A 
BRANCH  57  71
ATOM     71  C   UNL A   1      39.420  28.976  29.154  1.00  0.00    -0.014 A 
ATOM     72  C   UNL A   1      38.417  29.500  28.320  1.00  0.00     0.009 A 
ATOM     73  C   UNL A   1      39.006  28.554  30.429  1.00  0.00     0.009 A 
ATOM     74  C   UNL A   1      37.094  29.651  28.750  1.00  0.00     0.001 A 
ATOM     75  C   UNL A   1      37.686  28.723  30.876  1.00  0.00     0.001 A 
ATOM     76  C   UNL A   1      36.730  29.275  30.036  1.00  0.00     0.000 A 
ENDBRANCH  57  71
BRANCH  58  77
ATOM     77  C   UNL A   1      48.756  27.265  27.093  1.00  0.00    -0.014 A 
ATOM     78  C   UNL A   1      48.122  27.029  25.850  1.00  0.00     0.009 A 
ATOM     79  C   UNL A   1      50.134  27.027  27.189  1.00  0.00     0.009 A 
ATOM     80  C   UNL A   1      48.876  26.772  24.698  1.00  0.00     0.001 A 
ATOM     81  C   UNL A   1      50.877  26.732  26.036  1.00  0.00     0.001 A 
ATOM     82  C   UNL A   1      50.259  26.668  24.786  1.00  0.00     0.000 A 
ENDBRANCH  58  77
BRANCH  70  83
ATOM     83  C   UNL A   1      44.221  33.036  27.081  1.00  0.00    -0.014 A 
ATOM     84  C   UNL A   1      44.042  33.261  25.716  1.00  0.00     0.009 A 
ATOM     85  C   UNL A   1      43.926  34.140  27.923  1.00  0.00     0.009 A 
ATOM     86  C   UNL A   1      43.506  34.467  25.234  1.00  0.00     0.001 A 
ATOM     87  C   UNL A   1      43.396  35.341  27.456  1.00  0.00     0.001 A 
ATOM     88  C   UNL A   1      43.166  35.498  26.103  1.00  0.00     0.000 A 
ENDBRANCH  70  83
ENDBRANCH  44  45
ENDBRANCH  36  39
ENDBRANCH  34  35
ENDBRANCH  33  34
ENDBRANCH  32  33
ENDBRANCH  31  32
ENDBRANCH   1  31
TORSDOF 17
ENDMDL
