MODEL 1
REMARK VINA RESULT:     -11.9      0.000      0.000
REMARK SMILES Cc1c(CC(=O)NCCCCCCNC(=O)c2ccc(-c3c4nc(c(-c5ccccc5)c5ccc([nH]5)c(-c5ccccc5)c5nc(c(-c6ccccc6)c6ccc3[nH]6)C=C5)C=C4)cc2)cc(-c2ccc(S(C)(=O)=O)cc2)n1-c1cccc(F)c1
REMARK SMILES IDX 10 1 9 2 8 3 7 4 5 5 6 6 4 8 3 9 1 10 2 11 77 12 65 13 66 14
REMARK SMILES IDX 78 15 79 16 84 17 80 18 82 19 81 20 83 21 67 22 68 23 76 24
REMARK SMILES IDX 69 25 75 26 70 27 71 28 72 29 73 30 74 31 11 32 12 33 13 34
REMARK SMILES IDX 14 35 15 36 16 38 17 39 18 40 64 41 19 42 63 43 20 44 21 45
REMARK SMILES IDX 22 46 57 47 23 48 62 49 56 50 58 51 24 52 61 53 55 54 54 55
REMARK SMILES IDX 25 57 47 58 32 59 46 60 33 61 36 62 45 63 59 64 34 65 35 66
REMARK SMILES IDX 44 68 60 69 37 70 26 71 27 72 31 73 28 74 30 75 29 76 48 77
REMARK SMILES IDX 49 78 53 79 50 80 52 81 51 82 38 83 39 84 43 85 40 86 42 87
REMARK SMILES IDX 41 88
REMARK H PARENT 7 7 14 37 58 56 36 67
REMARK Flexibility Score: inf
ROOT
ATOM      1  C   UNL A   1      36.466  22.131  24.466  1.00  0.00     0.002 C 
ENDROOT
BRANCH   1   2
ATOM      2  C   UNL A   1      35.385  21.316  25.187  1.00  0.00     0.021 C 
BRANCH   2   3
ATOM      3  C   UNL A   1      34.068  21.200  24.421  1.00  0.00     0.116 C 
BRANCH   3   4
ATOM      4  N   UNL A   1      34.095  21.969  23.191  1.00  0.00    -0.356 N 
ATOM      5  C   UNL A   1      33.101  22.708  22.615  1.00  0.00     0.224 C 
ATOM      6  O   UNL A   1      33.328  23.244  21.527  1.00  0.00    -0.275 OA
ATOM      7  H   UNL A   1      34.950  21.957  22.704  1.00  0.00     0.163 HD
BRANCH   5   8
ATOM      8  C   UNL A   1      31.775  22.910  23.330  1.00  0.00     0.137 C 
BRANCH   8   9
ATOM      9  C   UNL A   1      31.588  24.296  23.860  1.00  0.00    -0.017 A 
ATOM     10  C   UNL A   1      33.224  24.321  25.870  1.00  0.00     0.065 C 
ATOM     11  C   UNL A   1      32.240  24.918  24.920  1.00  0.00     0.024 A 
ATOM     12  N   UNL A   1      31.775  26.227  25.018  1.00  0.00    -0.313 N 
ATOM     13  C   UNL A   1      30.659  25.228  23.347  1.00  0.00     0.033 A 
ATOM     14  C   UNL A   1      30.812  26.415  24.029  1.00  0.00     0.053 A 
BRANCH  12  15
ATOM     15  C   UNL A   1      32.214  27.221  25.941  1.00  0.00     0.049 A 
ATOM     16  C   UNL A   1      31.304  27.786  26.851  1.00  0.00     0.027 A 
ATOM     17  C   UNL A   1      33.521  27.707  25.869  1.00  0.00     0.065 A 
ATOM     18  C   UNL A   1      31.697  28.845  27.671  1.00  0.00     0.005 A 
ATOM     19  C   UNL A   1      33.893  28.769  26.688  1.00  0.00     0.125 A 
ATOM     20  C   UNL A   1      32.995  29.343  27.584  1.00  0.00     0.039 A 
ATOM     21  F   UNL A   1      35.131  29.270  26.591  1.00  0.00    -0.207 F 
ENDBRANCH  12  15
BRANCH  14  22
ATOM     22  C   UNL A   1      30.136  27.669  23.735  1.00  0.00    -0.001 A 
ATOM     23  C   UNL A   1      28.760  27.701  23.463  1.00  0.00     0.011 A 
ATOM     24  C   UNL A   1      30.891  28.849  23.716  1.00  0.00     0.011 A 
ATOM     25  C   UNL A   1      28.165  28.896  23.090  1.00  0.00     0.021 A 
ATOM     26  C   UNL A   1      30.302  30.046  23.356  1.00  0.00     0.021 A 
ATOM     27  C   UNL A   1      28.955  30.047  23.017  1.00  0.00     0.067 A 
BRANCH  27  28
ATOM     28  S   UNL A   1      28.225  31.565  22.525  1.00  0.00     0.175 S 
ATOM     29  C   UNL A   1      28.034  31.339  20.763  1.00  0.00     0.163 C 
ATOM     30  O   UNL A   1      26.941  31.551  23.214  1.00  0.00    -0.224 OA
ATOM     31  O   UNL A   1      29.163  32.630  22.738  1.00  0.00    -0.224 OA
ENDBRANCH  27  28
ENDBRANCH  14  22
ENDBRANCH   8   9
ENDBRANCH   5   8
ENDBRANCH   3   4
ENDBRANCH   2   3
ENDBRANCH   1   2
BRANCH   1  32
ATOM     32  C   UNL A   1      37.729  22.434  25.283  1.00  0.00     0.002 C 
BRANCH  32  33
ATOM     33  C   UNL A   1      38.639  21.239  25.640  1.00  0.00     0.021 C 
BRANCH  33  34
ATOM     34  C   UNL A   1      39.910  21.515  26.476  1.00  0.00     0.116 C 
BRANCH  34  35
ATOM     35  N   UNL A   1      41.158  21.193  25.817  1.00  0.00    -0.352 N 
ATOM     36  C   UNL A   1      42.332  21.931  25.762  1.00  0.00     0.251 C 
ATOM     37  H   UNL A   1      41.177  20.330  25.342  1.00  0.00     0.163 HD
ATOM     38  O   UNL A   1      43.295  21.426  25.185  1.00  0.00    -0.269 OA
BRANCH  36  39
ATOM     39  C   UNL A   1      42.444  23.351  26.279  1.00  0.00     0.039 A 
ATOM     40  C   UNL A   1      42.270  23.559  27.634  1.00  0.00     0.014 A 
ATOM     41  C   UNL A   1      42.447  24.518  25.486  1.00  0.00     0.014 A 
ATOM     42  C   UNL A   1      42.178  24.884  28.168  1.00  0.00     0.010 A 
ATOM     43  C   UNL A   1      42.260  25.877  26.038  1.00  0.00     0.010 A 
ATOM     44  C   UNL A   1      42.102  26.123  27.417  1.00  0.00    -0.014 A 
BRANCH  44  45
ATOM     45  C   UNL A   1      41.440  27.426  28.225  1.00  0.00     0.031 A 
ATOM     46  C   UNL A   1      42.574  28.375  28.186  1.00  0.00     0.074 A 
ATOM     47  C   UNL A   1      40.412  27.910  29.058  1.00  0.00     0.049 A 
ATOM     48  N   UNL A   1      43.677  27.965  28.740  1.00  0.00    -0.248 NA
ATOM     49  C   UNL A   1      42.725  29.491  27.259  1.00  0.00     0.031 C 
ATOM     50  C   UNL A   1      39.341  27.154  29.719  1.00  0.00     0.029 A 
ATOM     51  N   UNL A   1      40.031  29.226  29.510  1.00  0.00    -0.354 N 
ATOM     52  C   UNL A   1      44.635  28.901  28.466  1.00  0.00     0.074 A 
ATOM     53  C   UNL A   1      44.046  29.691  27.384  1.00  0.00     0.031 C 
ATOM     54  C   UNL A   1      38.342  27.950  30.206  1.00  0.00     0.029 A 
ATOM     55  C   UNL A   1      38.696  29.359  30.076  1.00  0.00     0.049 A 
ATOM     56  H   UNL A   1      40.643  29.994  29.441  1.00  0.00     0.167 HD
ATOM     57  C   UNL A   1      45.303  29.324  29.579  1.00  0.00     0.031 A 
ATOM     58  C   UNL A   1      37.974  30.466  30.537  1.00  0.00     0.031 A 
ATOM     59  C   UNL A   1      44.692  30.517  30.108  1.00  0.00     0.049 A 
ATOM     60  C   UNL A   1      39.002  31.358  31.069  1.00  0.00     0.074 A 
ATOM     61  C   UNL A   1      44.248  31.672  29.495  1.00  0.00     0.029 A 
ATOM     62  N   UNL A   1      44.004  30.403  31.299  1.00  0.00    -0.354 N 
ATOM     63  N   UNL A   1      39.547  31.134  32.227  1.00  0.00    -0.248 NA
ATOM     64  C   UNL A   1      39.407  32.586  30.404  1.00  0.00     0.031 C 
ATOM     65  C   UNL A   1      42.975  31.894  30.055  1.00  0.00     0.029 A 
ATOM     66  C   UNL A   1      42.884  31.208  31.258  1.00  0.00     0.049 A 
ATOM     67  H   UNL A   1      44.270  29.836  32.058  1.00  0.00     0.167 HD
ATOM     68  C   UNL A   1      40.730  31.788  32.102  1.00  0.00     0.074 A 
ATOM     69  C   UNL A   1      40.466  32.870  31.167  1.00  0.00     0.031 C 
ATOM     70  C   UNL A   1      41.851  31.034  32.250  1.00  0.00     0.031 A 
BRANCH  57  71
ATOM     71  C   UNL A   1      45.819  28.185  30.432  1.00  0.00    -0.014 A 
ATOM     72  C   UNL A   1      46.784  27.325  29.902  1.00  0.00     0.009 A 
ATOM     73  C   UNL A   1      45.252  27.849  31.685  1.00  0.00     0.009 A 
ATOM     74  C   UNL A   1      47.120  26.139  30.570  1.00  0.00     0.001 A 
ATOM     75  C   UNL A   1      45.550  26.647  32.324  1.00  0.00     0.001 A 
ATOM     76  C   UNL A   1      46.484  25.788  31.762  1.00  0.00     0.000 A 
ENDBRANCH  57  71
BRANCH  58  77
ATOM     77  C   UNL A   1      36.594  31.028  31.006  1.00  0.00    -0.014 A 
ATOM     78  C   UNL A   1      36.409  31.419  32.380  1.00  0.00     0.009 A 
ATOM     79  C   UNL A   1      35.673  31.611  30.124  1.00  0.00     0.009 A 
ATOM     80  C   UNL A   1      35.489  32.399  32.813  1.00  0.00     0.001 A 
ATOM     81  C   UNL A   1      34.717  32.576  30.566  1.00  0.00     0.001 A 
ATOM     82  C   UNL A   1      34.651  32.998  31.895  1.00  0.00     0.000 A 
ENDBRANCH  58  77
BRANCH  70  83
ATOM     83  C   UNL A   1      41.836  29.945  33.313  1.00  0.00    -0.014 A 
ATOM     84  C   UNL A   1      42.068  30.142  34.693  1.00  0.00     0.009 A 
ATOM     85  C   UNL A   1      41.633  28.625  32.891  1.00  0.00     0.009 A 
ATOM     86  C   UNL A   1      42.159  29.069  35.591  1.00  0.00     0.001 A 
ATOM     87  C   UNL A   1      41.674  27.554  33.792  1.00  0.00     0.001 A 
ATOM     88  C   UNL A   1      41.955  27.773  35.138  1.00  0.00     0.000 A 
ENDBRANCH  70  83
ENDBRANCH  44  45
ENDBRANCH  36  39
ENDBRANCH  34  35
ENDBRANCH  33  34
ENDBRANCH  32  33
ENDBRANCH   1  32
TORSDOF 17
ENDMDL
MODEL 2
REMARK VINA RESULT:     -11.4      1.592      2.288
REMARK SMILES Cc1c(CC(=O)NCCCCCCNC(=O)c2ccc(-c3c4nc(c(-c5ccccc5)c5ccc([nH]5)c(-c5ccccc5)c5nc(c(-c6ccccc6)c6ccc3[nH]6)C=C5)C=C4)cc2)cc(-c2ccc(S(C)(=O)=O)cc2)n1-c1cccc(F)c1
REMARK SMILES IDX 10 1 9 2 8 3 7 4 5 5 6 6 4 8 3 9 1 10 2 11 77 12 65 13 66 14
REMARK SMILES IDX 78 15 79 16 84 17 80 18 82 19 81 20 83 21 67 22 68 23 76 24
REMARK SMILES IDX 69 25 75 26 70 27 71 28 72 29 73 30 74 31 11 32 12 33 13 34
REMARK SMILES IDX 14 35 15 36 16 38 17 39 18 40 64 41 19 42 63 43 20 44 21 45
REMARK SMILES IDX 22 46 57 47 23 48 62 49 56 50 58 51 24 52 61 53 55 54 54 55
REMARK SMILES IDX 25 57 47 58 32 59 46 60 33 61 36 62 45 63 59 64 34 65 35 66
REMARK SMILES IDX 44 68 60 69 37 70 26 71 27 72 31 73 28 74 30 75 29 76 48 77
REMARK SMILES IDX 49 78 53 79 50 80 52 81 51 82 38 83 39 84 43 85 40 86 42 87
REMARK SMILES IDX 41 88
REMARK H PARENT 7 7 14 37 58 56 36 67
REMARK Flexibility Score: inf
ROOT
ATOM      1  C   UNL A   1      36.955  23.115  23.622  1.00  0.00     0.002 C 
ENDROOT
BRANCH   1   2
ATOM      2  C   UNL A   1      35.508  23.344  23.167  1.00  0.00     0.021 C 
BRANCH   2   3
ATOM      3  C   UNL A   1      34.496  22.370  23.771  1.00  0.00     0.116 C 
BRANCH   3   4
ATOM      4  N   UNL A   1      33.497  21.967  22.799  1.00  0.00    -0.356 N 
ATOM      5  C   UNL A   1      32.158  21.763  22.974  1.00  0.00     0.224 C 
ATOM      6  O   UNL A   1      31.498  21.365  22.011  1.00  0.00    -0.275 OA
ATOM      7  H   UNL A   1      33.832  21.820  21.885  1.00  0.00     0.163 HD
BRANCH   5   8
ATOM      8  C   UNL A   1      31.496  22.077  24.306  1.00  0.00     0.137 C 
BRANCH   8   9
ATOM      9  C   UNL A   1      31.384  23.543  24.585  1.00  0.00    -0.017 A 
ATOM     10  C   UNL A   1      32.948  23.813  26.634  1.00  0.00     0.065 C 
ATOM     11  C   UNL A   1      32.040  24.297  25.553  1.00  0.00     0.024 A 
ATOM     12  N   UNL A   1      31.660  25.628  25.407  1.00  0.00    -0.313 N 
ATOM     13  C   UNL A   1      30.539  24.427  23.879  1.00  0.00     0.033 A 
ATOM     14  C   UNL A   1      30.747  25.702  24.357  1.00  0.00     0.053 A 
BRANCH  12  15
ATOM     15  C   UNL A   1      32.132  26.738  26.167  1.00  0.00     0.049 A 
ATOM     16  C   UNL A   1      31.256  27.427  27.024  1.00  0.00     0.027 A 
ATOM     17  C   UNL A   1      33.436  27.204  25.981  1.00  0.00     0.065 A 
ATOM     18  C   UNL A   1      31.679  28.587  27.676  1.00  0.00     0.005 A 
ATOM     19  C   UNL A   1      33.837  28.367  26.632  1.00  0.00     0.125 A 
ATOM     20  C   UNL A   1      32.973  29.062  27.473  1.00  0.00     0.039 A 
ATOM     21  F   UNL A   1      35.070  28.844  26.421  1.00  0.00    -0.207 F 
ENDBRANCH  12  15
BRANCH  14  22
ATOM     22  C   UNL A   1      30.167  26.925  23.825  1.00  0.00    -0.001 A 
ATOM     23  C   UNL A   1      30.982  27.974  23.373  1.00  0.00     0.011 A 
ATOM     24  C   UNL A   1      28.772  27.041  23.783  1.00  0.00     0.011 A 
ATOM     25  C   UNL A   1      30.401  29.162  22.963  1.00  0.00     0.021 A 
ATOM     26  C   UNL A   1      28.185  28.221  23.365  1.00  0.00     0.021 A 
ATOM     27  C   UNL A   1      29.007  29.275  22.991  1.00  0.00     0.067 A 
BRANCH  27  28
ATOM     28  S   UNL A   1      28.252  30.781  22.498  1.00  0.00     0.175 S 
ATOM     29  C   UNL A   1      28.106  30.569  20.731  1.00  0.00     0.163 C 
ATOM     30  O   UNL A   1      26.953  30.729  23.157  1.00  0.00    -0.224 OA
ATOM     31  O   UNL A   1      29.160  31.865  22.744  1.00  0.00    -0.224 OA
ENDBRANCH  27  28
ENDBRANCH  14  22
ENDBRANCH   8   9
ENDBRANCH   5   8
ENDBRANCH   3   4
ENDBRANCH   2   3
ENDBRANCH   1   2
BRANCH   1  32
ATOM     32  C   UNL A   1      37.176  23.065  25.140  1.00  0.00     0.002 C 
BRANCH  32  33
ATOM     33  C   UNL A   1      38.354  22.208  25.650  1.00  0.00     0.021 C 
BRANCH  33  34
ATOM     34  C   UNL A   1      39.369  22.864  26.615  1.00  0.00     0.116 C 
BRANCH  34  35
ATOM     35  N   UNL A   1      40.728  22.381  26.496  1.00  0.00    -0.352 N 
ATOM     36  C   UNL A   1      41.907  22.980  26.915  1.00  0.00     0.251 C 
ATOM     37  H   UNL A   1      40.830  21.505  26.057  1.00  0.00     0.163 HD
ATOM     38  O   UNL A   1      42.953  22.349  26.758  1.00  0.00    -0.269 OA
BRANCH  36  39
ATOM     39  C   UNL A   1      41.974  24.396  27.451  1.00  0.00     0.039 A 
ATOM     40  C   UNL A   1      41.116  24.737  28.479  1.00  0.00     0.014 A 
ATOM     41  C   UNL A   1      42.636  25.479  26.835  1.00  0.00     0.014 A 
ATOM     42  C   UNL A   1      40.990  26.096  28.910  1.00  0.00     0.010 A 
ATOM     43  C   UNL A   1      42.429  26.889  27.228  1.00  0.00     0.010 A 
ATOM     44  C   UNL A   1      41.578  27.266  28.286  1.00  0.00    -0.014 A 
BRANCH  44  45
ATOM     45  C   UNL A   1      40.834  28.724  28.623  1.00  0.00     0.031 A 
ATOM     46  C   UNL A   1      42.015  29.590  28.831  1.00  0.00     0.074 A 
ATOM     47  C   UNL A   1      39.650  29.399  28.979  1.00  0.00     0.049 A 
ATOM     48  N   UNL A   1      42.828  29.225  29.779  1.00  0.00    -0.248 NA
ATOM     49  C   UNL A   1      42.579  30.518  27.856  1.00  0.00     0.031 C 
ATOM     50  C   UNL A   1      38.348  28.828  29.342  1.00  0.00     0.029 A 
ATOM     51  N   UNL A   1      39.287  30.792  29.078  1.00  0.00    -0.354 N 
ATOM     52  C   UNL A   1      43.918  30.047  29.711  1.00  0.00     0.074 A 
ATOM     53  C   UNL A   1      43.801  30.666  28.390  1.00  0.00     0.031 C 
ATOM     54  C   UNL A   1      37.337  29.748  29.340  1.00  0.00     0.029 A 
ATOM     55  C   UNL A   1      37.864  31.091  29.133  1.00  0.00     0.049 A 
ATOM     56  H   UNL A   1      39.968  31.502  29.107  1.00  0.00     0.167 HD
ATOM     57  C   UNL A   1      44.230  30.622  30.909  1.00  0.00     0.031 A 
ATOM     58  C   UNL A   1      37.156  32.298  29.155  1.00  0.00     0.031 A 
ATOM     59  C   UNL A   1      43.613  31.919  31.020  1.00  0.00     0.049 A 
ATOM     60  C   UNL A   1      38.045  33.214  29.866  1.00  0.00     0.074 A 
ATOM     61  C   UNL A   1      43.520  32.972  30.131  1.00  0.00     0.029 A 
ATOM     62  N   UNL A   1      42.567  32.051  31.911  1.00  0.00    -0.354 N 
ATOM     63  N   UNL A   1      38.157  33.167  31.160  1.00  0.00    -0.248 NA
ATOM     64  C   UNL A   1      38.774  34.284  29.205  1.00  0.00     0.031 C 
ATOM     65  C   UNL A   1      42.165  33.354  30.188  1.00  0.00     0.029 A 
ATOM     66  C   UNL A   1      41.616  32.894  31.377  1.00  0.00     0.049 A 
ATOM     67  H   UNL A   1      42.509  31.612  32.790  1.00  0.00     0.167 HD
ATOM     68  C   UNL A   1      39.380  33.726  31.347  1.00  0.00     0.074 A 
ATOM     69  C   UNL A   1      39.552  34.641  30.230  1.00  0.00     0.031 C 
ATOM     70  C   UNL A   1      40.304  32.951  31.974  1.00  0.00     0.031 A 
BRANCH  57  71
ATOM     71  C   UNL A   1      44.315  29.623  32.044  1.00  0.00    -0.014 A 
ATOM     72  C   UNL A   1      43.168  29.347  32.792  1.00  0.00     0.009 A 
ATOM     73  C   UNL A   1      45.541  29.075  32.491  1.00  0.00     0.009 A 
ATOM     74  C   UNL A   1      43.256  28.607  33.978  1.00  0.00     0.001 A 
ATOM     75  C   UNL A   1      45.637  28.380  33.695  1.00  0.00     0.001 A 
ATOM     76  C   UNL A   1      44.491  28.149  34.443  1.00  0.00     0.000 A 
ENDBRANCH  57  71
BRANCH  58  77
ATOM     77  C   UNL A   1      35.767  33.006  29.042  1.00  0.00    -0.014 A 
ATOM     78  C   UNL A   1      34.987  33.247  30.228  1.00  0.00     0.009 A 
ATOM     79  C   UNL A   1      35.423  33.832  27.962  1.00  0.00     0.009 A 
ATOM     80  C   UNL A   1      34.053  34.296  30.369  1.00  0.00     0.001 A 
ATOM     81  C   UNL A   1      34.451  34.871  28.092  1.00  0.00     0.001 A 
ATOM     82  C   UNL A   1      33.798  35.129  29.298  1.00  0.00     0.000 A 
ENDBRANCH  58  77
BRANCH  70  83
ATOM     83  C   UNL A   1      39.827  32.066  33.117  1.00  0.00    -0.014 A 
ATOM     84  C   UNL A   1      39.418  30.718  32.997  1.00  0.00     0.009 A 
ATOM     85  C   UNL A   1      39.723  32.644  34.389  1.00  0.00     0.009 A 
ATOM     86  C   UNL A   1      38.875  30.008  34.076  1.00  0.00     0.001 A 
ATOM     87  C   UNL A   1      39.226  31.923  35.482  1.00  0.00     0.001 A 
ATOM     88  C   UNL A   1      38.785  30.612  35.323  1.00  0.00     0.000 A 
ENDBRANCH  70  83
ENDBRANCH  44  45
ENDBRANCH  36  39
ENDBRANCH  34  35
ENDBRANCH  33  34
ENDBRANCH  32  33
ENDBRANCH   1  32
TORSDOF 17
ENDMDL
MODEL 3
REMARK VINA RESULT:     -11.2      6.906     11.182
REMARK SMILES Cc1c(CC(=O)NCCCCCCNC(=O)c2ccc(-c3c4nc(c(-c5ccccc5)c5ccc([nH]5)c(-c5ccccc5)c5nc(c(-c6ccccc6)c6ccc3[nH]6)C=C5)C=C4)cc2)cc(-c2ccc(S(C)(=O)=O)cc2)n1-c1cccc(F)c1
REMARK SMILES IDX 10 1 9 2 8 3 7 4 5 5 6 6 4 8 3 9 1 10 2 11 77 12 65 13 66 14
REMARK SMILES IDX 78 15 79 16 84 17 80 18 82 19 81 20 83 21 67 22 68 23 76 24
REMARK SMILES IDX 69 25 75 26 70 27 71 28 72 29 73 30 74 31 11 32 12 33 13 34
REMARK SMILES IDX 14 35 15 36 16 38 17 39 18 40 64 41 19 42 63 43 20 44 21 45
REMARK SMILES IDX 22 46 57 47 23 48 62 49 56 50 58 51 24 52 61 53 55 54 54 55
REMARK SMILES IDX 25 57 47 58 32 59 46 60 33 61 36 62 45 63 59 64 34 65 35 66
REMARK SMILES IDX 44 68 60 69 37 70 26 71 27 72 31 73 28 74 30 75 29 76 48 77
REMARK SMILES IDX 49 78 53 79 50 80 52 81 51 82 38 83 39 84 43 85 40 86 42 87
REMARK SMILES IDX 41 88
REMARK H PARENT 7 7 14 37 58 56 36 67
REMARK Flexibility Score: inf
ROOT
ATOM      1  C   UNL A   1      41.025  23.823  27.457  1.00  0.00     0.002 C 
ENDROOT
BRANCH   1   2
ATOM      2  C   UNL A   1      41.103  22.357  27.013  1.00  0.00     0.021 C 
BRANCH   2   3
ATOM      3  C   UNL A   1      41.742  22.148  25.640  1.00  0.00     0.116 C 
BRANCH   3   4
ATOM      4  N   UNL A   1      43.017  21.463  25.743  1.00  0.00    -0.356 N 
ATOM      5  C   UNL A   1      44.192  21.726  25.096  1.00  0.00     0.224 C 
ATOM      6  O   UNL A   1      45.149  20.974  25.296  1.00  0.00    -0.275 OA
ATOM      7  H   UNL A   1      43.039  20.702  26.367  1.00  0.00     0.163 HD
BRANCH   5   8
ATOM      8  C   UNL A   1      44.325  22.949  24.203  1.00  0.00     0.137 C 
BRANCH   8   9
ATOM      9  C   UNL A   1      45.192  24.020  24.784  1.00  0.00    -0.017 A 
ATOM     10  C   UNL A   1      43.435  25.749  25.586  1.00  0.00     0.065 C 
ATOM     11  C   UNL A   1      44.813  25.199  25.418  1.00  0.00     0.024 A 
ATOM     12  N   UNL A   1      45.962  25.864  25.837  1.00  0.00    -0.313 N 
ATOM     13  C   UNL A   1      46.604  24.002  24.762  1.00  0.00     0.033 A 
ATOM     14  C   UNL A   1      47.063  25.107  25.446  1.00  0.00     0.053 A 
BRANCH  12  15
ATOM     15  C   UNL A   1      46.021  27.088  26.567  1.00  0.00     0.049 A 
ATOM     16  C   UNL A   1      45.879  27.080  27.965  1.00  0.00     0.027 A 
ATOM     17  C   UNL A   1      46.115  28.302  25.882  1.00  0.00     0.065 A 
ATOM     18  C   UNL A   1      45.813  28.282  28.671  1.00  0.00     0.005 A 
ATOM     19  C   UNL A   1      46.038  29.491  26.601  1.00  0.00     0.125 A 
ATOM     20  C   UNL A   1      45.885  29.493  27.984  1.00  0.00     0.039 A 
ATOM     21  F   UNL A   1      46.080  30.658  25.945  1.00  0.00    -0.207 F 
ENDBRANCH  12  15
BRANCH  14  22
ATOM     22  C   UNL A   1      48.451  25.407  25.761  1.00  0.00    -0.001 A 
ATOM     23  C   UNL A   1      48.999  25.063  27.006  1.00  0.00     0.011 A 
ATOM     24  C   UNL A   1      49.231  26.059  24.798  1.00  0.00     0.011 A 
ATOM     25  C   UNL A   1      50.294  25.449  27.312  1.00  0.00     0.021 A 
ATOM     26  C   UNL A   1      50.527  26.438  25.093  1.00  0.00     0.021 A 
ATOM     27  C   UNL A   1      51.030  26.156  26.356  1.00  0.00     0.067 A 
BRANCH  27  28
ATOM     28  S   UNL A   1      52.663  26.674  26.733  1.00  0.00     0.175 S 
ATOM     29  C   UNL A   1      52.480  28.447  26.850  1.00  0.00     0.163 C 
ATOM     30  O   UNL A   1      52.908  26.070  28.037  1.00  0.00    -0.224 OA
ATOM     31  O   UNL A   1      53.518  26.387  25.617  1.00  0.00    -0.224 OA
ENDBRANCH  27  28
ENDBRANCH  14  22
ENDBRANCH   8   9
ENDBRANCH   5   8
ENDBRANCH   3   4
ENDBRANCH   2   3
ENDBRANCH   1   2
BRANCH   1  32
ATOM     32  C   UNL A   1      41.912  24.206  28.649  1.00  0.00     0.002 C 
BRANCH  32  33
ATOM     33  C   UNL A   1      43.067  23.245  29.004  1.00  0.00     0.021 C 
BRANCH  33  34
ATOM     34  C   UNL A   1      44.331  23.838  29.668  1.00  0.00     0.116 C 
BRANCH  34  35
ATOM     35  N   UNL A   1      44.652  23.292  30.970  1.00  0.00    -0.352 N 
ATOM     36  C   UNL A   1      44.524  23.882  32.220  1.00  0.00     0.251 C 
ATOM     37  H   UNL A   1      45.012  22.375  30.968  1.00  0.00     0.163 HD
ATOM     38  O   UNL A   1      44.810  23.198  33.203  1.00  0.00    -0.269 OA
BRANCH  36  39
ATOM     39  C   UNL A   1      44.157  25.339  32.415  1.00  0.00     0.039 A 
ATOM     40  C   UNL A   1      43.596  25.704  33.624  1.00  0.00     0.014 A 
ATOM     41  C   UNL A   1      44.086  26.314  31.398  1.00  0.00     0.014 A 
ATOM     42  C   UNL A   1      43.055  27.016  33.815  1.00  0.00     0.010 A 
ATOM     43  C   UNL A   1      43.444  27.633  31.580  1.00  0.00     0.010 A 
ATOM     44  C   UNL A   1      42.882  28.044  32.805  1.00  0.00    -0.014 A 
BRANCH  44  45
ATOM     45  C   UNL A   1      41.743  29.217  33.146  1.00  0.00     0.031 A 
ATOM     46  C   UNL A   1      40.601  28.729  32.341  1.00  0.00     0.074 A 
ATOM     47  C   UNL A   1      41.476  30.499  33.666  1.00  0.00     0.049 A 
ATOM     48  N   UNL A   1      40.817  28.612  31.064  1.00  0.00    -0.248 NA
ATOM     49  C   UNL A   1      39.454  27.983  32.846  1.00  0.00     0.031 C 
ATOM     50  C   UNL A   1      42.431  31.512  34.130  1.00  0.00     0.029 A 
ATOM     51  N   UNL A   1      40.264  31.227  33.951  1.00  0.00    -0.354 N 
ATOM     52  C   UNL A   1      39.715  28.008  30.525  1.00  0.00     0.074 A 
ATOM     53  C   UNL A   1      39.019  27.459  31.690  1.00  0.00     0.031 C 
ATOM     54  C   UNL A   1      41.844  32.517  34.846  1.00  0.00     0.029 A 
ATOM     55  C   UNL A   1      40.391  32.391  34.815  1.00  0.00     0.049 A 
ATOM     56  H   UNL A   1      39.395  30.951  33.578  1.00  0.00     0.167 HD
ATOM     57  C   UNL A   1      39.204  28.683  29.455  1.00  0.00     0.031 A 
ATOM     58  C   UNL A   1      39.447  33.271  35.356  1.00  0.00     0.031 A 
ATOM     59  C   UNL A   1      38.156  29.577  29.877  1.00  0.00     0.049 A 
ATOM     60  C   UNL A   1      38.395  33.322  34.342  1.00  0.00     0.074 A 
ATOM     61  C   UNL A   1      37.087  29.402  30.733  1.00  0.00     0.029 A 
ATOM     62  N   UNL A   1      38.424  30.931  29.840  1.00  0.00    -0.354 N 
ATOM     63  N   UNL A   1      38.544  34.023  33.258  1.00  0.00    -0.248 NA
ATOM     64  C   UNL A   1      37.098  32.689  34.514  1.00  0.00     0.031 C 
ATOM     65  C   UNL A   1      37.116  30.540  31.563  1.00  0.00     0.029 A 
ATOM     66  C   UNL A   1      37.837  31.542  30.928  1.00  0.00     0.049 A 
ATOM     67  H   UNL A   1      38.951  31.388  29.146  1.00  0.00     0.167 HD
ATOM     68  C   UNL A   1      37.681  33.403  32.413  1.00  0.00     0.074 A 
ATOM     69  C   UNL A   1      36.643  32.853  33.270  1.00  0.00     0.031 C 
ATOM     70  C   UNL A   1      38.221  32.889  31.276  1.00  0.00     0.031 A 
BRANCH  57  71
ATOM     71  C   UNL A   1      40.250  29.032  28.417  1.00  0.00    -0.014 A 
ATOM     72  C   UNL A   1      40.116  28.524  27.122  1.00  0.00     0.009 A 
ATOM     73  C   UNL A   1      41.448  29.714  28.738  1.00  0.00     0.009 A 
ATOM     74  C   UNL A   1      41.169  28.638  26.205  1.00  0.00     0.001 A 
ATOM     75  C   UNL A   1      42.513  29.785  27.841  1.00  0.00     0.001 A 
ATOM     76  C   UNL A   1      42.373  29.241  26.572  1.00  0.00     0.000 A 
ENDBRANCH  57  71
BRANCH  58  77
ATOM     77  C   UNL A   1      39.158  34.424  36.370  1.00  0.00    -0.014 A 
ATOM     78  C   UNL A   1      38.668  34.113  37.687  1.00  0.00     0.009 A 
ATOM     79  C   UNL A   1      39.762  35.686  36.275  1.00  0.00     0.009 A 
ATOM     80  C   UNL A   1      38.879  34.919  38.828  1.00  0.00     0.001 A 
ATOM     81  C   UNL A   1      39.944  36.519  37.421  1.00  0.00     0.001 A 
ATOM     82  C   UNL A   1      39.542  36.122  38.697  1.00  0.00     0.000 A 
ENDBRANCH  58  77
BRANCH  70  83
ATOM     83  C   UNL A   1      39.321  33.688  30.591  1.00  0.00    -0.014 A 
ATOM     84  C   UNL A   1      39.121  34.690  29.615  1.00  0.00     0.009 A 
ATOM     85  C   UNL A   1      40.649  33.370  30.904  1.00  0.00     0.009 A 
ATOM     86  C   UNL A   1      40.191  35.294  28.941  1.00  0.00     0.001 A 
ATOM     87  C   UNL A   1      41.722  34.005  30.268  1.00  0.00     0.001 A 
ATOM     88  C   UNL A   1      41.495  34.954  29.274  1.00  0.00     0.000 A 
ENDBRANCH  70  83
ENDBRANCH  44  45
ENDBRANCH  36  39
ENDBRANCH  34  35
ENDBRANCH  33  34
ENDBRANCH  32  33
ENDBRANCH   1  32
TORSDOF 17
ENDMDL
