MODEL 1
REMARK VINA RESULT:      -9.3      0.000      0.000
REMARK SMILES CC[NH2+]C[C@@H](C)C(=O)N1CCO[C@@H](CC(=O)NCCCCCCNC(=O)c2ccc(-c3c4nc(c(-c5ccccc5)c5ccc([nH]5)c(-c5ccccc5)c5nc(c(-c6ccccc6)c6ccc3[nH]6)C=C5)C=C4)cc2)C1
REMARK SMILES IDX 18 1 17 2 15 3 16 4 14 6 13 7 9 8 10 9 75 10 11 11 12 12
REMARK SMILES IDX 7 13 8 14 5 15 6 16 4 17 3 18 2 21 1 22 19 23 20 24 21 25
REMARK SMILES IDX 22 26 23 27 24 28 25 29 26 31 27 32 28 33 74 34 29 35 73 36
REMARK SMILES IDX 30 37 31 38 32 39 67 40 33 41 72 42 66 43 68 44 34 45 71 46
REMARK SMILES IDX 65 47 64 48 35 50 57 51 42 52 56 53 43 54 46 55 55 56 69 57
REMARK SMILES IDX 44 58 45 59 54 61 70 62 47 63 36 64 37 65 41 66 38 67 40 68
REMARK SMILES IDX 39 69 58 70 59 71 63 72 60 73 62 74 61 75 48 76 49 77 53 78
REMARK SMILES IDX 50 79 52 80 51 81
REMARK H PARENT 17 5 3 19 3 20 24 30 68 49 46 60
REMARK Flexibility Score: inf
ROOT
ATOM      1  C   UNL A   1      34.883  21.632  26.120  1.00  0.00     0.116 C 
ENDROOT
BRANCH   1   2
ATOM      2  N   UNL A   1      33.461  21.449  25.867  1.00  0.00    -0.356 N 
ATOM      3  C   UNL A   1      32.694  21.794  24.794  1.00  0.00     0.222 C 
ATOM      4  O   UNL A   1      31.473  21.666  24.885  1.00  0.00    -0.275 OA
ATOM      5  H   UNL A   1      32.971  21.001  26.594  1.00  0.00     0.163 HD
BRANCH   3   6
ATOM      6  C   UNL A   1      33.322  22.340  23.531  1.00  0.00     0.133 C 
BRANCH   6   7
ATOM      7  C   UNL A   1      32.735  23.690  23.120  1.00  0.00     0.147 C 
ATOM      8  N   UNL A   1      32.648  26.096  23.778  1.00  0.00    -0.337 N 
ATOM      9  C   UNL A   1      33.259  26.443  22.499  1.00  0.00     0.148 C 
ATOM     10  C   UNL A   1      32.971  24.747  24.207  1.00  0.00     0.152 C 
ATOM     11  C   UNL A   1      32.918  25.382  21.452  1.00  0.00     0.182 C 
ATOM     12  O   UNL A   1      33.373  24.087  21.884  1.00  0.00    -0.374 OA
BRANCH   8  13
ATOM     13  C   UNL A   1      32.496  27.032  24.790  1.00  0.00     0.231 C 
ATOM     14  O   UNL A   1      33.357  27.195  25.656  1.00  0.00    -0.274 OA
BRANCH  13  15
ATOM     15  C   UNL A   1      31.121  27.690  24.910  1.00  0.00     0.130 C 
ATOM     16  C   UNL A   1      30.062  26.817  24.234  1.00  0.00     0.024 C 
BRANCH  15  17
ATOM     17  C   UNL A   1      31.118  29.141  24.423  1.00  0.00     0.273 C 
BRANCH  17  18
ATOM     18  N   UNL A   1      32.084  30.041  25.059  1.00  0.00    -0.346 N 
ATOM     19  H   UNL A   1      33.003  29.596  25.036  1.00  0.00     0.346 HD
ATOM     20  H   UNL A   1      32.064  30.917  24.538  1.00  0.00     0.346 HD
BRANCH  18  21
ATOM     21  C   UNL A   1      31.763  30.363  26.445  1.00  0.00     0.257 C 
ATOM     22  C   UNL A   1      33.024  30.851  27.143  1.00  0.00     0.071 C 
ENDBRANCH  18  21
ENDBRANCH  17  18
ENDBRANCH  15  17
ENDBRANCH  13  15
ENDBRANCH   8  13
ENDBRANCH   6   7
ENDBRANCH   3   6
ENDBRANCH   1   2
BRANCH   1  23
ATOM     23  C   UNL A   1      35.718  20.908  25.057  1.00  0.00     0.021 C 
BRANCH  23  24
ATOM     24  C   UNL A   1      36.939  21.688  24.569  1.00  0.00     0.002 C 
BRANCH  24  25
ATOM     25  C   UNL A   1      38.232  21.407  25.339  1.00  0.00     0.002 C 
BRANCH  25  26
ATOM     26  C   UNL A   1      38.851  20.022  25.118  1.00  0.00     0.021 C 
BRANCH  26  27
ATOM     27  C   UNL A   1      39.622  19.449  26.307  1.00  0.00     0.116 C 
BRANCH  27  28
ATOM     28  N   UNL A   1      40.921  18.922  25.916  1.00  0.00    -0.352 N 
ATOM     29  C   UNL A   1      42.130  19.557  25.785  1.00  0.00     0.251 C 
ATOM     30  H   UNL A   1      40.933  17.958  25.714  1.00  0.00     0.163 HD
ATOM     31  O   UNL A   1      43.071  18.981  25.248  1.00  0.00    -0.269 OA
BRANCH  29  32
ATOM     32  C   UNL A   1      42.306  20.942  26.274  1.00  0.00     0.039 A 
ATOM     33  C   UNL A   1      42.236  21.184  27.649  1.00  0.00     0.014 A 
ATOM     34  C   UNL A   1      42.498  22.003  25.385  1.00  0.00     0.014 A 
ATOM     35  C   UNL A   1      42.420  22.481  28.136  1.00  0.00     0.010 A 
ATOM     36  C   UNL A   1      42.740  23.286  25.875  1.00  0.00     0.010 A 
ATOM     37  C   UNL A   1      42.702  23.537  27.255  1.00  0.00    -0.014 A 
BRANCH  37  38
ATOM     38  C   UNL A   1      42.971  24.907  27.761  1.00  0.00     0.031 A 
ATOM     39  C   UNL A   1      44.369  25.323  28.125  1.00  0.00     0.074 A 
ATOM     40  C   UNL A   1      41.945  25.761  27.949  1.00  0.00     0.049 A 
ATOM     41  N   UNL A   1      44.787  26.453  28.640  1.00  0.00    -0.248 NA
ATOM     42  C   UNL A   1      45.436  24.334  27.900  1.00  0.00     0.031 C 
ATOM     43  C   UNL A   1      40.538  25.470  27.668  1.00  0.00     0.029 A 
ATOM     44  N   UNL A   1      41.930  27.045  28.433  1.00  0.00    -0.354 N 
ATOM     45  C   UNL A   1      46.156  26.305  28.814  1.00  0.00     0.074 A 
ATOM     46  C   UNL A   1      46.495  24.964  28.387  1.00  0.00     0.031 C 
ATOM     47  C   UNL A   1      39.798  26.551  27.966  1.00  0.00     0.029 A 
ATOM     48  C   UNL A   1      40.672  27.594  28.492  1.00  0.00     0.049 A 
ATOM     49  H   UNL A   1      42.742  27.526  28.710  1.00  0.00     0.167 HD
ATOM     50  C   UNL A   1      47.056  27.208  29.273  1.00  0.00     0.031 A 
ATOM     51  C   UNL A   1      40.265  28.801  28.930  1.00  0.00     0.031 A 
ATOM     52  C   UNL A   1      46.725  28.545  29.689  1.00  0.00     0.049 A 
ATOM     53  C   UNL A   1      41.282  29.781  29.445  1.00  0.00     0.074 A 
ATOM     54  C   UNL A   1      47.575  29.548  30.121  1.00  0.00     0.029 A 
ATOM     55  N   UNL A   1      45.441  29.066  29.723  1.00  0.00    -0.354 N 
ATOM     56  N   UNL A   1      42.581  29.644  29.548  1.00  0.00    -0.248 NA
ATOM     57  C   UNL A   1      40.774  31.086  29.894  1.00  0.00     0.031 C 
ATOM     58  C   UNL A   1      46.802  30.664  30.456  1.00  0.00     0.029 A 
ATOM     59  C   UNL A   1      45.474  30.370  30.187  1.00  0.00     0.049 A 
ATOM     60  H   UNL A   1      44.627  28.581  29.456  1.00  0.00     0.167 HD
ATOM     61  C   UNL A   1      43.049  30.852  30.049  1.00  0.00     0.074 A 
ATOM     62  C   UNL A   1      41.897  31.714  30.215  1.00  0.00     0.031 C 
ATOM     63  C   UNL A   1      44.320  31.215  30.346  1.00  0.00     0.031 A 
BRANCH  50  64
ATOM     64  C   UNL A   1      48.493  26.775  29.353  1.00  0.00    -0.014 A 
ATOM     65  C   UNL A   1      49.006  26.179  30.516  1.00  0.00     0.009 A 
ATOM     66  C   UNL A   1      49.333  26.927  28.239  1.00  0.00     0.009 A 
ATOM     67  C   UNL A   1      50.340  25.771  30.571  1.00  0.00     0.001 A 
ATOM     68  C   UNL A   1      50.659  26.493  28.288  1.00  0.00     0.001 A 
ATOM     69  C   UNL A   1      51.163  25.924  29.457  1.00  0.00     0.000 A 
ENDBRANCH  50  64
BRANCH  51  70
ATOM     70  C   UNL A   1      38.824  29.160  28.893  1.00  0.00    -0.014 A 
ATOM     71  C   UNL A   1      38.028  29.021  30.040  1.00  0.00     0.009 A 
ATOM     72  C   UNL A   1      38.236  29.631  27.709  1.00  0.00     0.009 A 
ATOM     73  C   UNL A   1      36.665  29.320  29.994  1.00  0.00     0.001 A 
ATOM     74  C   UNL A   1      36.878  29.956  27.674  1.00  0.00     0.001 A 
ATOM     75  C   UNL A   1      36.092  29.791  28.814  1.00  0.00     0.000 A 
ENDBRANCH  51  70
BRANCH  63  76
ATOM     76  C   UNL A   1      44.534  32.614  30.848  1.00  0.00    -0.014 A 
ATOM     77  C   UNL A   1      44.754  33.678  29.961  1.00  0.00     0.009 A 
ATOM     78  C   UNL A   1      44.481  32.872  32.226  1.00  0.00     0.009 A 
ATOM     79  C   UNL A   1      44.947  34.973  30.448  1.00  0.00     0.001 A 
ATOM     80  C   UNL A   1      44.648  34.171  32.709  1.00  0.00     0.001 A 
ATOM     81  C   UNL A   1      44.889  35.218  31.820  1.00  0.00     0.000 A 
ENDBRANCH  63  76
ENDBRANCH  37  38
ENDBRANCH  29  32
ENDBRANCH  27  28
ENDBRANCH  26  27
ENDBRANCH  25  26
ENDBRANCH  24  25
ENDBRANCH  23  24
ENDBRANCH   1  23
TORSDOF 19
ENDMDL
MODEL 2
REMARK VINA RESULT:      -9.1      5.202     10.927
REMARK SMILES CC[NH2+]C[C@@H](C)C(=O)N1CCO[C@@H](CC(=O)NCCCCCCNC(=O)c2ccc(-c3c4nc(c(-c5ccccc5)c5ccc([nH]5)c(-c5ccccc5)c5nc(c(-c6ccccc6)c6ccc3[nH]6)C=C5)C=C4)cc2)C1
REMARK SMILES IDX 18 1 17 2 15 3 16 4 14 6 13 7 9 8 10 9 75 10 11 11 12 12
REMARK SMILES IDX 7 13 8 14 5 15 6 16 4 17 3 18 2 21 1 22 19 23 20 24 21 25
REMARK SMILES IDX 22 26 23 27 24 28 25 29 26 31 27 32 28 33 74 34 29 35 73 36
REMARK SMILES IDX 30 37 31 38 32 39 67 40 33 41 72 42 66 43 68 44 34 45 71 46
REMARK SMILES IDX 65 47 64 48 35 50 57 51 42 52 56 53 43 54 46 55 55 56 69 57
REMARK SMILES IDX 44 58 45 59 54 61 70 62 47 63 36 64 37 65 41 66 38 67 40 68
REMARK SMILES IDX 39 69 58 70 59 71 63 72 60 73 62 74 61 75 48 76 49 77 53 78
REMARK SMILES IDX 50 79 52 80 51 81
REMARK H PARENT 17 5 3 19 3 20 24 30 68 49 46 60
REMARK Flexibility Score: inf
ROOT
ATOM      1  C   UNL A   1      44.179  23.424  30.703  1.00  0.00     0.116 C 
ENDROOT
BRANCH   1   2
ATOM      2  N   UNL A   1      43.251  22.655  29.886  1.00  0.00    -0.356 N 
ATOM      3  C   UNL A   1      42.684  22.936  28.678  1.00  0.00     0.222 C 
ATOM      4  O   UNL A   1      41.804  22.183  28.259  1.00  0.00    -0.275 OA
ATOM      5  H   UNL A   1      42.990  21.787  30.269  1.00  0.00     0.163 HD
BRANCH   3   6
ATOM      6  C   UNL A   1      43.106  24.151  27.882  1.00  0.00     0.133 C 
BRANCH   6   7
ATOM      7  C   UNL A   1      44.297  23.866  26.966  1.00  0.00     0.147 C 
ATOM      8  N   UNL A   1      45.030  22.435  25.057  1.00  0.00    -0.337 N 
ATOM      9  C   UNL A   1      45.244  23.643  24.265  1.00  0.00     0.148 C 
ATOM     10  C   UNL A   1      44.044  22.619  26.107  1.00  0.00     0.152 C 
ATOM     11  C   UNL A   1      45.560  24.821  25.187  1.00  0.00     0.182 C 
ATOM     12  O   UNL A   1      44.489  25.026  26.125  1.00  0.00    -0.374 OA
BRANCH   8  13
ATOM     13  C   UNL A   1      45.075  21.172  24.485  1.00  0.00     0.231 C 
ATOM     14  O   UNL A   1      44.504  20.922  23.422  1.00  0.00    -0.274 OA
BRANCH  13  15
ATOM     15  C   UNL A   1      45.674  20.056  25.342  1.00  0.00     0.130 C 
ATOM     16  C   UNL A   1      46.969  19.546  24.706  1.00  0.00     0.024 C 
BRANCH  15  17
ATOM     17  C   UNL A   1      44.667  18.946  25.651  1.00  0.00     0.273 C 
BRANCH  17  18
ATOM     18  N   UNL A   1      43.449  19.353  26.358  1.00  0.00    -0.346 N 
ATOM     19  H   UNL A   1      43.597  19.217  27.359  1.00  0.00     0.346 HD
ATOM     20  H   UNL A   1      43.277  20.329  26.119  1.00  0.00     0.346 HD
BRANCH  18  21
ATOM     21  C   UNL A   1      42.262  18.602  25.963  1.00  0.00     0.257 C 
ATOM     22  C   UNL A   1      41.043  19.502  26.095  1.00  0.00     0.071 C 
ENDBRANCH  18  21
ENDBRANCH  17  18
ENDBRANCH  15  17
ENDBRANCH  13  15
ENDBRANCH   8  13
ENDBRANCH   6   7
ENDBRANCH   3   6
ENDBRANCH   1   2
BRANCH   1  23
ATOM     23  C   UNL A   1      43.902  23.197  32.194  1.00  0.00     0.021 C 
BRANCH  23  24
ATOM     24  C   UNL A   1      44.349  24.340  33.105  1.00  0.00     0.002 C 
BRANCH  24  25
ATOM     25  C   UNL A   1      45.835  24.694  33.012  1.00  0.00     0.002 C 
BRANCH  25  26
ATOM     26  C   UNL A   1      46.720  24.152  34.141  1.00  0.00     0.021 C 
BRANCH  26  27
ATOM     27  C   UNL A   1      47.835  25.088  34.610  1.00  0.00     0.116 C 
BRANCH  27  28
ATOM     28  N   UNL A   1      47.670  25.484  36.000  1.00  0.00    -0.352 N 
ATOM     29  C   UNL A   1      46.831  26.414  36.560  1.00  0.00     0.251 C 
ATOM     30  H   UNL A   1      48.251  25.011  36.638  1.00  0.00     0.163 HD
ATOM     31  O   UNL A   1      46.981  26.750  37.730  1.00  0.00    -0.269 OA
BRANCH  29  32
ATOM     32  C   UNL A   1      45.751  27.029  35.758  1.00  0.00     0.039 A 
ATOM     33  C   UNL A   1      44.441  26.576  35.934  1.00  0.00     0.014 A 
ATOM     34  C   UNL A   1      46.028  28.017  34.809  1.00  0.00     0.014 A 
ATOM     35  C   UNL A   1      43.400  27.156  35.203  1.00  0.00     0.010 A 
ATOM     36  C   UNL A   1      44.983  28.636  34.124  1.00  0.00     0.010 A 
ATOM     37  C   UNL A   1      43.660  28.211  34.314  1.00  0.00    -0.014 A 
BRANCH  37  38
ATOM     38  C   UNL A   1      42.558  28.886  33.582  1.00  0.00     0.031 A 
ATOM     39  C   UNL A   1      41.747  29.960  34.252  1.00  0.00     0.074 A 
ATOM     40  C   UNL A   1      42.247  28.490  32.332  1.00  0.00     0.049 A 
ATOM     41  N   UNL A   1      40.710  30.618  33.795  1.00  0.00    -0.248 NA
ATOM     42  C   UNL A   1      42.140  30.333  35.621  1.00  0.00     0.031 C 
ATOM     43  C   UNL A   1      42.934  27.437  31.581  1.00  0.00     0.029 A 
ATOM     44  N   UNL A   1      41.266  28.924  31.476  1.00  0.00    -0.354 N 
ATOM     45  C   UNL A   1      40.318  31.466  34.823  1.00  0.00     0.074 A 
ATOM     46  C   UNL A   1      41.203  31.215  35.940  1.00  0.00     0.031 C 
ATOM     47  C   UNL A   1      42.364  27.319  30.371  1.00  0.00     0.029 A 
ATOM     48  C   UNL A   1      41.253  28.259  30.274  1.00  0.00     0.049 A 
ATOM     49  H   UNL A   1      40.633  29.643  31.703  1.00  0.00     0.167 HD
ATOM     50  C   UNL A   1      39.322  32.384  34.832  1.00  0.00     0.031 A 
ATOM     51  C   UNL A   1      40.433  28.388  29.214  1.00  0.00     0.031 A 
ATOM     52  C   UNL A   1      38.447  32.644  33.720  1.00  0.00     0.049 A 
ATOM     53  C   UNL A   1      39.328  29.406  29.253  1.00  0.00     0.074 A 
ATOM     54  C   UNL A   1      37.440  33.590  33.618  1.00  0.00     0.029 A 
ATOM     55  N   UNL A   1      38.474  31.958  32.517  1.00  0.00    -0.354 N 
ATOM     56  N   UNL A   1      39.009  30.240  30.212  1.00  0.00    -0.248 NA
ATOM     57  C   UNL A   1      38.477  29.505  28.058  1.00  0.00     0.031 C 
ATOM     58  C   UNL A   1      36.831  33.448  32.367  1.00  0.00     0.029 A 
ATOM     59  C   UNL A   1      37.490  32.446  31.674  1.00  0.00     0.049 A 
ATOM     60  H   UNL A   1      39.100  31.231  32.294  1.00  0.00     0.167 HD
ATOM     61  C   UNL A   1      37.938  30.980  29.727  1.00  0.00     0.074 A 
ATOM     62  C   UNL A   1      37.672  30.507  28.386  1.00  0.00     0.031 C 
ATOM     63  C   UNL A   1      37.238  31.964  30.341  1.00  0.00     0.031 A 
BRANCH  50  64
ATOM     64  C   UNL A   1      39.123  33.177  36.092  1.00  0.00    -0.014 A 
ATOM     65  C   UNL A   1      39.784  34.400  36.291  1.00  0.00     0.009 A 
ATOM     66  C   UNL A   1      38.231  32.719  37.075  1.00  0.00     0.009 A 
ATOM     67  C   UNL A   1      39.579  35.132  37.463  1.00  0.00     0.001 A 
ATOM     68  C   UNL A   1      38.008  33.466  38.233  1.00  0.00     0.001 A 
ATOM     69  C   UNL A   1      38.689  34.667  38.429  1.00  0.00     0.000 A 
ENDBRANCH  50  64
BRANCH  51  70
ATOM     70  C   UNL A   1      40.628  27.535  28.014  1.00  0.00    -0.014 A 
ATOM     71  C   UNL A   1      41.489  27.943  26.984  1.00  0.00     0.009 A 
ATOM     72  C   UNL A   1      39.947  26.315  27.886  1.00  0.00     0.009 A 
ATOM     73  C   UNL A   1      41.642  27.160  25.838  1.00  0.00     0.001 A 
ATOM     74  C   UNL A   1      40.122  25.520  26.751  1.00  0.00     0.001 A 
ATOM     75  C   UNL A   1      40.963  25.948  25.724  1.00  0.00     0.000 A 
ENDBRANCH  51  70
BRANCH  63  76
ATOM     76  C   UNL A   1      36.139  32.617  29.552  1.00  0.00    -0.014 A 
ATOM     77  C   UNL A   1      34.877  32.016  29.430  1.00  0.00     0.009 A 
ATOM     78  C   UNL A   1      36.361  33.867  28.954  1.00  0.00     0.009 A 
ATOM     79  C   UNL A   1      33.867  32.641  28.697  1.00  0.00     0.001 A 
ATOM     80  C   UNL A   1      35.342  34.502  28.243  1.00  0.00     0.001 A 
ATOM     81  C   UNL A   1      34.099  33.885  28.109  1.00  0.00     0.000 A 
ENDBRANCH  63  76
ENDBRANCH  37  38
ENDBRANCH  29  32
ENDBRANCH  27  28
ENDBRANCH  26  27
ENDBRANCH  25  26
ENDBRANCH  24  25
ENDBRANCH  23  24
ENDBRANCH   1  23
TORSDOF 19
ENDMDL
MODEL 3
REMARK VINA RESULT:      -9.0      1.751      6.305
REMARK SMILES CC[NH2+]C[C@@H](C)C(=O)N1CCO[C@@H](CC(=O)NCCCCCCNC(=O)c2ccc(-c3c4nc(c(-c5ccccc5)c5ccc([nH]5)c(-c5ccccc5)c5nc(c(-c6ccccc6)c6ccc3[nH]6)C=C5)C=C4)cc2)C1
REMARK SMILES IDX 18 1 17 2 15 3 16 4 14 6 13 7 9 8 10 9 75 10 11 11 12 12
REMARK SMILES IDX 7 13 8 14 5 15 6 16 4 17 3 18 2 21 1 22 19 23 20 24 21 25
REMARK SMILES IDX 22 26 23 27 24 28 25 29 26 31 27 32 28 33 74 34 29 35 73 36
REMARK SMILES IDX 30 37 31 38 32 39 67 40 33 41 72 42 66 43 68 44 34 45 71 46
REMARK SMILES IDX 65 47 64 48 35 50 57 51 42 52 56 53 43 54 46 55 55 56 69 57
REMARK SMILES IDX 44 58 45 59 54 61 70 62 47 63 36 64 37 65 41 66 38 67 40 68
REMARK SMILES IDX 39 69 58 70 59 71 63 72 60 73 62 74 61 75 48 76 49 77 53 78
REMARK SMILES IDX 50 79 52 80 51 81
REMARK H PARENT 17 5 3 19 3 20 24 30 68 49 46 60
REMARK Flexibility Score: inf
ROOT
ATOM      1  C   UNL A   1      37.058  23.995  25.595  1.00  0.00     0.116 C 
ENDROOT
BRANCH   1   2
ATOM      2  N   UNL A   1      36.667  22.608  25.385  1.00  0.00    -0.356 N 
ATOM      3  C   UNL A   1      35.632  21.886  25.902  1.00  0.00     0.222 C 
ATOM      4  O   UNL A   1      35.602  20.674  25.685  1.00  0.00    -0.275 OA
ATOM      5  H   UNL A   1      37.247  22.108  24.767  1.00  0.00     0.163 HD
BRANCH   3   6
ATOM      6  C   UNL A   1      34.559  22.549  26.736  1.00  0.00     0.133 C 
BRANCH   6   7
ATOM      7  C   UNL A   1      33.379  23.036  25.894  1.00  0.00     0.147 C 
ATOM      8  N   UNL A   1      32.016  25.062  25.377  1.00  0.00    -0.337 N 
ATOM      9  C   UNL A   1      32.430  24.955  23.981  1.00  0.00     0.148 C 
ATOM     10  C   UNL A   1      32.969  24.460  26.293  1.00  0.00     0.152 C 
ATOM     11  C   UNL A   1      32.751  23.498  23.643  1.00  0.00     0.182 C 
ATOM     12  O   UNL A   1      33.787  22.999  24.507  1.00  0.00    -0.374 OA
BRANCH   8  13
ATOM     13  C   UNL A   1      31.342  26.176  25.853  1.00  0.00     0.231 C 
ATOM     14  O   UNL A   1      30.114  26.262  25.801  1.00  0.00    -0.274 OA
BRANCH  13  15
ATOM     15  C   UNL A   1      32.202  27.381  26.236  1.00  0.00     0.130 C 
ATOM     16  C   UNL A   1      31.664  28.022  27.517  1.00  0.00     0.024 C 
BRANCH  15  17
ATOM     17  C   UNL A   1      32.375  28.373  25.083  1.00  0.00     0.273 C 
BRANCH  17  18
ATOM     18  N   UNL A   1      31.152  29.006  24.582  1.00  0.00    -0.346 N 
ATOM     19  H   UNL A   1      30.350  28.526  24.991  1.00  0.00     0.346 HD
ATOM     20  H   UNL A   1      31.195  29.989  24.847  1.00  0.00     0.346 HD
BRANCH  18  21
ATOM     21  C   UNL A   1      31.022  28.963  23.129  1.00  0.00     0.257 C 
ATOM     22  C   UNL A   1      29.991  27.908  22.757  1.00  0.00     0.071 C 
ENDBRANCH  18  21
ENDBRANCH  17  18
ENDBRANCH  15  17
ENDBRANCH  13  15
ENDBRANCH   8  13
ENDBRANCH   6   7
ENDBRANCH   3   6
ENDBRANCH   1   2
BRANCH   1  23
ATOM     23  C   UNL A   1      38.055  24.106  26.754  1.00  0.00     0.021 C 
BRANCH  23  24
ATOM     24  C   UNL A   1      39.477  23.660  26.414  1.00  0.00     0.002 C 
BRANCH  24  25
ATOM     25  C   UNL A   1      39.979  22.450  27.206  1.00  0.00     0.002 C 
BRANCH  25  26
ATOM     26  C   UNL A   1      40.284  21.194  26.381  1.00  0.00     0.021 C 
BRANCH  26  27
ATOM     27  C   UNL A   1      41.354  20.270  26.962  1.00  0.00     0.116 C 
BRANCH  27  28
ATOM     28  N   UNL A   1      42.504  20.141  26.080  1.00  0.00    -0.352 N 
ATOM     29  C   UNL A   1      43.384  21.092  25.630  1.00  0.00     0.251 C 
ATOM     30  H   UNL A   1      42.678  19.228  25.756  1.00  0.00     0.163 HD
ATOM     31  O   UNL A   1      44.172  20.823  24.729  1.00  0.00    -0.269 OA
BRANCH  29  32
ATOM     32  C   UNL A   1      43.382  22.452  26.214  1.00  0.00     0.039 A 
ATOM     33  C   UNL A   1      43.603  22.594  27.586  1.00  0.00     0.014 A 
ATOM     34  C   UNL A   1      43.123  23.576  25.425  1.00  0.00     0.014 A 
ATOM     35  C   UNL A   1      43.626  23.870  28.158  1.00  0.00     0.010 A 
ATOM     36  C   UNL A   1      43.205  24.851  25.985  1.00  0.00     0.010 A 
ATOM     37  C   UNL A   1      43.456  25.010  27.356  1.00  0.00    -0.014 A 
BRANCH  37  38
ATOM     38  C   UNL A   1      43.548  26.375  27.933  1.00  0.00     0.031 A 
ATOM     39  C   UNL A   1      42.301  27.158  28.237  1.00  0.00     0.074 A 
ATOM     40  C   UNL A   1      44.758  26.935  28.129  1.00  0.00     0.049 A 
ATOM     41  N   UNL A   1      42.184  28.384  28.684  1.00  0.00    -0.248 NA
ATOM     42  C   UNL A   1      41.016  26.483  27.990  1.00  0.00     0.031 C 
ATOM     43  C   UNL A   1      46.044  26.296  27.844  1.00  0.00     0.029 A 
ATOM     44  N   UNL A   1      45.101  28.175  28.606  1.00  0.00    -0.354 N 
ATOM     45  C   UNL A   1      40.819  28.631  28.755  1.00  0.00     0.074 A 
ATOM     46  C   UNL A   1      40.148  27.445  28.270  1.00  0.00     0.031 C 
ATOM     47  C   UNL A   1      47.036  27.141  28.169  1.00  0.00     0.029 A 
ATOM     48  C   UNL A   1      46.457  28.391  28.649  1.00  0.00     0.049 A 
ATOM     49  H   UNL A   1      44.438  28.845  28.891  1.00  0.00     0.167 HD
ATOM     50  C   UNL A   1      40.180  29.740  29.200  1.00  0.00     0.031 A 
ATOM     51  C   UNL A   1      47.156  29.478  29.026  1.00  0.00     0.031 A 
ATOM     52  C   UNL A   1      40.843  30.917  29.693  1.00  0.00     0.049 A 
ATOM     53  C   UNL A   1      46.423  30.700  29.504  1.00  0.00     0.074 A 
ATOM     54  C   UNL A   1      40.280  32.071  30.211  1.00  0.00     0.029 A 
ATOM     55  N   UNL A   1      42.217  31.091  29.730  1.00  0.00    -0.354 N 
ATOM     56  N   UNL A   1      45.132  30.895  29.619  1.00  0.00    -0.248 NA
ATOM     57  C   UNL A   1      47.246  31.847  29.914  1.00  0.00     0.031 C 
ATOM     58  C   UNL A   1      41.312  32.961  30.524  1.00  0.00     0.029 A 
ATOM     59  C   UNL A   1      42.520  32.341  30.245  1.00  0.00     0.049 A 
ATOM     60  H   UNL A   1      42.880  30.426  29.435  1.00  0.00     0.167 HD
ATOM     61  C   UNL A   1      44.989  32.176  30.137  1.00  0.00     0.074 A 
ATOM     62  C   UNL A   1      46.323  32.704  30.328  1.00  0.00     0.031 C 
ATOM     63  C   UNL A   1      43.853  32.853  30.429  1.00  0.00     0.031 A 
BRANCH  50  64
ATOM     64  C   UNL A   1      38.678  29.732  29.169  1.00  0.00    -0.014 A 
ATOM     65  C   UNL A   1      37.976  30.003  27.984  1.00  0.00     0.009 A 
ATOM     66  C   UNL A   1      37.955  29.409  30.328  1.00  0.00     0.009 A 
ATOM     67  C   UNL A   1      36.580  29.981  27.969  1.00  0.00     0.001 A 
ATOM     68  C   UNL A   1      36.560  29.360  30.303  1.00  0.00     0.001 A 
ATOM     69  C   UNL A   1      35.874  29.655  29.125  1.00  0.00     0.000 A 
ENDBRANCH  50  64
BRANCH  51  70
ATOM     70  C   UNL A   1      48.641  29.462  28.976  1.00  0.00    -0.014 A 
ATOM     71  C   UNL A   1      49.317  29.868  27.816  1.00  0.00     0.009 A 
ATOM     72  C   UNL A   1      49.388  29.031  30.083  1.00  0.00     0.009 A 
ATOM     73  C   UNL A   1      50.711  29.814  27.755  1.00  0.00     0.001 A 
ATOM     74  C   UNL A   1      50.783  29.004  30.029  1.00  0.00     0.001 A 
ATOM     75  C   UNL A   1      51.443  29.387  28.862  1.00  0.00     0.000 A 
ENDBRANCH  51  70
BRANCH  63  76
ATOM     76  C   UNL A   1      44.005  34.227  31.016  1.00  0.00    -0.014 A 
ATOM     77  C   UNL A   1      44.031  35.367  30.199  1.00  0.00     0.009 A 
ATOM     78  C   UNL A   1      44.088  34.381  32.408  1.00  0.00     0.009 A 
ATOM     79  C   UNL A   1      44.168  36.636  30.766  1.00  0.00     0.001 A 
ATOM     80  C   UNL A   1      44.200  35.652  32.974  1.00  0.00     0.001 A 
ATOM     81  C   UNL A   1      44.247  36.777  32.151  1.00  0.00     0.000 A 
ENDBRANCH  63  76
ENDBRANCH  37  38
ENDBRANCH  29  32
ENDBRANCH  27  28
ENDBRANCH  26  27
ENDBRANCH  25  26
ENDBRANCH  24  25
ENDBRANCH  23  24
ENDBRANCH   1  23
TORSDOF 19
ENDMDL
