MODEL 1
REMARK VINA RESULT:     -10.6      0.000      0.000
REMARK SMILES CCC(CC)(NC(=O)Nc1cc(Cl)cc(Cl)c1)C(=O)NCCCCCCNC(=O)c1ccc(-c2c3nc(c(-c4ccccc4)c4ccc([nH]4)c(-c4ccccc4)c4nc(c(-c5ccccc5)c5ccc2[nH]5)C=C4)C=C3)cc1
REMARK SMILES IDX 23 1 22 2 21 3 20 4 18 5 19 6 3 8 2 9 1 10 4 11 5 12 6 13
REMARK SMILES IDX 7 14 8 16 9 17 10 19 11 20 17 21 12 22 15 23 13 24 14 25
REMARK SMILES IDX 16 26 24 27 25 28 26 29 27 30 28 31 29 33 30 34 31 35 77 36
REMARK SMILES IDX 32 37 76 38 33 39 34 40 35 41 70 42 36 43 75 44 69 45 71 46
REMARK SMILES IDX 37 47 74 48 68 49 67 50 38 52 60 53 45 54 59 55 46 56 49 57
REMARK SMILES IDX 58 58 72 59 47 60 48 61 57 63 73 64 50 65 39 66 40 67 44 68
REMARK SMILES IDX 41 69 43 70 42 71 61 72 62 73 66 74 63 75 65 76 64 77 51 78
REMARK SMILES IDX 52 79 56 80 53 81 55 82 54 83
REMARK H PARENT 20 7 6 15 9 18 27 32 71 51 49 62
REMARK Flexibility Score: inf
ROOT
ATOM      1  C   UNL A   1      37.527  23.096  25.834  1.00  0.00     0.002 C 
ENDROOT
BRANCH   1   2
ATOM      2  C   UNL A   1      37.003  22.935  24.396  1.00  0.00     0.021 C 
BRANCH   2   3
ATOM      3  C   UNL A   1      35.593  22.329  24.235  1.00  0.00     0.116 C 
BRANCH   3   4
ATOM      4  N   UNL A   1      34.989  22.058  25.533  1.00  0.00    -0.354 N 
ATOM      5  C   UNL A   1      33.658  21.920  25.917  1.00  0.00     0.245 C 
ATOM      6  O   UNL A   1      33.241  20.883  26.424  1.00  0.00    -0.272 OA
ATOM      7  H   UNL A   1      35.635  21.956  26.268  1.00  0.00     0.163 HD
BRANCH   5   8
ATOM      8  C   UNL A   1      32.750  23.119  25.571  1.00  0.00     0.120 C 
BRANCH   8   9
ATOM      9  C   UNL A   1      32.358  23.489  24.126  1.00  0.00     0.035 C 
ATOM     10  C   UNL A   1      32.160  22.376  23.123  1.00  0.00     0.007 C 
ENDBRANCH   8   9
BRANCH   8  11
ATOM     11  C   UNL A   1      33.679  24.230  26.209  1.00  0.00     0.035 C 
ATOM     12  C   UNL A   1      34.178  25.431  25.434  1.00  0.00     0.007 C 
ENDBRANCH   8  11
BRANCH   8  13
ATOM     13  N   UNL A   1      31.470  22.816  26.266  1.00  0.00    -0.323 N 
ATOM     14  C   UNL A   1      30.478  23.577  26.774  1.00  0.00     0.320 C 
ATOM     15  H   UNL A   1      31.313  21.852  26.381  1.00  0.00     0.166 HD
ATOM     16  O   UNL A   1      29.681  22.981  27.510  1.00  0.00    -0.248 OA
ATOM     17  N   UNL A   1      30.242  24.901  26.617  1.00  0.00    -0.308 N 
ATOM     18  H   UNL A   1      29.491  25.141  27.206  1.00  0.00     0.171 HD
BRANCH  17  19
ATOM     19  C   UNL A   1      30.652  26.083  25.936  1.00  0.00     0.045 A 
ATOM     20  C   UNL A   1      30.370  26.484  24.627  1.00  0.00     0.046 A 
ATOM     21  C   UNL A   1      31.261  27.057  26.734  1.00  0.00     0.046 A 
ATOM     22  C   UNL A   1      30.924  27.639  24.055  1.00  0.00     0.044 A 
ATOM     23  C   UNL A   1      31.767  28.246  26.183  1.00  0.00     0.044 A 
ATOM     24  Cl  UNL A   1      30.645  27.990  22.390  1.00  0.00    -0.084 Cl
ATOM     25  C   UNL A   1      31.661  28.513  24.826  1.00  0.00     0.041 A 
ATOM     26  Cl  UNL A   1      32.528  29.400  27.206  1.00  0.00    -0.084 Cl
ENDBRANCH  17  19
ENDBRANCH   8  13
ENDBRANCH   5   8
ENDBRANCH   3   4
ENDBRANCH   2   3
ENDBRANCH   1   2
BRANCH   1  27
ATOM     27  C   UNL A   1      38.874  22.430  26.113  1.00  0.00     0.002 C 
BRANCH  27  28
ATOM     28  C   UNL A   1      39.053  21.080  25.429  1.00  0.00     0.021 C 
BRANCH  28  29
ATOM     29  C   UNL A   1      39.473  19.958  26.365  1.00  0.00     0.116 C 
BRANCH  29  30
ATOM     30  N   UNL A   1      40.645  19.245  25.893  1.00  0.00    -0.352 N 
ATOM     31  C   UNL A   1      41.941  19.704  25.821  1.00  0.00     0.251 C 
ATOM     32  H   UNL A   1      40.495  18.321  25.586  1.00  0.00     0.163 HD
ATOM     33  O   UNL A   1      42.806  19.058  25.257  1.00  0.00    -0.269 OA
BRANCH  31  34
ATOM     34  C   UNL A   1      42.258  21.022  26.417  1.00  0.00     0.039 A 
ATOM     35  C   UNL A   1      42.575  22.084  25.570  1.00  0.00     0.014 A 
ATOM     36  C   UNL A   1      42.203  21.212  27.801  1.00  0.00     0.014 A 
ATOM     37  C   UNL A   1      42.795  23.352  26.110  1.00  0.00     0.010 A 
ATOM     38  C   UNL A   1      42.332  22.493  28.328  1.00  0.00     0.010 A 
ATOM     39  C   UNL A   1      42.649  23.574  27.491  1.00  0.00    -0.014 A 
BRANCH  39  40
ATOM     40  C   UNL A   1      42.870  24.919  28.078  1.00  0.00     0.031 A 
ATOM     41  C   UNL A   1      44.249  25.326  28.526  1.00  0.00     0.074 A 
ATOM     42  C   UNL A   1      41.833  25.767  28.234  1.00  0.00     0.049 A 
ATOM     43  N   UNL A   1      44.641  26.443  29.085  1.00  0.00    -0.248 NA
ATOM     44  C   UNL A   1      45.327  24.338  28.342  1.00  0.00     0.031 C 
ATOM     45  C   UNL A   1      40.442  25.483  27.877  1.00  0.00     0.029 A 
ATOM     46  N   UNL A   1      41.792  27.044  28.735  1.00  0.00    -0.354 N 
ATOM     47  C   UNL A   1      46.002  26.290  29.316  1.00  0.00     0.074 A 
ATOM     48  C   UNL A   1      46.355  24.949  28.909  1.00  0.00     0.031 C 
ATOM     49  C   UNL A   1      39.690  26.565  28.142  1.00  0.00     0.029 A 
ATOM     50  C   UNL A   1      40.536  27.602  28.723  1.00  0.00     0.049 A 
ATOM     51  H   UNL A   1      42.589  27.516  29.071  1.00  0.00     0.167 HD
ATOM     52  C   UNL A   1      46.890  27.194  29.794  1.00  0.00     0.031 A 
ATOM     53  C   UNL A   1      40.114  28.812  29.140  1.00  0.00     0.031 A 
ATOM     54  C   UNL A   1      46.545  28.529  30.201  1.00  0.00     0.049 A 
ATOM     55  C   UNL A   1      41.118  29.786  29.697  1.00  0.00     0.074 A 
ATOM     56  C   UNL A   1      47.375  29.526  30.682  1.00  0.00     0.029 A 
ATOM     57  N   UNL A   1      45.263  29.056  30.166  1.00  0.00    -0.354 N 
ATOM     58  N   UNL A   1      42.411  29.642  29.861  1.00  0.00    -0.248 NA
ATOM     59  C   UNL A   1      40.603  31.100  30.107  1.00  0.00     0.031 C 
ATOM     60  C   UNL A   1      46.588  30.641  30.985  1.00  0.00     0.029 A 
ATOM     61  C   UNL A   1      45.279  30.360  30.628  1.00  0.00     0.049 A 
ATOM     62  H   UNL A   1      44.462  28.573  29.861  1.00  0.00     0.167 HD
ATOM     63  C   UNL A   1      42.868  30.859  30.353  1.00  0.00     0.074 A 
ATOM     64  C   UNL A   1      41.717  31.733  30.442  1.00  0.00     0.031 C 
ATOM     65  C   UNL A   1      44.128  31.222  30.698  1.00  0.00     0.031 A 
BRANCH  52  66
ATOM     66  C   UNL A   1      48.330  26.765  29.889  1.00  0.00    -0.014 A 
ATOM     67  C   UNL A   1      49.229  27.018  28.839  1.00  0.00     0.009 A 
ATOM     68  C   UNL A   1      48.803  26.139  31.051  1.00  0.00     0.009 A 
ATOM     69  C   UNL A   1      50.563  26.621  28.938  1.00  0.00     0.001 A 
ATOM     70  C   UNL A   1      50.147  25.772  31.160  1.00  0.00     0.001 A 
ATOM     71  C   UNL A   1      51.023  26.005  30.101  1.00  0.00     0.000 A 
ENDBRANCH  52  66
BRANCH  53  72
ATOM     72  C   UNL A   1      38.676  29.183  29.046  1.00  0.00    -0.014 A 
ATOM     73  C   UNL A   1      38.148  29.724  27.863  1.00  0.00     0.009 A 
ATOM     74  C   UNL A   1      37.832  29.042  30.159  1.00  0.00     0.009 A 
ATOM     75  C   UNL A   1      36.821  30.161  27.812  1.00  0.00     0.001 A 
ATOM     76  C   UNL A   1      36.497  29.446  30.095  1.00  0.00     0.001 A 
ATOM     77  C   UNL A   1      35.997  30.019  28.927  1.00  0.00     0.000 A 
ENDBRANCH  53  72
BRANCH  65  78
ATOM     78  C   UNL A   1      44.337  32.645  31.140  1.00  0.00    -0.014 A 
ATOM     79  C   UNL A   1      44.280  33.013  32.493  1.00  0.00     0.009 A 
ATOM     80  C   UNL A   1      44.620  33.628  30.180  1.00  0.00     0.009 A 
ATOM     81  C   UNL A   1      44.456  34.347  32.869  1.00  0.00     0.001 A 
ATOM     82  C   UNL A   1      44.830  34.954  30.561  1.00  0.00     0.001 A 
ATOM     83  C   UNL A   1      44.733  35.315  31.904  1.00  0.00     0.000 A 
ENDBRANCH  65  78
ENDBRANCH  39  40
ENDBRANCH  31  34
ENDBRANCH  29  30
ENDBRANCH  28  29
ENDBRANCH  27  28
ENDBRANCH   1  27
TORSDOF 17
ENDMDL
MODEL 2
REMARK VINA RESULT:     -10.5      0.979      6.104
REMARK SMILES CCC(CC)(NC(=O)Nc1cc(Cl)cc(Cl)c1)C(=O)NCCCCCCNC(=O)c1ccc(-c2c3nc(c(-c4ccccc4)c4ccc([nH]4)c(-c4ccccc4)c4nc(c(-c5ccccc5)c5ccc2[nH]5)C=C4)C=C3)cc1
REMARK SMILES IDX 23 1 22 2 21 3 20 4 18 5 19 6 3 8 2 9 1 10 4 11 5 12 6 13
REMARK SMILES IDX 7 14 8 16 9 17 10 19 11 20 17 21 12 22 15 23 13 24 14 25
REMARK SMILES IDX 16 26 24 27 25 28 26 29 27 30 28 31 29 33 30 34 31 35 77 36
REMARK SMILES IDX 32 37 76 38 33 39 34 40 35 41 70 42 36 43 75 44 69 45 71 46
REMARK SMILES IDX 37 47 74 48 68 49 67 50 38 52 60 53 45 54 59 55 46 56 49 57
REMARK SMILES IDX 58 58 72 59 47 60 48 61 57 63 73 64 50 65 39 66 40 67 44 68
REMARK SMILES IDX 41 69 43 70 42 71 61 72 62 73 66 74 63 75 65 76 64 77 51 78
REMARK SMILES IDX 52 79 56 80 53 81 55 82 54 83
REMARK H PARENT 20 7 6 15 9 18 27 32 71 51 49 62
REMARK Flexibility Score: inf
ROOT
ATOM      1  C   UNL A   1      36.196  22.212  23.991  1.00  0.00     0.002 C 
ENDROOT
BRANCH   1   2
ATOM      2  C   UNL A   1      35.909  23.586  24.624  1.00  0.00     0.021 C 
BRANCH   2   3
ATOM      3  C   UNL A   1      34.496  24.168  24.408  1.00  0.00     0.116 C 
BRANCH   3   4
ATOM      4  N   UNL A   1      33.574  23.142  23.941  1.00  0.00    -0.354 N 
ATOM      5  C   UNL A   1      32.370  22.680  24.465  1.00  0.00     0.245 C 
ATOM      6  O   UNL A   1      31.323  22.750  23.829  1.00  0.00    -0.272 OA
ATOM      7  H   UNL A   1      33.850  22.697  23.108  1.00  0.00     0.163 HD
BRANCH   5   8
ATOM      8  C   UNL A   1      32.445  22.170  25.920  1.00  0.00     0.120 C 
BRANCH   8   9
ATOM      9  C   UNL A   1      33.136  22.955  27.053  1.00  0.00     0.035 C 
ATOM     10  C   UNL A   1      34.286  22.304  27.786  1.00  0.00     0.007 C 
ENDBRANCH   8   9
BRANCH   8  11
ATOM     11  C   UNL A   1      33.229  20.833  25.596  1.00  0.00     0.035 C 
ATOM     12  C   UNL A   1      32.586  19.647  24.912  1.00  0.00     0.007 C 
ENDBRANCH   8  11
BRANCH   8  13
ATOM     13  N   UNL A   1      31.021  22.044  26.333  1.00  0.00    -0.323 N 
ATOM     14  C   UNL A   1      30.061  22.931  26.666  1.00  0.00     0.320 C 
ATOM     15  H   UNL A   1      30.713  21.110  26.373  1.00  0.00     0.166 HD
ATOM     16  O   UNL A   1      29.056  22.444  27.202  1.00  0.00    -0.248 OA
ATOM     17  N   UNL A   1      30.046  24.277  26.523  1.00  0.00    -0.308 N 
ATOM     18  H   UNL A   1      29.231  24.613  26.961  1.00  0.00     0.171 HD
BRANCH  17  19
ATOM     19  C   UNL A   1      30.744  25.398  25.989  1.00  0.00     0.045 A 
ATOM     20  C   UNL A   1      31.935  25.982  26.429  1.00  0.00     0.046 A 
ATOM     21  C   UNL A   1      30.278  25.865  24.754  1.00  0.00     0.046 A 
ATOM     22  C   UNL A   1      32.461  27.149  25.856  1.00  0.00     0.044 A 
ATOM     23  C   UNL A   1      30.835  26.998  24.140  1.00  0.00     0.044 A 
ATOM     24  Cl  UNL A   1      33.856  27.890  26.547  1.00  0.00    -0.084 Cl
ATOM     25  C   UNL A   1      31.888  27.688  24.724  1.00  0.00     0.041 A 
ATOM     26  Cl  UNL A   1      30.210  27.543  22.633  1.00  0.00    -0.084 Cl
ENDBRANCH  17  19
ENDBRANCH   8  13
ENDBRANCH   5   8
ENDBRANCH   3   4
ENDBRANCH   2   3
ENDBRANCH   1   2
BRANCH   1  27
ATOM     27  C   UNL A   1      36.429  21.076  24.985  1.00  0.00     0.002 C 
BRANCH  27  28
ATOM     28  C   UNL A   1      37.707  20.284  24.736  1.00  0.00     0.021 C 
BRANCH  28  29
ATOM     29  C   UNL A   1      38.821  20.573  25.729  1.00  0.00     0.116 C 
BRANCH  29  30
ATOM     30  N   UNL A   1      39.824  19.525  25.764  1.00  0.00    -0.352 N 
ATOM     31  C   UNL A   1      41.155  19.640  26.098  1.00  0.00     0.251 C 
ATOM     32  H   UNL A   1      39.515  18.623  25.518  1.00  0.00     0.163 HD
ATOM     33  O   UNL A   1      41.926  18.712  25.935  1.00  0.00    -0.269 OA
BRANCH  31  34
ATOM     34  C   UNL A   1      41.640  20.933  26.632  1.00  0.00     0.039 A 
ATOM     35  C   UNL A   1      42.137  21.884  25.740  1.00  0.00     0.014 A 
ATOM     36  C   UNL A   1      41.565  21.215  28.000  1.00  0.00     0.014 A 
ATOM     37  C   UNL A   1      42.521  23.138  26.217  1.00  0.00     0.010 A 
ATOM     38  C   UNL A   1      41.862  22.494  28.458  1.00  0.00     0.010 A 
ATOM     39  C   UNL A   1      42.362  23.464  27.576  1.00  0.00    -0.014 A 
BRANCH  39  40
ATOM     40  C   UNL A   1      42.757  24.798  28.095  1.00  0.00     0.031 A 
ATOM     41  C   UNL A   1      41.713  25.867  28.284  1.00  0.00     0.074 A 
ATOM     42  C   UNL A   1      44.050  25.061  28.370  1.00  0.00     0.049 A 
ATOM     43  N   UNL A   1      41.859  27.101  28.699  1.00  0.00    -0.248 NA
ATOM     44  C   UNL A   1      40.325  25.512  27.942  1.00  0.00     0.031 C 
ATOM     45  C   UNL A   1      45.164  24.127  28.195  1.00  0.00     0.029 A 
ATOM     46  N   UNL A   1      44.645  26.198  28.858  1.00  0.00    -0.354 N 
ATOM     47  C   UNL A   1      40.588  27.661  28.666  1.00  0.00     0.074 A 
ATOM     48  C   UNL A   1      39.697  26.663  28.122  1.00  0.00     0.031 C 
ATOM     49  C   UNL A   1      46.301  24.718  28.599  1.00  0.00     0.029 A 
ATOM     50  C   UNL A   1      46.005  26.083  29.023  1.00  0.00     0.049 A 
ATOM     51  H   UNL A   1      44.143  27.019  29.071  1.00  0.00     0.167 HD
ATOM     52  C   UNL A   1      40.188  28.886  29.082  1.00  0.00     0.031 A 
ATOM     53  C   UNL A   1      46.910  26.979  29.460  1.00  0.00     0.031 A 
ATOM     54  C   UNL A   1      41.071  29.883  29.624  1.00  0.00     0.049 A 
ATOM     55  C   UNL A   1      46.443  28.345  29.887  1.00  0.00     0.074 A 
ATOM     56  C   UNL A   1      40.760  31.149  30.090  1.00  0.00     0.029 A 
ATOM     57  N   UNL A   1      42.439  29.723  29.779  1.00  0.00    -0.354 N 
ATOM     58  N   UNL A   1      45.228  28.840  29.897  1.00  0.00    -0.248 NA
ATOM     59  C   UNL A   1      47.472  29.269  30.382  1.00  0.00     0.031 C 
ATOM     60  C   UNL A   1      41.948  31.774  30.483  1.00  0.00     0.029 A 
ATOM     61  C   UNL A   1      42.987  30.871  30.324  1.00  0.00     0.049 A 
ATOM     62  H   UNL A   1      42.945  28.915  29.536  1.00  0.00     0.167 HD
ATOM     63  C   UNL A   1      45.344  30.115  30.437  1.00  0.00     0.074 A 
ATOM     64  C   UNL A   1      46.742  30.308  30.759  1.00  0.00     0.031 C 
ATOM     65  C   UNL A   1      44.379  31.044  30.651  1.00  0.00     0.031 A 
BRANCH  52  66
ATOM     66  C   UNL A   1      38.722  29.207  28.977  1.00  0.00    -0.014 A 
ATOM     67  C   UNL A   1      37.864  29.035  30.076  1.00  0.00     0.009 A 
ATOM     68  C   UNL A   1      38.198  29.723  27.782  1.00  0.00     0.009 A 
ATOM     69  C   UNL A   1      36.506  29.341  29.970  1.00  0.00     0.001 A 
ATOM     70  C   UNL A   1      36.844  30.058  27.689  1.00  0.00     0.001 A 
ATOM     71  C   UNL A   1      35.999  29.858  28.779  1.00  0.00     0.000 A 
ENDBRANCH  52  66
BRANCH  53  72
ATOM     72  C   UNL A   1      48.353  26.622  29.527  1.00  0.00    -0.014 A 
ATOM     73  C   UNL A   1      49.211  26.885  28.447  1.00  0.00     0.009 A 
ATOM     74  C   UNL A   1      48.873  25.972  30.657  1.00  0.00     0.009 A 
ATOM     75  C   UNL A   1      50.542  26.460  28.476  1.00  0.00     0.001 A 
ATOM     76  C   UNL A   1      50.212  25.581  30.700  1.00  0.00     0.001 A 
ATOM     77  C   UNL A   1      51.042  25.810  29.604  1.00  0.00     0.000 A 
ENDBRANCH  53  72
BRANCH  65  78
ATOM     78  C   UNL A   1      44.793  32.324  31.323  1.00  0.00    -0.014 A 
ATOM     79  C   UNL A   1      45.201  33.446  30.585  1.00  0.00     0.009 A 
ATOM     80  C   UNL A   1      44.749  32.411  32.723  1.00  0.00     0.009 A 
ATOM     81  C   UNL A   1      45.602  34.613  31.241  1.00  0.00     0.001 A 
ATOM     82  C   UNL A   1      45.116  33.590  33.374  1.00  0.00     0.001 A 
ATOM     83  C   UNL A   1      45.556  34.685  32.632  1.00  0.00     0.000 A 
ENDBRANCH  65  78
ENDBRANCH  39  40
ENDBRANCH  31  34
ENDBRANCH  29  30
ENDBRANCH  28  29
ENDBRANCH  27  28
ENDBRANCH   1  27
TORSDOF 17
ENDMDL
MODEL 3
REMARK VINA RESULT:     -10.2      1.698      2.439
REMARK SMILES CCC(CC)(NC(=O)Nc1cc(Cl)cc(Cl)c1)C(=O)NCCCCCCNC(=O)c1ccc(-c2c3nc(c(-c4ccccc4)c4ccc([nH]4)c(-c4ccccc4)c4nc(c(-c5ccccc5)c5ccc2[nH]5)C=C4)C=C3)cc1
REMARK SMILES IDX 23 1 22 2 21 3 20 4 18 5 19 6 3 8 2 9 1 10 4 11 5 12 6 13
REMARK SMILES IDX 7 14 8 16 9 17 10 19 11 20 17 21 12 22 15 23 13 24 14 25
REMARK SMILES IDX 16 26 24 27 25 28 26 29 27 30 28 31 29 33 30 34 31 35 77 36
REMARK SMILES IDX 32 37 76 38 33 39 34 40 35 41 70 42 36 43 75 44 69 45 71 46
REMARK SMILES IDX 37 47 74 48 68 49 67 50 38 52 60 53 45 54 59 55 46 56 49 57
REMARK SMILES IDX 58 58 72 59 47 60 48 61 57 63 73 64 50 65 39 66 40 67 44 68
REMARK SMILES IDX 41 69 43 70 42 71 61 72 62 73 66 74 63 75 65 76 64 77 51 78
REMARK SMILES IDX 52 79 56 80 53 81 55 82 54 83
REMARK H PARENT 20 7 6 15 9 18 27 32 71 51 49 62
REMARK Flexibility Score: inf
ROOT
ATOM      1  C   UNL A   1      35.532  20.912  25.123  1.00  0.00     0.002 C 
ENDROOT
BRANCH   1   2
ATOM      2  C   UNL A   1      34.050  20.510  25.214  1.00  0.00     0.021 C 
BRANCH   2   3
ATOM      3  C   UNL A   1      33.047  21.631  25.565  1.00  0.00     0.116 C 
BRANCH   3   4
ATOM      4  N   UNL A   1      32.133  21.879  24.457  1.00  0.00    -0.354 N 
ATOM      5  C   UNL A   1      32.331  22.485  23.220  1.00  0.00     0.245 C 
ATOM      6  O   UNL A   1      32.136  21.881  22.170  1.00  0.00    -0.272 OA
ATOM      7  H   UNL A   1      31.214  21.562  24.611  1.00  0.00     0.163 HD
BRANCH   5   8
ATOM      8  C   UNL A   1      32.895  23.921  23.279  1.00  0.00     0.120 C 
BRANCH   8   9
ATOM      9  C   UNL A   1      34.204  24.282  24.010  1.00  0.00     0.035 C 
ATOM     10  C   UNL A   1      34.116  24.921  25.376  1.00  0.00     0.007 C 
ENDBRANCH   8   9
BRANCH   8  11
ATOM     11  C   UNL A   1      31.645  24.570  24.002  1.00  0.00     0.035 C 
ATOM     12  C   UNL A   1      30.260  24.588  23.392  1.00  0.00     0.007 C 
ENDBRANCH   8  11
BRANCH   8  13
ATOM     13  N   UNL A   1      33.123  24.280  21.853  1.00  0.00    -0.323 N 
ATOM     14  C   UNL A   1      32.928  25.399  21.127  1.00  0.00     0.320 C 
ATOM     15  H   UNL A   1      33.496  23.538  21.325  1.00  0.00     0.166 HD
ATOM     16  O   UNL A   1      32.999  25.251  19.900  1.00  0.00    -0.248 OA
ATOM     17  N   UNL A   1      32.640  26.656  21.542  1.00  0.00    -0.308 N 
ATOM     18  H   UNL A   1      32.469  27.202  20.741  1.00  0.00     0.171 HD
BRANCH  17  19
ATOM     19  C   UNL A   1      32.488  27.498  22.681  1.00  0.00     0.045 A 
ATOM     20  C   UNL A   1      33.404  27.767  23.702  1.00  0.00     0.046 A 
ATOM     21  C   UNL A   1      31.345  28.306  22.685  1.00  0.00     0.046 A 
ATOM     22  C   UNL A   1      33.080  28.551  24.820  1.00  0.00     0.044 A 
ATOM     23  C   UNL A   1      31.040  29.141  23.771  1.00  0.00     0.044 A 
ATOM     24  Cl  UNL A   1      34.214  28.719  26.107  1.00  0.00    -0.084 Cl
ATOM     25  C   UNL A   1      31.874  29.217  24.877  1.00  0.00     0.041 A 
ATOM     26  Cl  UNL A   1      29.610  30.096  23.734  1.00  0.00    -0.084 Cl
ENDBRANCH  17  19
ENDBRANCH   8  13
ENDBRANCH   5   8
ENDBRANCH   3   4
ENDBRANCH   2   3
ENDBRANCH   1   2
BRANCH   1  27
ATOM     27  C   UNL A   1      36.513  19.747  24.996  1.00  0.00     0.002 C 
BRANCH  27  28
ATOM     28  C   UNL A   1      37.925  20.164  24.600  1.00  0.00     0.021 C 
BRANCH  28  29
ATOM     29  C   UNL A   1      38.876  20.333  25.774  1.00  0.00     0.116 C 
BRANCH  29  30
ATOM     30  N   UNL A   1      39.959  19.368  25.760  1.00  0.00    -0.352 N 
ATOM     31  C   UNL A   1      41.284  19.580  26.068  1.00  0.00     0.251 C 
ATOM     32  H   UNL A   1      39.716  18.450  25.499  1.00  0.00     0.163 HD
ATOM     33  O   UNL A   1      42.122  18.720  25.864  1.00  0.00    -0.269 OA
BRANCH  31  34
ATOM     34  C   UNL A   1      41.679  20.895  26.623  1.00  0.00     0.039 A 
ATOM     35  C   UNL A   1      42.107  21.893  25.748  1.00  0.00     0.014 A 
ATOM     36  C   UNL A   1      41.586  21.148  27.996  1.00  0.00     0.014 A 
ATOM     37  C   UNL A   1      42.404  23.162  26.247  1.00  0.00     0.010 A 
ATOM     38  C   UNL A   1      41.793  22.437  28.476  1.00  0.00     0.010 A 
ATOM     39  C   UNL A   1      42.224  23.453  27.611  1.00  0.00    -0.014 A 
BRANCH  39  40
ATOM     40  C   UNL A   1      42.525  24.803  28.152  1.00  0.00     0.031 A 
ATOM     41  C   UNL A   1      43.932  25.150  28.560  1.00  0.00     0.074 A 
ATOM     42  C   UNL A   1      41.536  25.706  28.303  1.00  0.00     0.049 A 
ATOM     43  N   UNL A   1      44.393  26.262  29.077  1.00  0.00    -0.248 NA
ATOM     44  C   UNL A   1      44.955  24.104  28.386  1.00  0.00     0.031 C 
ATOM     45  C   UNL A   1      40.125  25.485  27.982  1.00  0.00     0.029 A 
ATOM     46  N   UNL A   1      41.571  26.998  28.766  1.00  0.00    -0.354 N 
ATOM     47  C   UNL A   1      45.749  26.045  29.287  1.00  0.00     0.074 A 
ATOM     48  C   UNL A   1      46.024  24.677  28.913  1.00  0.00     0.031 C 
ATOM     49  C   UNL A   1      39.436  26.611  28.229  1.00  0.00     0.029 A 
ATOM     50  C   UNL A   1      40.345  27.620  28.762  1.00  0.00     0.049 A 
ATOM     51  H   UNL A   1      42.398  27.438  29.072  1.00  0.00     0.167 HD
ATOM     52  C   UNL A   1      46.692  26.916  29.720  1.00  0.00     0.031 A 
ATOM     53  C   UNL A   1      39.994  28.861  29.150  1.00  0.00     0.031 A 
ATOM     54  C   UNL A   1      46.423  28.279  30.092  1.00  0.00     0.049 A 
ATOM     55  C   UNL A   1      41.057  29.798  29.657  1.00  0.00     0.074 A 
ATOM     56  C   UNL A   1      47.313  29.245  30.527  1.00  0.00     0.029 A 
ATOM     57  N   UNL A   1      45.169  28.869  30.067  1.00  0.00    -0.354 N 
ATOM     58  N   UNL A   1      42.345  29.593  29.800  1.00  0.00    -0.248 NA
ATOM     59  C   UNL A   1      40.619  31.149  30.038  1.00  0.00     0.031 C 
ATOM     60  C   UNL A   1      46.590  30.408  30.812  1.00  0.00     0.029 A 
ATOM     61  C   UNL A   1      45.261  30.184  30.488  1.00  0.00     0.049 A 
ATOM     62  H   UNL A   1      44.338  28.420  29.792  1.00  0.00     0.167 HD
ATOM     63  C   UNL A   1      42.873  30.798  30.246  1.00  0.00     0.074 A 
ATOM     64  C   UNL A   1      41.771  31.732  30.331  1.00  0.00     0.031 C 
ATOM     65  C   UNL A   1      44.157  31.106  30.556  1.00  0.00     0.031 A 
BRANCH  52  66
ATOM     66  C   UNL A   1      48.109  26.417  29.799  1.00  0.00    -0.014 A 
ATOM     67  C   UNL A   1      48.597  25.812  30.969  1.00  0.00     0.009 A 
ATOM     68  C   UNL A   1      48.954  26.516  28.684  1.00  0.00     0.009 A 
ATOM     69  C   UNL A   1      49.911  25.347  31.032  1.00  0.00     0.001 A 
ATOM     70  C   UNL A   1      50.259  26.020  28.739  1.00  0.00     0.001 A 
ATOM     71  C   UNL A   1      50.740  25.445  29.914  1.00  0.00     0.000 A 
ENDBRANCH  52  66
BRANCH  53  72
ATOM     72  C   UNL A   1      38.575  29.303  29.073  1.00  0.00    -0.014 A 
ATOM     73  C   UNL A   1      38.071  29.908  27.911  1.00  0.00     0.009 A 
ATOM     74  C   UNL A   1      37.727  29.165  30.183  1.00  0.00     0.009 A 
ATOM     75  C   UNL A   1      36.767  30.409  27.879  1.00  0.00     0.001 A 
ATOM     76  C   UNL A   1      36.413  29.633  30.137  1.00  0.00     0.001 A 
ATOM     77  C   UNL A   1      35.938  30.269  28.991  1.00  0.00     0.000 A 
ENDBRANCH  53  72
BRANCH  65  78
ATOM     78  C   UNL A   1      44.448  32.528  30.950  1.00  0.00    -0.014 A 
ATOM     79  C   UNL A   1      44.517  32.921  32.295  1.00  0.00     0.009 A 
ATOM     80  C   UNL A   1      44.680  33.485  29.950  1.00  0.00     0.009 A 
ATOM     81  C   UNL A   1      44.765  34.255  32.628  1.00  0.00     0.001 A 
ATOM     82  C   UNL A   1      44.964  34.809  30.286  1.00  0.00     0.001 A 
ATOM     83  C   UNL A   1      44.992  35.196  31.625  1.00  0.00     0.000 A 
ENDBRANCH  65  78
ENDBRANCH  39  40
ENDBRANCH  31  34
ENDBRANCH  29  30
ENDBRANCH  28  29
ENDBRANCH  27  28
ENDBRANCH   1  27
TORSDOF 17
ENDMDL
