MODEL 1
REMARK VINA RESULT:     -10.7      0.000      0.000
REMARK SMILES O=C(C[C@H]1C[C@H]2CC[C@@H](C1)[N@H+]2[C@@H]1CCCSC1)NCCCCCCNC(=O)c1ccc(-c2c3nc(c(-c4ccccc4)c4ccc([nH]4)c(-c4ccccc4)c4nc(c(-c5ccccc5)c5ccc2[nH]5)C=C4)C=C3)cc1
REMARK SMILES IDX 21 1 20 2 19 3 18 4 1 5 2 6 3 8 4 9 5 10 10 11 6 12 9 13
REMARK SMILES IDX 7 14 11 15 8 16 12 18 13 19 17 20 14 21 16 22 15 23 22 24
REMARK SMILES IDX 23 25 24 26 25 27 26 28 27 30 28 31 29 32 75 33 30 34 74 35
REMARK SMILES IDX 31 36 32 37 33 38 68 39 34 40 73 41 67 42 69 43 35 44 72 45
REMARK SMILES IDX 66 46 65 47 36 49 58 50 43 51 57 52 44 53 47 54 56 55 70 56
REMARK SMILES IDX 45 57 46 58 55 60 71 61 48 62 37 63 38 64 42 65 39 66 41 67
REMARK SMILES IDX 40 68 59 69 60 70 64 71 61 72 63 73 62 74 49 75 50 76 54 77
REMARK SMILES IDX 51 78 53 79 52 80
REMARK H PARENT 18 7 11 17 25 29 69 48 47 59
REMARK Flexibility Score: inf
ROOT
ATOM      1  C   UNL A   1      33.014  29.123  24.275  1.00  0.00     0.002 C 
ENDROOT
BRANCH   1   2
ATOM      2  C   UNL A   1      32.533  28.768  22.859  1.00  0.00     0.021 C 
BRANCH   2   3
ATOM      3  C   UNL A   1      31.051  28.405  22.776  1.00  0.00     0.116 C 
BRANCH   3   4
ATOM      4  N   UNL A   1      30.909  26.988  22.531  1.00  0.00    -0.356 N 
ATOM      5  O   UNL A   1      29.971  26.465  24.558  1.00  0.00    -0.275 OA
ATOM      6  C   UNL A   1      30.453  26.113  23.487  1.00  0.00     0.220 C 
ATOM      7  H   UNL A   1      31.150  26.634  21.645  1.00  0.00     0.163 HD
BRANCH   6   8
ATOM      8  C   UNL A   1      30.690  24.654  23.157  1.00  0.00     0.104 C 
BRANCH   8   9
ATOM      9  C   UNL A   1      32.106  24.136  23.461  1.00  0.00     0.010 C 
ATOM     10  C   UNL A   1      32.666  24.856  24.716  1.00  0.00     0.069 C 
ATOM     11  C   UNL A   1      32.155  22.587  23.491  1.00  0.00     0.069 C 
ATOM     12  C   UNL A   1      32.903  23.958  25.932  1.00  0.00     0.185 C 
ATOM     13  C   UNL A   1      32.443  21.969  24.861  1.00  0.00     0.185 C 
ATOM     14  C   UNL A   1      31.553  23.509  26.510  1.00  0.00     0.071 C 
ATOM     15  N   UNL A   1      33.490  22.671  25.587  1.00  0.00    -0.327 N 
ATOM     16  C   UNL A   1      31.248  22.192  25.800  1.00  0.00     0.071 C 
ATOM     17  H   UNL A   1      33.744  22.131  26.415  1.00  0.00     0.348 HD
BRANCH  15  18
ATOM     18  C   UNL A   1      34.911  22.571  25.224  1.00  0.00     0.194 C 
ATOM     19  C   UNL A   1      35.539  21.164  25.144  1.00  0.00     0.067 C 
ATOM     20  C   UNL A   1      35.742  23.488  26.158  1.00  0.00     0.134 C 
ATOM     21  C   UNL A   1      36.991  21.153  24.666  1.00  0.00     0.017 C 
ATOM     22  S   UNL A   1      37.497  23.646  25.685  1.00  0.00    -0.156 SA
ATOM     23  C   UNL A   1      37.921  21.887  25.617  1.00  0.00     0.070 C 
ENDBRANCH  15  18
ENDBRANCH   8   9
ENDBRANCH   6   8
ENDBRANCH   3   4
ENDBRANCH   2   3
ENDBRANCH   1   2
BRANCH   1  24
ATOM     24  C   UNL A   1      31.914  29.182  25.340  1.00  0.00     0.002 C 
BRANCH  24  25
ATOM     25  C   UNL A   1      32.234  28.436  26.634  1.00  0.00     0.021 C 
BRANCH  25  26
ATOM     26  C   UNL A   1      33.564  28.821  27.271  1.00  0.00     0.116 C 
BRANCH  26  27
ATOM     27  N   UNL A   1      33.579  30.204  27.723  1.00  0.00    -0.352 N 
ATOM     28  C   UNL A   1      34.572  30.882  28.385  1.00  0.00     0.251 C 
ATOM     29  H   UNL A   1      32.766  30.725  27.527  1.00  0.00     0.163 HD
ATOM     30  O   UNL A   1      34.360  31.995  28.857  1.00  0.00    -0.269 OA
BRANCH  28  31
ATOM     31  C   UNL A   1      35.896  30.247  28.550  1.00  0.00     0.039 A 
ATOM     32  C   UNL A   1      36.793  30.260  27.479  1.00  0.00     0.014 A 
ATOM     33  C   UNL A   1      36.259  29.663  29.766  1.00  0.00     0.014 A 
ATOM     34  C   UNL A   1      38.081  29.747  27.650  1.00  0.00     0.010 A 
ATOM     35  C   UNL A   1      37.564  29.222  29.958  1.00  0.00     0.010 A 
ATOM     36  C   UNL A   1      38.490  29.259  28.903  1.00  0.00    -0.014 A 
BRANCH  36  37
ATOM     37  C   UNL A   1      39.877  28.781  29.136  1.00  0.00     0.031 A 
ATOM     38  C   UNL A   1      40.904  29.714  29.718  1.00  0.00     0.074 A 
ATOM     39  C   UNL A   1      40.232  27.539  28.751  1.00  0.00     0.049 A 
ATOM     40  N   UNL A   1      42.185  29.515  29.908  1.00  0.00    -0.248 NA
ATOM     41  C   UNL A   1      40.441  31.053  30.118  1.00  0.00     0.031 C 
ATOM     42  C   UNL A   1      39.339  26.546  28.147  1.00  0.00     0.029 A 
ATOM     43  N   UNL A   1      41.447  26.901  28.801  1.00  0.00    -0.354 N 
ATOM     44  C   UNL A   1      42.680  30.708  30.420  1.00  0.00     0.074 A 
ATOM     45  C   UNL A   1      41.574  31.638  30.477  1.00  0.00     0.031 C 
ATOM     46  C   UNL A   1      40.031  25.421  27.904  1.00  0.00     0.029 A 
ATOM     47  C   UNL A   1      41.424  25.626  28.286  1.00  0.00     0.049 A 
ATOM     48  H   UNL A   1      42.258  27.316  29.172  1.00  0.00     0.167 HD
ATOM     49  C   UNL A   1      43.941  31.000  30.816  1.00  0.00     0.031 A 
ATOM     50  C   UNL A   1      42.416  24.729  28.125  1.00  0.00     0.031 A 
ATOM     51  C   UNL A   1      45.035  30.067  30.784  1.00  0.00     0.049 A 
ATOM     52  C   UNL A   1      43.812  25.094  28.555  1.00  0.00     0.074 A 
ATOM     53  C   UNL A   1      46.330  30.247  31.239  1.00  0.00     0.029 A 
ATOM     54  N   UNL A   1      44.966  28.785  30.265  1.00  0.00    -0.354 N 
ATOM     55  N   UNL A   1      44.244  26.197  29.115  1.00  0.00    -0.248 NA
ATOM     56  C   UNL A   1      44.857  24.083  28.335  1.00  0.00     0.031 C 
ATOM     57  C   UNL A   1      47.062  29.097  30.935  1.00  0.00     0.029 A 
ATOM     58  C   UNL A   1      46.205  28.176  30.355  1.00  0.00     0.049 A 
ATOM     59  H   UNL A   1      44.157  28.369  29.888  1.00  0.00     0.167 HD
ATOM     60  C   UNL A   1      45.599  25.996  29.353  1.00  0.00     0.074 A 
ATOM     61  C   UNL A   1      45.913  24.662  28.889  1.00  0.00     0.031 C 
ATOM     62  C   UNL A   1      46.500  26.840  29.907  1.00  0.00     0.031 A 
BRANCH  49  63
ATOM     63  C   UNL A   1      44.221  32.391  31.313  1.00  0.00    -0.014 A 
ATOM     64  C   UNL A   1      44.119  32.717  32.674  1.00  0.00     0.009 A 
ATOM     65  C   UNL A   1      44.673  33.368  30.412  1.00  0.00     0.009 A 
ATOM     66  C   UNL A   1      44.444  34.000  33.118  1.00  0.00     0.001 A 
ATOM     67  C   UNL A   1      45.024  34.641  30.863  1.00  0.00     0.001 A 
ATOM     68  C   UNL A   1      44.904  34.958  32.215  1.00  0.00     0.000 A 
ENDBRANCH  49  63
BRANCH  50  69
ATOM     69  C   UNL A   1      42.145  23.396  27.521  1.00  0.00    -0.014 A 
ATOM     70  C   UNL A   1      41.614  22.355  28.299  1.00  0.00     0.009 A 
ATOM     71  C   UNL A   1      42.467  23.139  26.179  1.00  0.00     0.009 A 
ATOM     72  C   UNL A   1      41.457  21.076  27.762  1.00  0.00     0.001 A 
ATOM     73  C   UNL A   1      42.275  21.867  25.633  1.00  0.00     0.001 A 
ATOM     74  C   UNL A   1      41.787  20.833  26.429  1.00  0.00     0.000 A 
ENDBRANCH  50  69
BRANCH  62  75
ATOM     75  C   UNL A   1      47.902  26.332  30.100  1.00  0.00    -0.014 A 
ATOM     76  C   UNL A   1      48.321  25.777  31.318  1.00  0.00     0.009 A 
ATOM     77  C   UNL A   1      48.799  26.360  29.020  1.00  0.00     0.009 A 
ATOM     78  C   UNL A   1      49.622  25.290  31.460  1.00  0.00     0.001 A 
ATOM     79  C   UNL A   1      50.087  25.841  29.154  1.00  0.00     0.001 A 
ATOM     80  C   UNL A   1      50.501  25.315  30.377  1.00  0.00     0.000 A 
ENDBRANCH  62  75
ENDBRANCH  36  37
ENDBRANCH  28  31
ENDBRANCH  26  27
ENDBRANCH  25  26
ENDBRANCH  24  25
ENDBRANCH   1  24
TORSDOF 15
ENDMDL
MODEL 2
REMARK VINA RESULT:     -10.5      4.619      7.138
REMARK SMILES O=C(C[C@H]1C[C@H]2CC[C@@H](C1)[N@H+]2[C@@H]1CCCSC1)NCCCCCCNC(=O)c1ccc(-c2c3nc(c(-c4ccccc4)c4ccc([nH]4)c(-c4ccccc4)c4nc(c(-c5ccccc5)c5ccc2[nH]5)C=C4)C=C3)cc1
REMARK SMILES IDX 21 1 20 2 19 3 18 4 1 5 2 6 3 8 4 9 5 10 10 11 6 12 9 13
REMARK SMILES IDX 7 14 11 15 8 16 12 18 13 19 17 20 14 21 16 22 15 23 22 24
REMARK SMILES IDX 23 25 24 26 25 27 26 28 27 30 28 31 29 32 75 33 30 34 74 35
REMARK SMILES IDX 31 36 32 37 33 38 68 39 34 40 73 41 67 42 69 43 35 44 72 45
REMARK SMILES IDX 66 46 65 47 36 49 58 50 43 51 57 52 44 53 47 54 56 55 70 56
REMARK SMILES IDX 45 57 46 58 55 60 71 61 48 62 37 63 38 64 42 65 39 66 41 67
REMARK SMILES IDX 40 68 59 69 60 70 64 71 61 72 63 73 62 74 49 75 50 76 54 77
REMARK SMILES IDX 51 78 53 79 52 80
REMARK H PARENT 18 7 11 17 25 29 69 48 47 59
REMARK Flexibility Score: inf
ROOT
ATOM      1  C   UNL A   1      35.349  33.444  29.578  1.00  0.00     0.002 C 
ENDROOT
BRANCH   1   2
ATOM      2  C   UNL A   1      34.847  32.053  29.160  1.00  0.00     0.021 C 
BRANCH   2   3
ATOM      3  C   UNL A   1      34.607  31.901  27.658  1.00  0.00     0.116 C 
BRANCH   3   4
ATOM      4  N   UNL A   1      34.032  30.604  27.385  1.00  0.00    -0.356 N 
ATOM      5  O   UNL A   1      35.983  29.410  27.561  1.00  0.00    -0.275 OA
ATOM      6  C   UNL A   1      34.792  29.465  27.276  1.00  0.00     0.220 C 
ATOM      7  H   UNL A   1      33.057  30.533  27.272  1.00  0.00     0.163 HD
BRANCH   6   8
ATOM      8  C   UNL A   1      34.061  28.287  26.665  1.00  0.00     0.104 C 
BRANCH   8   9
ATOM      9  C   UNL A   1      32.779  28.641  25.893  1.00  0.00     0.010 C 
ATOM     10  C   UNL A   1      33.127  28.929  24.409  1.00  0.00     0.069 C 
ATOM     11  C   UNL A   1      31.658  27.599  26.136  1.00  0.00     0.069 C 
ATOM     12  C   UNL A   1      32.548  27.936  23.399  1.00  0.00     0.185 C 
ATOM     13  C   UNL A   1      31.269  26.762  24.916  1.00  0.00     0.185 C 
ATOM     14  C   UNL A   1      33.260  26.583  23.542  1.00  0.00     0.071 C 
ATOM     15  N   UNL A   1      31.176  27.551  23.697  1.00  0.00    -0.327 N 
ATOM     16  C   UNL A   1      32.413  25.806  24.547  1.00  0.00     0.071 C 
ATOM     17  H   UNL A   1      30.768  26.979  22.957  1.00  0.00     0.348 HD
BRANCH  15  18
ATOM     18  C   UNL A   1      30.066  28.479  23.436  1.00  0.00     0.194 C 
ATOM     19  C   UNL A   1      28.654  27.883  23.256  1.00  0.00     0.067 C 
ATOM     20  C   UNL A   1      30.433  29.388  22.236  1.00  0.00     0.134 C 
ATOM     21  C   UNL A   1      27.552  28.929  23.086  1.00  0.00     0.017 C 
ATOM     22  S   UNL A   1      29.249  30.744  21.933  1.00  0.00    -0.156 SA
ATOM     23  C   UNL A   1      27.730  29.764  21.830  1.00  0.00     0.070 C 
ENDBRANCH  15  18
ENDBRANCH   8   9
ENDBRANCH   6   8
ENDBRANCH   3   4
ENDBRANCH   2   3
ENDBRANCH   1   2
BRANCH   1  24
ATOM     24  C   UNL A   1      35.065  34.566  28.574  1.00  0.00     0.002 C 
BRANCH  24  25
ATOM     25  C   UNL A   1      33.924  35.505  28.968  1.00  0.00     0.021 C 
BRANCH  25  26
ATOM     26  C   UNL A   1      32.881  34.877  29.885  1.00  0.00     0.116 C 
BRANCH  26  27
ATOM     27  N   UNL A   1      32.422  35.801  30.910  1.00  0.00    -0.352 N 
ATOM     28  C   UNL A   1      32.831  35.909  32.216  1.00  0.00     0.251 C 
ATOM     29  H   UNL A   1      31.723  36.436  30.630  1.00  0.00     0.163 HD
ATOM     30  O   UNL A   1      32.218  36.622  33.005  1.00  0.00    -0.269 OA
BRANCH  28  31
ATOM     31  C   UNL A   1      34.006  35.138  32.673  1.00  0.00     0.039 A 
ATOM     32  C   UNL A   1      33.821  33.838  33.150  1.00  0.00     0.014 A 
ATOM     33  C   UNL A   1      35.288  35.690  32.608  1.00  0.00     0.014 A 
ATOM     34  C   UNL A   1      34.932  33.066  33.497  1.00  0.00     0.010 A 
ATOM     35  C   UNL A   1      36.396  34.895  32.881  1.00  0.00     0.010 A 
ATOM     36  C   UNL A   1      36.231  33.575  33.329  1.00  0.00    -0.014 A 
BRANCH  36  37
ATOM     37  C   UNL A   1      37.432  32.748  33.614  1.00  0.00     0.031 A 
ATOM     38  C   UNL A   1      38.232  32.993  34.865  1.00  0.00     0.074 A 
ATOM     39  C   UNL A   1      37.847  31.836  32.713  1.00  0.00     0.049 A 
ATOM     40  N   UNL A   1      39.359  32.444  35.244  1.00  0.00    -0.248 NA
ATOM     41  C   UNL A   1      37.714  34.003  35.803  1.00  0.00     0.031 C 
ATOM     42  C   UNL A   1      37.179  31.522  31.448  1.00  0.00     0.029 A 
ATOM     43  N   UNL A   1      38.944  31.009  32.720  1.00  0.00    -0.354 N 
ATOM     44  C   UNL A   1      39.695  33.060  36.443  1.00  0.00     0.074 A 
ATOM     45  C   UNL A   1      38.676  34.050  36.713  1.00  0.00     0.031 C 
ATOM     46  C   UNL A   1      37.866  30.559  30.813  1.00  0.00     0.029 A 
ATOM     47  C   UNL A   1      39.048  30.221  31.597  1.00  0.00     0.049 A 
ATOM     48  H   UNL A   1      39.594  30.982  33.459  1.00  0.00     0.167 HD
ATOM     49  C   UNL A   1      40.753  32.816  37.253  1.00  0.00     0.031 A 
ATOM     50  C   UNL A   1      39.998  29.337  31.234  1.00  0.00     0.031 A 
ATOM     51  C   UNL A   1      41.752  31.814  36.997  1.00  0.00     0.049 A 
ATOM     52  C   UNL A   1      41.174  29.107  32.146  1.00  0.00     0.074 A 
ATOM     53  C   UNL A   1      42.816  31.440  37.799  1.00  0.00     0.029 A 
ATOM     54  N   UNL A   1      41.815  31.032  35.856  1.00  0.00    -0.354 N 
ATOM     55  N   UNL A   1      41.430  29.638  33.317  1.00  0.00    -0.248 NA
ATOM     56  C   UNL A   1      42.189  28.147  31.688  1.00  0.00     0.031 C 
ATOM     57  C   UNL A   1      43.562  30.479  37.114  1.00  0.00     0.029 A 
ATOM     58  C   UNL A   1      42.921  30.203  35.917  1.00  0.00     0.049 A 
ATOM     59  H   UNL A   1      41.169  31.062  35.113  1.00  0.00     0.167 HD
ATOM     60  C   UNL A   1      42.610  29.045  33.752  1.00  0.00     0.074 A 
ATOM     61  C   UNL A   1      43.011  28.106  32.726  1.00  0.00     0.031 C 
ATOM     62  C   UNL A   1      43.298  29.259  34.898  1.00  0.00     0.031 A 
BRANCH  49  63
ATOM     63  C   UNL A   1      40.899  33.653  38.493  1.00  0.00    -0.014 A 
ATOM     64  C   UNL A   1      41.609  34.864  38.479  1.00  0.00     0.009 A 
ATOM     65  C   UNL A   1      40.247  33.261  39.673  1.00  0.00     0.009 A 
ATOM     66  C   UNL A   1      41.678  35.654  39.628  1.00  0.00     0.001 A 
ATOM     67  C   UNL A   1      40.294  34.067  40.811  1.00  0.00     0.001 A 
ATOM     68  C   UNL A   1      41.015  35.260  40.790  1.00  0.00     0.000 A 
ENDBRANCH  49  63
BRANCH  50  69
ATOM     69  C   UNL A   1      39.899  28.602  29.943  1.00  0.00    -0.014 A 
ATOM     70  C   UNL A   1      39.340  27.315  29.898  1.00  0.00     0.009 A 
ATOM     71  C   UNL A   1      40.413  29.158  28.762  1.00  0.00     0.009 A 
ATOM     72  C   UNL A   1      39.342  26.582  28.709  1.00  0.00     0.001 A 
ATOM     73  C   UNL A   1      40.379  28.437  27.565  1.00  0.00     0.001 A 
ATOM     74  C   UNL A   1      39.860  27.145  27.544  1.00  0.00     0.000 A 
ENDBRANCH  50  69
BRANCH  62  75
ATOM     75  C   UNL A   1      44.525  28.425  35.138  1.00  0.00    -0.014 A 
ATOM     76  C   UNL A   1      44.451  27.172  35.765  1.00  0.00     0.009 A 
ATOM     77  C   UNL A   1      45.770  28.882  34.675  1.00  0.00     0.009 A 
ATOM     78  C   UNL A   1      45.604  26.408  35.953  1.00  0.00     0.001 A 
ATOM     79  C   UNL A   1      46.916  28.102  34.833  1.00  0.00     0.001 A 
ATOM     80  C   UNL A   1      46.833  26.870  35.480  1.00  0.00     0.000 A 
ENDBRANCH  62  75
ENDBRANCH  36  37
ENDBRANCH  28  31
ENDBRANCH  26  27
ENDBRANCH  25  26
ENDBRANCH  24  25
ENDBRANCH   1  24
TORSDOF 15
ENDMDL
MODEL 3
REMARK VINA RESULT:     -10.4      4.450      6.372
REMARK SMILES O=C(C[C@H]1C[C@H]2CC[C@@H](C1)[N@H+]2[C@@H]1CCCSC1)NCCCCCCNC(=O)c1ccc(-c2c3nc(c(-c4ccccc4)c4ccc([nH]4)c(-c4ccccc4)c4nc(c(-c5ccccc5)c5ccc2[nH]5)C=C4)C=C3)cc1
REMARK SMILES IDX 21 1 20 2 19 3 18 4 1 5 2 6 3 8 4 9 5 10 10 11 6 12 9 13
REMARK SMILES IDX 7 14 11 15 8 16 12 18 13 19 17 20 14 21 16 22 15 23 22 24
REMARK SMILES IDX 23 25 24 26 25 27 26 28 27 30 28 31 29 32 75 33 30 34 74 35
REMARK SMILES IDX 31 36 32 37 33 38 68 39 34 40 73 41 67 42 69 43 35 44 72 45
REMARK SMILES IDX 66 46 65 47 36 49 58 50 43 51 57 52 44 53 47 54 56 55 70 56
REMARK SMILES IDX 45 57 46 58 55 60 71 61 48 62 37 63 38 64 42 65 39 66 41 67
REMARK SMILES IDX 40 68 59 69 60 70 64 71 61 72 63 73 62 74 49 75 50 76 54 77
REMARK SMILES IDX 51 78 53 79 52 80
REMARK H PARENT 18 7 11 17 25 29 69 48 47 59
REMARK Flexibility Score: inf
ROOT
ATOM      1  C   UNL A   1      34.387  32.493  29.204  1.00  0.00     0.002 C 
ENDROOT
BRANCH   1   2
ATOM      2  C   UNL A   1      34.581  31.490  28.056  1.00  0.00     0.021 C 
BRANCH   2   3
ATOM      3  C   UNL A   1      33.305  31.183  27.273  1.00  0.00     0.116 C 
BRANCH   3   4
ATOM      4  N   UNL A   1      33.033  29.764  27.320  1.00  0.00    -0.356 N 
ATOM      5  O   UNL A   1      31.800  29.669  25.388  1.00  0.00    -0.275 OA
ATOM      6  C   UNL A   1      32.223  29.135  26.407  1.00  0.00     0.220 C 
ATOM      7  H   UNL A   1      33.444  29.227  28.035  1.00  0.00     0.163 HD
BRANCH   6   8
ATOM      8  C   UNL A   1      31.798  27.738  26.813  1.00  0.00     0.104 C 
BRANCH   8   9
ATOM      9  C   UNL A   1      32.793  26.622  26.458  1.00  0.00     0.010 C 
ATOM     10  C   UNL A   1      32.042  25.268  26.353  1.00  0.00     0.069 C 
ATOM     11  C   UNL A   1      33.673  27.004  25.241  1.00  0.00     0.069 C 
ATOM     12  C   UNL A   1      32.019  24.642  24.957  1.00  0.00     0.185 C 
ATOM     13  C   UNL A   1      33.439  26.172  23.979  1.00  0.00     0.185 C 
ATOM     14  C   UNL A   1      31.116  25.476  24.035  1.00  0.00     0.071 C 
ATOM     15  N   UNL A   1      33.291  24.751  24.259  1.00  0.00    -0.327 N 
ATOM     16  C   UNL A   1      32.057  26.490  23.388  1.00  0.00     0.071 C 
ATOM     17  H   UNL A   1      33.293  24.235  23.379  1.00  0.00     0.348 HD
BRANCH  15  18
ATOM     18  C   UNL A   1      34.426  23.895  24.634  1.00  0.00     0.194 C 
ATOM     19  C   UNL A   1      35.419  23.487  23.526  1.00  0.00     0.067 C 
ATOM     20  C   UNL A   1      33.895  22.645  25.381  1.00  0.00     0.134 C 
ATOM     21  C   UNL A   1      36.616  22.678  24.028  1.00  0.00     0.017 C 
ATOM     22  S   UNL A   1      35.200  21.597  26.109  1.00  0.00    -0.156 SA
ATOM     23  C   UNL A   1      36.207  21.344  24.626  1.00  0.00     0.070 C 
ENDBRANCH  15  18
ENDBRANCH   8   9
ENDBRANCH   6   8
ENDBRANCH   3   4
ENDBRANCH   2   3
ENDBRANCH   1   2
BRANCH   1  24
ATOM     24  C   UNL A   1      34.528  33.967  28.811  1.00  0.00     0.002 C 
BRANCH  24  25
ATOM     25  C   UNL A   1      33.251  34.794  28.961  1.00  0.00     0.021 C 
BRANCH  25  26
ATOM     26  C   UNL A   1      33.441  36.118  29.692  1.00  0.00     0.116 C 
BRANCH  26  27
ATOM     27  N   UNL A   1      32.472  36.301  30.761  1.00  0.00    -0.352 N 
ATOM     28  C   UNL A   1      32.480  35.773  32.028  1.00  0.00     0.251 C 
ATOM     29  H   UNL A   1      31.706  36.883  30.547  1.00  0.00     0.163 HD
ATOM     30  O   UNL A   1      31.495  35.879  32.754  1.00  0.00    -0.269 OA
BRANCH  28  31
ATOM     31  C   UNL A   1      33.678  35.052  32.505  1.00  0.00     0.039 A 
ATOM     32  C   UNL A   1      33.536  33.753  33.000  1.00  0.00     0.014 A 
ATOM     33  C   UNL A   1      34.940  35.648  32.440  1.00  0.00     0.014 A 
ATOM     34  C   UNL A   1      34.672  33.027  33.367  1.00  0.00     0.010 A 
ATOM     35  C   UNL A   1      36.074  34.898  32.733  1.00  0.00     0.010 A 
ATOM     36  C   UNL A   1      35.953  33.580  33.200  1.00  0.00    -0.014 A 
BRANCH  36  37
ATOM     37  C   UNL A   1      37.180  32.802  33.506  1.00  0.00     0.031 A 
ATOM     38  C   UNL A   1      37.938  33.063  34.780  1.00  0.00     0.074 A 
ATOM     39  C   UNL A   1      37.658  31.920  32.605  1.00  0.00     0.049 A 
ATOM     40  N   UNL A   1      39.078  32.558  35.181  1.00  0.00    -0.248 NA
ATOM     41  C   UNL A   1      37.353  34.038  35.716  1.00  0.00     0.031 C 
ATOM     42  C   UNL A   1      37.035  31.595  31.318  1.00  0.00     0.029 A 
ATOM     43  N   UNL A   1      38.788  31.140  32.629  1.00  0.00    -0.354 N 
ATOM     44  C   UNL A   1      39.356  33.172  36.396  1.00  0.00     0.074 A 
ATOM     45  C   UNL A   1      38.289  34.114  36.651  1.00  0.00     0.031 C 
ATOM     46  C   UNL A   1      37.779  30.671  30.690  1.00  0.00     0.029 A 
ATOM     47  C   UNL A   1      38.955  30.372  31.500  1.00  0.00     0.049 A 
ATOM     48  H   UNL A   1      39.420  31.131  33.384  1.00  0.00     0.167 HD
ATOM     49  C   UNL A   1      40.402  32.962  37.229  1.00  0.00     0.031 A 
ATOM     50  C   UNL A   1      39.950  29.535  31.151  1.00  0.00     0.031 A 
ATOM     51  C   UNL A   1      41.450  32.008  36.987  1.00  0.00     0.049 A 
ATOM     52  C   UNL A   1      41.111  29.343  32.090  1.00  0.00     0.074 A 
ATOM     53  C   UNL A   1      42.509  31.669  37.812  1.00  0.00     0.029 A 
ATOM     54  N   UNL A   1      41.575  31.244  35.838  1.00  0.00    -0.354 N 
ATOM     55  N   UNL A   1      41.315  29.869  33.274  1.00  0.00    -0.248 NA
ATOM     56  C   UNL A   1      42.178  28.433  31.646  1.00  0.00     0.031 C 
ATOM     57  C   UNL A   1      43.312  30.749  37.134  1.00  0.00     0.029 A 
ATOM     58  C   UNL A   1      42.714  30.462  35.917  1.00  0.00     0.049 A 
ATOM     59  H   UNL A   1      40.948  31.257  35.079  1.00  0.00     0.167 HD
ATOM     60  C   UNL A   1      42.508  29.321  33.731  1.00  0.00     0.074 A 
ATOM     61  C   UNL A   1      42.975  28.414  32.705  1.00  0.00     0.031 C 
ATOM     62  C   UNL A   1      43.157  29.549  34.897  1.00  0.00     0.031 A 
BRANCH  49  63
ATOM     63  C   UNL A   1      40.482  33.788  38.483  1.00  0.00    -0.014 A 
ATOM     64  C   UNL A   1      39.924  33.341  39.690  1.00  0.00     0.009 A 
ATOM     65  C   UNL A   1      41.199  34.995  38.471  1.00  0.00     0.009 A 
ATOM     66  C   UNL A   1      40.065  34.097  40.855  1.00  0.00     0.001 A 
ATOM     67  C   UNL A   1      41.363  35.735  39.643  1.00  0.00     0.001 A 
ATOM     68  C   UNL A   1      40.791  35.288  40.833  1.00  0.00     0.000 A 
ENDBRANCH  49  63
BRANCH  50  69
ATOM     69  C   UNL A   1      39.916  28.813  29.849  1.00  0.00    -0.014 A 
ATOM     70  C   UNL A   1      40.317  29.457  28.668  1.00  0.00     0.009 A 
ATOM     71  C   UNL A   1      39.431  27.499  29.771  1.00  0.00     0.009 A 
ATOM     72  C   UNL A   1      40.187  28.818  27.433  1.00  0.00     0.001 A 
ATOM     73  C   UNL A   1      39.337  26.849  28.538  1.00  0.00     0.001 A 
ATOM     74  C   UNL A   1      39.698  27.514  27.369  1.00  0.00     0.000 A 
ENDBRANCH  50  69
BRANCH  62  75
ATOM     75  C   UNL A   1      44.412  28.764  35.159  1.00  0.00    -0.014 A 
ATOM     76  C   UNL A   1      45.681  29.290  34.874  1.00  0.00     0.009 A 
ATOM     77  C   UNL A   1      44.320  27.495  35.754  1.00  0.00     0.009 A 
ATOM     78  C   UNL A   1      46.830  28.548  35.150  1.00  0.00     0.001 A 
ATOM     79  C   UNL A   1      45.471  26.770  36.061  1.00  0.00     0.001 A 
ATOM     80  C   UNL A   1      46.725  27.293  35.750  1.00  0.00     0.000 A 
ENDBRANCH  62  75
ENDBRANCH  36  37
ENDBRANCH  28  31
ENDBRANCH  26  27
ENDBRANCH  25  26
ENDBRANCH  24  25
ENDBRANCH   1  24
TORSDOF 15
ENDMDL
