MODEL 1
REMARK VINA RESULT:     -12.3      0.000      0.000
REMARK SMILES CN1C(=O)C[C@@H](C(=O)NCCCCCCNC(=O)c2ccc(-c3c4nc(c(-c5ccccc5)c5ccc([nH]5)c(-c5ccccc5)c5nc(c(-c6ccccc6)c6ccc3[nH]6)C=C5)C=C4)cc2)C12CCN(S(=O)(=O)c1ccccc1F)CC2
REMARK SMILES IDX 12 1 11 2 10 3 9 4 7 5 8 6 6 8 1 9 2 10 3 11 67 12 4 13 5 14
REMARK SMILES IDX 68 15 82 16 69 17 81 18 70 19 71 20 72 21 73 22 74 23 75 24
REMARK SMILES IDX 79 25 76 26 78 27 80 28 77 29 13 30 14 31 15 32 16 33 17 34
REMARK SMILES IDX 18 36 19 37 20 38 66 39 21 40 65 41 22 42 23 43 24 44 59 45
REMARK SMILES IDX 25 46 64 47 58 48 60 49 26 50 63 51 57 52 56 53 27 55 49 56
REMARK SMILES IDX 34 57 48 58 35 59 38 60 47 61 61 62 36 63 37 64 46 66 62 67
REMARK SMILES IDX 39 68 28 69 29 70 33 71 30 72 32 73 31 74 50 75 51 76 55 77
REMARK SMILES IDX 52 78 54 79 53 80 40 81 41 82 45 83 42 84 44 85 43 86
REMARK H PARENT 9 7 16 35 60 54 38 65
REMARK Flexibility Score: inf
ROOT
ATOM      1  C   UNL A   1      36.892  22.329  25.299  1.00  0.00     0.002 C 
ENDROOT
BRANCH   1   2
ATOM      2  C   UNL A   1      35.670  23.236  25.456  1.00  0.00     0.021 C 
BRANCH   2   3
ATOM      3  C   UNL A   1      34.333  22.505  25.630  1.00  0.00     0.116 C 
BRANCH   3   4
ATOM      4  N   UNL A   1      33.435  23.163  26.566  1.00  0.00    -0.356 N 
ATOM      5  C   UNL A   1      32.170  23.648  26.477  1.00  0.00     0.226 C 
ATOM      6  O   UNL A   1      31.732  24.199  27.497  1.00  0.00    -0.275 OA
ATOM      7  H   UNL A   1      33.830  23.282  27.460  1.00  0.00     0.163 HD
BRANCH   5   8
ATOM      8  C   UNL A   1      31.267  23.600  25.236  1.00  0.00     0.113 C 
ATOM      9  C   UNL A   1      32.988  24.130  21.957  1.00  0.00     0.147 C 
ATOM     10  N   UNL A   1      32.233  23.670  23.110  1.00  0.00    -0.339 N 
ATOM     11  C   UNL A   1      31.968  22.327  23.337  1.00  0.00     0.223 C 
ATOM     12  C   UNL A   1      31.558  24.569  24.063  1.00  0.00     0.057 C 
ATOM     13  O   UNL A   1      32.321  21.385  22.647  1.00  0.00    -0.275 OA
ATOM     14  C   UNL A   1      31.195  22.202  24.620  1.00  0.00     0.116 C 
ATOM     15  C   UNL A   1      32.411  25.775  24.487  1.00  0.00     0.046 C 
ATOM     16  C   UNL A   1      30.237  25.066  23.388  1.00  0.00     0.046 C 
ATOM     17  C   UNL A   1      31.612  26.842  25.214  1.00  0.00     0.105 C 
ATOM     18  C   UNL A   1      29.567  26.269  24.059  1.00  0.00     0.105 C 
ATOM     19  N   UNL A   1      30.541  27.361  24.347  1.00  0.00    -0.198 NA
BRANCH  19  20
ATOM     20  S   UNL A   1      30.954  28.350  23.004  1.00  0.00     0.245 S 
ATOM     21  O   UNL A   1      32.241  28.965  23.247  1.00  0.00    -0.207 OA
ATOM     22  O   UNL A   1      30.773  27.524  21.825  1.00  0.00    -0.207 OA
BRANCH  20  23
ATOM     23  C   UNL A   1      29.740  29.635  22.938  1.00  0.00     0.118 A 
ATOM     24  C   UNL A   1      28.875  29.724  21.841  1.00  0.00     0.025 A 
ATOM     25  C   UNL A   1      29.722  30.639  23.903  1.00  0.00     0.143 A 
ATOM     26  C   UNL A   1      27.977  30.794  21.746  1.00  0.00     0.002 A 
ATOM     27  C   UNL A   1      28.808  31.688  23.826  1.00  0.00     0.041 A 
ATOM     28  F   UNL A   1      30.555  30.626  24.950  1.00  0.00    -0.206 F 
ATOM     29  C   UNL A   1      27.936  31.769  22.744  1.00  0.00     0.003 A 
ENDBRANCH  20  23
ENDBRANCH  19  20
ENDBRANCH   5   8
ENDBRANCH   3   4
ENDBRANCH   2   3
ENDBRANCH   1   2
BRANCH   1  30
ATOM     30  C   UNL A   1      36.580  20.871  24.956  1.00  0.00     0.002 C 
BRANCH  30  31
ATOM     31  C   UNL A   1      37.781  19.922  24.956  1.00  0.00     0.021 C 
BRANCH  31  32
ATOM     32  C   UNL A   1      39.022  20.442  25.678  1.00  0.00     0.116 C 
BRANCH  32  33
ATOM     33  N   UNL A   1      40.065  19.436  25.783  1.00  0.00    -0.352 N 
ATOM     34  C   UNL A   1      41.384  19.587  26.133  1.00  0.00     0.251 C 
ATOM     35  H   UNL A   1      39.786  18.515  25.574  1.00  0.00     0.163 HD
ATOM     36  O   UNL A   1      42.174  18.657  26.010  1.00  0.00    -0.269 OA
BRANCH  34  37
ATOM     37  C   UNL A   1      41.858  20.891  26.638  1.00  0.00     0.039 A 
ATOM     38  C   UNL A   1      42.400  21.810  25.735  1.00  0.00     0.014 A 
ATOM     39  C   UNL A   1      41.751  21.210  27.995  1.00  0.00     0.014 A 
ATOM     40  C   UNL A   1      42.767  23.081  26.182  1.00  0.00     0.010 A 
ATOM     41  C   UNL A   1      42.069  22.494  28.429  1.00  0.00     0.010 A 
ATOM     42  C   UNL A   1      42.567  23.444  27.523  1.00  0.00    -0.014 A 
BRANCH  42  43
ATOM     43  C   UNL A   1      42.841  24.821  27.999  1.00  0.00     0.031 A 
ATOM     44  C   UNL A   1      44.229  25.221  28.408  1.00  0.00     0.074 A 
ATOM     45  C   UNL A   1      41.821  25.690  28.136  1.00  0.00     0.049 A 
ATOM     46  N   UNL A   1      44.641  26.344  28.937  1.00  0.00    -0.248 NA
ATOM     47  C   UNL A   1      45.288  24.219  28.212  1.00  0.00     0.031 C 
ATOM     48  C   UNL A   1      40.424  25.419  27.793  1.00  0.00     0.029 A 
ATOM     49  N   UNL A   1      41.803  26.975  28.617  1.00  0.00    -0.354 N 
ATOM     50  C   UNL A   1      46.003  26.181  29.151  1.00  0.00     0.074 A 
ATOM     51  C   UNL A   1      46.340  24.838  28.728  1.00  0.00     0.031 C 
ATOM     52  C   UNL A   1      39.688  26.511  28.056  1.00  0.00     0.029 A 
ATOM     53  C   UNL A   1      40.552  27.540  28.624  1.00  0.00     0.049 A 
ATOM     54  H   UNL A   1      42.611  27.446  28.926  1.00  0.00     0.167 HD
ATOM     55  C   UNL A   1      46.896  27.072  29.643  1.00  0.00     0.031 A 
ATOM     56  C   UNL A   1      40.143  28.748  29.054  1.00  0.00     0.031 A 
ATOM     57  C   UNL A   1      46.565  28.408  30.062  1.00  0.00     0.049 A 
ATOM     58  C   UNL A   1      41.141  29.698  29.648  1.00  0.00     0.074 A 
ATOM     59  C   UNL A   1      47.410  29.403  30.522  1.00  0.00     0.029 A 
ATOM     60  N   UNL A   1      45.282  28.932  30.081  1.00  0.00    -0.354 N 
ATOM     61  N   UNL A   1      42.434  29.547  29.799  1.00  0.00    -0.248 NA
ATOM     62  C   UNL A   1      40.621  30.985  30.134  1.00  0.00     0.031 C 
ATOM     63  C   UNL A   1      46.630  30.516  30.861  1.00  0.00     0.029 A 
ATOM     64  C   UNL A   1      45.306  30.226  30.573  1.00  0.00     0.049 A 
ATOM     65  H   UNL A   1      44.472  28.454  29.787  1.00  0.00     0.167 HD
ATOM     66  C   UNL A   1      42.886  30.724  30.380  1.00  0.00     0.074 A 
ATOM     67  C   UNL A   1      41.731  31.584  30.545  1.00  0.00     0.031 C 
ATOM     68  C   UNL A   1      44.148  31.063  30.742  1.00  0.00     0.031 A 
BRANCH  55  69
ATOM     69  C   UNL A   1      48.322  26.617  29.764  1.00  0.00    -0.014 A 
ATOM     70  C   UNL A   1      49.280  26.971  28.801  1.00  0.00     0.009 A 
ATOM     71  C   UNL A   1      48.716  25.837  30.862  1.00  0.00     0.009 A 
ATOM     72  C   UNL A   1      50.596  26.521  28.915  1.00  0.00     0.001 A 
ATOM     73  C   UNL A   1      50.039  25.408  30.986  1.00  0.00     0.001 A 
ATOM     74  C   UNL A   1      50.976  25.742  30.007  1.00  0.00     0.000 A 
ENDBRANCH  55  69
BRANCH  56  75
ATOM     75  C   UNL A   1      38.713  29.129  28.934  1.00  0.00    -0.014 A 
ATOM     76  C   UNL A   1      37.849  28.977  30.029  1.00  0.00     0.009 A 
ATOM     77  C   UNL A   1      38.208  29.657  27.735  1.00  0.00     0.009 A 
ATOM     78  C   UNL A   1      36.504  29.334  29.922  1.00  0.00     0.001 A 
ATOM     79  C   UNL A   1      36.867  30.033  27.639  1.00  0.00     0.001 A 
ATOM     80  C   UNL A   1      36.015  29.866  28.730  1.00  0.00     0.000 A 
ENDBRANCH  56  75
BRANCH  68  81
ATOM     81  C   UNL A   1      44.345  32.427  31.336  1.00  0.00    -0.014 A 
ATOM     82  C   UNL A   1      44.351  32.615  32.726  1.00  0.00     0.009 A 
ATOM     83  C   UNL A   1      44.566  33.528  30.495  1.00  0.00     0.009 A 
ATOM     84  C   UNL A   1      44.553  33.889  33.262  1.00  0.00     0.001 A 
ATOM     85  C   UNL A   1      44.789  34.795  31.035  1.00  0.00     0.001 A 
ATOM     86  C   UNL A   1      44.777  34.975  32.417  1.00  0.00     0.000 A 
ENDBRANCH  68  81
ENDBRANCH  42  43
ENDBRANCH  34  37
ENDBRANCH  32  33
ENDBRANCH  31  32
ENDBRANCH  30  31
ENDBRANCH   1  30
TORSDOF 15
ENDMDL
MODEL 2
REMARK VINA RESULT:     -12.3      1.316      5.771
REMARK SMILES CN1C(=O)C[C@@H](C(=O)NCCCCCCNC(=O)c2ccc(-c3c4nc(c(-c5ccccc5)c5ccc([nH]5)c(-c5ccccc5)c5nc(c(-c6ccccc6)c6ccc3[nH]6)C=C5)C=C4)cc2)C12CCN(S(=O)(=O)c1ccccc1F)CC2
REMARK SMILES IDX 12 1 11 2 10 3 9 4 7 5 8 6 6 8 1 9 2 10 3 11 67 12 4 13 5 14
REMARK SMILES IDX 68 15 82 16 69 17 81 18 70 19 71 20 72 21 73 22 74 23 75 24
REMARK SMILES IDX 79 25 76 26 78 27 80 28 77 29 13 30 14 31 15 32 16 33 17 34
REMARK SMILES IDX 18 36 19 37 20 38 66 39 21 40 65 41 22 42 23 43 24 44 59 45
REMARK SMILES IDX 25 46 64 47 58 48 60 49 26 50 63 51 57 52 56 53 27 55 49 56
REMARK SMILES IDX 34 57 48 58 35 59 38 60 47 61 61 62 36 63 37 64 46 66 62 67
REMARK SMILES IDX 39 68 28 69 29 70 33 71 30 72 32 73 31 74 50 75 51 76 55 77
REMARK SMILES IDX 52 78 54 79 53 80 40 81 41 82 45 83 42 84 44 85 43 86
REMARK H PARENT 9 7 16 35 60 54 38 65
REMARK Flexibility Score: inf
ROOT
ATOM      1  C   UNL A   1      36.653  22.460  25.190  1.00  0.00     0.002 C 
ENDROOT
BRANCH   1   2
ATOM      2  C   UNL A   1      35.384  23.233  25.558  1.00  0.00     0.021 C 
BRANCH   2   3
ATOM      3  C   UNL A   1      34.215  22.370  26.049  1.00  0.00     0.116 C 
BRANCH   3   4
ATOM      4  N   UNL A   1      33.270  23.101  26.880  1.00  0.00    -0.356 N 
ATOM      5  C   UNL A   1      32.031  23.613  26.672  1.00  0.00     0.226 C 
ATOM      6  O   UNL A   1      31.536  24.228  27.626  1.00  0.00    -0.275 OA
ATOM      7  H   UNL A   1      33.602  23.256  27.794  1.00  0.00     0.163 HD
BRANCH   5   8
ATOM      8  C   UNL A   1      31.220  23.522  25.370  1.00  0.00     0.113 C 
ATOM      9  C   UNL A   1      33.154  24.074  22.216  1.00  0.00     0.147 C 
ATOM     10  N   UNL A   1      32.333  23.602  23.317  1.00  0.00    -0.339 N 
ATOM     11  C   UNL A   1      32.096  22.254  23.542  1.00  0.00     0.223 C 
ATOM     12  C   UNL A   1      31.564  24.488  24.209  1.00  0.00     0.057 C 
ATOM     13  O   UNL A   1      32.526  21.316  22.891  1.00  0.00    -0.275 OA
ATOM     14  C   UNL A   1      31.237  22.117  24.768  1.00  0.00     0.116 C 
ATOM     15  C   UNL A   1      32.346  25.726  24.677  1.00  0.00     0.046 C 
ATOM     16  C   UNL A   1      30.279  24.936  23.435  1.00  0.00     0.046 C 
ATOM     17  C   UNL A   1      31.465  26.773  25.331  1.00  0.00     0.105 C 
ATOM     18  C   UNL A   1      29.526  26.124  24.042  1.00  0.00     0.105 C 
ATOM     19  N   UNL A   1      30.442  27.249  24.384  1.00  0.00    -0.198 NA
BRANCH  19  20
ATOM     20  S   UNL A   1      30.919  28.237  23.062  1.00  0.00     0.245 S 
ATOM     21  O   UNL A   1      32.226  28.793  23.333  1.00  0.00    -0.207 OA
ATOM     22  O   UNL A   1      30.723  27.434  21.869  1.00  0.00    -0.207 OA
BRANCH  20  23
ATOM     23  C   UNL A   1      29.761  29.573  22.993  1.00  0.00     0.118 A 
ATOM     24  C   UNL A   1      28.893  29.690  21.902  1.00  0.00     0.025 A 
ATOM     25  C   UNL A   1      29.793  30.584  23.950  1.00  0.00     0.143 A 
ATOM     26  C   UNL A   1      28.041  30.798  21.805  1.00  0.00     0.002 A 
ATOM     27  C   UNL A   1      28.926  31.671  23.871  1.00  0.00     0.041 A 
ATOM     28  F   UNL A   1      30.633  30.543  24.992  1.00  0.00    -0.206 F 
ATOM     29  C   UNL A   1      28.050  31.781  22.794  1.00  0.00     0.003 A 
ENDBRANCH  20  23
ENDBRANCH  19  20
ENDBRANCH   5   8
ENDBRANCH   3   4
ENDBRANCH   2   3
ENDBRANCH   1   2
BRANCH   1  30
ATOM     30  C   UNL A   1      36.512  20.937  25.199  1.00  0.00     0.002 C 
BRANCH  30  31
ATOM     31  C   UNL A   1      37.782  20.155  24.853  1.00  0.00     0.021 C 
BRANCH  31  32
ATOM     32  C   UNL A   1      38.986  20.441  25.749  1.00  0.00     0.116 C 
BRANCH  32  33
ATOM     33  N   UNL A   1      39.923  19.331  25.789  1.00  0.00    -0.352 N 
ATOM     34  C   UNL A   1      41.282  19.348  25.988  1.00  0.00     0.251 C 
ATOM     35  H   UNL A   1      39.528  18.439  25.653  1.00  0.00     0.163 HD
ATOM     36  O   UNL A   1      41.951  18.334  25.825  1.00  0.00    -0.269 OA
BRANCH  34  37
ATOM     37  C   UNL A   1      41.943  20.610  26.378  1.00  0.00     0.039 A 
ATOM     38  C   UNL A   1      42.370  21.488  25.379  1.00  0.00     0.014 A 
ATOM     39  C   UNL A   1      42.124  20.930  27.728  1.00  0.00     0.014 A 
ATOM     40  C   UNL A   1      42.912  22.725  25.733  1.00  0.00     0.010 A 
ATOM     41  C   UNL A   1      42.617  22.184  28.078  1.00  0.00     0.010 A 
ATOM     42  C   UNL A   1      43.003  23.096  27.084  1.00  0.00    -0.014 A 
BRANCH  42  43
ATOM     43  C   UNL A   1      43.469  24.446  27.483  1.00  0.00     0.031 A 
ATOM     44  C   UNL A   1      42.481  25.499  27.894  1.00  0.00     0.074 A 
ATOM     45  C   UNL A   1      44.779  24.747  27.400  1.00  0.00     0.049 A 
ATOM     46  N   UNL A   1      42.689  26.758  28.182  1.00  0.00    -0.248 NA
ATOM     47  C   UNL A   1      41.071  25.085  27.974  1.00  0.00     0.031 C 
ATOM     48  C   UNL A   1      45.838  23.820  26.996  1.00  0.00     0.029 A 
ATOM     49  N   UNL A   1      45.439  25.926  27.637  1.00  0.00    -0.354 N 
ATOM     50  C   UNL A   1      41.439  27.291  28.463  1.00  0.00     0.074 A 
ATOM     51  C   UNL A   1      40.473  26.228  28.276  1.00  0.00     0.031 C 
ATOM     52  C   UNL A   1      47.018  24.460  27.033  1.00  0.00     0.029 A 
ATOM     53  C   UNL A   1      46.793  25.849  27.420  1.00  0.00     0.049 A 
ATOM     54  H   UNL A   1      44.986  26.747  27.936  1.00  0.00     0.167 HD
ATOM     55  C   UNL A   1      41.122  28.548  28.855  1.00  0.00     0.031 A 
ATOM     56  C   UNL A   1      47.746  26.795  27.507  1.00  0.00     0.031 A 
ATOM     57  C   UNL A   1      42.079  29.606  29.043  1.00  0.00     0.049 A 
ATOM     58  C   UNL A   1      47.364  28.196  27.889  1.00  0.00     0.074 A 
ATOM     59  C   UNL A   1      41.861  30.897  29.491  1.00  0.00     0.029 A 
ATOM     60  N   UNL A   1      43.436  29.496  28.784  1.00  0.00    -0.354 N 
ATOM     61  N   UNL A   1      46.183  28.672  28.198  1.00  0.00    -0.248 NA
ATOM     62  C   UNL A   1      48.447  29.189  27.928  1.00  0.00     0.031 C 
ATOM     63  C   UNL A   1      43.082  31.582  29.461  1.00  0.00     0.029 A 
ATOM     64  C   UNL A   1      44.065  30.704  29.034  1.00  0.00     0.049 A 
ATOM     65  H   UNL A   1      43.886  28.678  28.469  1.00  0.00     0.167 HD
ATOM     66  C   UNL A   1      46.382  30.016  28.487  1.00  0.00     0.074 A 
ATOM     67  C   UNL A   1      47.798  30.276  28.326  1.00  0.00     0.031 C 
ATOM     68  C   UNL A   1      45.471  30.949  28.857  1.00  0.00     0.031 A 
BRANCH  55  69
ATOM     69  C   UNL A   1      39.670  28.846  29.093  1.00  0.00    -0.014 A 
ATOM     70  C   UNL A   1      38.848  29.321  28.058  1.00  0.00     0.009 A 
ATOM     71  C   UNL A   1      39.112  28.637  30.364  1.00  0.00     0.009 A 
ATOM     72  C   UNL A   1      37.506  29.617  28.301  1.00  0.00     0.001 A 
ATOM     73  C   UNL A   1      37.763  28.911  30.597  1.00  0.00     0.001 A 
ATOM     74  C   UNL A   1      36.964  29.410  29.569  1.00  0.00     0.000 A 
ENDBRANCH  55  69
BRANCH  56  75
ATOM     75  C   UNL A   1      49.161  26.445  27.232  1.00  0.00    -0.014 A 
ATOM     76  C   UNL A   1      49.652  26.479  25.918  1.00  0.00     0.009 A 
ATOM     77  C   UNL A   1      50.031  26.090  28.275  1.00  0.00     0.009 A 
ATOM     78  C   UNL A   1      50.983  26.151  25.652  1.00  0.00     0.001 A 
ATOM     79  C   UNL A   1      51.367  25.785  28.008  1.00  0.00     0.001 A 
ATOM     80  C   UNL A   1      51.840  25.809  26.698  1.00  0.00     0.000 A 
ENDBRANCH  56  75
BRANCH  68  81
ATOM     81  C   UNL A   1      45.984  32.333  29.126  1.00  0.00    -0.014 A 
ATOM     82  C   UNL A   1      45.857  33.351  28.168  1.00  0.00     0.009 A 
ATOM     83  C   UNL A   1      46.565  32.632  30.369  1.00  0.00     0.009 A 
ATOM     84  C   UNL A   1      46.324  34.638  28.443  1.00  0.00     0.001 A 
ATOM     85  C   UNL A   1      47.011  33.924  30.647  1.00  0.00     0.001 A 
ATOM     86  C   UNL A   1      46.895  34.924  29.683  1.00  0.00     0.000 A 
ENDBRANCH  68  81
ENDBRANCH  42  43
ENDBRANCH  34  37
ENDBRANCH  32  33
ENDBRANCH  31  32
ENDBRANCH  30  31
ENDBRANCH   1  30
TORSDOF 15
ENDMDL
MODEL 3
REMARK VINA RESULT:     -12.2      1.506      5.927
REMARK SMILES CN1C(=O)C[C@@H](C(=O)NCCCCCCNC(=O)c2ccc(-c3c4nc(c(-c5ccccc5)c5ccc([nH]5)c(-c5ccccc5)c5nc(c(-c6ccccc6)c6ccc3[nH]6)C=C5)C=C4)cc2)C12CCN(S(=O)(=O)c1ccccc1F)CC2
REMARK SMILES IDX 12 1 11 2 10 3 9 4 7 5 8 6 6 8 1 9 2 10 3 11 67 12 4 13 5 14
REMARK SMILES IDX 68 15 82 16 69 17 81 18 70 19 71 20 72 21 73 22 74 23 75 24
REMARK SMILES IDX 79 25 76 26 78 27 80 28 77 29 13 30 14 31 15 32 16 33 17 34
REMARK SMILES IDX 18 36 19 37 20 38 66 39 21 40 65 41 22 42 23 43 24 44 59 45
REMARK SMILES IDX 25 46 64 47 58 48 60 49 26 50 63 51 57 52 56 53 27 55 49 56
REMARK SMILES IDX 34 57 48 58 35 59 38 60 47 61 61 62 36 63 37 64 46 66 62 67
REMARK SMILES IDX 39 68 28 69 29 70 33 71 30 72 32 73 31 74 50 75 51 76 55 77
REMARK SMILES IDX 52 78 54 79 53 80 40 81 41 82 45 83 42 84 44 85 43 86
REMARK H PARENT 9 7 16 35 60 54 38 65
REMARK Flexibility Score: inf
ROOT
ATOM      1  C   UNL A   1      35.948  22.604  25.836  1.00  0.00     0.002 C 
ENDROOT
BRANCH   1   2
ATOM      2  C   UNL A   1      34.789  22.902  26.791  1.00  0.00     0.021 C 
BRANCH   2   3
ATOM      3  C   UNL A   1      33.667  21.858  26.801  1.00  0.00     0.116 C 
BRANCH   3   4
ATOM      4  N   UNL A   1      32.408  22.371  27.318  1.00  0.00    -0.356 N 
ATOM      5  C   UNL A   1      31.299  22.903  26.743  1.00  0.00     0.226 C 
ATOM      6  O   UNL A   1      30.417  23.281  27.525  1.00  0.00    -0.275 OA
ATOM      7  H   UNL A   1      32.346  22.321  28.299  1.00  0.00     0.163 HD
BRANCH   5   8
ATOM      8  C   UNL A   1      31.064  23.097  25.238  1.00  0.00     0.113 C 
ATOM      9  C   UNL A   1      34.001  24.350  23.288  1.00  0.00     0.147 C 
ATOM     10  N   UNL A   1      32.868  23.639  23.855  1.00  0.00    -0.339 N 
ATOM     11  C   UNL A   1      32.691  22.273  23.691  1.00  0.00     0.223 C 
ATOM     12  C   UNL A   1      31.736  24.299  24.527  1.00  0.00     0.057 C 
ATOM     13  O   UNL A   1      33.425  21.506  23.090  1.00  0.00    -0.275 OA
ATOM     14  C   UNL A   1      31.444  21.861  24.422  1.00  0.00     0.116 C 
ATOM     15  C   UNL A   1      32.157  25.408  25.505  1.00  0.00     0.046 C 
ATOM     16  C   UNL A   1      30.811  24.898  23.415  1.00  0.00     0.046 C 
ATOM     17  C   UNL A   1      30.996  26.277  25.953  1.00  0.00     0.105 C 
ATOM     18  C   UNL A   1      29.774  25.916  23.899  1.00  0.00     0.105 C 
ATOM     19  N   UNL A   1      30.377  26.944  24.795  1.00  0.00    -0.198 NA
BRANCH  19  20
ATOM     20  S   UNL A   1      31.230  28.204  23.998  1.00  0.00     0.245 S 
ATOM     21  O   UNL A   1      32.243  27.624  23.143  1.00  0.00    -0.207 OA
ATOM     22  O   UNL A   1      30.220  29.068  23.416  1.00  0.00    -0.207 OA
BRANCH  20  23
ATOM     23  C   UNL A   1      32.050  29.131  25.263  1.00  0.00     0.118 A 
ATOM     24  C   UNL A   1      31.414  30.232  25.846  1.00  0.00     0.025 A 
ATOM     25  C   UNL A   1      33.375  28.856  25.592  1.00  0.00     0.143 A 
ATOM     26  C   UNL A   1      32.099  31.018  26.780  1.00  0.00     0.002 A 
ATOM     27  C   UNL A   1      34.048  29.619  26.544  1.00  0.00     0.041 A 
ATOM     28  F   UNL A   1      34.045  27.840  25.033  1.00  0.00    -0.206 F 
ATOM     29  C   UNL A   1      33.411  30.705  27.137  1.00  0.00     0.003 A 
ENDBRANCH  20  23
ENDBRANCH  19  20
ENDBRANCH   5   8
ENDBRANCH   3   4
ENDBRANCH   2   3
ENDBRANCH   1   2
BRANCH   1  30
ATOM     30  C   UNL A   1      36.016  21.163  25.327  1.00  0.00     0.002 C 
BRANCH  30  31
ATOM     31  C   UNL A   1      37.376  20.719  24.783  1.00  0.00     0.021 C 
BRANCH  31  32
ATOM     32  C   UNL A   1      38.561  20.959  25.716  1.00  0.00     0.116 C 
BRANCH  32  33
ATOM     33  N   UNL A   1      39.497  19.848  25.722  1.00  0.00    -0.352 N 
ATOM     34  C   UNL A   1      40.838  19.844  26.014  1.00  0.00     0.251 C 
ATOM     35  H   UNL A   1      39.114  18.973  25.482  1.00  0.00     0.163 HD
ATOM     36  O   UNL A   1      41.520  18.846  25.808  1.00  0.00    -0.269 OA
BRANCH  34  37
ATOM     37  C   UNL A   1      41.467  21.064  26.558  1.00  0.00     0.039 A 
ATOM     38  C   UNL A   1      42.020  21.993  25.672  1.00  0.00     0.014 A 
ATOM     39  C   UNL A   1      41.495  21.296  27.937  1.00  0.00     0.014 A 
ATOM     40  C   UNL A   1      42.535  23.194  26.165  1.00  0.00     0.010 A 
ATOM     41  C   UNL A   1      41.962  22.515  28.421  1.00  0.00     0.010 A 
ATOM     42  C   UNL A   1      42.474  23.479  27.538  1.00  0.00    -0.014 A 
BRANCH  42  43
ATOM     43  C   UNL A   1      42.909  24.791  28.074  1.00  0.00     0.031 A 
ATOM     44  C   UNL A   1      41.898  25.857  28.384  1.00  0.00     0.074 A 
ATOM     45  C   UNL A   1      44.224  25.049  28.207  1.00  0.00     0.049 A 
ATOM     46  N   UNL A   1      42.094  27.093  28.766  1.00  0.00    -0.248 NA
ATOM     47  C   UNL A   1      40.483  25.489  28.226  1.00  0.00     0.031 C 
ATOM     48  C   UNL A   1      45.307  24.107  27.921  1.00  0.00     0.029 A 
ATOM     49  N   UNL A   1      44.872  26.192  28.604  1.00  0.00    -0.354 N 
ATOM     50  C   UNL A   1      40.831  27.655  28.881  1.00  0.00     0.074 A 
ATOM     51  C   UNL A   1      39.877  26.637  28.493  1.00  0.00     0.031 C 
ATOM     52  C   UNL A   1      46.484  24.702  28.171  1.00  0.00     0.029 A 
ATOM     53  C   UNL A   1      46.240  26.078  28.592  1.00  0.00     0.049 A 
ATOM     54  H   UNL A   1      44.401  27.014  28.872  1.00  0.00     0.167 HD
ATOM     55  C   UNL A   1      40.492  28.902  29.284  1.00  0.00     0.031 A 
ATOM     56  C   UNL A   1      47.194  26.985  28.873  1.00  0.00     0.031 A 
ATOM     57  C   UNL A   1      41.436  29.917  29.671  1.00  0.00     0.049 A 
ATOM     58  C   UNL A   1      46.796  28.379  29.264  1.00  0.00     0.074 A 
ATOM     59  C   UNL A   1      41.187  31.192  30.148  1.00  0.00     0.029 A 
ATOM     60  N   UNL A   1      42.814  29.771  29.617  1.00  0.00    -0.354 N 
ATOM     61  N   UNL A   1      45.594  28.881  29.415  1.00  0.00    -0.248 NA
ATOM     62  C   UNL A   1      47.886  29.331  29.520  1.00  0.00     0.031 C 
ATOM     63  C   UNL A   1      42.417  31.834  30.340  1.00  0.00     0.029 A 
ATOM     64  C   UNL A   1      43.429  30.943  30.023  1.00  0.00     0.049 A 
ATOM     65  H   UNL A   1      43.285  28.954  29.332  1.00  0.00     0.167 HD
ATOM     66  C   UNL A   1      45.783  30.201  29.801  1.00  0.00     0.074 A 
ATOM     67  C   UNL A   1      47.214  30.419  29.871  1.00  0.00     0.031 C 
ATOM     68  C   UNL A   1      44.852  31.148  30.075  1.00  0.00     0.031 A 
BRANCH  55  69
ATOM     69  C   UNL A   1      39.028  29.240  29.313  1.00  0.00    -0.014 A 
ATOM     70  C   UNL A   1      38.383  29.765  28.183  1.00  0.00     0.009 A 
ATOM     71  C   UNL A   1      38.283  29.017  30.481  1.00  0.00     0.009 A 
ATOM     72  C   UNL A   1      37.028  30.096  28.233  1.00  0.00     0.001 A 
ATOM     73  C   UNL A   1      36.922  29.327  30.521  1.00  0.00     0.001 A 
ATOM     74  C   UNL A   1      36.298  29.875  29.400  1.00  0.00     0.000 A 
ENDBRANCH  55  69
BRANCH  56  75
ATOM     75  C   UNL A   1      48.625  26.599  28.798  1.00  0.00    -0.014 A 
ATOM     76  C   UNL A   1      49.330  26.741  27.594  1.00  0.00     0.009 A 
ATOM     77  C   UNL A   1      49.295  26.103  29.927  1.00  0.00     0.009 A 
ATOM     78  C   UNL A   1      50.677  26.380  27.518  1.00  0.00     0.001 A 
ATOM     79  C   UNL A   1      50.648  25.764  29.853  1.00  0.00     0.001 A 
ATOM     80  C   UNL A   1      51.336  25.897  28.648  1.00  0.00     0.000 A 
ENDBRANCH  56  75
BRANCH  68  81
ATOM     81  C   UNL A   1      45.355  32.499  30.492  1.00  0.00    -0.014 A 
ATOM     82  C   UNL A   1      45.520  33.529  29.554  1.00  0.00     0.009 A 
ATOM     83  C   UNL A   1      45.628  32.754  31.845  1.00  0.00     0.009 A 
ATOM     84  C   UNL A   1      45.972  34.786  29.963  1.00  0.00     0.001 A 
ATOM     85  C   UNL A   1      46.059  34.017  32.252  1.00  0.00     0.001 A 
ATOM     86  C   UNL A   1      46.236  35.030  31.310  1.00  0.00     0.000 A 
ENDBRANCH  68  81
ENDBRANCH  42  43
ENDBRANCH  34  37
ENDBRANCH  32  33
ENDBRANCH  31  32
ENDBRANCH  30  31
ENDBRANCH   1  30
TORSDOF 15
ENDMDL
