MODEL 1
REMARK VINA RESULT:     -10.2      0.000      0.000
REMARK SMILES CCc1ccc(S(=O)(=O)CC(=O)NCCCCCCNC(=O)c2ccc(-c3c4nc(c(-c5ccccc5)c5ccc([nH]5)c(-c5ccccc5)c5nc(c(-c6ccccc6)c6ccc3[nH]6)C=C5)C=C4)cc2)cc1
REMARK SMILES IDX 16 1 15 2 14 3 13 4 11 5 12 6 10 8 7 9 8 10 9 11 6 12 3 13
REMARK SMILES IDX 4 14 72 15 5 16 71 17 2 18 1 19 17 20 18 21 19 22 20 23
REMARK SMILES IDX 21 24 22 26 23 27 24 28 70 29 25 30 69 31 26 32 27 33 28 34
REMARK SMILES IDX 63 35 29 36 68 37 62 38 64 39 30 40 67 41 61 42 60 43 31 45
REMARK SMILES IDX 53 46 38 47 52 48 39 49 42 50 51 51 65 52 40 53 41 54 50 56
REMARK SMILES IDX 66 57 43 58 32 59 33 60 37 61 34 62 36 63 35 64 54 65 55 66
REMARK SMILES IDX 59 67 56 68 58 69 57 70 44 71 45 72 49 73 46 74 48 75 47 76
REMARK H PARENT 13 7 20 25 64 44 42 55
REMARK Flexibility Score: inf
ROOT
ATOM      1  C   UNL A   1      36.565  21.889  24.258  1.00  0.00     0.002 C 
ENDROOT
BRANCH   1   2
ATOM      2  C   UNL A   1      36.672  23.110  25.184  1.00  0.00     0.021 C 
BRANCH   2   3
ATOM      3  C   UNL A   1      35.377  23.436  25.929  1.00  0.00     0.116 C 
BRANCH   3   4
ATOM      4  N   UNL A   1      34.891  24.744  25.538  1.00  0.00    -0.355 N 
ATOM      5  C   UNL A   1      34.195  25.119  24.435  1.00  0.00     0.235 C 
ATOM      6  O   UNL A   1      34.017  26.327  24.262  1.00  0.00    -0.274 OA
ATOM      7  H   UNL A   1      35.099  25.472  26.167  1.00  0.00     0.163 HD
BRANCH   5   8
ATOM      8  C   UNL A   1      33.547  24.120  23.535  1.00  0.00     0.241 C 
BRANCH   8   9
ATOM      9  S   UNL A   1      32.135  23.308  24.181  1.00  0.00     0.187 S 
ATOM     10  O   UNL A   1      31.054  23.526  23.236  1.00  0.00    -0.223 OA
ATOM     11  O   UNL A   1      31.967  23.747  25.559  1.00  0.00    -0.223 OA
BRANCH   9  12
ATOM     12  C   UNL A   1      32.357  21.552  24.246  1.00  0.00     0.067 A 
ATOM     13  C   UNL A   1      32.736  18.767  24.194  1.00  0.00    -0.048 A 
ATOM     14  C   UNL A   1      32.391  19.458  23.026  1.00  0.00     0.005 A 
ATOM     15  C   UNL A   1      32.905  19.500  25.380  1.00  0.00     0.005 A 
ATOM     16  C   UNL A   1      32.188  20.839  23.054  1.00  0.00     0.020 A 
ATOM     17  C   UNL A   1      32.732  20.887  25.409  1.00  0.00     0.020 A 
BRANCH  13  18
ATOM     18  C   UNL A   1      33.023  17.282  24.206  1.00  0.00     0.032 C 
ATOM     19  C   UNL A   1      34.150  16.811  23.296  1.00  0.00     0.009 C 
ENDBRANCH  13  18
ENDBRANCH   9  12
ENDBRANCH   8   9
ENDBRANCH   5   8
ENDBRANCH   3   4
ENDBRANCH   2   3
ENDBRANCH   1   2
BRANCH   1  20
ATOM     20  C   UNL A   1      36.519  20.533  24.971  1.00  0.00     0.002 C 
BRANCH  20  21
ATOM     21  C   UNL A   1      37.807  19.713  24.878  1.00  0.00     0.021 C 
BRANCH  21  22
ATOM     22  C   UNL A   1      38.954  20.239  25.733  1.00  0.00     0.116 C 
BRANCH  22  23
ATOM     23  N   UNL A   1      40.075  19.312  25.772  1.00  0.00    -0.352 N 
ATOM     24  C   UNL A   1      41.396  19.560  26.046  1.00  0.00     0.251 C 
ATOM     25  H   UNL A   1      39.853  18.373  25.574  1.00  0.00     0.163 HD
ATOM     26  O   UNL A   1      42.245  18.698  25.840  1.00  0.00    -0.269 OA
BRANCH  24  27
ATOM     27  C   UNL A   1      41.799  20.880  26.573  1.00  0.00     0.039 A 
ATOM     28  C   UNL A   1      42.253  21.856  25.683  1.00  0.00     0.014 A 
ATOM     29  C   UNL A   1      41.735  21.152  27.943  1.00  0.00     0.014 A 
ATOM     30  C   UNL A   1      42.586  23.126  26.158  1.00  0.00     0.010 A 
ATOM     31  C   UNL A   1      41.996  22.439  28.405  1.00  0.00     0.010 A 
ATOM     32  C   UNL A   1      42.429  23.437  27.519  1.00  0.00    -0.014 A 
BRANCH  32  33
ATOM     33  C   UNL A   1      42.715  24.799  28.036  1.00  0.00     0.031 A 
ATOM     34  C   UNL A   1      44.112  25.171  28.449  1.00  0.00     0.074 A 
ATOM     35  C   UNL A   1      41.708  25.680  28.190  1.00  0.00     0.049 A 
ATOM     36  N   UNL A   1      44.546  26.286  28.981  1.00  0.00    -0.248 NA
ATOM     37  C   UNL A   1      45.155  24.149  28.262  1.00  0.00     0.031 C 
ATOM     38  C   UNL A   1      40.303  25.430  27.858  1.00  0.00     0.029 A 
ATOM     39  N   UNL A   1      41.711  26.964  28.675  1.00  0.00    -0.354 N 
ATOM     40  C   UNL A   1      45.904  26.094  29.203  1.00  0.00     0.074 A 
ATOM     41  C   UNL A   1      46.211  24.740  28.799  1.00  0.00     0.031 C 
ATOM     42  C   UNL A   1      39.587  26.535  28.122  1.00  0.00     0.029 A 
ATOM     43  C   UNL A   1      40.470  27.553  28.683  1.00  0.00     0.049 A 
ATOM     44  H   UNL A   1      42.527  27.420  28.986  1.00  0.00     0.167 HD
ATOM     45  C   UNL A   1      46.818  26.972  29.681  1.00  0.00     0.031 A 
ATOM     46  C   UNL A   1      40.085  28.772  29.104  1.00  0.00     0.031 A 
ATOM     47  C   UNL A   1      46.514  28.320  30.080  1.00  0.00     0.049 A 
ATOM     48  C   UNL A   1      41.114  29.717  29.660  1.00  0.00     0.074 A 
ATOM     49  C   UNL A   1      47.378  29.301  30.536  1.00  0.00     0.029 A 
ATOM     50  N   UNL A   1      45.244  28.876  30.074  1.00  0.00    -0.354 N 
ATOM     51  N   UNL A   1      42.405  29.541  29.805  1.00  0.00    -0.248 NA
ATOM     52  C   UNL A   1      40.631  31.033  30.101  1.00  0.00     0.031 C 
ATOM     53  C   UNL A   1      46.624  30.434  30.855  1.00  0.00     0.029 A 
ATOM     54  C   UNL A   1      45.298  30.180  30.540  1.00  0.00     0.049 A 
ATOM     55  H   UNL A   1      44.425  28.414  29.782  1.00  0.00     0.167 HD
ATOM     56  C   UNL A   1      42.893  30.734  30.323  1.00  0.00     0.074 A 
ATOM     57  C   UNL A   1      41.762  31.630  30.453  1.00  0.00     0.031 C 
ATOM     58  C   UNL A   1      44.165  31.059  30.660  1.00  0.00     0.031 A 
BRANCH  45  59
ATOM     59  C   UNL A   1      48.238  26.493  29.803  1.00  0.00    -0.014 A 
ATOM     60  C   UNL A   1      48.689  25.839  30.960  1.00  0.00     0.009 A 
ATOM     61  C   UNL A   1      49.131  26.669  28.733  1.00  0.00     0.009 A 
ATOM     62  C   UNL A   1      50.012  25.406  31.060  1.00  0.00     0.001 A 
ATOM     63  C   UNL A   1      50.445  26.208  28.824  1.00  0.00     0.001 A 
ATOM     64  C   UNL A   1      50.888  25.586  29.990  1.00  0.00     0.000 A 
ENDBRANCH  45  59
BRANCH  46  65
ATOM     65  C   UNL A   1      38.658  29.180  29.007  1.00  0.00    -0.014 A 
ATOM     66  C   UNL A   1      38.155  29.733  27.820  1.00  0.00     0.009 A 
ATOM     67  C   UNL A   1      37.796  29.032  30.105  1.00  0.00     0.009 A 
ATOM     68  C   UNL A   1      36.826  30.159  27.744  1.00  0.00     0.001 A 
ATOM     69  C   UNL A   1      36.460  29.431  30.016  1.00  0.00     0.001 A 
ATOM     70  C   UNL A   1      35.980  30.004  28.841  1.00  0.00     0.000 A 
ENDBRANCH  46  65
BRANCH  58  71
ATOM     71  C   UNL A   1      44.409  32.455  31.162  1.00  0.00    -0.014 A 
ATOM     72  C   UNL A   1      44.687  33.511  30.280  1.00  0.00     0.009 A 
ATOM     73  C   UNL A   1      44.318  32.721  32.537  1.00  0.00     0.009 A 
ATOM     74  C   UNL A   1      44.902  34.801  30.771  1.00  0.00     0.001 A 
ATOM     75  C   UNL A   1      44.504  34.017  33.022  1.00  0.00     0.001 A 
ATOM     76  C   UNL A   1      44.805  35.053  32.140  1.00  0.00     0.000 A 
ENDBRANCH  58  71
ENDBRANCH  32  33
ENDBRANCH  24  27
ENDBRANCH  22  23
ENDBRANCH  21  22
ENDBRANCH  20  21
ENDBRANCH   1  20
TORSDOF 16
ENDMDL
MODEL 2
REMARK VINA RESULT:     -10.2      4.693      8.345
REMARK SMILES CCc1ccc(S(=O)(=O)CC(=O)NCCCCCCNC(=O)c2ccc(-c3c4nc(c(-c5ccccc5)c5ccc([nH]5)c(-c5ccccc5)c5nc(c(-c6ccccc6)c6ccc3[nH]6)C=C5)C=C4)cc2)cc1
REMARK SMILES IDX 16 1 15 2 14 3 13 4 11 5 12 6 10 8 7 9 8 10 9 11 6 12 3 13
REMARK SMILES IDX 4 14 72 15 5 16 71 17 2 18 1 19 17 20 18 21 19 22 20 23
REMARK SMILES IDX 21 24 22 26 23 27 24 28 70 29 25 30 69 31 26 32 27 33 28 34
REMARK SMILES IDX 63 35 29 36 68 37 62 38 64 39 30 40 67 41 61 42 60 43 31 45
REMARK SMILES IDX 53 46 38 47 52 48 39 49 42 50 51 51 65 52 40 53 41 54 50 56
REMARK SMILES IDX 66 57 43 58 32 59 33 60 37 61 34 62 36 63 35 64 54 65 55 66
REMARK SMILES IDX 59 67 56 68 58 69 57 70 44 71 45 72 49 73 46 74 48 75 47 76
REMARK H PARENT 13 7 20 25 64 44 42 55
REMARK Flexibility Score: inf
ROOT
ATOM      1  C   UNL A   1      45.903  21.508  25.371  1.00  0.00     0.002 C 
ENDROOT
BRANCH   1   2
ATOM      2  C   UNL A   1      45.600  22.697  24.446  1.00  0.00     0.021 C 
BRANCH   2   3
ATOM      3  C   UNL A   1      46.272  24.001  24.876  1.00  0.00     0.116 C 
BRANCH   3   4
ATOM      4  N   UNL A   1      45.292  25.067  24.952  1.00  0.00    -0.355 N 
ATOM      5  C   UNL A   1      45.362  26.268  25.579  1.00  0.00     0.235 C 
ATOM      6  O   UNL A   1      44.334  26.949  25.613  1.00  0.00    -0.274 OA
ATOM      7  H   UNL A   1      44.447  24.892  24.478  1.00  0.00     0.163 HD
BRANCH   5   8
ATOM      8  C   UNL A   1      46.652  26.817  26.089  1.00  0.00     0.241 C 
BRANCH   8   9
ATOM      9  S   UNL A   1      47.585  27.768  24.949  1.00  0.00     0.187 S 
ATOM     10  O   UNL A   1      47.683  29.108  25.501  1.00  0.00    -0.223 OA
ATOM     11  O   UNL A   1      46.988  27.588  23.634  1.00  0.00    -0.223 OA
BRANCH   9  12
ATOM     12  C   UNL A   1      49.253  27.189  24.817  1.00  0.00     0.067 A 
ATOM     13  C   UNL A   1      51.858  26.139  24.686  1.00  0.00    -0.048 A 
ATOM     14  C   UNL A   1      50.963  25.695  25.667  1.00  0.00     0.005 A 
ATOM     15  C   UNL A   1      51.416  27.102  23.763  1.00  0.00     0.005 A 
ATOM     16  C   UNL A   1      49.674  26.227  25.742  1.00  0.00     0.020 A 
ATOM     17  C   UNL A   1      50.117  27.617  23.814  1.00  0.00     0.020 A 
BRANCH  13  18
ATOM     18  C   UNL A   1      53.244  25.556  24.525  1.00  0.00     0.032 C 
ATOM     19  C   UNL A   1      53.526  24.277  25.304  1.00  0.00     0.009 C 
ENDBRANCH  13  18
ENDBRANCH   9  12
ENDBRANCH   8   9
ENDBRANCH   5   8
ENDBRANCH   3   4
ENDBRANCH   2   3
ENDBRANCH   1   2
BRANCH   1  20
ATOM     20  C   UNL A   1      46.235  20.194  24.655  1.00  0.00     0.002 C 
BRANCH  20  21
ATOM     21  C   UNL A   1      45.089  19.181  24.605  1.00  0.00     0.021 C 
BRANCH  21  22
ATOM     22  C   UNL A   1      44.244  19.122  25.871  1.00  0.00     0.116 C 
BRANCH  22  23
ATOM     23  N   UNL A   1      42.844  18.848  25.581  1.00  0.00    -0.352 N 
ATOM     24  C   UNL A   1      41.730  19.577  25.913  1.00  0.00     0.251 C 
ATOM     25  H   UNL A   1      42.673  18.023  25.073  1.00  0.00     0.163 HD
ATOM     26  O   UNL A   1      40.610  19.101  25.764  1.00  0.00    -0.269 OA
BRANCH  24  27
ATOM     27  C   UNL A   1      41.884  20.936  26.473  1.00  0.00     0.039 A 
ATOM     28  C   UNL A   1      41.740  21.122  27.849  1.00  0.00     0.014 A 
ATOM     29  C   UNL A   1      42.165  22.023  25.640  1.00  0.00     0.014 A 
ATOM     30  C   UNL A   1      41.937  22.391  28.400  1.00  0.00     0.010 A 
ATOM     31  C   UNL A   1      42.433  23.270  26.198  1.00  0.00     0.010 A 
ATOM     32  C   UNL A   1      42.317  23.468  27.583  1.00  0.00    -0.014 A 
BRANCH  32  33
ATOM     33  C   UNL A   1      42.593  24.809  28.155  1.00  0.00     0.031 A 
ATOM     34  C   UNL A   1      43.966  25.143  28.667  1.00  0.00     0.074 A 
ATOM     35  C   UNL A   1      41.593  25.705  28.270  1.00  0.00     0.049 A 
ATOM     36  N   UNL A   1      44.385  26.234  29.257  1.00  0.00    -0.248 NA
ATOM     37  C   UNL A   1      45.001  24.106  28.518  1.00  0.00     0.031 C 
ATOM     38  C   UNL A   1      40.209  25.492  27.842  1.00  0.00     0.029 A 
ATOM     39  N   UNL A   1      41.588  26.975  28.791  1.00  0.00    -0.354 N 
ATOM     40  C   UNL A   1      45.722  26.010  29.560  1.00  0.00     0.074 A 
ATOM     41  C   UNL A   1      46.031  24.662  29.138  1.00  0.00     0.031 C 
ATOM     42  C   UNL A   1      39.496  26.602  28.092  1.00  0.00     0.029 A 
ATOM     43  C   UNL A   1      40.359  27.587  28.737  1.00  0.00     0.049 A 
ATOM     44  H   UNL A   1      42.390  27.406  29.167  1.00  0.00     0.167 HD
ATOM     45  C   UNL A   1      46.619  26.856  30.121  1.00  0.00     0.031 A 
ATOM     46  C   UNL A   1      39.970  28.802  29.167  1.00  0.00     0.031 A 
ATOM     47  C   UNL A   1      46.313  28.199  30.538  1.00  0.00     0.049 A 
ATOM     48  C   UNL A   1      40.977  29.710  29.815  1.00  0.00     0.074 A 
ATOM     49  C   UNL A   1      47.164  29.149  31.076  1.00  0.00     0.029 A 
ATOM     50  N   UNL A   1      45.057  28.779  30.467  1.00  0.00    -0.354 N 
ATOM     51  N   UNL A   1      42.253  29.506  30.037  1.00  0.00    -0.248 NA
ATOM     52  C   UNL A   1      40.490  31.023  30.262  1.00  0.00     0.031 C 
ATOM     53  C   UNL A   1      46.410  30.288  31.379  1.00  0.00     0.029 A 
ATOM     54  C   UNL A   1      45.103  30.068  30.973  1.00  0.00     0.049 A 
ATOM     55  H   UNL A   1      44.250  28.341  30.111  1.00  0.00     0.167 HD
ATOM     56  C   UNL A   1      42.727  30.674  30.619  1.00  0.00     0.074 A 
ATOM     57  C   UNL A   1      41.606  31.588  30.702  1.00  0.00     0.031 C 
ATOM     58  C   UNL A   1      43.980  30.965  31.046  1.00  0.00     0.031 A 
BRANCH  45  59
ATOM     59  C   UNL A   1      48.020  26.347  30.319  1.00  0.00    -0.014 A 
ATOM     60  C   UNL A   1      48.399  25.706  31.509  1.00  0.00     0.009 A 
ATOM     61  C   UNL A   1      48.966  26.481  29.290  1.00  0.00     0.009 A 
ATOM     62  C   UNL A   1      49.706  25.243  31.680  1.00  0.00     0.001 A 
ATOM     63  C   UNL A   1      50.263  25.991  29.452  1.00  0.00     0.001 A 
ATOM     64  C   UNL A   1      50.635  25.382  30.650  1.00  0.00     0.000 A 
ENDBRANCH  45  59
BRANCH  46  65
ATOM     65  C   UNL A   1      38.559  29.239  28.991  1.00  0.00    -0.014 A 
ATOM     66  C   UNL A   1      37.642  29.125  30.047  1.00  0.00     0.009 A 
ATOM     67  C   UNL A   1      38.119  29.759  27.764  1.00  0.00     0.009 A 
ATOM     68  C   UNL A   1      36.306  29.493  29.867  1.00  0.00     0.001 A 
ATOM     69  C   UNL A   1      36.790  30.155  27.597  1.00  0.00     0.001 A 
ATOM     70  C   UNL A   1      35.882  30.010  28.644  1.00  0.00     0.000 A 
ENDBRANCH  46  65
BRANCH  58  71
ATOM     71  C   UNL A   1      44.216  32.342  31.602  1.00  0.00    -0.014 A 
ATOM     72  C   UNL A   1      44.674  33.390  30.789  1.00  0.00     0.009 A 
ATOM     73  C   UNL A   1      43.934  32.599  32.953  1.00  0.00     0.009 A 
ATOM     74  C   UNL A   1      44.878  34.663  31.329  1.00  0.00     0.001 A 
ATOM     75  C   UNL A   1      44.110  33.879  33.482  1.00  0.00     0.001 A 
ATOM     76  C   UNL A   1      44.590  34.906  32.672  1.00  0.00     0.000 A 
ENDBRANCH  58  71
ENDBRANCH  32  33
ENDBRANCH  24  27
ENDBRANCH  22  23
ENDBRANCH  21  22
ENDBRANCH  20  21
ENDBRANCH   1  20
TORSDOF 16
ENDMDL
MODEL 3
REMARK VINA RESULT:     -10.1      1.071      6.102
REMARK SMILES CCc1ccc(S(=O)(=O)CC(=O)NCCCCCCNC(=O)c2ccc(-c3c4nc(c(-c5ccccc5)c5ccc([nH]5)c(-c5ccccc5)c5nc(c(-c6ccccc6)c6ccc3[nH]6)C=C5)C=C4)cc2)cc1
REMARK SMILES IDX 16 1 15 2 14 3 13 4 11 5 12 6 10 8 7 9 8 10 9 11 6 12 3 13
REMARK SMILES IDX 4 14 72 15 5 16 71 17 2 18 1 19 17 20 18 21 19 22 20 23
REMARK SMILES IDX 21 24 22 26 23 27 24 28 70 29 25 30 69 31 26 32 27 33 28 34
REMARK SMILES IDX 63 35 29 36 68 37 62 38 64 39 30 40 67 41 61 42 60 43 31 45
REMARK SMILES IDX 53 46 38 47 52 48 39 49 42 50 51 51 65 52 40 53 41 54 50 56
REMARK SMILES IDX 66 57 43 58 32 59 33 60 37 61 34 62 36 63 35 64 54 65 55 66
REMARK SMILES IDX 59 67 56 68 58 69 57 70 44 71 45 72 49 73 46 74 48 75 47 76
REMARK H PARENT 13 7 20 25 64 44 42 55
REMARK Flexibility Score: inf
ROOT
ATOM      1  C   UNL A   1      36.408  21.941  24.674  1.00  0.00     0.002 C 
ENDROOT
BRANCH   1   2
ATOM      2  C   UNL A   1      36.112  22.850  25.876  1.00  0.00     0.021 C 
BRANCH   2   3
ATOM      3  C   UNL A   1      35.291  24.092  25.525  1.00  0.00     0.116 C 
BRANCH   3   4
ATOM      4  N   UNL A   1      35.027  24.130  24.101  1.00  0.00    -0.355 N 
ATOM      5  C   UNL A   1      33.854  24.293  23.439  1.00  0.00     0.235 C 
ATOM      6  O   UNL A   1      33.871  24.149  22.214  1.00  0.00    -0.274 OA
ATOM      7  H   UNL A   1      35.819  24.020  23.526  1.00  0.00     0.163 HD
BRANCH   5   8
ATOM      8  C   UNL A   1      32.617  24.761  24.131  1.00  0.00     0.241 C 
BRANCH   8   9
ATOM      9  S   UNL A   1      31.377  23.549  24.388  1.00  0.00     0.187 S 
ATOM     10  O   UNL A   1      30.485  23.609  23.244  1.00  0.00    -0.223 OA
ATOM     11  O   UNL A   1      30.830  23.755  25.721  1.00  0.00    -0.223 OA
BRANCH   9  12
ATOM     12  C   UNL A   1      32.046  21.909  24.378  1.00  0.00     0.067 A 
ATOM     13  C   UNL A   1      33.083  19.300  24.519  1.00  0.00    -0.048 A 
ATOM     14  C   UNL A   1      33.040  20.108  25.661  1.00  0.00     0.005 A 
ATOM     15  C   UNL A   1      32.579  19.816  23.314  1.00  0.00     0.005 A 
ATOM     16  C   UNL A   1      32.539  21.410  25.589  1.00  0.00     0.020 A 
ATOM     17  C   UNL A   1      32.049  21.108  23.241  1.00  0.00     0.020 A 
BRANCH  13  18
ATOM     18  C   UNL A   1      33.561  17.865  24.554  1.00  0.00     0.032 C 
ATOM     19  C   UNL A   1      33.938  17.253  23.211  1.00  0.00     0.009 C 
ENDBRANCH  13  18
ENDBRANCH   9  12
ENDBRANCH   8   9
ENDBRANCH   5   8
ENDBRANCH   3   4
ENDBRANCH   2   3
ENDBRANCH   1   2
BRANCH   1  20
ATOM     20  C   UNL A   1      36.594  20.458  25.009  1.00  0.00     0.002 C 
BRANCH  20  21
ATOM     21  C   UNL A   1      37.990  19.903  24.721  1.00  0.00     0.021 C 
BRANCH  21  22
ATOM     22  C   UNL A   1      39.040  20.264  25.765  1.00  0.00     0.116 C 
BRANCH  22  23
ATOM     23  N   UNL A   1      40.059  19.234  25.893  1.00  0.00    -0.352 N 
ATOM     24  C   UNL A   1      41.399  19.367  26.160  1.00  0.00     0.251 C 
ATOM     25  H   UNL A   1      39.742  18.309  25.773  1.00  0.00     0.163 HD
ATOM     26  O   UNL A   1      42.154  18.408  26.037  1.00  0.00    -0.269 OA
BRANCH  24  27
ATOM     27  C   UNL A   1      41.935  20.678  26.580  1.00  0.00     0.039 A 
ATOM     28  C   UNL A   1      42.371  21.576  25.603  1.00  0.00     0.014 A 
ATOM     29  C   UNL A   1      42.012  21.017  27.934  1.00  0.00     0.014 A 
ATOM     30  C   UNL A   1      42.829  22.840  25.981  1.00  0.00     0.010 A 
ATOM     31  C   UNL A   1      42.399  22.302  28.304  1.00  0.00     0.010 A 
ATOM     32  C   UNL A   1      42.816  23.225  27.332  1.00  0.00    -0.014 A 
BRANCH  32  33
ATOM     33  C   UNL A   1      43.239  24.585  27.749  1.00  0.00     0.031 A 
ATOM     34  C   UNL A   1      42.207  25.637  28.050  1.00  0.00     0.074 A 
ATOM     35  C   UNL A   1      44.550  24.892  27.796  1.00  0.00     0.049 A 
ATOM     36  N   UNL A   1      42.379  26.895  28.367  1.00  0.00    -0.248 NA
ATOM     37  C   UNL A   1      40.796  25.227  27.962  1.00  0.00     0.031 C 
ATOM     38  C   UNL A   1      45.648  23.972  27.495  1.00  0.00     0.029 A 
ATOM     39  N   UNL A   1      45.180  26.071  28.110  1.00  0.00    -0.354 N 
ATOM     40  C   UNL A   1      41.103  27.428  28.502  1.00  0.00     0.074 A 
ATOM     41  C   UNL A   1      40.168  26.372  28.182  1.00  0.00     0.031 C 
ATOM     42  C   UNL A   1      46.816  24.613  27.666  1.00  0.00     0.029 A 
ATOM     43  C   UNL A   1      46.550  25.996  28.044  1.00  0.00     0.049 A 
ATOM     44  H   UNL A   1      44.695  26.890  28.360  1.00  0.00     0.167 HD
ATOM     45  C   UNL A   1      40.741  28.677  28.879  1.00  0.00     0.031 A 
ATOM     46  C   UNL A   1      47.486  26.941  28.255  1.00  0.00     0.031 A 
ATOM     47  C   UNL A   1      41.670  29.727  29.201  1.00  0.00     0.049 A 
ATOM     48  C   UNL A   1      47.057  28.329  28.641  1.00  0.00     0.074 A 
ATOM     49  C   UNL A   1      41.401  31.014  29.636  1.00  0.00     0.029 A 
ATOM     50  N   UNL A   1      43.049  29.611  29.120  1.00  0.00    -0.354 N 
ATOM     51  N   UNL A   1      45.847  28.799  28.826  1.00  0.00    -0.248 NA
ATOM     52  C   UNL A   1      48.126  29.313  28.859  1.00  0.00     0.031 C 
ATOM     53  C   UNL A   1      42.617  31.693  29.768  1.00  0.00     0.029 A 
ATOM     54  C   UNL A   1      43.645  30.811  29.474  1.00  0.00     0.049 A 
ATOM     55  H   UNL A   1      43.534  28.798  28.850  1.00  0.00     0.167 HD
ATOM     56  C   UNL A   1      46.011  30.123  29.211  1.00  0.00     0.074 A 
ATOM     57  C   UNL A   1      47.436  30.377  29.249  1.00  0.00     0.031 C 
ATOM     58  C   UNL A   1      45.064  31.046  29.509  1.00  0.00     0.031 A 
BRANCH  45  59
ATOM     59  C   UNL A   1      39.269  28.976  28.957  1.00  0.00    -0.014 A 
ATOM     60  C   UNL A   1      38.552  28.791  30.150  1.00  0.00     0.009 A 
ATOM     61  C   UNL A   1      38.596  29.480  27.833  1.00  0.00     0.009 A 
ATOM     62  C   UNL A   1      37.184  29.068  30.206  1.00  0.00     0.001 A 
ATOM     63  C   UNL A   1      37.235  29.784  27.899  1.00  0.00     0.001 A 
ATOM     64  C   UNL A   1      36.528  29.568  29.082  1.00  0.00     0.000 A 
ENDBRANCH  45  59
BRANCH  46  65
ATOM     65  C   UNL A   1      48.929  26.607  28.117  1.00  0.00    -0.014 A 
ATOM     66  C   UNL A   1      49.575  26.739  26.878  1.00  0.00     0.009 A 
ATOM     67  C   UNL A   1      49.664  26.140  29.218  1.00  0.00     0.009 A 
ATOM     68  C   UNL A   1      50.918  26.380  26.737  1.00  0.00     0.001 A 
ATOM     69  C   UNL A   1      51.015  25.811  29.081  1.00  0.00     0.001 A 
ATOM     70  C   UNL A   1      51.637  25.921  27.839  1.00  0.00     0.000 A 
ENDBRANCH  46  65
BRANCH  58  71
ATOM     71  C   UNL A   1      45.540  32.405  29.944  1.00  0.00    -0.014 A 
ATOM     72  C   UNL A   1      45.898  33.388  29.009  1.00  0.00     0.009 A 
ATOM     73  C   UNL A   1      45.592  32.714  31.312  1.00  0.00     0.009 A 
ATOM     74  C   UNL A   1      46.330  34.645  29.438  1.00  0.00     0.001 A 
ATOM     75  C   UNL A   1      45.995  33.981  31.737  1.00  0.00     0.001 A 
ATOM     76  C   UNL A   1      46.372  34.941  30.801  1.00  0.00     0.000 A 
ENDBRANCH  58  71
ENDBRANCH  32  33
ENDBRANCH  24  27
ENDBRANCH  22  23
ENDBRANCH  21  22
ENDBRANCH  20  21
ENDBRANCH   1  20
TORSDOF 16
ENDMDL
