MODEL 1
REMARK VINA RESULT:     -12.3      0.000      0.000
REMARK SMILES O=C(NCCCCCCNC(=O)[C@H]1Cc2ccc(Cl)cc2C[N@@H+]1Cc1ccccc1Cl)c1ccc(-c2c3nc(c(-c4ccccc4)c4ccc([nH]4)c(-c4ccccc4)c4nc(c(-c5ccccc5)c5ccc2[nH]5)C=C4)C=C3)cc1
REMARK SMILES IDX 6 1 5 2 4 3 3 4 1 5 2 6 32 8 33 9 79 10 34 11 78 12 35 13
REMARK SMILES IDX 36 14 37 15 72 16 38 17 77 18 71 19 73 20 39 21 76 22 70 23
REMARK SMILES IDX 69 24 40 26 62 27 47 28 61 29 48 30 51 31 60 32 74 33 49 34
REMARK SMILES IDX 50 35 59 37 75 38 52 39 41 40 42 41 46 42 43 43 45 44 44 45
REMARK SMILES IDX 63 46 64 47 68 48 65 49 67 50 66 51 53 52 54 53 58 54 55 55
REMARK SMILES IDX 57 56 56 57 7 58 8 59 9 60 10 61 11 62 12 64 13 65 14 66
REMARK SMILES IDX 23 67 15 68 22 69 16 71 21 72 17 73 20 74 18 75 19 76 24 77
REMARK SMILES IDX 25 78 26 79 30 80 27 81 29 82 31 83 28 84
REMARK H PARENT 3 7 73 25 51 36 10 63 23 70
REMARK Flexibility Score: inf
ROOT
ATOM      1  C   UNL A   1      31.488  30.805  26.073  1.00  0.00     0.002 C 
ENDROOT
BRANCH   1   2
ATOM      2  C   UNL A   1      31.392  32.268  26.518  1.00  0.00     0.021 C 
BRANCH   2   3
ATOM      3  C   UNL A   1      32.635  32.838  27.200  1.00  0.00     0.116 C 
BRANCH   3   4
ATOM      4  N   UNL A   1      32.444  34.208  27.644  1.00  0.00    -0.352 N 
ATOM      5  O   UNL A   1      32.562  36.004  28.978  1.00  0.00    -0.269 OA
ATOM      6  C   UNL A   1      33.029  34.916  28.661  1.00  0.00     0.251 C 
ATOM      7  H   UNL A   1      31.780  34.715  27.124  1.00  0.00     0.163 HD
BRANCH   6   8
ATOM      8  C   UNL A   1      34.220  34.403  29.377  1.00  0.00     0.039 A 
ATOM      9  C   UNL A   1      35.476  34.584  28.786  1.00  0.00     0.014 A 
ATOM     10  C   UNL A   1      34.110  33.648  30.548  1.00  0.00     0.014 A 
ATOM     11  C   UNL A   1      36.613  34.011  29.361  1.00  0.00     0.010 A 
ATOM     12  C   UNL A   1      35.252  33.134  31.160  1.00  0.00     0.010 A 
ATOM     13  C   UNL A   1      36.509  33.278  30.551  1.00  0.00    -0.014 A 
BRANCH  13  14
ATOM     14  C   UNL A   1      37.686  32.579  31.123  1.00  0.00     0.031 A 
ATOM     15  C   UNL A   1      38.287  33.065  32.414  1.00  0.00     0.074 A 
ATOM     16  C   UNL A   1      38.230  31.529  30.480  1.00  0.00     0.049 A 
ATOM     17  N   UNL A   1      39.343  32.625  33.052  1.00  0.00    -0.248 NA
ATOM     18  C   UNL A   1      37.628  34.209  33.066  1.00  0.00     0.031 C 
ATOM     19  C   UNL A   1      37.744  30.966  29.222  1.00  0.00     0.029 A 
ATOM     20  N   UNL A   1      39.312  30.748  30.802  1.00  0.00    -0.354 N 
ATOM     21  C   UNL A   1      39.484  33.451  34.161  1.00  0.00     0.074 A 
ATOM     22  C   UNL A   1      38.437  34.446  34.087  1.00  0.00     0.031 C 
ATOM     23  C   UNL A   1      38.505  29.910  28.894  1.00  0.00     0.029 A 
ATOM     24  C   UNL A   1      39.556  29.747  29.896  1.00  0.00     0.049 A 
ATOM     25  H   UNL A   1      39.861  30.892  31.607  1.00  0.00     0.167 HD
ATOM     26  C   UNL A   1      40.392  33.376  35.161  1.00  0.00     0.031 A 
ATOM     27  C   UNL A   1      40.517  28.803  29.870  1.00  0.00     0.031 A 
ATOM     28  C   UNL A   1      41.412  32.367  35.249  1.00  0.00     0.049 A 
ATOM     29  C   UNL A   1      41.528  28.747  30.980  1.00  0.00     0.074 A 
ATOM     30  C   UNL A   1      42.338  32.168  36.258  1.00  0.00     0.029 A 
ATOM     31  N   UNL A   1      41.640  31.387  34.295  1.00  0.00    -0.354 N 
ATOM     32  N   UNL A   1      41.627  29.510  32.042  1.00  0.00    -0.248 NA
ATOM     33  C   UNL A   1      42.557  27.701  30.894  1.00  0.00     0.031 C 
ATOM     34  C   UNL A   1      43.164  31.104  35.887  1.00  0.00     0.029 A 
ATOM     35  C   UNL A   1      42.712  30.600  34.677  1.00  0.00     0.049 A 
ATOM     36  H   UNL A   1      41.117  31.269  33.470  1.00  0.00     0.167 HD
ATOM     37  C   UNL A   1      42.715  29.030  32.758  1.00  0.00     0.074 A 
ATOM     38  C   UNL A   1      43.238  27.900  32.017  1.00  0.00     0.031 C 
ATOM     39  C   UNL A   1      43.231  29.486  33.924  1.00  0.00     0.031 A 
BRANCH  26  40
ATOM     40  C   UNL A   1      40.329  34.415  36.247  1.00  0.00    -0.014 A 
ATOM     41  C   UNL A   1      39.463  34.232  37.337  1.00  0.00     0.009 A 
ATOM     42  C   UNL A   1      41.075  35.602  36.166  1.00  0.00     0.009 A 
ATOM     43  C   UNL A   1      39.345  35.215  38.323  1.00  0.00     0.001 A 
ATOM     44  C   UNL A   1      40.978  36.568  37.168  1.00  0.00     0.001 A 
ATOM     45  C   UNL A   1      40.109  36.377  38.241  1.00  0.00     0.000 A 
ENDBRANCH  26  40
BRANCH  27  46
ATOM     46  C   UNL A   1      40.528  27.815  28.760  1.00  0.00    -0.014 A 
ATOM     47  C   UNL A   1      41.187  28.100  27.554  1.00  0.00     0.009 A 
ATOM     48  C   UNL A   1      39.811  26.616  28.874  1.00  0.00     0.009 A 
ATOM     49  C   UNL A   1      41.102  27.218  26.474  1.00  0.00     0.001 A 
ATOM     50  C   UNL A   1      39.747  25.724  27.801  1.00  0.00     0.001 A 
ATOM     51  C   UNL A   1      40.383  26.031  26.598  1.00  0.00     0.000 A 
ENDBRANCH  27  46
BRANCH  39  52
ATOM     52  C   UNL A   1      44.427  28.776  34.493  1.00  0.00    -0.014 A 
ATOM     53  C   UNL A   1      44.246  27.728  35.411  1.00  0.00     0.009 A 
ATOM     54  C   UNL A   1      45.728  29.223  34.218  1.00  0.00     0.009 A 
ATOM     55  C   UNL A   1      45.342  27.157  36.058  1.00  0.00     0.001 A 
ATOM     56  C   UNL A   1      46.825  28.630  34.846  1.00  0.00     0.001 A 
ATOM     57  C   UNL A   1      46.630  27.606  35.774  1.00  0.00     0.000 A 
ENDBRANCH  39  52
ENDBRANCH  13  14
ENDBRANCH   6   8
ENDBRANCH   3   4
ENDBRANCH   2   3
ENDBRANCH   1   2
BRANCH   1  58
ATOM     58  C   UNL A   1      32.835  30.124  26.320  1.00  0.00     0.002 C 
BRANCH  58  59
ATOM     59  C   UNL A   1      32.765  28.800  27.082  1.00  0.00     0.021 C 
BRANCH  59  60
ATOM     60  C   UNL A   1      31.330  28.324  27.333  1.00  0.00     0.116 C 
BRANCH  60  61
ATOM     61  N   UNL A   1      31.227  26.887  27.246  1.00  0.00    -0.351 N 
ATOM     62  C   UNL A   1      31.405  25.970  26.267  1.00  0.00     0.278 C 
ATOM     63  H   UNL A   1      30.966  26.477  28.100  1.00  0.00     0.163 HD
ATOM     64  O   UNL A   1      31.687  24.860  26.748  1.00  0.00    -0.268 OA
BRANCH  62  65
ATOM     65  C   UNL A   1      31.325  26.209  24.699  1.00  0.00     0.279 C 
ATOM     66  C   UNL A   1      29.797  26.518  24.424  1.00  0.00     0.111 C 
ATOM     67  N   UNL A   1      32.277  27.268  24.261  1.00  0.00    -0.317 N 
ATOM     68  C   UNL A   1      29.424  27.693  23.566  1.00  0.00    -0.033 A 
ATOM     69  C   UNL A   1      31.846  28.186  23.205  1.00  0.00     0.300 C 
ATOM     70  H   UNL A   1      32.261  27.807  25.127  1.00  0.00     0.349 HD
ATOM     71  C   UNL A   1      28.073  27.965  23.285  1.00  0.00     0.006 A 
ATOM     72  C   UNL A   1      30.403  28.559  23.106  1.00  0.00     0.011 A 
ATOM     73  C   UNL A   1      27.710  29.086  22.535  1.00  0.00     0.021 A 
ATOM     74  C   UNL A   1      30.035  29.694  22.357  1.00  0.00     0.030 A 
ATOM     75  C   UNL A   1      28.695  29.951  22.078  1.00  0.00     0.041 A 
ATOM     76  Cl  UNL A   1      28.267  31.324  21.134  1.00  0.00    -0.084 Cl
BRANCH  67  77
ATOM     77  C   UNL A   1      33.678  26.845  24.016  1.00  0.00     0.301 C 
BRANCH  77  78
ATOM     78  C   UNL A   1      34.029  25.360  23.871  1.00  0.00     0.025 A 
ATOM     79  C   UNL A   1      34.751  24.744  24.920  1.00  0.00     0.011 A 
ATOM     80  C   UNL A   1      33.634  24.525  22.808  1.00  0.00     0.049 A 
ATOM     81  C   UNL A   1      35.104  23.391  24.887  1.00  0.00     0.001 A 
ATOM     82  C   UNL A   1      33.951  23.158  22.802  1.00  0.00     0.021 A 
ATOM     83  Cl  UNL A   1      32.727  25.052  21.448  1.00  0.00    -0.084 Cl
ATOM     84  C   UNL A   1      34.695  22.593  23.830  1.00  0.00     0.002 A 
ENDBRANCH  77  78
ENDBRANCH  67  77
ENDBRANCH  62  65
ENDBRANCH  60  61
ENDBRANCH  59  60
ENDBRANCH  58  59
ENDBRANCH   1  58
TORSDOF 15
ENDMDL
MODEL 2
REMARK VINA RESULT:     -12.2      1.472      6.795
REMARK SMILES O=C(NCCCCCCNC(=O)[C@H]1Cc2ccc(Cl)cc2C[N@@H+]1Cc1ccccc1Cl)c1ccc(-c2c3nc(c(-c4ccccc4)c4ccc([nH]4)c(-c4ccccc4)c4nc(c(-c5ccccc5)c5ccc2[nH]5)C=C4)C=C3)cc1
REMARK SMILES IDX 6 1 5 2 4 3 3 4 1 5 2 6 32 8 33 9 79 10 34 11 78 12 35 13
REMARK SMILES IDX 36 14 37 15 72 16 38 17 77 18 71 19 73 20 39 21 76 22 70 23
REMARK SMILES IDX 69 24 40 26 62 27 47 28 61 29 48 30 51 31 60 32 74 33 49 34
REMARK SMILES IDX 50 35 59 37 75 38 52 39 41 40 42 41 46 42 43 43 45 44 44 45
REMARK SMILES IDX 63 46 64 47 68 48 65 49 67 50 66 51 53 52 54 53 58 54 55 55
REMARK SMILES IDX 57 56 56 57 7 58 8 59 9 60 10 61 11 62 12 64 13 65 14 66
REMARK SMILES IDX 23 67 15 68 22 69 16 71 21 72 17 73 20 74 18 75 19 76 24 77
REMARK SMILES IDX 25 78 26 79 30 80 27 81 29 82 31 83 28 84
REMARK H PARENT 3 7 73 25 51 36 10 63 23 70
REMARK Flexibility Score: inf
ROOT
ATOM      1  C   UNL A   1      31.562  30.750  26.102  1.00  0.00     0.002 C 
ENDROOT
BRANCH   1   2
ATOM      2  C   UNL A   1      31.386  32.163  26.667  1.00  0.00     0.021 C 
BRANCH   2   3
ATOM      3  C   UNL A   1      32.642  32.803  27.258  1.00  0.00     0.116 C 
BRANCH   3   4
ATOM      4  N   UNL A   1      32.439  34.198  27.612  1.00  0.00    -0.352 N 
ATOM      5  O   UNL A   1      32.529  36.074  28.832  1.00  0.00    -0.269 OA
ATOM      6  C   UNL A   1      33.005  34.970  28.591  1.00  0.00     0.251 C 
ATOM      7  H   UNL A   1      31.780  34.668  27.052  1.00  0.00     0.163 HD
BRANCH   6   8
ATOM      8  C   UNL A   1      34.187  34.509  29.356  1.00  0.00     0.039 A 
ATOM      9  C   UNL A   1      35.443  34.591  28.745  1.00  0.00     0.014 A 
ATOM     10  C   UNL A   1      34.064  33.892  30.605  1.00  0.00     0.014 A 
ATOM     11  C   UNL A   1      36.569  34.056  29.377  1.00  0.00     0.010 A 
ATOM     12  C   UNL A   1      35.196  33.419  31.266  1.00  0.00     0.010 A 
ATOM     13  C   UNL A   1      36.453  33.462  30.642  1.00  0.00    -0.014 A 
BRANCH  13  14
ATOM     14  C   UNL A   1      37.615  32.800  31.284  1.00  0.00     0.031 A 
ATOM     15  C   UNL A   1      38.264  31.618  30.616  1.00  0.00     0.074 A 
ATOM     16  C   UNL A   1      38.075  33.239  32.470  1.00  0.00     0.049 A 
ATOM     17  N   UNL A   1      39.255  30.873  31.036  1.00  0.00    -0.248 NA
ATOM     18  C   UNL A   1      37.714  31.207  29.314  1.00  0.00     0.031 C 
ATOM     19  C   UNL A   1      37.531  34.370  33.220  1.00  0.00     0.029 A 
ATOM     20  N   UNL A   1      39.108  32.784  33.250  1.00  0.00    -0.354 N 
ATOM     21  C   UNL A   1      39.428  29.895  30.063  1.00  0.00     0.074 A 
ATOM     22  C   UNL A   1      38.414  30.112  29.056  1.00  0.00     0.031 C 
ATOM     23  C   UNL A   1      38.256  34.542  34.337  1.00  0.00     0.029 A 
ATOM     24  C   UNL A   1      39.287  33.509  34.403  1.00  0.00     0.049 A 
ATOM     25  H   UNL A   1      39.668  32.012  33.008  1.00  0.00     0.167 HD
ATOM     26  C   UNL A   1      40.361  28.917  30.004  1.00  0.00     0.031 A 
ATOM     27  C   UNL A   1      40.178  33.361  35.401  1.00  0.00     0.031 A 
ATOM     28  C   UNL A   1      41.388  28.723  30.991  1.00  0.00     0.049 A 
ATOM     29  C   UNL A   1      41.195  32.257  35.328  1.00  0.00     0.074 A 
ATOM     30  C   UNL A   1      42.420  27.800  30.986  1.00  0.00     0.029 A 
ATOM     31  N   UNL A   1      41.517  29.464  32.156  1.00  0.00    -0.354 N 
ATOM     32  N   UNL A   1      41.372  31.364  34.384  1.00  0.00    -0.248 NA
ATOM     33  C   UNL A   1      42.136  32.140  36.450  1.00  0.00     0.031 C 
ATOM     34  C   UNL A   1      43.137  27.944  32.176  1.00  0.00     0.029 A 
ATOM     35  C   UNL A   1      42.591  28.998  32.892  1.00  0.00     0.049 A 
ATOM     36  H   UNL A   1      40.930  30.209  32.418  1.00  0.00     0.167 HD
ATOM     37  C   UNL A   1      42.452  30.589  34.789  1.00  0.00     0.074 A 
ATOM     38  C   UNL A   1      42.899  31.126  36.058  1.00  0.00     0.031 C 
ATOM     39  C   UNL A   1      43.019  29.532  34.161  1.00  0.00     0.031 A 
BRANCH  26  40
ATOM     40  C   UNL A   1      40.318  27.973  28.832  1.00  0.00    -0.014 A 
ATOM     41  C   UNL A   1      39.664  26.737  28.959  1.00  0.00     0.009 A 
ATOM     42  C   UNL A   1      40.972  28.275  27.627  1.00  0.00     0.009 A 
ATOM     43  C   UNL A   1      39.666  25.823  27.903  1.00  0.00     0.001 A 
ATOM     44  C   UNL A   1      40.946  27.372  26.563  1.00  0.00     0.001 A 
ATOM     45  C   UNL A   1      40.300  26.145  26.704  1.00  0.00     0.000 A 
ENDBRANCH  26  40
BRANCH  27  46
ATOM     46  C   UNL A   1      40.157  34.321  36.536  1.00  0.00    -0.014 A 
ATOM     47  C   UNL A   1      39.402  34.051  37.689  1.00  0.00     0.009 A 
ATOM     48  C   UNL A   1      40.828  35.548  36.436  1.00  0.00     0.009 A 
ATOM     49  C   UNL A   1      39.295  35.004  38.704  1.00  0.00     0.001 A 
ATOM     50  C   UNL A   1      40.739  36.490  37.464  1.00  0.00     0.001 A 
ATOM     51  C   UNL A   1      39.962  36.222  38.592  1.00  0.00     0.000 A 
ENDBRANCH  27  46
BRANCH  39  52
ATOM     52  C   UNL A   1      44.191  28.864  34.822  1.00  0.00    -0.014 A 
ATOM     53  C   UNL A   1      43.975  27.853  35.773  1.00  0.00     0.009 A 
ATOM     54  C   UNL A   1      45.499  29.319  34.599  1.00  0.00     0.009 A 
ATOM     55  C   UNL A   1      45.041  27.326  36.502  1.00  0.00     0.001 A 
ATOM     56  C   UNL A   1      46.568  28.770  35.309  1.00  0.00     0.001 A 
ATOM     57  C   UNL A   1      46.337  27.783  36.268  1.00  0.00     0.000 A 
ENDBRANCH  39  52
ENDBRANCH  13  14
ENDBRANCH   6   8
ENDBRANCH   3   4
ENDBRANCH   2   3
ENDBRANCH   1   2
BRANCH   1  58
ATOM     58  C   UNL A   1      32.415  29.800  26.945  1.00  0.00     0.002 C 
BRANCH  58  59
ATOM     59  C   UNL A   1      31.733  28.488  27.337  1.00  0.00     0.021 C 
BRANCH  59  60
ATOM     60  C   UNL A   1      32.396  27.255  26.715  1.00  0.00     0.116 C 
BRANCH  60  61
ATOM     61  N   UNL A   1      31.551  26.091  26.822  1.00  0.00    -0.351 N 
ATOM     62  C   UNL A   1      31.685  24.777  26.526  1.00  0.00     0.278 C 
ATOM     63  H   UNL A   1      30.668  26.302  27.200  1.00  0.00     0.163 HD
ATOM     64  O   UNL A   1      30.920  24.088  27.221  1.00  0.00    -0.268 OA
BRANCH  62  65
ATOM     65  C   UNL A   1      32.686  24.124  25.480  1.00  0.00     0.279 C 
ATOM     66  C   UNL A   1      32.854  22.630  25.974  1.00  0.00     0.111 C 
ATOM     67  N   UNL A   1      32.193  24.282  24.084  1.00  0.00    -0.317 N 
ATOM     68  C   UNL A   1      32.741  21.507  24.981  1.00  0.00    -0.033 A 
ATOM     69  C   UNL A   1      32.403  23.174  23.151  1.00  0.00     0.300 C 
ATOM     70  H   UNL A   1      31.198  24.277  24.308  1.00  0.00     0.349 HD
ATOM     71  C   UNL A   1      32.917  20.175  25.395  1.00  0.00     0.006 A 
ATOM     72  C   UNL A   1      32.390  21.772  23.667  1.00  0.00     0.011 A 
ATOM     73  C   UNL A   1      32.759  19.120  24.495  1.00  0.00     0.021 A 
ATOM     74  C   UNL A   1      32.222  20.706  22.762  1.00  0.00     0.030 A 
ATOM     75  C   UNL A   1      32.406  19.390  23.179  1.00  0.00     0.041 A 
ATOM     76  Cl  UNL A   1      32.229  18.103  22.051  1.00  0.00    -0.084 Cl
BRANCH  67  77
ATOM     77  C   UNL A   1      32.498  25.568  23.410  1.00  0.00     0.301 C 
BRANCH  77  78
ATOM     78  C   UNL A   1      31.430  26.663  23.299  1.00  0.00     0.025 A 
ATOM     79  C   UNL A   1      30.081  26.296  23.517  1.00  0.00     0.011 A 
ATOM     80  C   UNL A   1      31.679  28.029  23.066  1.00  0.00     0.049 A 
ATOM     81  C   UNL A   1      29.038  27.226  23.453  1.00  0.00     0.001 A 
ATOM     82  C   UNL A   1      30.633  28.965  23.049  1.00  0.00     0.021 A 
ATOM     83  Cl  UNL A   1      33.239  28.699  22.807  1.00  0.00    -0.084 Cl
ATOM     84  C   UNL A   1      29.315  28.565  23.228  1.00  0.00     0.002 A 
ENDBRANCH  77  78
ENDBRANCH  67  77
ENDBRANCH  62  65
ENDBRANCH  60  61
ENDBRANCH  59  60
ENDBRANCH  58  59
ENDBRANCH   1  58
TORSDOF 15
ENDMDL
MODEL 3
REMARK VINA RESULT:     -12.2      1.464      3.649
REMARK SMILES O=C(NCCCCCCNC(=O)[C@H]1Cc2ccc(Cl)cc2C[N@@H+]1Cc1ccccc1Cl)c1ccc(-c2c3nc(c(-c4ccccc4)c4ccc([nH]4)c(-c4ccccc4)c4nc(c(-c5ccccc5)c5ccc2[nH]5)C=C4)C=C3)cc1
REMARK SMILES IDX 6 1 5 2 4 3 3 4 1 5 2 6 32 8 33 9 79 10 34 11 78 12 35 13
REMARK SMILES IDX 36 14 37 15 72 16 38 17 77 18 71 19 73 20 39 21 76 22 70 23
REMARK SMILES IDX 69 24 40 26 62 27 47 28 61 29 48 30 51 31 60 32 74 33 49 34
REMARK SMILES IDX 50 35 59 37 75 38 52 39 41 40 42 41 46 42 43 43 45 44 44 45
REMARK SMILES IDX 63 46 64 47 68 48 65 49 67 50 66 51 53 52 54 53 58 54 55 55
REMARK SMILES IDX 57 56 56 57 7 58 8 59 9 60 10 61 11 62 12 64 13 65 14 66
REMARK SMILES IDX 23 67 15 68 22 69 16 71 21 72 17 73 20 74 18 75 19 76 24 77
REMARK SMILES IDX 25 78 26 79 30 80 27 81 29 82 31 83 28 84
REMARK H PARENT 3 7 73 25 51 36 10 63 23 70
REMARK Flexibility Score: inf
ROOT
ATOM      1  C   UNL A   1      31.474  30.724  25.969  1.00  0.00     0.002 C 
ENDROOT
BRANCH   1   2
ATOM      2  C   UNL A   1      31.336  32.131  26.561  1.00  0.00     0.021 C 
BRANCH   2   3
ATOM      3  C   UNL A   1      32.608  32.725  27.165  1.00  0.00     0.116 C 
BRANCH   3   4
ATOM      4  N   UNL A   1      32.429  34.104  27.586  1.00  0.00    -0.352 N 
ATOM      5  O   UNL A   1      32.573  35.923  28.885  1.00  0.00    -0.269 OA
ATOM      6  C   UNL A   1      33.031  34.827  28.582  1.00  0.00     0.251 C 
ATOM      7  H   UNL A   1      31.760  34.604  27.066  1.00  0.00     0.163 HD
BRANCH   6   8
ATOM      8  C   UNL A   1      34.228  34.321  29.292  1.00  0.00     0.039 A 
ATOM      9  C   UNL A   1      35.477  34.488  28.682  1.00  0.00     0.014 A 
ATOM     10  C   UNL A   1      34.130  33.586  30.477  1.00  0.00     0.014 A 
ATOM     11  C   UNL A   1      36.620  33.921  29.253  1.00  0.00     0.010 A 
ATOM     12  C   UNL A   1      35.278  33.078  31.082  1.00  0.00     0.010 A 
ATOM     13  C   UNL A   1      36.527  33.207  30.456  1.00  0.00    -0.014 A 
BRANCH  13  14
ATOM     14  C   UNL A   1      37.710  32.513  31.025  1.00  0.00     0.031 A 
ATOM     15  C   UNL A   1      38.323  33.013  32.304  1.00  0.00     0.074 A 
ATOM     16  C   UNL A   1      38.246  31.456  30.389  1.00  0.00     0.049 A 
ATOM     17  N   UNL A   1      39.385  32.580  32.937  1.00  0.00    -0.248 NA
ATOM     18  C   UNL A   1      37.671  34.165  32.949  1.00  0.00     0.031 C 
ATOM     19  C   UNL A   1      37.748  30.879  29.142  1.00  0.00     0.029 A 
ATOM     20  N   UNL A   1      39.330  30.678  30.710  1.00  0.00    -0.354 N 
ATOM     21  C   UNL A   1      39.538  33.418  34.035  1.00  0.00     0.074 A 
ATOM     22  C   UNL A   1      38.491  34.413  33.960  1.00  0.00     0.031 C 
ATOM     23  C   UNL A   1      38.504  29.818  28.819  1.00  0.00     0.029 A 
ATOM     24  C   UNL A   1      39.565  29.665  29.813  1.00  0.00     0.049 A 
ATOM     25  H   UNL A   1      39.887  30.830  31.507  1.00  0.00     0.167 HD
ATOM     26  C   UNL A   1      40.454  33.353  35.028  1.00  0.00     0.031 A 
ATOM     27  C   UNL A   1      40.524  28.720  29.789  1.00  0.00     0.031 A 
ATOM     28  C   UNL A   1      41.475  32.344  35.117  1.00  0.00     0.049 A 
ATOM     29  C   UNL A   1      41.545  28.676  30.889  1.00  0.00     0.074 A 
ATOM     30  C   UNL A   1      42.409  32.156  36.120  1.00  0.00     0.029 A 
ATOM     31  N   UNL A   1      41.692  31.353  34.172  1.00  0.00    -0.354 N 
ATOM     32  N   UNL A   1      41.655  29.451  31.942  1.00  0.00    -0.248 NA
ATOM     33  C   UNL A   1      42.573  27.628  30.806  1.00  0.00     0.031 C 
ATOM     34  C   UNL A   1      43.230  31.087  35.754  1.00  0.00     0.029 A 
ATOM     35  C   UNL A   1      42.767  30.570  34.553  1.00  0.00     0.049 A 
ATOM     36  H   UNL A   1      41.161  31.227  33.354  1.00  0.00     0.167 HD
ATOM     37  C   UNL A   1      42.750  28.977  32.653  1.00  0.00     0.074 A 
ATOM     38  C   UNL A   1      43.265  27.838  31.919  1.00  0.00     0.031 C 
ATOM     39  C   UNL A   1      43.277  29.446  33.809  1.00  0.00     0.031 A 
BRANCH  26  40
ATOM     40  C   UNL A   1      40.403  34.405  36.102  1.00  0.00    -0.014 A 
ATOM     41  C   UNL A   1      39.558  34.228  37.210  1.00  0.00     0.009 A 
ATOM     42  C   UNL A   1      41.138  35.597  35.993  1.00  0.00     0.009 A 
ATOM     43  C   UNL A   1      39.450  35.222  38.185  1.00  0.00     0.001 A 
ATOM     44  C   UNL A   1      41.052  36.574  36.986  1.00  0.00     0.001 A 
ATOM     45  C   UNL A   1      40.204  36.389  38.076  1.00  0.00     0.000 A 
ENDBRANCH  26  40
BRANCH  27  46
ATOM     46  C   UNL A   1      40.524  27.720  28.690  1.00  0.00    -0.014 A 
ATOM     47  C   UNL A   1      41.198  27.977  27.486  1.00  0.00     0.009 A 
ATOM     48  C   UNL A   1      39.782  26.536  28.812  1.00  0.00     0.009 A 
ATOM     49  C   UNL A   1      41.103  27.085  26.415  1.00  0.00     0.001 A 
ATOM     50  C   UNL A   1      39.708  25.633  27.749  1.00  0.00     0.001 A 
ATOM     51  C   UNL A   1      40.358  25.914  26.547  1.00  0.00     0.000 A 
ENDBRANCH  27  46
BRANCH  39  52
ATOM     52  C   UNL A   1      44.478  28.741  34.374  1.00  0.00    -0.014 A 
ATOM     53  C   UNL A   1      45.767  29.121  33.966  1.00  0.00     0.009 A 
ATOM     54  C   UNL A   1      44.330  27.624  35.210  1.00  0.00     0.009 A 
ATOM     55  C   UNL A   1      46.883  28.385  34.366  1.00  0.00     0.001 A 
ATOM     56  C   UNL A   1      45.450  26.906  35.631  1.00  0.00     0.001 A 
ATOM     57  C   UNL A   1      46.724  27.280  35.200  1.00  0.00     0.000 A 
ENDBRANCH  39  52
ENDBRANCH  13  14
ENDBRANCH   6   8
ENDBRANCH   3   4
ENDBRANCH   2   3
ENDBRANCH   1   2
BRANCH   1  58
ATOM     58  C   UNL A   1      32.338  29.749  26.771  1.00  0.00     0.002 C 
BRANCH  58  59
ATOM     59  C   UNL A   1      31.634  28.463  27.207  1.00  0.00     0.021 C 
BRANCH  59  60
ATOM     60  C   UNL A   1      32.369  27.194  26.763  1.00  0.00     0.116 C 
BRANCH  60  61
ATOM     61  N   UNL A   1      31.515  26.033  26.847  1.00  0.00    -0.351 N 
ATOM     62  C   UNL A   1      31.647  24.722  26.542  1.00  0.00     0.278 C 
ATOM     63  H   UNL A   1      30.627  26.246  27.212  1.00  0.00     0.163 HD
ATOM     64  O   UNL A   1      30.867  24.031  27.218  1.00  0.00    -0.268 OA
BRANCH  62  65
ATOM     65  C   UNL A   1      32.661  24.072  25.507  1.00  0.00     0.279 C 
ATOM     66  C   UNL A   1      32.793  22.566  25.975  1.00  0.00     0.111 C 
ATOM     67  N   UNL A   1      32.203  24.265  24.103  1.00  0.00    -0.317 N 
ATOM     68  C   UNL A   1      32.683  21.464  24.958  1.00  0.00    -0.033 A 
ATOM     69  C   UNL A   1      32.417  23.171  23.153  1.00  0.00     0.300 C 
ATOM     70  H   UNL A   1      31.203  24.272  24.304  1.00  0.00     0.349 HD
ATOM     71  C   UNL A   1      32.828  20.122  25.350  1.00  0.00     0.006 A 
ATOM     72  C   UNL A   1      32.367  21.760  23.642  1.00  0.00     0.011 A 
ATOM     73  C   UNL A   1      32.674  19.087  24.426  1.00  0.00     0.021 A 
ATOM     74  C   UNL A   1      32.203  20.715  22.713  1.00  0.00     0.030 A 
ATOM     75  C   UNL A   1      32.355  19.388  23.108  1.00  0.00     0.041 A 
ATOM     76  Cl  UNL A   1      32.184  18.126  21.951  1.00  0.00    -0.084 Cl
BRANCH  67  77
ATOM     77  C   UNL A   1      32.546  25.558  23.461  1.00  0.00     0.301 C 
BRANCH  77  78
ATOM     78  C   UNL A   1      31.485  26.655  23.304  1.00  0.00     0.025 A 
ATOM     79  C   UNL A   1      30.139  26.319  23.577  1.00  0.00     0.011 A 
ATOM     80  C   UNL A   1      31.742  28.000  22.977  1.00  0.00     0.049 A 
ATOM     81  C   UNL A   1      29.103  27.253  23.477  1.00  0.00     0.001 A 
ATOM     82  C   UNL A   1      30.705  28.945  22.924  1.00  0.00     0.021 A 
ATOM     83  Cl  UNL A   1      33.302  28.635  22.639  1.00  0.00    -0.084 Cl
ATOM     84  C   UNL A   1      29.387  28.572  23.159  1.00  0.00     0.002 A 
ENDBRANCH  77  78
ENDBRANCH  67  77
ENDBRANCH  62  65
ENDBRANCH  60  61
ENDBRANCH  59  60
ENDBRANCH  58  59
ENDBRANCH   1  58
TORSDOF 15
ENDMDL
