MODEL 1
REMARK VINA RESULT:     -12.8      0.000      0.000
REMARK SMILES C[C@H](NC(=O)c1cccc(NC(=O)c2ccccc2C(=O)NCCCCCCNC(=O)c2ccc(-c3c4nc(c(-c5ccccc5)c5ccc([nH]5)c(-c5ccccc5)c5nc(c(-c6ccccc6)c6ccc3[nH]6)C=C5)C=C4)cc2)c1)c1ccccc1
REMARK SMILES IDX 24 1 23 2 22 3 20 4 21 5 19 7 14 8 15 9 16 10 18 11 17 12
REMARK SMILES IDX 12 13 11 14 13 16 10 17 6 18 7 19 80 20 8 21 9 22 4 23 3 24
REMARK SMILES IDX 5 26 2 27 1 28 81 29 82 30 86 31 83 32 85 33 84 34 25 35
REMARK SMILES IDX 26 36 27 37 28 38 29 39 30 40 31 42 32 43 33 44 79 45 34 46
REMARK SMILES IDX 78 47 35 48 36 49 37 50 72 51 38 52 77 53 71 54 73 55 39 56
REMARK SMILES IDX 76 57 70 58 69 59 40 61 62 62 47 63 61 64 48 65 51 66 60 67
REMARK SMILES IDX 74 68 49 69 50 70 59 72 75 73 52 74 41 75 42 76 46 77 43 78
REMARK SMILES IDX 45 79 44 80 63 81 64 82 68 83 65 84 67 85 66 86 53 87 54 88
REMARK SMILES IDX 58 89 55 90 57 91 56 92
REMARK H PARENT 22 6 11 15 3 25 29 41 73 60 51 71
REMARK Flexibility Score: inf
ROOT
ATOM      1  C   UNL A   1      37.212  22.955  25.456  1.00  0.00     0.021 C 
ENDROOT
BRANCH   1   2
ATOM      2  C   UNL A   1      35.924  23.514  26.046  1.00  0.00     0.116 C 
BRANCH   2   3
ATOM      3  N   UNL A   1      35.181  22.574  26.851  1.00  0.00    -0.352 N 
ATOM      4  C   UNL A   1      33.971  21.969  26.634  1.00  0.00     0.252 C 
ATOM      5  O   UNL A   1      33.587  21.158  27.480  1.00  0.00    -0.269 OA
ATOM      6  H   UNL A   1      35.619  22.326  27.697  1.00  0.00     0.163 HD
BRANCH   4   7
ATOM      7  C   UNL A   1      33.055  22.306  25.508  1.00  0.00     0.052 A 
ATOM      8  C   UNL A   1      31.897  23.097  25.541  1.00  0.00     0.052 A 
ATOM      9  C   UNL A   1      31.115  23.242  24.375  1.00  0.00     0.014 A 
ATOM     10  C   UNL A   1      31.530  22.705  23.158  1.00  0.00     0.001 A 
ATOM     11  C   UNL A   1      33.478  21.808  24.254  1.00  0.00     0.014 A 
ATOM     12  C   UNL A   1      32.732  22.014  23.091  1.00  0.00     0.001 A 
BRANCH   8  13
ATOM     13  C   UNL A   1      31.377  23.849  26.699  1.00  0.00     0.256 C 
ATOM     14  N   UNL A   1      31.558  25.200  26.885  1.00  0.00    -0.322 N 
ATOM     15  H   UNL A   1      31.218  25.532  27.747  1.00  0.00     0.170 HD
ATOM     16  O   UNL A   1      30.785  23.208  27.572  1.00  0.00    -0.269 OA
BRANCH  14  17
ATOM     17  C   UNL A   1      32.135  26.195  26.083  1.00  0.00     0.042 A 
ATOM     18  C   UNL A   1      32.166  28.535  25.470  1.00  0.00     0.041 A 
ATOM     19  C   UNL A   1      33.332  28.329  24.729  1.00  0.00     0.014 A 
ATOM     20  C   UNL A   1      31.539  27.465  26.114  1.00  0.00     0.040 A 
ATOM     21  C   UNL A   1      33.872  27.050  24.629  1.00  0.00     0.003 A 
ATOM     22  C   UNL A   1      33.264  25.984  25.291  1.00  0.00     0.026 A 
BRANCH  18  23
ATOM     23  C   UNL A   1      31.598  29.893  25.477  1.00  0.00     0.251 C 
ATOM     24  N   UNL A   1      30.653  30.295  24.573  1.00  0.00    -0.346 N 
ATOM     25  H   UNL A   1      30.235  31.155  24.804  1.00  0.00     0.164 HD
ATOM     26  O   UNL A   1      31.948  30.658  26.374  1.00  0.00    -0.269 OA
BRANCH  24  27
ATOM     27  C   UNL A   1      30.136  29.713  23.339  1.00  0.00     0.109 C 
ATOM     28  C   UNL A   1      29.340  28.418  23.493  1.00  0.00     0.036 C 
BRANCH  27  29
ATOM     29  C   UNL A   1      29.262  30.729  22.611  1.00  0.00    -0.026 A 
ATOM     30  C   UNL A   1      28.740  30.434  21.339  1.00  0.00     0.006 A 
ATOM     31  C   UNL A   1      29.020  31.997  23.159  1.00  0.00     0.006 A 
ATOM     32  C   UNL A   1      28.045  31.401  20.611  1.00  0.00     0.000 A 
ATOM     33  C   UNL A   1      28.315  32.961  22.430  1.00  0.00     0.000 A 
ATOM     34  C   UNL A   1      27.840  32.667  21.153  1.00  0.00     0.000 A 
ENDBRANCH  27  29
ENDBRANCH  24  27
ENDBRANCH  18  23
ENDBRANCH  14  17
ENDBRANCH   8  13
ENDBRANCH   4   7
ENDBRANCH   2   3
ENDBRANCH   1   2
BRANCH   1  35
ATOM     35  C   UNL A   1      37.043  21.875  24.378  1.00  0.00     0.002 C 
BRANCH  35  36
ATOM     36  C   UNL A   1      36.912  20.422  24.848  1.00  0.00     0.002 C 
BRANCH  36  37
ATOM     37  C   UNL A   1      38.176  19.567  24.866  1.00  0.00     0.021 C 
BRANCH  37  38
ATOM     38  C   UNL A   1      39.210  19.939  25.915  1.00  0.00     0.116 C 
BRANCH  38  39
ATOM     39  N   UNL A   1      40.438  19.173  25.805  1.00  0.00    -0.352 N 
ATOM     40  C   UNL A   1      41.736  19.566  26.014  1.00  0.00     0.251 C 
ATOM     41  H   UNL A   1      40.322  18.231  25.542  1.00  0.00     0.163 HD
ATOM     42  O   UNL A   1      42.652  18.789  25.763  1.00  0.00    -0.269 OA
BRANCH  40  43
ATOM     43  C   UNL A   1      42.040  20.925  26.520  1.00  0.00     0.039 A 
ATOM     44  C   UNL A   1      42.060  21.131  27.902  1.00  0.00     0.014 A 
ATOM     45  C   UNL A   1      42.262  21.999  25.654  1.00  0.00     0.014 A 
ATOM     46  C   UNL A   1      42.327  22.404  28.413  1.00  0.00     0.010 A 
ATOM     47  C   UNL A   1      42.617  23.246  26.163  1.00  0.00     0.010 A 
ATOM     48  C   UNL A   1      42.621  23.469  27.547  1.00  0.00    -0.014 A 
BRANCH  48  49
ATOM     49  C   UNL A   1      42.865  24.837  28.071  1.00  0.00     0.031 A 
ATOM     50  C   UNL A   1      44.265  25.258  28.440  1.00  0.00     0.074 A 
ATOM     51  C   UNL A   1      41.835  25.686  28.245  1.00  0.00     0.049 A 
ATOM     52  N   UNL A   1      44.684  26.395  28.935  1.00  0.00    -0.248 NA
ATOM     53  C   UNL A   1      45.334  24.261  28.252  1.00  0.00     0.031 C 
ATOM     54  C   UNL A   1      40.428  25.386  27.964  1.00  0.00     0.029 A 
ATOM     55  N   UNL A   1      41.813  26.980  28.701  1.00  0.00    -0.354 N 
ATOM     56  C   UNL A   1      46.050  26.241  29.136  1.00  0.00     0.074 A 
ATOM     57  C   UNL A   1      46.385  24.886  28.762  1.00  0.00     0.031 C 
ATOM     58  C   UNL A   1      39.687  26.476  28.225  1.00  0.00     0.029 A 
ATOM     59  C   UNL A   1      40.557  27.536  28.723  1.00  0.00     0.049 A 
ATOM     60  H   UNL A   1      42.622  27.464  28.985  1.00  0.00     0.167 HD
ATOM     61  C   UNL A   1      46.952  27.152  29.569  1.00  0.00     0.031 A 
ATOM     62  C   UNL A   1      40.154  28.764  29.104  1.00  0.00     0.031 A 
ATOM     63  C   UNL A   1      46.625  28.509  29.914  1.00  0.00     0.049 A 
ATOM     64  C   UNL A   1      41.180  29.758  29.573  1.00  0.00     0.074 A 
ATOM     65  C   UNL A   1      47.476  29.527  30.307  1.00  0.00     0.029 A 
ATOM     66  N   UNL A   1      45.344  29.037  29.902  1.00  0.00    -0.354 N 
ATOM     67  N   UNL A   1      42.479  29.617  29.687  1.00  0.00    -0.248 NA
ATOM     68  C   UNL A   1      40.685  31.091  29.944  1.00  0.00     0.031 C 
ATOM     69  C   UNL A   1      46.703  30.659  30.581  1.00  0.00     0.029 A 
ATOM     70  C   UNL A   1      45.379  30.363  30.296  1.00  0.00     0.049 A 
ATOM     71  H   UNL A   1      44.530  28.543  29.649  1.00  0.00     0.167 HD
ATOM     72  C   UNL A   1      42.958  30.853  30.103  1.00  0.00     0.074 A 
ATOM     73  C   UNL A   1      41.814  31.734  30.203  1.00  0.00     0.031 C 
ATOM     74  C   UNL A   1      44.232  31.228  30.377  1.00  0.00     0.031 A 
BRANCH  61  75
ATOM     75  C   UNL A   1      48.385  26.713  29.695  1.00  0.00    -0.014 A 
ATOM     76  C   UNL A   1      49.293  26.875  28.635  1.00  0.00     0.009 A 
ATOM     77  C   UNL A   1      48.847  26.179  30.906  1.00  0.00     0.009 A 
ATOM     78  C   UNL A   1      50.626  26.486  28.779  1.00  0.00     0.001 A 
ATOM     79  C   UNL A   1      50.188  25.818  31.058  1.00  0.00     0.001 A 
ATOM     80  C   UNL A   1      51.074  25.965  29.992  1.00  0.00     0.000 A 
ENDBRANCH  61  75
BRANCH  62  81
ATOM     81  C   UNL A   1      38.715  29.138  29.045  1.00  0.00    -0.014 A 
ATOM     82  C   UNL A   1      38.164  29.684  27.874  1.00  0.00     0.009 A 
ATOM     83  C   UNL A   1      37.893  28.991  30.174  1.00  0.00     0.009 A 
ATOM     84  C   UNL A   1      36.837  30.119  27.849  1.00  0.00     0.001 A 
ATOM     85  C   UNL A   1      36.557  29.396  30.135  1.00  0.00     0.001 A 
ATOM     86  C   UNL A   1      36.035  29.973  28.980  1.00  0.00     0.000 A 
ENDBRANCH  62  81
BRANCH  74  87
ATOM     87  C   UNL A   1      44.459  32.666  30.752  1.00  0.00    -0.014 A 
ATOM     88  C   UNL A   1      44.486  33.082  32.091  1.00  0.00     0.009 A 
ATOM     89  C   UNL A   1      44.675  33.615  29.739  1.00  0.00     0.009 A 
ATOM     90  C   UNL A   1      44.677  34.429  32.407  1.00  0.00     0.001 A 
ATOM     91  C   UNL A   1      44.901  34.954  30.059  1.00  0.00     0.001 A 
ATOM     92  C   UNL A   1      44.889  35.362  31.391  1.00  0.00     0.000 A 
ENDBRANCH  74  87
ENDBRANCH  48  49
ENDBRANCH  40  43
ENDBRANCH  38  39
ENDBRANCH  37  38
ENDBRANCH  36  37
ENDBRANCH  35  36
ENDBRANCH   1  35
TORSDOF 18
ENDMDL
MODEL 2
REMARK VINA RESULT:     -12.3      1.795      2.974
REMARK SMILES C[C@H](NC(=O)c1cccc(NC(=O)c2ccccc2C(=O)NCCCCCCNC(=O)c2ccc(-c3c4nc(c(-c5ccccc5)c5ccc([nH]5)c(-c5ccccc5)c5nc(c(-c6ccccc6)c6ccc3[nH]6)C=C5)C=C4)cc2)c1)c1ccccc1
REMARK SMILES IDX 24 1 23 2 22 3 20 4 21 5 19 7 14 8 15 9 16 10 18 11 17 12
REMARK SMILES IDX 12 13 11 14 13 16 10 17 6 18 7 19 80 20 8 21 9 22 4 23 3 24
REMARK SMILES IDX 5 26 2 27 1 28 81 29 82 30 86 31 83 32 85 33 84 34 25 35
REMARK SMILES IDX 26 36 27 37 28 38 29 39 30 40 31 42 32 43 33 44 79 45 34 46
REMARK SMILES IDX 78 47 35 48 36 49 37 50 72 51 38 52 77 53 71 54 73 55 39 56
REMARK SMILES IDX 76 57 70 58 69 59 40 61 62 62 47 63 61 64 48 65 51 66 60 67
REMARK SMILES IDX 74 68 49 69 50 70 59 72 75 73 52 74 41 75 42 76 46 77 43 78
REMARK SMILES IDX 45 79 44 80 63 81 64 82 68 83 65 84 67 85 66 86 53 87 54 88
REMARK SMILES IDX 58 89 55 90 57 91 56 92
REMARK H PARENT 22 6 11 15 3 25 29 41 73 60 51 71
REMARK Flexibility Score: inf
ROOT
ATOM      1  C   UNL A   1      34.631  19.160  24.582  1.00  0.00     0.021 C 
ENDROOT
BRANCH   1   2
ATOM      2  C   UNL A   1      33.219  19.057  25.145  1.00  0.00     0.116 C 
BRANCH   2   3
ATOM      3  N   UNL A   1      32.904  20.049  26.145  1.00  0.00    -0.352 N 
ATOM      4  C   UNL A   1      33.093  21.407  26.151  1.00  0.00     0.252 C 
ATOM      5  O   UNL A   1      32.680  22.028  27.133  1.00  0.00    -0.269 OA
ATOM      6  H   UNL A   1      32.484  19.689  26.958  1.00  0.00     0.163 HD
BRANCH   4   7
ATOM      7  C   UNL A   1      33.849  22.153  25.107  1.00  0.00     0.052 A 
ATOM      8  C   UNL A   1      33.470  22.409  23.780  1.00  0.00     0.052 A 
ATOM      9  C   UNL A   1      34.363  23.077  22.915  1.00  0.00     0.014 A 
ATOM     10  C   UNL A   1      35.571  23.589  23.381  1.00  0.00     0.001 A 
ATOM     11  C   UNL A   1      35.060  22.720  25.568  1.00  0.00     0.014 A 
ATOM     12  C   UNL A   1      35.906  23.438  24.720  1.00  0.00     0.001 A 
BRANCH   8  13
ATOM     13  C   UNL A   1      32.182  22.063  23.150  1.00  0.00     0.256 C 
ATOM     14  N   UNL A   1      31.051  22.842  23.230  1.00  0.00    -0.322 N 
ATOM     15  H   UNL A   1      30.254  22.430  22.823  1.00  0.00     0.170 HD
ATOM     16  O   UNL A   1      32.113  20.983  22.557  1.00  0.00    -0.269 OA
BRANCH  14  17
ATOM     17  C   UNL A   1      30.814  24.109  23.782  1.00  0.00     0.042 A 
ATOM     18  C   UNL A   1      30.625  26.487  23.380  1.00  0.00     0.041 A 
ATOM     19  C   UNL A   1      30.137  26.671  24.676  1.00  0.00     0.014 A 
ATOM     20  C   UNL A   1      31.006  25.216  22.941  1.00  0.00     0.040 A 
ATOM     21  C   UNL A   1      30.031  25.582  25.537  1.00  0.00     0.003 A 
ATOM     22  C   UNL A   1      30.385  24.308  25.094  1.00  0.00     0.026 A 
BRANCH  18  23
ATOM     23  C   UNL A   1      30.788  27.686  22.542  1.00  0.00     0.251 C 
ATOM     24  N   UNL A   1      32.017  28.138  22.145  1.00  0.00    -0.346 N 
ATOM     25  H   UNL A   1      31.970  28.832  21.448  1.00  0.00     0.164 HD
ATOM     26  O   UNL A   1      29.772  28.248  22.138  1.00  0.00    -0.269 OA
BRANCH  24  27
ATOM     27  C   UNL A   1      33.381  27.808  22.540  1.00  0.00     0.109 C 
ATOM     28  C   UNL A   1      34.481  28.677  21.932  1.00  0.00     0.036 C 
BRANCH  27  29
ATOM     29  C   UNL A   1      33.512  27.863  24.058  1.00  0.00    -0.026 A 
ATOM     30  C   UNL A   1      33.792  26.696  24.790  1.00  0.00     0.006 A 
ATOM     31  C   UNL A   1      33.287  29.057  24.759  1.00  0.00     0.006 A 
ATOM     32  C   UNL A   1      33.790  26.709  26.185  1.00  0.00     0.000 A 
ATOM     33  C   UNL A   1      33.294  29.070  26.158  1.00  0.00     0.000 A 
ATOM     34  C   UNL A   1      33.532  27.894  26.869  1.00  0.00     0.000 A 
ENDBRANCH  27  29
ENDBRANCH  24  27
ENDBRANCH  18  23
ENDBRANCH  14  17
ENDBRANCH   8  13
ENDBRANCH   4   7
ENDBRANCH   2   3
ENDBRANCH   1   2
BRANCH   1  35
ATOM     35  C   UNL A   1      35.577  18.002  24.927  1.00  0.00     0.002 C 
BRANCH  35  36
ATOM     36  C   UNL A   1      37.082  18.291  24.915  1.00  0.00     0.002 C 
BRANCH  36  37
ATOM     37  C   UNL A   1      37.522  19.745  24.759  1.00  0.00     0.021 C 
BRANCH  37  38
ATOM     38  C   UNL A   1      38.605  20.212  25.718  1.00  0.00     0.116 C 
BRANCH  38  39
ATOM     39  N   UNL A   1      39.770  19.348  25.732  1.00  0.00    -0.352 N 
ATOM     40  C   UNL A   1      41.071  19.636  26.060  1.00  0.00     0.251 C 
ATOM     41  H   UNL A   1      39.602  18.414  25.467  1.00  0.00     0.163 HD
ATOM     42  O   UNL A   1      41.939  18.784  25.904  1.00  0.00    -0.269 OA
BRANCH  40  43
ATOM     43  C   UNL A   1      41.437  20.974  26.581  1.00  0.00     0.039 A 
ATOM     44  C   UNL A   1      41.299  21.215  27.951  1.00  0.00     0.014 A 
ATOM     45  C   UNL A   1      41.871  21.999  25.736  1.00  0.00     0.014 A 
ATOM     46  C   UNL A   1      41.619  22.470  28.473  1.00  0.00     0.010 A 
ATOM     47  C   UNL A   1      42.276  23.220  26.269  1.00  0.00     0.010 A 
ATOM     48  C   UNL A   1      42.124  23.479  27.638  1.00  0.00    -0.014 A 
BRANCH  48  49
ATOM     49  C   UNL A   1      42.429  24.832  28.170  1.00  0.00     0.031 A 
ATOM     50  C   UNL A   1      43.842  25.179  28.565  1.00  0.00     0.074 A 
ATOM     51  C   UNL A   1      41.442  25.734  28.326  1.00  0.00     0.049 A 
ATOM     52  N   UNL A   1      44.310  26.292  29.070  1.00  0.00    -0.248 NA
ATOM     53  C   UNL A   1      44.861  24.127  28.394  1.00  0.00     0.031 C 
ATOM     54  C   UNL A   1      40.027  25.508  28.020  1.00  0.00     0.029 A 
ATOM     55  N   UNL A   1      41.479  27.026  28.785  1.00  0.00    -0.354 N 
ATOM     56  C   UNL A   1      45.663  26.066  29.295  1.00  0.00     0.074 A 
ATOM     57  C   UNL A   1      45.933  24.697  28.924  1.00  0.00     0.031 C 
ATOM     58  C   UNL A   1      39.339  26.634  28.269  1.00  0.00     0.029 A 
ATOM     59  C   UNL A   1      40.253  27.647  28.785  1.00  0.00     0.049 A 
ATOM     60  H   UNL A   1      42.307  27.467  29.085  1.00  0.00     0.167 HD
ATOM     61  C   UNL A   1      46.603  26.928  29.747  1.00  0.00     0.031 A 
ATOM     62  C   UNL A   1      39.908  28.894  29.161  1.00  0.00     0.031 A 
ATOM     63  C   UNL A   1      46.341  28.300  30.089  1.00  0.00     0.049 A 
ATOM     64  C   UNL A   1      40.976  29.832  29.651  1.00  0.00     0.074 A 
ATOM     65  C   UNL A   1      47.237  29.272  30.500  1.00  0.00     0.029 A 
ATOM     66  N   UNL A   1      45.090  28.894  30.055  1.00  0.00    -0.354 N 
ATOM     67  N   UNL A   1      42.264  29.624  29.788  1.00  0.00    -0.248 NA
ATOM     68  C   UNL A   1      40.545  31.189  30.017  1.00  0.00     0.031 C 
ATOM     69  C   UNL A   1      46.519  30.443  30.762  1.00  0.00     0.029 A 
ATOM     70  C   UNL A   1      45.187  30.217  30.453  1.00  0.00     0.049 A 
ATOM     71  H   UNL A   1      44.256  28.444  29.786  1.00  0.00     0.167 HD
ATOM     72  C   UNL A   1      42.799  30.832  30.216  1.00  0.00     0.074 A 
ATOM     73  C   UNL A   1      41.701  31.772  30.297  1.00  0.00     0.031 C 
ATOM     74  C   UNL A   1      44.085  31.140  30.514  1.00  0.00     0.031 A 
BRANCH  61  75
ATOM     75  C   UNL A   1      48.009  26.415  29.898  1.00  0.00    -0.014 A 
ATOM     76  C   UNL A   1      48.439  25.802  31.086  1.00  0.00     0.009 A 
ATOM     77  C   UNL A   1      48.901  26.499  28.818  1.00  0.00     0.009 A 
ATOM     78  C   UNL A   1      49.740  25.309  31.197  1.00  0.00     0.001 A 
ATOM     79  C   UNL A   1      50.192  25.977  28.921  1.00  0.00     0.001 A 
ATOM     80  C   UNL A   1      50.613  25.390  30.114  1.00  0.00     0.000 A 
ENDBRANCH  61  75
BRANCH  62  81
ATOM     81  C   UNL A   1      38.492  29.342  29.077  1.00  0.00    -0.014 A 
ATOM     82  C   UNL A   1      37.985  29.895  27.890  1.00  0.00     0.009 A 
ATOM     83  C   UNL A   1      37.651  29.261  30.198  1.00  0.00     0.009 A 
ATOM     84  C   UNL A   1      36.684  30.399  27.840  1.00  0.00     0.001 A 
ATOM     85  C   UNL A   1      36.339  29.735  30.135  1.00  0.00     0.001 A 
ATOM     86  C   UNL A   1      35.861  30.318  28.962  1.00  0.00     0.000 A 
ENDBRANCH  62  81
BRANCH  74  87
ATOM     87  C   UNL A   1      44.380  32.563  30.896  1.00  0.00    -0.014 A 
ATOM     88  C   UNL A   1      44.355  32.987  32.233  1.00  0.00     0.009 A 
ATOM     89  C   UNL A   1      44.715  33.489  29.894  1.00  0.00     0.009 A 
ATOM     90  C   UNL A   1      44.612  34.322  32.555  1.00  0.00     0.001 A 
ATOM     91  C   UNL A   1      45.006  34.814  30.222  1.00  0.00     0.001 A 
ATOM     92  C   UNL A   1      44.941  35.232  31.550  1.00  0.00     0.000 A 
ENDBRANCH  74  87
ENDBRANCH  48  49
ENDBRANCH  40  43
ENDBRANCH  38  39
ENDBRANCH  37  38
ENDBRANCH  36  37
ENDBRANCH  35  36
ENDBRANCH   1  35
TORSDOF 18
ENDMDL
MODEL 3
REMARK VINA RESULT:     -12.1      0.961      5.683
REMARK SMILES C[C@H](NC(=O)c1cccc(NC(=O)c2ccccc2C(=O)NCCCCCCNC(=O)c2ccc(-c3c4nc(c(-c5ccccc5)c5ccc([nH]5)c(-c5ccccc5)c5nc(c(-c6ccccc6)c6ccc3[nH]6)C=C5)C=C4)cc2)c1)c1ccccc1
REMARK SMILES IDX 24 1 23 2 22 3 20 4 21 5 19 7 14 8 15 9 16 10 18 11 17 12
REMARK SMILES IDX 12 13 11 14 13 16 10 17 6 18 7 19 80 20 8 21 9 22 4 23 3 24
REMARK SMILES IDX 5 26 2 27 1 28 81 29 82 30 86 31 83 32 85 33 84 34 25 35
REMARK SMILES IDX 26 36 27 37 28 38 29 39 30 40 31 42 32 43 33 44 79 45 34 46
REMARK SMILES IDX 78 47 35 48 36 49 37 50 72 51 38 52 77 53 71 54 73 55 39 56
REMARK SMILES IDX 76 57 70 58 69 59 40 61 62 62 47 63 61 64 48 65 51 66 60 67
REMARK SMILES IDX 74 68 49 69 50 70 59 72 75 73 52 74 41 75 42 76 46 77 43 78
REMARK SMILES IDX 45 79 44 80 63 81 64 82 68 83 65 84 67 85 66 86 53 87 54 88
REMARK SMILES IDX 58 89 55 90 57 91 56 92
REMARK H PARENT 22 6 11 15 3 25 29 41 73 60 51 71
REMARK Flexibility Score: inf
ROOT
ATOM      1  C   UNL A   1      36.821  23.357  24.839  1.00  0.00     0.021 C 
ENDROOT
BRANCH   1   2
ATOM      2  C   UNL A   1      35.894  23.946  25.894  1.00  0.00     0.116 C 
BRANCH   2   3
ATOM      3  N   UNL A   1      35.361  22.979  26.824  1.00  0.00    -0.352 N 
ATOM      4  C   UNL A   1      34.271  22.152  26.730  1.00  0.00     0.252 C 
ATOM      5  O   UNL A   1      34.069  21.379  27.669  1.00  0.00    -0.269 OA
ATOM      6  H   UNL A   1      35.864  22.900  27.666  1.00  0.00     0.163 HD
BRANCH   4   7
ATOM      7  C   UNL A   1      33.272  22.205  25.627  1.00  0.00     0.052 A 
ATOM      8  C   UNL A   1      32.032  22.862  25.612  1.00  0.00     0.052 A 
ATOM      9  C   UNL A   1      31.186  22.733  24.489  1.00  0.00     0.014 A 
ATOM     10  C   UNL A   1      31.604  22.057  23.345  1.00  0.00     0.001 A 
ATOM     11  C   UNL A   1      33.692  21.562  24.439  1.00  0.00     0.014 A 
ATOM     12  C   UNL A   1      32.874  21.498  23.308  1.00  0.00     0.001 A 
BRANCH   8  13
ATOM     13  C   UNL A   1      31.482  23.728  26.672  1.00  0.00     0.256 C 
ATOM     14  N   UNL A   1      31.674  25.089  26.732  1.00  0.00    -0.322 N 
ATOM     15  H   UNL A   1      31.309  25.507  27.545  1.00  0.00     0.170 HD
ATOM     16  O   UNL A   1      30.852  23.181  27.581  1.00  0.00    -0.269 OA
BRANCH  14  17
ATOM     17  C   UNL A   1      32.291  25.995  25.858  1.00  0.00     0.042 A 
ATOM     18  C   UNL A   1      32.129  27.247  23.794  1.00  0.00     0.041 A 
ATOM     19  C   UNL A   1      33.279  27.963  24.133  1.00  0.00     0.014 A 
ATOM     20  C   UNL A   1      31.654  26.233  24.631  1.00  0.00     0.040 A 
ATOM     21  C   UNL A   1      33.959  27.663  25.310  1.00  0.00     0.003 A 
ATOM     22  C   UNL A   1      33.474  26.670  26.161  1.00  0.00     0.026 A 
BRANCH  18  23
ATOM     23  C   UNL A   1      31.497  27.553  22.500  1.00  0.00     0.251 C 
ATOM     24  N   UNL A   1      30.599  28.574  22.349  1.00  0.00    -0.346 N 
ATOM     25  H   UNL A   1      30.397  28.779  21.408  1.00  0.00     0.164 HD
ATOM     26  O   UNL A   1      31.851  26.903  21.519  1.00  0.00    -0.269 OA
BRANCH  24  27
ATOM     27  C   UNL A   1      29.876  29.421  23.291  1.00  0.00     0.109 C 
ATOM     28  C   UNL A   1      30.694  29.968  24.460  1.00  0.00     0.036 C 
BRANCH  27  29
ATOM     29  C   UNL A   1      29.244  30.598  22.556  1.00  0.00    -0.026 A 
ATOM     30  C   UNL A   1      29.139  31.852  23.182  1.00  0.00     0.006 A 
ATOM     31  C   UNL A   1      28.692  30.437  21.277  1.00  0.00     0.006 A 
ATOM     32  C   UNL A   1      28.452  32.901  22.569  1.00  0.00     0.000 A 
ATOM     33  C   UNL A   1      28.011  31.493  20.661  1.00  0.00     0.000 A 
ATOM     34  C   UNL A   1      27.880  32.718  21.312  1.00  0.00     0.000 A 
ENDBRANCH  27  29
ENDBRANCH  24  27
ENDBRANCH  18  23
ENDBRANCH  14  17
ENDBRANCH   8  13
ENDBRANCH   4   7
ENDBRANCH   2   3
ENDBRANCH   1   2
BRANCH   1  35
ATOM     35  C   UNL A   1      37.637  22.130  25.272  1.00  0.00     0.002 C 
BRANCH  35  36
ATOM     36  C   UNL A   1      37.360  20.807  24.548  1.00  0.00     0.002 C 
BRANCH  36  37
ATOM     37  C   UNL A   1      38.228  19.606  24.912  1.00  0.00     0.021 C 
BRANCH  37  38
ATOM     38  C   UNL A   1      39.243  19.836  26.019  1.00  0.00     0.116 C 
BRANCH  38  39
ATOM     39  N   UNL A   1      40.473  19.088  25.832  1.00  0.00    -0.352 N 
ATOM     40  C   UNL A   1      41.775  19.488  25.999  1.00  0.00     0.251 C 
ATOM     41  H   UNL A   1      40.356  18.153  25.544  1.00  0.00     0.163 HD
ATOM     42  O   UNL A   1      42.687  18.730  25.684  1.00  0.00    -0.269 OA
BRANCH  40  43
ATOM     43  C   UNL A   1      42.087  20.834  26.534  1.00  0.00     0.039 A 
ATOM     44  C   UNL A   1      42.368  21.861  25.630  1.00  0.00     0.014 A 
ATOM     45  C   UNL A   1      42.145  21.083  27.908  1.00  0.00     0.014 A 
ATOM     46  C   UNL A   1      42.682  23.138  26.101  1.00  0.00     0.010 A 
ATOM     47  C   UNL A   1      42.368  22.376  28.375  1.00  0.00     0.010 A 
ATOM     48  C   UNL A   1      42.671  23.409  27.478  1.00  0.00    -0.014 A 
BRANCH  48  49
ATOM     49  C   UNL A   1      43.043  24.750  27.998  1.00  0.00     0.031 A 
ATOM     50  C   UNL A   1      41.971  25.781  28.242  1.00  0.00     0.074 A 
ATOM     51  C   UNL A   1      44.336  25.051  28.221  1.00  0.00     0.049 A 
ATOM     52  N   UNL A   1      42.091  27.013  28.668  1.00  0.00    -0.248 NA
ATOM     53  C   UNL A   1      40.583  25.387  27.943  1.00  0.00     0.031 C 
ATOM     54  C   UNL A   1      45.472  24.155  27.986  1.00  0.00     0.029 A 
ATOM     55  N   UNL A   1      44.915  26.201  28.695  1.00  0.00    -0.354 N 
ATOM     56  C   UNL A   1      40.805  27.541  28.666  1.00  0.00     0.074 A 
ATOM     57  C   UNL A   1      39.926  26.519  28.147  1.00  0.00     0.031 C 
ATOM     58  C   UNL A   1      46.605  24.779  28.349  1.00  0.00     0.029 A 
ATOM     59  C   UNL A   1      46.283  26.126  28.805  1.00  0.00     0.049 A 
ATOM     60  H   UNL A   1      44.398  27.004  28.936  1.00  0.00     0.167 HD
ATOM     61  C   UNL A   1      40.387  28.759  29.083  1.00  0.00     0.031 A 
ATOM     62  C   UNL A   1      47.175  27.043  29.226  1.00  0.00     0.031 A 
ATOM     63  C   UNL A   1      41.257  29.767  29.627  1.00  0.00     0.049 A 
ATOM     64  C   UNL A   1      46.680  28.385  29.692  1.00  0.00     0.074 A 
ATOM     65  C   UNL A   1      40.923  31.011  30.133  1.00  0.00     0.029 A 
ATOM     66  N   UNL A   1      42.632  29.642  29.740  1.00  0.00    -0.354 N 
ATOM     67  N   UNL A   1      45.451  28.841  29.752  1.00  0.00    -0.248 NA
ATOM     68  C   UNL A   1      47.696  29.333  30.170  1.00  0.00     0.031 C 
ATOM     69  C   UNL A   1      42.103  31.660  30.507  1.00  0.00     0.029 A 
ATOM     70  C   UNL A   1      43.164  30.794  30.292  1.00  0.00     0.049 A 
ATOM     71  H   UNL A   1      43.153  28.852  29.468  1.00  0.00     0.167 HD
ATOM     72  C   UNL A   1      45.545  30.109  30.311  1.00  0.00     0.074 A 
ATOM     73  C   UNL A   1      46.947  30.342  30.588  1.00  0.00     0.031 C 
ATOM     74  C   UNL A   1      44.560  31.002  30.573  1.00  0.00     0.031 A 
BRANCH  61  75
ATOM     75  C   UNL A   1      38.921  29.072  28.969  1.00  0.00    -0.014 A 
ATOM     76  C   UNL A   1      38.056  28.920  30.065  1.00  0.00     0.009 A 
ATOM     77  C   UNL A   1      38.407  29.577  27.765  1.00  0.00     0.009 A 
ATOM     78  C   UNL A   1      36.701  29.242  29.948  1.00  0.00     0.001 A 
ATOM     79  C   UNL A   1      37.059  29.926  27.660  1.00  0.00     0.001 A 
ATOM     80  C   UNL A   1      36.206  29.750  28.749  1.00  0.00     0.000 A 
ENDBRANCH  61  75
BRANCH  62  81
ATOM     81  C   UNL A   1      48.628  26.728  29.248  1.00  0.00    -0.014 A 
ATOM     82  C   UNL A   1      49.191  26.015  30.319  1.00  0.00     0.009 A 
ATOM     83  C   UNL A   1      49.471  27.177  28.218  1.00  0.00     0.009 A 
ATOM     84  C   UNL A   1      50.569  25.799  30.383  1.00  0.00     0.001 A 
ATOM     85  C   UNL A   1      50.844  26.930  28.268  1.00  0.00     0.001 A 
ATOM     86  C   UNL A   1      51.394  26.256  29.356  1.00  0.00     0.000 A 
ENDBRANCH  62  81
BRANCH  74  87
ATOM     87  C   UNL A   1      44.958  32.286  31.247  1.00  0.00    -0.014 A 
ATOM     88  C   UNL A   1      45.052  32.387  32.642  1.00  0.00     0.009 A 
ATOM     89  C   UNL A   1      45.269  33.407  30.460  1.00  0.00     0.009 A 
ATOM     90  C   UNL A   1      45.403  33.600  33.240  1.00  0.00     0.001 A 
ATOM     91  C   UNL A   1      45.654  34.608  31.058  1.00  0.00     0.001 A 
ATOM     92  C   UNL A   1      45.708  34.706  32.447  1.00  0.00     0.000 A 
ENDBRANCH  74  87
ENDBRANCH  48  49
ENDBRANCH  40  43
ENDBRANCH  38  39
ENDBRANCH  37  38
ENDBRANCH  36  37
ENDBRANCH  35  36
ENDBRANCH   1  35
TORSDOF 18
ENDMDL
