MODEL 1
REMARK VINA RESULT:     -11.3      0.000      0.000
REMARK SMILES C[C@H]1[C@@H](C(=O)NCCCCCCNC(=O)c2ccc(-c3c4nc(c(-c5ccccc5)c5ccc([nH]5)c(-c5ccccc5)c5nc(c(-c6ccccc6)c6ccc3[nH]6)C=C5)C=C4)cc2)CCN1C(=O)c1cc2cc(F)ccc2s1
REMARK SMILES IDX 9 1 8 2 7 3 6 4 4 5 5 6 3 8 1 9 2 10 66 11 64 12 65 13 67 14
REMARK SMILES IDX 68 15 69 16 70 17 78 18 71 19 77 20 72 21 76 22 73 23 75 24
REMARK SMILES IDX 74 25 10 26 11 27 12 28 13 29 14 30 15 32 16 33 17 34 63 35
REMARK SMILES IDX 18 36 62 37 19 38 20 39 21 40 56 41 22 42 61 43 55 44 57 45
REMARK SMILES IDX 23 46 60 47 54 48 53 49 24 51 46 52 31 53 45 54 32 55 35 56
REMARK SMILES IDX 44 57 58 58 33 59 34 60 43 62 59 63 36 64 25 65 26 66 30 67
REMARK SMILES IDX 27 68 29 69 28 70 47 71 48 72 52 73 49 74 51 75 50 76 37 77
REMARK SMILES IDX 38 78 42 79 39 80 41 81 40 82
REMARK H PARENT 6 7 13 31 57 50 35 61
REMARK Flexibility Score: inf
ROOT
ATOM      1  C   UNL A   1      34.323  32.575  28.904  1.00  0.00     0.002 C 
ENDROOT
BRANCH   1   2
ATOM      2  C   UNL A   1      35.213  31.799  27.932  1.00  0.00     0.021 C 
BRANCH   2   3
ATOM      3  C   UNL A   1      34.858  30.314  27.818  1.00  0.00     0.116 C 
BRANCH   3   4
ATOM      4  N   UNL A   1      34.404  30.040  26.470  1.00  0.00    -0.356 N 
ATOM      5  C   UNL A   1      33.850  28.917  25.935  1.00  0.00     0.225 C 
ATOM      6  O   UNL A   1      33.774  28.870  24.706  1.00  0.00    -0.275 OA
ATOM      7  H   UNL A   1      34.512  30.786  25.838  1.00  0.00     0.163 HD
BRANCH   5   8
ATOM      8  C   UNL A   1      33.264  27.828  26.836  1.00  0.00     0.102 C 
ATOM      9  C   UNL A   1      34.101  25.871  25.299  1.00  0.00     0.032 C 
ATOM     10  C   UNL A   1      33.057  26.413  26.254  1.00  0.00     0.094 C 
ATOM     11  N   UNL A   1      31.703  26.388  25.688  1.00  0.00    -0.334 N 
ATOM     12  C   UNL A   1      31.814  28.196  27.198  1.00  0.00     0.037 C 
ATOM     13  C   UNL A   1      31.020  27.626  26.030  1.00  0.00     0.121 C 
BRANCH  11  14
ATOM     14  C   UNL A   1      30.980  25.204  25.844  1.00  0.00     0.264 C 
ATOM     15  O   UNL A   1      29.983  25.178  26.568  1.00  0.00    -0.268 OA
BRANCH  14  16
ATOM     16  C   UNL A   1      31.470  24.018  25.160  1.00  0.00     0.093 A 
ATOM     17  C   UNL A   1      31.909  22.861  25.770  1.00  0.00     0.034 A 
ATOM     18  S   UNL A   1      31.457  23.852  23.463  1.00  0.00    -0.130 S 
ATOM     19  C   UNL A   1      32.118  21.779  24.857  1.00  0.00    -0.004 A 
ATOM     20  C   UNL A   1      31.870  22.178  23.540  1.00  0.00     0.035 A 
ATOM     21  C   UNL A   1      32.471  20.431  25.100  1.00  0.00     0.048 A 
ATOM     22  C   UNL A   1      31.951  21.264  22.467  1.00  0.00     0.022 A 
ATOM     23  C   UNL A   1      32.523  19.529  24.042  1.00  0.00     0.123 A 
ATOM     24  C   UNL A   1      32.264  19.929  22.743  1.00  0.00     0.041 A 
ATOM     25  F   UNL A   1      32.812  18.244  24.291  1.00  0.00    -0.207 F 
ENDBRANCH  14  16
ENDBRANCH  11  14
ENDBRANCH   5   8
ENDBRANCH   3   4
ENDBRANCH   2   3
ENDBRANCH   1   2
BRANCH   1  26
ATOM     26  C   UNL A   1      34.458  34.096  28.806  1.00  0.00     0.002 C 
BRANCH  26  27
ATOM     27  C   UNL A   1      33.155  34.895  28.951  1.00  0.00     0.021 C 
BRANCH  27  28
ATOM     28  C   UNL A   1      33.280  36.250  29.645  1.00  0.00     0.116 C 
BRANCH  28  29
ATOM     29  N   UNL A   1      32.433  36.348  30.819  1.00  0.00    -0.352 N 
ATOM     30  C   UNL A   1      32.564  35.749  32.048  1.00  0.00     0.251 C 
ATOM     31  H   UNL A   1      31.646  36.932  30.720  1.00  0.00     0.163 HD
ATOM     32  O   UNL A   1      31.652  35.810  32.862  1.00  0.00    -0.269 OA
BRANCH  30  33
ATOM     33  C   UNL A   1      33.800  35.011  32.389  1.00  0.00     0.039 A 
ATOM     34  C   UNL A   1      33.685  33.697  32.851  1.00  0.00     0.014 A 
ATOM     35  C   UNL A   1      35.056  35.619  32.306  1.00  0.00     0.014 A 
ATOM     36  C   UNL A   1      34.834  32.972  33.181  1.00  0.00     0.010 A 
ATOM     37  C   UNL A   1      36.205  34.882  32.595  1.00  0.00     0.010 A 
ATOM     38  C   UNL A   1      36.103  33.554  33.037  1.00  0.00    -0.014 A 
BRANCH  38  39
ATOM     39  C   UNL A   1      37.332  32.787  33.355  1.00  0.00     0.031 A 
ATOM     40  C   UNL A   1      38.070  33.037  34.639  1.00  0.00     0.074 A 
ATOM     41  C   UNL A   1      37.813  31.899  32.465  1.00  0.00     0.049 A 
ATOM     42  N   UNL A   1      39.191  32.508  35.061  1.00  0.00    -0.248 NA
ATOM     43  C   UNL A   1      37.479  34.020  35.561  1.00  0.00     0.031 C 
ATOM     44  C   UNL A   1      37.208  31.581  31.170  1.00  0.00     0.029 A 
ATOM     45  N   UNL A   1      38.932  31.107  32.516  1.00  0.00    -0.354 N 
ATOM     46  C   UNL A   1      39.453  33.109  36.285  1.00  0.00     0.074 A 
ATOM     47  C   UNL A   1      38.385  34.056  36.529  1.00  0.00     0.031 C 
ATOM     48  C   UNL A   1      37.955  30.649  30.557  1.00  0.00     0.029 A 
ATOM     49  C   UNL A   1      39.102  30.324  31.401  1.00  0.00     0.049 A 
ATOM     50  H   UNL A   1      39.554  31.100  33.279  1.00  0.00     0.167 HD
ATOM     51  C   UNL A   1      40.484  32.889  37.135  1.00  0.00     0.031 A 
ATOM     52  C   UNL A   1      40.074  29.448  31.091  1.00  0.00     0.031 A 
ATOM     53  C   UNL A   1      41.536  31.934  36.913  1.00  0.00     0.049 A 
ATOM     54  C   UNL A   1      41.200  29.212  32.054  1.00  0.00     0.074 A 
ATOM     55  C   UNL A   1      42.591  31.605  37.746  1.00  0.00     0.029 A 
ATOM     56  N   UNL A   1      41.663  31.154  35.777  1.00  0.00    -0.354 N 
ATOM     57  N   UNL A   1      41.411  29.762  33.224  1.00  0.00    -0.248 NA
ATOM     58  C   UNL A   1      42.219  28.232  31.652  1.00  0.00     0.031 C 
ATOM     59  C   UNL A   1      43.373  30.639  37.101  1.00  0.00     0.029 A 
ATOM     60  C   UNL A   1      42.787  30.352  35.879  1.00  0.00     0.049 A 
ATOM     61  H   UNL A   1      41.046  31.166  35.010  1.00  0.00     0.167 HD
ATOM     62  C   UNL A   1      42.577  29.183  33.706  1.00  0.00     0.074 A 
ATOM     63  C   UNL A   1      43.024  28.235  32.707  1.00  0.00     0.031 C 
ATOM     64  C   UNL A   1      43.219  29.417  34.876  1.00  0.00     0.031 A 
BRANCH  51  65
ATOM     65  C   UNL A   1      40.522  33.711  38.388  1.00  0.00    -0.014 A 
ATOM     66  C   UNL A   1      41.194  34.942  38.424  1.00  0.00     0.009 A 
ATOM     67  C   UNL A   1      39.862  33.257  39.540  1.00  0.00     0.009 A 
ATOM     68  C   UNL A   1      41.228  35.691  39.601  1.00  0.00     0.001 A 
ATOM     69  C   UNL A   1      39.883  34.017  40.710  1.00  0.00     0.001 A 
ATOM     70  C   UNL A   1      40.571  35.229  40.742  1.00  0.00     0.000 A 
ENDBRANCH  51  65
BRANCH  52  71
ATOM     71  C   UNL A   1      40.017  28.712  29.805  1.00  0.00    -0.014 A 
ATOM     72  C   UNL A   1      40.559  29.278  28.643  1.00  0.00     0.009 A 
ATOM     73  C   UNL A   1      39.425  27.442  29.737  1.00  0.00     0.009 A 
ATOM     74  C   UNL A   1      40.496  28.591  27.429  1.00  0.00     0.001 A 
ATOM     75  C   UNL A   1      39.378  26.751  28.526  1.00  0.00     0.001 A 
ATOM     76  C   UNL A   1      39.909  27.328  27.372  1.00  0.00     0.000 A 
ENDBRANCH  52  71
BRANCH  64  77
ATOM     77  C   UNL A   1      44.460  28.621  35.141  1.00  0.00    -0.014 A 
ATOM     78  C   UNL A   1      45.721  29.107  34.763  1.00  0.00     0.009 A 
ATOM     79  C   UNL A   1      44.371  27.387  35.802  1.00  0.00     0.009 A 
ATOM     80  C   UNL A   1      46.870  28.358  35.024  1.00  0.00     0.001 A 
ATOM     81  C   UNL A   1      45.522  26.647  36.075  1.00  0.00     0.001 A 
ATOM     82  C   UNL A   1      46.769  27.131  35.680  1.00  0.00     0.000 A 
ENDBRANCH  64  77
ENDBRANCH  38  39
ENDBRANCH  30  33
ENDBRANCH  28  29
ENDBRANCH  27  28
ENDBRANCH  26  27
ENDBRANCH   1  26
TORSDOF 15
ENDMDL
MODEL 2
REMARK VINA RESULT:     -11.0      6.882     12.040
REMARK SMILES C[C@H]1[C@@H](C(=O)NCCCCCCNC(=O)c2ccc(-c3c4nc(c(-c5ccccc5)c5ccc([nH]5)c(-c5ccccc5)c5nc(c(-c6ccccc6)c6ccc3[nH]6)C=C5)C=C4)cc2)CCN1C(=O)c1cc2cc(F)ccc2s1
REMARK SMILES IDX 9 1 8 2 7 3 6 4 4 5 5 6 3 8 1 9 2 10 66 11 64 12 65 13 67 14
REMARK SMILES IDX 68 15 69 16 70 17 78 18 71 19 77 20 72 21 76 22 73 23 75 24
REMARK SMILES IDX 74 25 10 26 11 27 12 28 13 29 14 30 15 32 16 33 17 34 63 35
REMARK SMILES IDX 18 36 62 37 19 38 20 39 21 40 56 41 22 42 61 43 55 44 57 45
REMARK SMILES IDX 23 46 60 47 54 48 53 49 24 51 46 52 31 53 45 54 32 55 35 56
REMARK SMILES IDX 44 57 58 58 33 59 34 60 43 62 59 63 36 64 25 65 26 66 30 67
REMARK SMILES IDX 27 68 29 69 28 70 47 71 48 72 52 73 49 74 51 75 50 76 37 77
REMARK SMILES IDX 38 78 42 79 39 80 41 81 40 82
REMARK H PARENT 6 7 13 31 57 50 35 61
REMARK Flexibility Score: inf
ROOT
ATOM      1  C   UNL A   1      40.319  21.259  26.688  1.00  0.00     0.002 C 
ENDROOT
BRANCH   1   2
ATOM      2  C   UNL A   1      40.123  22.760  26.909  1.00  0.00     0.021 C 
BRANCH   2   3
ATOM      3  C   UNL A   1      38.720  23.260  26.555  1.00  0.00     0.116 C 
BRANCH   3   4
ATOM      4  N   UNL A   1      37.967  22.173  25.962  1.00  0.00    -0.356 N 
ATOM      5  C   UNL A   1      36.629  22.036  25.752  1.00  0.00     0.225 C 
ATOM      6  O   UNL A   1      36.229  20.911  25.447  1.00  0.00    -0.275 OA
ATOM      7  H   UNL A   1      38.511  21.410  25.663  1.00  0.00     0.163 HD
BRANCH   5   8
ATOM      8  C   UNL A   1      35.701  23.253  25.796  1.00  0.00     0.102 C 
ATOM      9  C   UNL A   1      34.040  22.135  27.495  1.00  0.00     0.032 C 
ATOM     10  C   UNL A   1      34.262  23.072  26.325  1.00  0.00     0.094 C 
ATOM     11  N   UNL A   1      33.431  22.736  25.163  1.00  0.00    -0.334 N 
ATOM     12  C   UNL A   1      35.415  23.724  24.360  1.00  0.00     0.037 C 
ATOM     13  C   UNL A   1      34.228  22.861  23.953  1.00  0.00     0.121 C 
BRANCH  11  14
ATOM     14  C   UNL A   1      32.145  23.281  25.132  1.00  0.00     0.264 C 
ATOM     15  O   UNL A   1      31.168  22.574  25.384  1.00  0.00    -0.268 OA
BRANCH  14  16
ATOM     16  C   UNL A   1      32.014  24.679  24.756  1.00  0.00     0.093 A 
ATOM     17  C   UNL A   1      31.669  25.146  23.504  1.00  0.00     0.034 A 
ATOM     18  S   UNL A   1      32.156  25.960  25.873  1.00  0.00    -0.130 S 
ATOM     19  C   UNL A   1      31.392  26.550  23.475  1.00  0.00    -0.004 A 
ATOM     20  C   UNL A   1      31.588  27.126  24.734  1.00  0.00     0.035 A 
ATOM     21  C   UNL A   1      30.926  27.369  22.421  1.00  0.00     0.048 A 
ATOM     22  C   UNL A   1      31.318  28.492  24.967  1.00  0.00     0.022 A 
ATOM     23  C   UNL A   1      30.636  28.709  22.664  1.00  0.00     0.123 A 
ATOM     24  C   UNL A   1      30.821  29.269  23.916  1.00  0.00     0.041 A 
ATOM     25  F   UNL A   1      30.150  29.464  21.670  1.00  0.00    -0.207 F 
ENDBRANCH  14  16
ENDBRANCH  11  14
ENDBRANCH   5   8
ENDBRANCH   3   4
ENDBRANCH   2   3
ENDBRANCH   1   2
BRANCH   1  26
ATOM     26  C   UNL A   1      41.782  20.825  26.568  1.00  0.00     0.002 C 
BRANCH  26  27
ATOM     27  C   UNL A   1      42.037  19.556  25.741  1.00  0.00     0.021 C 
BRANCH  27  28
ATOM     28  C   UNL A   1      43.305  18.779  26.092  1.00  0.00     0.116 C 
BRANCH  28  29
ATOM     29  N   UNL A   1      44.146  18.544  24.933  1.00  0.00    -0.352 N 
ATOM     30  C   UNL A   1      44.874  19.435  24.183  1.00  0.00     0.251 C 
ATOM     31  H   UNL A   1      44.204  17.606  24.641  1.00  0.00     0.163 HD
ATOM     32  O   UNL A   1      45.385  19.077  23.129  1.00  0.00    -0.269 OA
BRANCH  30  33
ATOM     33  C   UNL A   1      45.031  20.836  24.633  1.00  0.00     0.039 A 
ATOM     34  C   UNL A   1      44.616  21.861  23.777  1.00  0.00     0.014 A 
ATOM     35  C   UNL A   1      45.626  21.142  25.859  1.00  0.00     0.014 A 
ATOM     36  C   UNL A   1      44.750  23.194  24.173  1.00  0.00     0.010 A 
ATOM     37  C   UNL A   1      45.721  22.471  26.272  1.00  0.00     0.010 A 
ATOM     38  C   UNL A   1      45.287  23.508  25.432  1.00  0.00    -0.014 A 
BRANCH  38  39
ATOM     39  C   UNL A   1      45.407  24.917  25.877  1.00  0.00     0.031 A 
ATOM     40  C   UNL A   1      46.733  25.619  25.821  1.00  0.00     0.074 A 
ATOM     41  C   UNL A   1      44.332  25.553  26.380  1.00  0.00     0.049 A 
ATOM     42  N   UNL A   1      47.044  26.826  26.221  1.00  0.00    -0.248 NA
ATOM     43  C   UNL A   1      47.860  24.860  25.256  1.00  0.00     0.031 C 
ATOM     44  C   UNL A   1      42.991  24.978  26.514  1.00  0.00     0.029 A 
ATOM     45  N   UNL A   1      44.203  26.824  26.879  1.00  0.00    -0.354 N 
ATOM     46  C   UNL A   1      48.404  26.964  25.978  1.00  0.00     0.074 A 
ATOM     47  C   UNL A   1      48.863  25.712  25.415  1.00  0.00     0.031 C 
ATOM     48  C   UNL A   1      42.173  25.900  27.047  1.00  0.00     0.029 A 
ATOM     49  C   UNL A   1      42.934  27.117  27.314  1.00  0.00     0.049 A 
ATOM     50  H   UNL A   1      44.949  27.464  26.922  1.00  0.00     0.167 HD
ATOM     51  C   UNL A   1      49.200  28.038  26.196  1.00  0.00     0.031 A 
ATOM     52  C   UNL A   1      42.440  28.238  27.869  1.00  0.00     0.031 A 
ATOM     53  C   UNL A   1      48.750  29.294  26.732  1.00  0.00     0.049 A 
ATOM     54  C   UNL A   1      43.339  29.419  28.090  1.00  0.00     0.074 A 
ATOM     55  C   UNL A   1      49.476  30.454  26.936  1.00  0.00     0.029 A 
ATOM     56  N   UNL A   1      47.455  29.553  27.148  1.00  0.00    -0.354 N 
ATOM     57  N   UNL A   1      44.615  29.544  27.819  1.00  0.00    -0.248 NA
ATOM     58  C   UNL A   1      42.726  30.613  28.690  1.00  0.00     0.031 C 
ATOM     59  C   UNL A   1      48.622  31.411  27.498  1.00  0.00     0.029 A 
ATOM     60  C   UNL A   1      47.361  30.850  27.619  1.00  0.00     0.049 A 
ATOM     61  H   UNL A   1      46.711  28.909  27.112  1.00  0.00     0.167 HD
ATOM     62  C   UNL A   1      44.954  30.835  28.201  1.00  0.00     0.074 A 
ATOM     63  C   UNL A   1      43.751  31.456  28.714  1.00  0.00     0.031 C 
ATOM     64  C   UNL A   1      46.159  31.451  28.130  1.00  0.00     0.031 A 
BRANCH  51  65
ATOM     65  C   UNL A   1      50.653  27.890  25.857  1.00  0.00    -0.014 A 
ATOM     66  C   UNL A   1      51.575  27.429  26.809  1.00  0.00     0.009 A 
ATOM     67  C   UNL A   1      51.101  28.198  24.563  1.00  0.00     0.009 A 
ATOM     68  C   UNL A   1      52.925  27.305  26.479  1.00  0.00     0.001 A 
ATOM     69  C   UNL A   1      52.449  28.056  24.232  1.00  0.00     0.001 A 
ATOM     70  C   UNL A   1      53.361  27.617  25.191  1.00  0.00     0.000 A 
ENDBRANCH  51  65
BRANCH  52  71
ATOM     71  C   UNL A   1      41.008  28.302  28.246  1.00  0.00    -0.014 A 
ATOM     72  C   UNL A   1      40.578  27.790  29.478  1.00  0.00     0.009 A 
ATOM     73  C   UNL A   1      40.068  28.879  27.378  1.00  0.00     0.009 A 
ATOM     74  C   UNL A   1      39.228  27.839  29.829  1.00  0.00     0.001 A 
ATOM     75  C   UNL A   1      38.722  28.941  27.740  1.00  0.00     0.001 A 
ATOM     76  C   UNL A   1      38.302  28.416  28.962  1.00  0.00     0.000 A 
ENDBRANCH  52  71
BRANCH  64  77
ATOM     77  C   UNL A   1      46.225  32.871  28.602  1.00  0.00    -0.014 A 
ATOM     78  C   UNL A   1      45.901  33.932  27.741  1.00  0.00     0.009 A 
ATOM     79  C   UNL A   1      46.585  33.151  29.928  1.00  0.00     0.009 A 
ATOM     80  C   UNL A   1      45.959  35.249  28.197  1.00  0.00     0.001 A 
ATOM     81  C   UNL A   1      46.628  34.469  30.385  1.00  0.00     0.001 A 
ATOM     82  C   UNL A   1      46.320  35.516  29.517  1.00  0.00     0.000 A 
ENDBRANCH  64  77
ENDBRANCH  38  39
ENDBRANCH  30  33
ENDBRANCH  28  29
ENDBRANCH  27  28
ENDBRANCH  26  27
ENDBRANCH   1  26
TORSDOF 15
ENDMDL
MODEL 3
REMARK VINA RESULT:     -10.9      3.632      7.785
REMARK SMILES C[C@H]1[C@@H](C(=O)NCCCCCCNC(=O)c2ccc(-c3c4nc(c(-c5ccccc5)c5ccc([nH]5)c(-c5ccccc5)c5nc(c(-c6ccccc6)c6ccc3[nH]6)C=C5)C=C4)cc2)CCN1C(=O)c1cc2cc(F)ccc2s1
REMARK SMILES IDX 9 1 8 2 7 3 6 4 4 5 5 6 3 8 1 9 2 10 66 11 64 12 65 13 67 14
REMARK SMILES IDX 68 15 69 16 70 17 78 18 71 19 77 20 72 21 76 22 73 23 75 24
REMARK SMILES IDX 74 25 10 26 11 27 12 28 13 29 14 30 15 32 16 33 17 34 63 35
REMARK SMILES IDX 18 36 62 37 19 38 20 39 21 40 56 41 22 42 61 43 55 44 57 45
REMARK SMILES IDX 23 46 60 47 54 48 53 49 24 51 46 52 31 53 45 54 32 55 35 56
REMARK SMILES IDX 44 57 58 58 33 59 34 60 43 62 59 63 36 64 25 65 26 66 30 67
REMARK SMILES IDX 27 68 29 69 28 70 47 71 48 72 52 73 49 74 51 75 50 76 37 77
REMARK SMILES IDX 38 78 42 79 39 80 41 81 40 82
REMARK H PARENT 6 7 13 31 57 50 35 61
REMARK Flexibility Score: inf
ROOT
ATOM      1  C   UNL A   1      31.254  28.747  24.333  1.00  0.00     0.002 C 
ENDROOT
BRANCH   1   2
ATOM      2  C   UNL A   1      31.595  28.624  22.846  1.00  0.00     0.021 C 
BRANCH   2   3
ATOM      3  C   UNL A   1      33.031  28.168  22.575  1.00  0.00     0.116 C 
BRANCH   3   4
ATOM      4  N   UNL A   1      32.999  26.965  21.769  1.00  0.00    -0.356 N 
ATOM      5  C   UNL A   1      32.773  25.670  22.122  1.00  0.00     0.225 C 
ATOM      6  O   UNL A   1      33.038  24.812  21.279  1.00  0.00    -0.275 OA
ATOM      7  H   UNL A   1      33.168  27.106  20.810  1.00  0.00     0.163 HD
BRANCH   5   8
ATOM      8  C   UNL A   1      32.125  25.327  23.466  1.00  0.00     0.102 C 
ATOM      9  C   UNL A   1      34.425  25.152  24.721  1.00  0.00     0.032 C 
ATOM     10  C   UNL A   1      32.993  24.680  24.567  1.00  0.00     0.094 C 
ATOM     11  N   UNL A   1      32.891  23.228  24.378  1.00  0.00    -0.334 N 
ATOM     12  C   UNL A   1      31.073  24.224  23.254  1.00  0.00     0.037 C 
ATOM     13  C   UNL A   1      31.899  22.948  23.352  1.00  0.00     0.121 C 
BRANCH  11  14
ATOM     14  C   UNL A   1      32.841  22.447  25.535  1.00  0.00     0.264 C 
ATOM     15  O   UNL A   1      32.509  22.953  26.608  1.00  0.00    -0.268 OA
BRANCH  14  16
ATOM     16  C   UNL A   1      33.230  21.051  25.424  1.00  0.00     0.093 A 
ATOM     17  C   UNL A   1      32.410  19.966  25.656  1.00  0.00     0.034 A 
ATOM     18  S   UNL A   1      34.762  20.555  24.860  1.00  0.00    -0.130 S 
ATOM     19  C   UNL A   1      32.985  18.719  25.252  1.00  0.00    -0.004 A 
ATOM     20  C   UNL A   1      34.281  18.901  24.758  1.00  0.00     0.035 A 
ATOM     21  C   UNL A   1      32.434  17.417  25.241  1.00  0.00     0.048 A 
ATOM     22  C   UNL A   1      35.028  17.820  24.242  1.00  0.00     0.022 A 
ATOM     23  C   UNL A   1      33.166  16.361  24.706  1.00  0.00     0.123 A 
ATOM     24  C   UNL A   1      34.442  16.551  24.207  1.00  0.00     0.041 A 
ATOM     25  F   UNL A   1      32.614  15.141  24.658  1.00  0.00    -0.207 F 
ENDBRANCH  14  16
ENDBRANCH  11  14
ENDBRANCH   5   8
ENDBRANCH   3   4
ENDBRANCH   2   3
ENDBRANCH   1   2
BRANCH   1  26
ATOM     26  C   UNL A   1      32.424  29.195  25.212  1.00  0.00     0.002 C 
BRANCH  26  27
ATOM     27  C   UNL A   1      33.046  28.110  26.102  1.00  0.00     0.021 C 
BRANCH  27  28
ATOM     28  C   UNL A   1      33.668  28.599  27.410  1.00  0.00     0.116 C 
BRANCH  28  29
ATOM     29  N   UNL A   1      33.589  30.042  27.551  1.00  0.00    -0.352 N 
ATOM     30  C   UNL A   1      34.496  30.921  28.090  1.00  0.00     0.251 C 
ATOM     31  H   UNL A   1      32.762  30.450  27.209  1.00  0.00     0.163 HD
ATOM     32  O   UNL A   1      34.179  32.088  28.284  1.00  0.00    -0.269 OA
BRANCH  30  33
ATOM     33  C   UNL A   1      35.854  30.462  28.455  1.00  0.00     0.039 A 
ATOM     34  C   UNL A   1      36.039  29.850  29.699  1.00  0.00     0.014 A 
ATOM     35  C   UNL A   1      36.945  30.674  27.608  1.00  0.00     0.014 A 
ATOM     36  C   UNL A   1      37.309  29.405  30.073  1.00  0.00     0.010 A 
ATOM     37  C   UNL A   1      38.204  30.192  27.964  1.00  0.00     0.010 A 
ATOM     38  C   UNL A   1      38.398  29.556  29.200  1.00  0.00    -0.014 A 
BRANCH  38  39
ATOM     39  C   UNL A   1      39.745  29.060  29.571  1.00  0.00     0.031 A 
ATOM     40  C   UNL A   1      40.232  27.735  29.059  1.00  0.00     0.074 A 
ATOM     41  C   UNL A   1      40.514  29.780  30.409  1.00  0.00     0.049 A 
ATOM     42  N   UNL A   1      41.353  27.112  29.323  1.00  0.00    -0.248 NA
ATOM     43  C   UNL A   1      39.337  27.009  28.145  1.00  0.00     0.031 C 
ATOM     44  C   UNL A   1      40.150  31.071  30.998  1.00  0.00     0.029 A 
ATOM     45  N   UNL A   1      41.761  29.520  30.917  1.00  0.00    -0.354 N 
ATOM     46  C   UNL A   1      41.289  25.912  28.628  1.00  0.00     0.074 A 
ATOM     47  C   UNL A   1      40.012  25.885  27.947  1.00  0.00     0.031 C 
ATOM     48  C   UNL A   1      41.159  31.495  31.776  1.00  0.00     0.029 A 
ATOM     49  C   UNL A   1      42.226  30.498  31.760  1.00  0.00     0.049 A 
ATOM     50  H   UNL A   1      42.274  28.709  30.699  1.00  0.00     0.167 HD
ATOM     51  C   UNL A   1      42.211  24.923  28.555  1.00  0.00     0.031 A 
ATOM     52  C   UNL A   1      43.379  30.582  32.446  1.00  0.00     0.031 A 
ATOM     53  C   UNL A   1      43.492  24.950  29.207  1.00  0.00     0.049 A 
ATOM     54  C   UNL A   1      44.392  29.480  32.340  1.00  0.00     0.074 A 
ATOM     55  C   UNL A   1      44.512  24.017  29.145  1.00  0.00     0.029 A 
ATOM     56  N   UNL A   1      43.929  25.966  30.041  1.00  0.00    -0.354 N 
ATOM     57  N   UNL A   1      44.330  28.369  31.647  1.00  0.00    -0.248 NA
ATOM     58  C   UNL A   1      45.633  29.646  33.110  1.00  0.00     0.031 C 
ATOM     59  C   UNL A   1      45.560  24.459  29.962  1.00  0.00     0.029 A 
ATOM     60  C   UNL A   1      45.198  25.678  30.511  1.00  0.00     0.049 A 
ATOM     61  H   UNL A   1      43.412  26.774  30.266  1.00  0.00     0.167 HD
ATOM     62  C   UNL A   1      45.529  27.712  31.884  1.00  0.00     0.074 A 
ATOM     63  C   UNL A   1      46.303  28.550  32.776  1.00  0.00     0.031 C 
ATOM     64  C   UNL A   1      45.952  26.519  31.400  1.00  0.00     0.031 A 
BRANCH  51  65
ATOM     65  C   UNL A   1      41.856  23.718  27.737  1.00  0.00    -0.014 A 
ATOM     66  C   UNL A   1      42.249  23.614  26.394  1.00  0.00     0.009 A 
ATOM     67  C   UNL A   1      41.138  22.665  28.324  1.00  0.00     0.009 A 
ATOM     68  C   UNL A   1      41.903  22.488  25.645  1.00  0.00     0.001 A 
ATOM     69  C   UNL A   1      40.809  21.533  27.577  1.00  0.00     0.001 A 
ATOM     70  C   UNL A   1      41.185  21.449  26.237  1.00  0.00     0.000 A 
ENDBRANCH  51  65
BRANCH  52  71
ATOM     71  C   UNL A   1      43.648  31.771  33.292  1.00  0.00    -0.014 A 
ATOM     72  C   UNL A   1      44.293  32.891  32.750  1.00  0.00     0.009 A 
ATOM     73  C   UNL A   1      43.256  31.789  34.639  1.00  0.00     0.009 A 
ATOM     74  C   UNL A   1      44.556  34.006  33.548  1.00  0.00     0.001 A 
ATOM     75  C   UNL A   1      43.506  32.912  35.428  1.00  0.00     0.001 A 
ATOM     76  C   UNL A   1      44.161  34.017  34.884  1.00  0.00     0.000 A 
ENDBRANCH  52  71
BRANCH  64  77
ATOM     77  C   UNL A   1      47.318  26.063  31.815  1.00  0.00    -0.014 A 
ATOM     78  C   UNL A   1      48.438  26.322  31.010  1.00  0.00     0.009 A 
ATOM     79  C   UNL A   1      47.490  25.395  33.036  1.00  0.00     0.009 A 
ATOM     80  C   UNL A   1      49.705  25.898  31.414  1.00  0.00     0.001 A 
ATOM     81  C   UNL A   1      48.761  24.985  33.443  1.00  0.00     0.001 A 
ATOM     82  C   UNL A   1      49.865  25.233  32.629  1.00  0.00     0.000 A 
ENDBRANCH  64  77
ENDBRANCH  38  39
ENDBRANCH  30  33
ENDBRANCH  28  29
ENDBRANCH  27  28
ENDBRANCH  26  27
ENDBRANCH   1  26
TORSDOF 15
ENDMDL
