MODEL 1
REMARK VINA RESULT:     -12.2      0.000      0.000
REMARK SMILES O=C(NCCCCCCNC(=O)[C@@H](Cc1ccc(O)cc1)Nc1c2ccccc2nc2ccccc12)c1ccc(-c2c3nc(c(-c4ccccc4)c4ccc([nH]4)c(-c4ccccc4)c4nc(c(-c5ccccc5)c5ccc2[nH]5)C=C4)C=C3)cc1
REMARK SMILES IDX 7 1 6 2 5 3 4 4 3 5 1 6 2 7 37 9 38 10 84 11 39 12 83 13
REMARK SMILES IDX 40 14 41 15 42 16 77 17 43 18 82 19 76 20 78 21 44 22 81 23
REMARK SMILES IDX 75 24 74 25 45 27 67 28 52 29 66 30 53 31 56 32 65 33 79 34
REMARK SMILES IDX 54 35 55 36 64 38 80 39 57 40 46 41 47 42 51 43 48 44 50 45
REMARK SMILES IDX 49 46 68 47 69 48 73 49 70 50 72 51 71 52 58 53 59 54 63 55
REMARK SMILES IDX 60 56 62 57 61 58 8 59 9 60 10 61 11 62 12 64 13 65 14 66
REMARK SMILES IDX 15 67 16 68 21 69 17 70 20 71 18 72 19 73 22 75 23 77 24 78
REMARK SMILES IDX 36 79 25 80 29 81 31 82 35 83 26 84 28 85 30 86 32 87 34 88
REMARK SMILES IDX 27 89 33 90
REMARK H PARENT 3 8 78 26 56 37 10 63 19 74 22 76
REMARK Flexibility Score: inf
ROOT
ATOM      1  C   UNL A   1      31.367  28.127  25.787  1.00  0.00     0.002 C 
ENDROOT
BRANCH   1   2
ATOM      2  C   UNL A   1      32.674  28.304  25.005  1.00  0.00     0.002 C 
BRANCH   2   3
ATOM      3  C   UNL A   1      33.942  28.418  25.857  1.00  0.00     0.021 C 
BRANCH   3   4
ATOM      4  C   UNL A   1      33.690  28.628  27.346  1.00  0.00     0.116 C 
BRANCH   4   5
ATOM      5  N   UNL A   1      33.637  30.041  27.692  1.00  0.00    -0.352 N 
ATOM      6  O   UNL A   1      34.253  31.933  28.751  1.00  0.00    -0.269 OA
ATOM      7  C   UNL A   1      34.564  30.822  28.337  1.00  0.00     0.251 C 
ATOM      8  H   UNL A   1      32.814  30.507  27.423  1.00  0.00     0.163 HD
BRANCH   7   9
ATOM      9  C   UNL A   1      35.942  30.323  28.534  1.00  0.00     0.039 A 
ATOM     10  C   UNL A   1      36.899  30.466  27.528  1.00  0.00     0.014 A 
ATOM     11  C   UNL A   1      36.293  29.749  29.760  1.00  0.00     0.014 A 
ATOM     12  C   UNL A   1      38.165  29.919  27.694  1.00  0.00     0.010 A 
ATOM     13  C   UNL A   1      37.593  29.280  29.959  1.00  0.00     0.010 A 
ATOM     14  C   UNL A   1      38.535  29.342  28.920  1.00  0.00    -0.014 A 
BRANCH  14  15
ATOM     15  C   UNL A   1      39.934  28.886  29.114  1.00  0.00     0.031 A 
ATOM     16  C   UNL A   1      40.966  29.774  29.752  1.00  0.00     0.074 A 
ATOM     17  C   UNL A   1      40.266  27.640  28.720  1.00  0.00     0.049 A 
ATOM     18  N   UNL A   1      42.223  29.516  30.011  1.00  0.00    -0.248 NA
ATOM     19  C   UNL A   1      40.537  31.126  30.141  1.00  0.00     0.031 C 
ATOM     20  C   UNL A   1      39.355  26.686  28.082  1.00  0.00     0.029 A 
ATOM     21  N   UNL A   1      41.450  26.955  28.815  1.00  0.00    -0.354 N 
ATOM     22  C   UNL A   1      42.740  30.673  30.579  1.00  0.00     0.074 A 
ATOM     23  C   UNL A   1      41.668  31.647  30.596  1.00  0.00     0.031 C 
ATOM     24  C   UNL A   1      39.997  25.525  27.889  1.00  0.00     0.029 A 
ATOM     25  C   UNL A   1      41.381  25.674  28.323  1.00  0.00     0.049 A 
ATOM     26  H   UNL A   1      42.269  27.343  29.198  1.00  0.00     0.167 HD
ATOM     27  C   UNL A   1      43.990  30.902  31.048  1.00  0.00     0.031 A 
ATOM     28  C   UNL A   1      42.328  24.726  28.215  1.00  0.00     0.031 A 
ATOM     29  C   UNL A   1      45.058  29.934  31.019  1.00  0.00     0.049 A 
ATOM     30  C   UNL A   1      43.718  25.025  28.696  1.00  0.00     0.074 A 
ATOM     31  C   UNL A   1      46.351  30.062  31.498  1.00  0.00     0.029 A 
ATOM     32  N   UNL A   1      44.960  28.663  30.473  1.00  0.00    -0.354 N 
ATOM     33  N   UNL A   1      44.178  26.110  29.271  1.00  0.00    -0.248 NA
ATOM     34  C   UNL A   1      44.718  23.966  28.517  1.00  0.00     0.031 C 
ATOM     35  C   UNL A   1      47.053  28.893  31.185  1.00  0.00     0.029 A 
ATOM     36  C   UNL A   1      46.177  28.008  30.576  1.00  0.00     0.049 A 
ATOM     37  H   UNL A   1      44.146  28.282  30.073  1.00  0.00     0.167 HD
ATOM     38  C   UNL A   1      45.514  25.855  29.544  1.00  0.00     0.074 A 
ATOM     39  C   UNL A   1      45.783  24.505  29.093  1.00  0.00     0.031 C 
ATOM     40  C   UNL A   1      46.434  26.666  30.118  1.00  0.00     0.031 A 
BRANCH  27  41
ATOM     41  C   UNL A   1      44.287  32.269  31.607  1.00  0.00    -0.014 A 
ATOM     42  C   UNL A   1      44.719  33.320  30.782  1.00  0.00     0.009 A 
ATOM     43  C   UNL A   1      44.084  32.522  32.973  1.00  0.00     0.009 A 
ATOM     44  C   UNL A   1      44.977  34.583  31.321  1.00  0.00     0.001 A 
ATOM     45  C   UNL A   1      44.312  33.793  33.503  1.00  0.00     0.001 A 
ATOM     46  C   UNL A   1      44.768  34.820  32.679  1.00  0.00     0.000 A 
ENDBRANCH  27  41
BRANCH  28  47
ATOM     47  C   UNL A   1      41.994  23.409  27.612  1.00  0.00    -0.014 A 
ATOM     48  C   UNL A   1      41.419  22.391  28.388  1.00  0.00     0.009 A 
ATOM     49  C   UNL A   1      42.251  23.164  26.253  1.00  0.00     0.009 A 
ATOM     50  C   UNL A   1      41.134  21.148  27.821  1.00  0.00     0.001 A 
ATOM     51  C   UNL A   1      41.932  21.931  25.682  1.00  0.00     0.001 A 
ATOM     52  C   UNL A   1      41.385  20.920  26.468  1.00  0.00     0.000 A 
ENDBRANCH  28  47
BRANCH  40  53
ATOM     53  C   UNL A   1      47.811  26.097  30.326  1.00  0.00    -0.014 A 
ATOM     54  C   UNL A   1      48.726  25.984  29.268  1.00  0.00     0.009 A 
ATOM     55  C   UNL A   1      48.203  25.686  31.610  1.00  0.00     0.009 A 
ATOM     56  C   UNL A   1      49.990  25.431  29.484  1.00  0.00     0.001 A 
ATOM     57  C   UNL A   1      49.479  25.166  31.829  1.00  0.00     0.001 A 
ATOM     58  C   UNL A   1      50.367  25.028  30.764  1.00  0.00     0.000 A 
ENDBRANCH  40  53
ENDBRANCH  14  15
ENDBRANCH   7   9
ENDBRANCH   4   5
ENDBRANCH   3   4
ENDBRANCH   2   3
ENDBRANCH   1   2
BRANCH   1  59
ATOM     59  C   UNL A   1      30.766  26.722  25.716  1.00  0.00     0.021 C 
BRANCH  59  60
ATOM     60  C   UNL A   1      31.627  25.636  26.362  1.00  0.00     0.116 C 
BRANCH  60  61
ATOM     61  N   UNL A   1      30.817  24.522  26.791  1.00  0.00    -0.354 N 
ATOM     62  C   UNL A   1      30.730  23.240  26.348  1.00  0.00     0.242 C 
ATOM     63  H   UNL A   1      30.217  24.728  27.544  1.00  0.00     0.163 HD
ATOM     64  O   UNL A   1      29.828  22.563  26.861  1.00  0.00    -0.273 OA
BRANCH  62  65
ATOM     65  C   UNL A   1      31.670  22.602  25.286  1.00  0.00     0.173 C 
BRANCH  65  66
ATOM     66  C   UNL A   1      31.405  23.040  23.819  1.00  0.00     0.070 C 
BRANCH  66  67
ATOM     67  C   UNL A   1      31.973  24.295  23.184  1.00  0.00    -0.045 A 
ATOM     68  C   UNL A   1      33.345  24.567  23.350  1.00  0.00     0.007 A 
ATOM     69  C   UNL A   1      31.194  25.252  22.520  1.00  0.00     0.007 A 
ATOM     70  C   UNL A   1      33.943  25.678  22.747  1.00  0.00     0.046 A 
ATOM     71  C   UNL A   1      31.794  26.343  21.880  1.00  0.00     0.046 A 
ATOM     72  C   UNL A   1      33.166  26.531  21.975  1.00  0.00     0.115 A 
BRANCH  72  73
ATOM     73  O   UNL A   1      33.724  27.561  21.278  1.00  0.00    -0.508 OA
ATOM     74  H   UNL A   1      33.210  28.043  20.662  1.00  0.00     0.293 HD
ENDBRANCH  72  73
ENDBRANCH  66  67
ENDBRANCH  65  66
BRANCH  65  75
ATOM     75  N   UNL A   1      33.079  22.644  25.696  1.00  0.00    -0.372 N 
ATOM     76  H   UNL A   1      33.346  23.439  26.212  1.00  0.00     0.161 HD
BRANCH  75  77
ATOM     77  C   UNL A   1      34.099  21.708  25.454  1.00  0.00     0.054 A 
ATOM     78  C   UNL A   1      33.881  20.332  25.074  1.00  0.00     0.024 A 
ATOM     79  C   UNL A   1      35.461  22.166  25.599  1.00  0.00     0.024 A 
ATOM     80  C   UNL A   1      32.638  19.669  24.868  1.00  0.00     0.012 A 
ATOM     81  C   UNL A   1      35.029  19.542  24.840  1.00  0.00     0.073 A 
ATOM     82  C   UNL A   1      36.494  21.255  25.304  1.00  0.00     0.073 A 
ATOM     83  C   UNL A   1      35.859  23.465  26.032  1.00  0.00     0.012 A 
ATOM     84  C   UNL A   1      32.532  18.322  24.512  1.00  0.00     0.001 A 
ATOM     85  C   UNL A   1      34.911  18.207  24.472  1.00  0.00     0.029 A 
ATOM     86  N   UNL A   1      36.278  19.995  24.937  1.00  0.00    -0.248 NA
ATOM     87  C   UNL A   1      37.822  21.647  25.395  1.00  0.00     0.029 A 
ATOM     88  C   UNL A   1      37.203  23.839  26.129  1.00  0.00     0.001 A 
ATOM     89  C   UNL A   1      33.678  17.583  24.313  1.00  0.00     0.002 A 
ATOM     90  C   UNL A   1      38.190  22.928  25.799  1.00  0.00     0.002 A 
ENDBRANCH  75  77
ENDBRANCH  65  75
ENDBRANCH  62  65
ENDBRANCH  60  61
ENDBRANCH  59  60
ENDBRANCH   1  59
TORSDOF 18
ENDMDL
MODEL 2
REMARK VINA RESULT:     -12.0      0.228      5.606
REMARK SMILES O=C(NCCCCCCNC(=O)[C@@H](Cc1ccc(O)cc1)Nc1c2ccccc2nc2ccccc12)c1ccc(-c2c3nc(c(-c4ccccc4)c4ccc([nH]4)c(-c4ccccc4)c4nc(c(-c5ccccc5)c5ccc2[nH]5)C=C4)C=C3)cc1
REMARK SMILES IDX 7 1 6 2 5 3 4 4 3 5 1 6 2 7 37 9 38 10 84 11 39 12 83 13
REMARK SMILES IDX 40 14 41 15 42 16 77 17 43 18 82 19 76 20 78 21 44 22 81 23
REMARK SMILES IDX 75 24 74 25 45 27 67 28 52 29 66 30 53 31 56 32 65 33 79 34
REMARK SMILES IDX 54 35 55 36 64 38 80 39 57 40 46 41 47 42 51 43 48 44 50 45
REMARK SMILES IDX 49 46 68 47 69 48 73 49 70 50 72 51 71 52 58 53 59 54 63 55
REMARK SMILES IDX 60 56 62 57 61 58 8 59 9 60 10 61 11 62 12 64 13 65 14 66
REMARK SMILES IDX 15 67 16 68 21 69 17 70 20 71 18 72 19 73 22 75 23 77 24 78
REMARK SMILES IDX 36 79 25 80 29 81 31 82 35 83 26 84 28 85 30 86 32 87 34 88
REMARK SMILES IDX 27 89 33 90
REMARK H PARENT 3 8 78 26 56 37 10 63 19 74 22 76
REMARK Flexibility Score: inf
ROOT
ATOM      1  C   UNL A   1      31.386  28.021  25.860  1.00  0.00     0.002 C 
ENDROOT
BRANCH   1   2
ATOM      2  C   UNL A   1      32.617  28.248  24.974  1.00  0.00     0.002 C 
BRANCH   2   3
ATOM      3  C   UNL A   1      33.960  28.291  25.710  1.00  0.00     0.021 C 
BRANCH   3   4
ATOM      4  C   UNL A   1      33.851  28.475  27.220  1.00  0.00     0.116 C 
BRANCH   4   5
ATOM      5  N   UNL A   1      33.744  29.879  27.587  1.00  0.00    -0.352 N 
ATOM      6  O   UNL A   1      34.274  31.774  28.688  1.00  0.00    -0.269 OA
ATOM      7  C   UNL A   1      34.631  30.681  28.261  1.00  0.00     0.251 C 
ATOM      8  H   UNL A   1      32.909  30.321  27.311  1.00  0.00     0.163 HD
BRANCH   7   9
ATOM      9  C   UNL A   1      36.022  30.227  28.476  1.00  0.00     0.039 A 
ATOM     10  C   UNL A   1      36.378  29.562  29.650  1.00  0.00     0.014 A 
ATOM     11  C   UNL A   1      36.970  30.427  27.468  1.00  0.00     0.014 A 
ATOM     12  C   UNL A   1      37.704  29.215  29.874  1.00  0.00     0.010 A 
ATOM     13  C   UNL A   1      38.285  29.996  27.657  1.00  0.00     0.010 A 
ATOM     14  C   UNL A   1      38.668  29.405  28.872  1.00  0.00    -0.014 A 
BRANCH  14  15
ATOM     15  C   UNL A   1      40.049  28.905  29.088  1.00  0.00     0.031 A 
ATOM     16  C   UNL A   1      40.454  27.519  28.669  1.00  0.00     0.074 A 
ATOM     17  C   UNL A   1      40.952  29.729  29.658  1.00  0.00     0.049 A 
ATOM     18  N   UNL A   1      41.625  26.941  28.770  1.00  0.00    -0.248 NA
ATOM     19  C   UNL A   1      39.413  26.670  28.070  1.00  0.00     0.031 C 
ATOM     20  C   UNL A   1      40.677  31.094  30.114  1.00  0.00     0.029 A 
ATOM     21  N   UNL A   1      42.282  29.549  29.933  1.00  0.00    -0.354 N 
ATOM     22  C   UNL A   1      41.460  25.659  28.262  1.00  0.00     0.074 A 
ATOM     23  C   UNL A   1      40.068  25.532  27.883  1.00  0.00     0.031 C 
ATOM     24  C   UNL A   1      41.813  31.644  30.564  1.00  0.00     0.029 A 
ATOM     25  C   UNL A   1      42.879  30.652  30.495  1.00  0.00     0.049 A 
ATOM     26  H   UNL A   1      42.764  28.711  29.745  1.00  0.00     0.167 HD
ATOM     27  C   UNL A   1      42.386  24.679  28.117  1.00  0.00     0.031 A 
ATOM     28  C   UNL A   1      44.138  30.842  30.925  1.00  0.00     0.031 A 
ATOM     29  C   UNL A   1      43.768  24.805  28.505  1.00  0.00     0.049 A 
ATOM     30  C   UNL A   1      45.128  29.721  30.800  1.00  0.00     0.074 A 
ATOM     31  C   UNL A   1      44.789  23.879  28.370  1.00  0.00     0.029 A 
ATOM     32  N   UNL A   1      44.322  25.923  29.110  1.00  0.00    -0.354 N 
ATOM     33  N   UNL A   1      44.967  28.530  30.277  1.00  0.00    -0.248 NA
ATOM     34  C   UNL A   1      46.477  29.974  31.322  1.00  0.00     0.031 C 
ATOM     35  C   UNL A   1      45.944  24.411  28.952  1.00  0.00     0.029 A 
ATOM     36  C   UNL A   1      45.663  25.697  29.383  1.00  0.00     0.049 A 
ATOM     37  H   UNL A   1      43.837  26.753  29.315  1.00  0.00     0.167 HD
ATOM     38  C   UNL A   1      46.199  27.901  30.384  1.00  0.00     0.074 A 
ATOM     39  C   UNL A   1      47.102  28.851  31.000  1.00  0.00     0.031 C 
ATOM     40  C   UNL A   1      46.550  26.649  30.003  1.00  0.00     0.031 A 
BRANCH  27  41
ATOM     41  C   UNL A   1      41.927  23.365  27.543  1.00  0.00    -0.014 A 
ATOM     42  C   UNL A   1      42.066  23.074  26.176  1.00  0.00     0.009 A 
ATOM     43  C   UNL A   1      41.389  22.383  28.392  1.00  0.00     0.009 A 
ATOM     44  C   UNL A   1      41.643  21.843  25.668  1.00  0.00     0.001 A 
ATOM     45  C   UNL A   1      40.997  21.143  27.886  1.00  0.00     0.001 A 
ATOM     46  C   UNL A   1      41.115  20.877  26.523  1.00  0.00     0.000 A 
ENDBRANCH  27  41
BRANCH  28  47
ATOM     47  C   UNL A   1      44.527  32.143  31.528  1.00  0.00    -0.014 A 
ATOM     48  C   UNL A   1      45.057  33.171  30.734  1.00  0.00     0.009 A 
ATOM     49  C   UNL A   1      44.370  32.363  32.907  1.00  0.00     0.009 A 
ATOM     50  C   UNL A   1      45.446  34.381  31.312  1.00  0.00     0.001 A 
ATOM     51  C   UNL A   1      44.728  33.587  33.475  1.00  0.00     0.001 A 
ATOM     52  C   UNL A   1      45.276  34.590  32.680  1.00  0.00     0.000 A 
ENDBRANCH  28  47
BRANCH  40  53
ATOM     53  C   UNL A   1      47.986  26.250  30.210  1.00  0.00    -0.014 A 
ATOM     54  C   UNL A   1      48.950  26.433  29.207  1.00  0.00     0.009 A 
ATOM     55  C   UNL A   1      48.380  25.699  31.439  1.00  0.00     0.009 A 
ATOM     56  C   UNL A   1      50.271  26.033  29.417  1.00  0.00     0.001 A 
ATOM     57  C   UNL A   1      49.709  25.333  31.659  1.00  0.00     0.001 A 
ATOM     58  C   UNL A   1      50.650  25.489  30.643  1.00  0.00     0.000 A 
ENDBRANCH  40  53
ENDBRANCH  14  15
ENDBRANCH   7   9
ENDBRANCH   4   5
ENDBRANCH   3   4
ENDBRANCH   2   3
ENDBRANCH   1   2
BRANCH   1  59
ATOM     59  C   UNL A   1      30.762  26.630  25.740  1.00  0.00     0.021 C 
BRANCH  59  60
ATOM     60  C   UNL A   1      31.572  25.517  26.407  1.00  0.00     0.116 C 
BRANCH  60  61
ATOM     61  N   UNL A   1      30.721  24.417  26.791  1.00  0.00    -0.354 N 
ATOM     62  C   UNL A   1      30.619  23.145  26.328  1.00  0.00     0.242 C 
ATOM     63  H   UNL A   1      30.099  24.628  27.525  1.00  0.00     0.163 HD
ATOM     64  O   UNL A   1      29.683  22.483  26.797  1.00  0.00    -0.273 OA
BRANCH  62  65
ATOM     65  C   UNL A   1      31.581  22.498  25.291  1.00  0.00     0.173 C 
BRANCH  65  66
ATOM     66  C   UNL A   1      31.351  22.928  23.816  1.00  0.00     0.070 C 
BRANCH  66  67
ATOM     67  C   UNL A   1      31.931  24.182  23.188  1.00  0.00    -0.045 A 
ATOM     68  C   UNL A   1      33.318  24.403  23.297  1.00  0.00     0.007 A 
ATOM     69  C   UNL A   1      31.156  25.181  22.587  1.00  0.00     0.007 A 
ATOM     70  C   UNL A   1      33.925  25.511  22.697  1.00  0.00     0.046 A 
ATOM     71  C   UNL A   1      31.763  26.270  21.949  1.00  0.00     0.046 A 
ATOM     72  C   UNL A   1      33.144  26.411  21.985  1.00  0.00     0.115 A 
BRANCH  72  73
ATOM     73  O   UNL A   1      33.704  27.440  21.291  1.00  0.00    -0.508 OA
ATOM     74  H   UNL A   1      34.255  28.058  21.730  1.00  0.00     0.293 HD
ENDBRANCH  72  73
ENDBRANCH  66  67
ENDBRANCH  65  66
BRANCH  65  75
ATOM     75  N   UNL A   1      32.980  22.538  25.732  1.00  0.00    -0.372 N 
ATOM     76  H   UNL A   1      33.226  23.312  26.289  1.00  0.00     0.161 HD
BRANCH  75  77
ATOM     77  C   UNL A   1      34.018  21.627  25.470  1.00  0.00     0.054 A 
ATOM     78  C   UNL A   1      33.826  20.250  25.083  1.00  0.00     0.024 A 
ATOM     79  C   UNL A   1      35.371  22.115  25.601  1.00  0.00     0.024 A 
ATOM     80  C   UNL A   1      32.595  19.561  24.888  1.00  0.00     0.012 A 
ATOM     81  C   UNL A   1      34.988  19.486  24.828  1.00  0.00     0.073 A 
ATOM     82  C   UNL A   1      36.420  21.229  25.286  1.00  0.00     0.073 A 
ATOM     83  C   UNL A   1      35.746  23.419  26.039  1.00  0.00     0.012 A 
ATOM     84  C   UNL A   1      32.514  18.214  24.522  1.00  0.00     0.001 A 
ATOM     85  C   UNL A   1      34.894  18.152  24.452  1.00  0.00     0.029 A 
ATOM     86  N   UNL A   1      36.227  19.966  24.913  1.00  0.00    -0.248 NA
ATOM     87  C   UNL A   1      37.740  21.649  25.364  1.00  0.00     0.029 A 
ATOM     88  C   UNL A   1      37.082  23.821  26.121  1.00  0.00     0.001 A 
ATOM     89  C   UNL A   1      33.674  17.502  24.304  1.00  0.00     0.002 A 
ATOM     90  C   UNL A   1      38.085  22.935  25.772  1.00  0.00     0.002 A 
ENDBRANCH  75  77
ENDBRANCH  65  75
ENDBRANCH  62  65
ENDBRANCH  60  61
ENDBRANCH  59  60
ENDBRANCH   1  59
TORSDOF 18
ENDMDL
MODEL 3
REMARK VINA RESULT:     -11.7      2.471      6.464
REMARK SMILES O=C(NCCCCCCNC(=O)[C@@H](Cc1ccc(O)cc1)Nc1c2ccccc2nc2ccccc12)c1ccc(-c2c3nc(c(-c4ccccc4)c4ccc([nH]4)c(-c4ccccc4)c4nc(c(-c5ccccc5)c5ccc2[nH]5)C=C4)C=C3)cc1
REMARK SMILES IDX 7 1 6 2 5 3 4 4 3 5 1 6 2 7 37 9 38 10 84 11 39 12 83 13
REMARK SMILES IDX 40 14 41 15 42 16 77 17 43 18 82 19 76 20 78 21 44 22 81 23
REMARK SMILES IDX 75 24 74 25 45 27 67 28 52 29 66 30 53 31 56 32 65 33 79 34
REMARK SMILES IDX 54 35 55 36 64 38 80 39 57 40 46 41 47 42 51 43 48 44 50 45
REMARK SMILES IDX 49 46 68 47 69 48 73 49 70 50 72 51 71 52 58 53 59 54 63 55
REMARK SMILES IDX 60 56 62 57 61 58 8 59 9 60 10 61 11 62 12 64 13 65 14 66
REMARK SMILES IDX 15 67 16 68 21 69 17 70 20 71 18 72 19 73 22 75 23 77 24 78
REMARK SMILES IDX 36 79 25 80 29 81 31 82 35 83 26 84 28 85 30 86 32 87 34 88
REMARK SMILES IDX 27 89 33 90
REMARK H PARENT 3 8 78 26 56 37 10 63 19 74 22 76
REMARK Flexibility Score: inf
ROOT
ATOM      1  C   UNL A   1      31.823  28.394  26.442  1.00  0.00     0.002 C 
ENDROOT
BRANCH   1   2
ATOM      2  C   UNL A   1      31.777  29.499  25.380  1.00  0.00     0.002 C 
BRANCH   2   3
ATOM      3  C   UNL A   1      31.431  30.898  25.899  1.00  0.00     0.021 C 
BRANCH   3   4
ATOM      4  C   UNL A   1      32.333  31.401  27.019  1.00  0.00     0.116 C 
BRANCH   4   5
ATOM      5  N   UNL A   1      32.195  32.836  27.222  1.00  0.00    -0.352 N 
ATOM      6  O   UNL A   1      32.531  34.821  28.235  1.00  0.00    -0.269 OA
ATOM      7  C   UNL A   1      32.936  33.687  28.003  1.00  0.00     0.251 C 
ATOM      8  H   UNL A   1      31.459  33.259  26.725  1.00  0.00     0.163 HD
BRANCH   7   9
ATOM      9  C   UNL A   1      34.227  33.239  28.567  1.00  0.00     0.039 A 
ATOM     10  C   UNL A   1      34.260  32.354  29.647  1.00  0.00     0.014 A 
ATOM     11  C   UNL A   1      35.419  33.671  27.978  1.00  0.00     0.014 A 
ATOM     12  C   UNL A   1      35.477  32.006  30.219  1.00  0.00     0.010 A 
ATOM     13  C   UNL A   1      36.644  33.248  28.499  1.00  0.00     0.010 A 
ATOM     14  C   UNL A   1      36.683  32.429  29.638  1.00  0.00    -0.014 A 
BRANCH  14  15
ATOM     15  C   UNL A   1      37.968  31.934  30.193  1.00  0.00     0.031 A 
ATOM     16  C   UNL A   1      38.681  30.757  29.586  1.00  0.00     0.074 A 
ATOM     17  C   UNL A   1      38.503  32.574  31.252  1.00  0.00     0.049 A 
ATOM     18  N   UNL A   1      39.820  30.217  29.940  1.00  0.00    -0.248 NA
ATOM     19  C   UNL A   1      38.031  30.097  28.444  1.00  0.00     0.031 C 
ATOM     20  C   UNL A   1      37.902  33.725  31.933  1.00  0.00     0.029 A 
ATOM     21  N   UNL A   1      39.676  32.365  31.929  1.00  0.00    -0.354 N 
ATOM     22  C   UNL A   1      40.017  29.147  29.077  1.00  0.00     0.074 A 
ATOM     23  C   UNL A   1      38.865  29.095  28.203  1.00  0.00     0.031 C 
ATOM     24  C   UNL A   1      38.733  34.149  32.895  1.00  0.00     0.029 A 
ATOM     25  C   UNL A   1      39.889  33.263  32.946  1.00  0.00     0.049 A 
ATOM     26  H   UNL A   1      40.306  31.642  31.706  1.00  0.00     0.167 HD
ATOM     27  C   UNL A   1      41.066  28.291  29.014  1.00  0.00     0.031 A 
ATOM     28  C   UNL A   1      40.892  33.355  33.837  1.00  0.00     0.031 A 
ATOM     29  C   UNL A   1      42.208  28.340  29.893  1.00  0.00     0.049 A 
ATOM     30  C   UNL A   1      42.014  32.361  33.776  1.00  0.00     0.074 A 
ATOM     31  C   UNL A   1      43.335  27.535  29.888  1.00  0.00     0.029 A 
ATOM     32  N   UNL A   1      42.364  29.237  30.939  1.00  0.00    -0.354 N 
ATOM     33  N   UNL A   1      42.207  31.383  32.925  1.00  0.00    -0.248 NA
ATOM     34  C   UNL A   1      43.062  32.488  34.797  1.00  0.00     0.031 C 
ATOM     35  C   UNL A   1      44.141  27.903  30.970  1.00  0.00     0.029 A 
ATOM     36  C   UNL A   1      43.554  28.985  31.605  1.00  0.00     0.049 A 
ATOM     37  H   UNL A   1      41.726  29.948  31.173  1.00  0.00     0.167 HD
ATOM     38  C   UNL A   1      43.408  30.794  33.293  1.00  0.00     0.074 A 
ATOM     39  C   UNL A   1      43.910  31.540  34.429  1.00  0.00     0.031 C 
ATOM     40  C   UNL A   1      44.039  29.731  32.738  1.00  0.00     0.031 A 
BRANCH  27  41
ATOM     41  C   UNL A   1      41.016  27.201  27.977  1.00  0.00    -0.014 A 
ATOM     42  C   UNL A   1      41.482  27.411  26.669  1.00  0.00     0.009 A 
ATOM     43  C   UNL A   1      40.537  25.927  28.327  1.00  0.00     0.009 A 
ATOM     44  C   UNL A   1      41.437  26.381  25.726  1.00  0.00     0.001 A 
ATOM     45  C   UNL A   1      40.522  24.891  27.392  1.00  0.00     0.001 A 
ATOM     46  C   UNL A   1      40.962  25.121  26.089  1.00  0.00     0.000 A 
ENDBRANCH  27  41
BRANCH  28  47
ATOM     47  C   UNL A   1      40.869  34.422  34.871  1.00  0.00    -0.014 A 
ATOM     48  C   UNL A   1      40.238  34.209  36.106  1.00  0.00     0.009 A 
ATOM     49  C   UNL A   1      41.482  35.662  34.627  1.00  0.00     0.009 A 
ATOM     50  C   UNL A   1      40.197  35.225  37.062  1.00  0.00     0.001 A 
ATOM     51  C   UNL A   1      41.469  36.664  35.599  1.00  0.00     0.001 A 
ATOM     52  C   UNL A   1      40.816  36.449  36.811  1.00  0.00     0.000 A 
ENDBRANCH  28  47
BRANCH  40  53
ATOM     53  C   UNL A   1      45.364  29.337  33.331  1.00  0.00    -0.014 A 
ATOM     54  C   UNL A   1      46.568  29.897  32.875  1.00  0.00     0.009 A 
ATOM     55  C   UNL A   1      45.403  28.404  34.379  1.00  0.00     0.009 A 
ATOM     56  C   UNL A   1      47.786  29.497  33.428  1.00  0.00     0.001 A 
ATOM     57  C   UNL A   1      46.619  28.033  34.953  1.00  0.00     0.001 A 
ATOM     58  C   UNL A   1      47.810  28.571  34.469  1.00  0.00     0.000 A 
ENDBRANCH  40  53
ENDBRANCH  14  15
ENDBRANCH   7   9
ENDBRANCH   4   5
ENDBRANCH   3   4
ENDBRANCH   2   3
ENDBRANCH   1   2
BRANCH   1  59
ATOM     59  C   UNL A   1      33.120  27.582  26.463  1.00  0.00     0.021 C 
BRANCH  59  60
ATOM     60  C   UNL A   1      33.008  26.201  25.815  1.00  0.00     0.116 C 
BRANCH  60  61
ATOM     61  N   UNL A   1      32.316  25.279  26.683  1.00  0.00    -0.354 N 
ATOM     62  C   UNL A   1      31.709  24.088  26.441  1.00  0.00     0.242 C 
ATOM     63  H   UNL A   1      32.278  25.565  27.624  1.00  0.00     0.163 HD
ATOM     64  O   UNL A   1      31.090  23.605  27.399  1.00  0.00    -0.273 OA
BRANCH  62  65
ATOM     65  C   UNL A   1      31.758  23.326  25.086  1.00  0.00     0.173 C 
BRANCH  65  66
ATOM     66  C   UNL A   1      30.716  23.786  24.030  1.00  0.00     0.070 C 
BRANCH  66  67
ATOM     67  C   UNL A   1      30.596  25.205  23.506  1.00  0.00    -0.045 A 
ATOM     68  C   UNL A   1      31.537  25.648  22.555  1.00  0.00     0.007 A 
ATOM     69  C   UNL A   1      29.662  26.134  23.981  1.00  0.00     0.007 A 
ATOM     70  C   UNL A   1      31.453  26.925  21.993  1.00  0.00     0.046 A 
ATOM     71  C   UNL A   1      29.548  27.399  23.391  1.00  0.00     0.046 A 
ATOM     72  C   UNL A   1      30.426  27.773  22.384  1.00  0.00     0.115 A 
BRANCH  72  73
ATOM     73  O   UNL A   1      30.238  28.982  21.783  1.00  0.00    -0.508 OA
ATOM     74  H   UNL A   1      29.429  29.168  21.347  1.00  0.00     0.293 HD
ENDBRANCH  72  73
ENDBRANCH  66  67
ENDBRANCH  65  66
BRANCH  65  75
ATOM     75  N   UNL A   1      33.128  23.184  24.579  1.00  0.00    -0.372 N 
ATOM     76  H   UNL A   1      33.467  23.948  24.058  1.00  0.00     0.161 HD
BRANCH  75  77
ATOM     77  C   UNL A   1      34.022  22.111  24.732  1.00  0.00     0.054 A 
ATOM     78  C   UNL A   1      33.692  20.725  24.499  1.00  0.00     0.024 A 
ATOM     79  C   UNL A   1      35.366  22.428  25.154  1.00  0.00     0.024 A 
ATOM     80  C   UNL A   1      32.445  20.183  24.076  1.00  0.00     0.012 A 
ATOM     81  C   UNL A   1      34.729  19.780  24.672  1.00  0.00     0.073 A 
ATOM     82  C   UNL A   1      36.288  21.369  25.256  1.00  0.00     0.073 A 
ATOM     83  C   UNL A   1      35.845  23.727  25.494  1.00  0.00     0.012 A 
ATOM     84  C   UNL A   1      32.220  18.816  23.889  1.00  0.00     0.001 A 
ATOM     85  C   UNL A   1      34.497  18.425  24.470  1.00  0.00     0.029 A 
ATOM     86  N   UNL A   1      35.974  20.097  25.021  1.00  0.00    -0.248 NA
ATOM     87  C   UNL A   1      37.602  21.615  25.628  1.00  0.00     0.029 A 
ATOM     88  C   UNL A   1      37.170  23.956  25.877  1.00  0.00     0.001 A 
ATOM     89  C   UNL A   1      33.255  17.928  24.090  1.00  0.00     0.002 A 
ATOM     90  C   UNL A   1      38.057  22.895  25.935  1.00  0.00     0.002 A 
ENDBRANCH  75  77
ENDBRANCH  65  75
ENDBRANCH  62  65
ENDBRANCH  60  61
ENDBRANCH  59  60
ENDBRANCH   1  59
TORSDOF 18
ENDMDL
