MODEL 1
REMARK VINA RESULT:     -12.3      0.000      0.000
REMARK SMILES CCOc1cc(/C=C2/C(=O)N(c3cccc(C(=O)NCCCCCCNC(=O)c4ccc(-c5c6nc(c(-c7ccccc7)c7ccc([nH]7)c(-c7ccccc7)c7nc(c(-c8ccccc8)c8ccc5[nH]8)C=C7)C=C6)cc4)c3)N=C2C)cc(Cl)c1O
REMARK SMILES IDX 21 1 20 2 19 3 17 4 18 5 16 7 12 8 13 9 77 10 14 11 15 12
REMARK SMILES IDX 11 13 7 14 8 15 9 16 79 17 10 18 78 19 80 20 6 21 4 22 5 23
REMARK SMILES IDX 84 24 82 25 81 26 83 27 3 28 2 29 1 30 85 31 22 33 23 34
REMARK SMILES IDX 24 35 25 36 26 37 27 38 28 40 29 41 30 42 76 43 31 44 75 45
REMARK SMILES IDX 32 46 33 47 34 48 69 49 35 50 74 51 68 52 70 53 36 54 73 55
REMARK SMILES IDX 67 56 66 57 37 59 59 60 44 61 58 62 45 63 48 64 57 65 71 66
REMARK SMILES IDX 46 67 47 68 56 70 72 71 49 72 38 73 39 74 43 75 40 76 42 77
REMARK SMILES IDX 41 78 60 79 61 80 65 81 62 82 64 83 63 84 50 85 51 86 55 87
REMARK SMILES IDX 52 88 54 89 53 90
REMARK H PARENT 19 6 85 32 26 39 70 58 48 69
REMARK Flexibility Score: inf
ROOT
ATOM      1  C   UNL A   1      33.180  28.312  22.381  1.00  0.00     0.021 C 
ENDROOT
BRANCH   1   2
ATOM      2  C   UNL A   1      32.343  29.473  22.910  1.00  0.00     0.116 C 
BRANCH   2   3
ATOM      3  N   UNL A   1      31.260  29.885  22.031  1.00  0.00    -0.352 N 
ATOM      4  C   UNL A   1      29.936  29.498  21.979  1.00  0.00     0.251 C 
ATOM      5  O   UNL A   1      29.211  29.990  21.116  1.00  0.00    -0.269 OA
ATOM      6  H   UNL A   1      31.516  30.554  21.356  1.00  0.00     0.163 HD
BRANCH   4   7
ATOM      7  C   UNL A   1      29.389  28.444  22.875  1.00  0.00     0.041 A 
ATOM      8  C   UNL A   1      29.580  26.246  23.876  1.00  0.00     0.069 A 
ATOM      9  C   UNL A   1      28.197  26.248  24.106  1.00  0.00     0.028 A 
ATOM     10  C   UNL A   1      30.178  27.408  23.380  1.00  0.00     0.042 A 
ATOM     11  C   UNL A   1      27.426  27.370  23.796  1.00  0.00     0.003 A 
ATOM     12  C   UNL A   1      28.015  28.452  23.144  1.00  0.00     0.014 A 
BRANCH   8  13
ATOM     13  N   UNL A   1      30.327  25.050  23.987  1.00  0.00    -0.196 N 
ATOM     14  C   UNL A   1      32.270  22.528  25.512  1.00  0.00     0.024 C 
ATOM     15  C   UNL A   1      31.726  23.422  24.679  1.00  0.00     0.065 C 
ATOM     16  C   UNL A   1      30.743  24.421  25.170  1.00  0.00     0.280 C 
ATOM     17  C   UNL A   1      31.824  23.679  23.236  1.00  0.00     0.071 C 
ATOM     18  O   UNL A   1      30.447  24.605  26.333  1.00  0.00    -0.267 OA
ATOM     19  N   UNL A   1      30.976  24.592  22.840  1.00  0.00    -0.169 NA
ATOM     20  C   UNL A   1      32.830  23.054  22.332  1.00  0.00     0.069 C 
BRANCH  14  21
ATOM     21  C   UNL A   1      33.155  21.413  25.177  1.00  0.00    -0.019 A 
ATOM     22  C   UNL A   1      35.334  20.379  25.067  1.00  0.00     0.163 A 
ATOM     23  C   UNL A   1      34.547  21.513  25.278  1.00  0.00     0.058 A 
ATOM     24  C   UNL A   1      34.741  19.138  24.825  1.00  0.00     0.176 A 
ATOM     25  C   UNL A   1      33.361  19.046  24.673  1.00  0.00     0.087 A 
ATOM     26  C   UNL A   1      32.568  20.182  24.846  1.00  0.00     0.032 A 
ATOM     27  Cl  UNL A   1      32.589  17.544  24.325  1.00  0.00    -0.080 Cl
BRANCH  22  28
ATOM     28  O   UNL A   1      36.695  20.457  25.214  1.00  0.00    -0.490 OA
BRANCH  28  29
ATOM     29  C   UNL A   1      37.220  21.695  24.703  1.00  0.00     0.226 C 
ATOM     30  C   UNL A   1      38.234  22.285  25.671  1.00  0.00     0.049 C 
ENDBRANCH  28  29
ENDBRANCH  22  28
BRANCH  24  31
ATOM     31  O   UNL A   1      35.519  18.012  24.790  1.00  0.00    -0.503 OA
ATOM     32  H   UNL A   1      35.118  17.166  24.807  1.00  0.00     0.293 HD
ENDBRANCH  24  31
ENDBRANCH  14  21
ENDBRANCH   8  13
ENDBRANCH   4   7
ENDBRANCH   2   3
ENDBRANCH   1   2
BRANCH   1  33
ATOM     33  C   UNL A   1      33.754  27.354  23.424  1.00  0.00     0.002 C 
BRANCH  33  34
ATOM     34  C   UNL A   1      33.273  27.553  24.863  1.00  0.00     0.002 C 
BRANCH  34  35
ATOM     35  C   UNL A   1      34.099  28.510  25.725  1.00  0.00     0.021 C 
BRANCH  35  36
ATOM     36  C   UNL A   1      33.597  28.710  27.151  1.00  0.00     0.116 C 
BRANCH  36  37
ATOM     37  N   UNL A   1      33.623  30.103  27.568  1.00  0.00    -0.352 N 
ATOM     38  C   UNL A   1      34.614  30.802  28.214  1.00  0.00     0.251 C 
ATOM     39  H   UNL A   1      32.814  30.621  27.354  1.00  0.00     0.163 HD
ATOM     40  O   UNL A   1      34.404  31.936  28.631  1.00  0.00    -0.269 OA
BRANCH  38  41
ATOM     41  C   UNL A   1      35.936  30.173  28.431  1.00  0.00     0.039 A 
ATOM     42  C   UNL A   1      36.876  30.202  27.397  1.00  0.00     0.014 A 
ATOM     43  C   UNL A   1      36.247  29.565  29.649  1.00  0.00     0.014 A 
ATOM     44  C   UNL A   1      38.155  29.684  27.611  1.00  0.00     0.010 A 
ATOM     45  C   UNL A   1      37.544  29.117  29.885  1.00  0.00     0.010 A 
ATOM     46  C   UNL A   1      38.512  29.173  28.870  1.00  0.00    -0.014 A 
BRANCH  46  47
ATOM     47  C   UNL A   1      39.892  28.703  29.154  1.00  0.00     0.031 A 
ATOM     48  C   UNL A   1      40.888  29.630  29.795  1.00  0.00     0.074 A 
ATOM     49  C   UNL A   1      40.272  27.471  28.764  1.00  0.00     0.049 A 
ATOM     50  N   UNL A   1      42.162  29.438  30.031  1.00  0.00    -0.248 NA
ATOM     51  C   UNL A   1      40.394  30.955  30.201  1.00  0.00     0.031 C 
ATOM     52  C   UNL A   1      39.412  26.484  28.108  1.00  0.00     0.029 A 
ATOM     53  N   UNL A   1      41.490  26.841  28.852  1.00  0.00    -0.354 N 
ATOM     54  C   UNL A   1      42.622  30.622  30.595  1.00  0.00     0.074 A 
ATOM     55  C   UNL A   1      41.506  31.541  30.619  1.00  0.00     0.031 C 
ATOM     56  C   UNL A   1      40.120  25.369  27.873  1.00  0.00     0.029 A 
ATOM     57  C   UNL A   1      41.496  25.576  28.313  1.00  0.00     0.049 A 
ATOM     58  H   UNL A   1      42.283  27.256  29.261  1.00  0.00     0.167 HD
ATOM     59  C   UNL A   1      43.858  30.911  31.066  1.00  0.00     0.031 A 
ATOM     60  C   UNL A   1      42.499  24.689  28.174  1.00  0.00     0.031 A 
ATOM     61  C   UNL A   1      44.967  29.994  31.044  1.00  0.00     0.049 A 
ATOM     62  C   UNL A   1      43.873  25.049  28.669  1.00  0.00     0.074 A 
ATOM     63  C   UNL A   1      46.245  30.177  31.543  1.00  0.00     0.029 A 
ATOM     64  N   UNL A   1      44.930  28.722  30.493  1.00  0.00    -0.354 N 
ATOM     65  N   UNL A   1      44.277  26.151  29.255  1.00  0.00    -0.248 NA
ATOM     66  C   UNL A   1      44.928  24.041  28.490  1.00  0.00     0.031 C 
ATOM     67  C   UNL A   1      46.999  29.041  31.235  1.00  0.00     0.029 A 
ATOM     68  C   UNL A   1      46.172  28.123  30.609  1.00  0.00     0.049 A 
ATOM     69  H   UNL A   1      44.137  28.309  30.079  1.00  0.00     0.167 HD
ATOM     70  C   UNL A   1      45.622  25.953  29.546  1.00  0.00     0.074 A 
ATOM     71  C   UNL A   1      45.960  24.624  29.082  1.00  0.00     0.031 C 
ATOM     72  C   UNL A   1      46.495  26.797  30.147  1.00  0.00     0.031 A 
BRANCH  59  73
ATOM     73  C   UNL A   1      44.083  32.288  31.629  1.00  0.00    -0.014 A 
ATOM     74  C   UNL A   1      44.688  33.300  30.865  1.00  0.00     0.009 A 
ATOM     75  C   UNL A   1      43.648  32.590  32.929  1.00  0.00     0.009 A 
ATOM     76  C   UNL A   1      44.887  34.572  31.406  1.00  0.00     0.001 A 
ATOM     77  C   UNL A   1      43.819  33.872  33.455  1.00  0.00     0.001 A 
ATOM     78  C   UNL A   1      44.448  34.859  32.697  1.00  0.00     0.000 A 
ENDBRANCH  59  73
BRANCH  60  79
ATOM     79  C   UNL A   1      42.244  23.368  27.540  1.00  0.00    -0.014 A 
ATOM     80  C   UNL A   1      41.689  22.315  28.282  1.00  0.00     0.009 A 
ATOM     81  C   UNL A   1      42.564  23.150  26.190  1.00  0.00     0.009 A 
ATOM     82  C   UNL A   1      41.485  21.064  27.695  1.00  0.00     0.001 A 
ATOM     83  C   UNL A   1      42.329  21.908  25.597  1.00  0.00     0.001 A 
ATOM     84  C   UNL A   1      41.801  20.863  26.352  1.00  0.00     0.000 A 
ENDBRANCH  60  79
BRANCH  72  85
ATOM     85  C   UNL A   1      47.894  26.299  30.383  1.00  0.00    -0.014 A 
ATOM     86  C   UNL A   1      48.277  25.743  31.613  1.00  0.00     0.009 A 
ATOM     87  C   UNL A   1      48.825  26.333  29.332  1.00  0.00     0.009 A 
ATOM     88  C   UNL A   1      49.572  25.254  31.793  1.00  0.00     0.001 A 
ATOM     89  C   UNL A   1      50.108  25.814  29.505  1.00  0.00     0.001 A 
ATOM     90  C   UNL A   1      50.484  25.282  30.737  1.00  0.00     0.000 A 
ENDBRANCH  72  85
ENDBRANCH  46  47
ENDBRANCH  38  41
ENDBRANCH  36  37
ENDBRANCH  35  36
ENDBRANCH  34  35
ENDBRANCH  33  34
ENDBRANCH   1  33
TORSDOF 18
ENDMDL
MODEL 2
REMARK VINA RESULT:     -11.4      0.963      5.597
REMARK SMILES CCOc1cc(/C=C2/C(=O)N(c3cccc(C(=O)NCCCCCCNC(=O)c4ccc(-c5c6nc(c(-c7ccccc7)c7ccc([nH]7)c(-c7ccccc7)c7nc(c(-c8ccccc8)c8ccc5[nH]8)C=C7)C=C6)cc4)c3)N=C2C)cc(Cl)c1O
REMARK SMILES IDX 21 1 20 2 19 3 17 4 18 5 16 7 12 8 13 9 77 10 14 11 15 12
REMARK SMILES IDX 11 13 7 14 8 15 9 16 79 17 10 18 78 19 80 20 6 21 4 22 5 23
REMARK SMILES IDX 84 24 82 25 81 26 83 27 3 28 2 29 1 30 85 31 22 33 23 34
REMARK SMILES IDX 24 35 25 36 26 37 27 38 28 40 29 41 30 42 76 43 31 44 75 45
REMARK SMILES IDX 32 46 33 47 34 48 69 49 35 50 74 51 68 52 70 53 36 54 73 55
REMARK SMILES IDX 67 56 66 57 37 59 59 60 44 61 58 62 45 63 48 64 57 65 71 66
REMARK SMILES IDX 46 67 47 68 56 70 72 71 49 72 38 73 39 74 43 75 40 76 42 77
REMARK SMILES IDX 41 78 60 79 61 80 65 81 62 82 64 83 63 84 50 85 51 86 55 87
REMARK SMILES IDX 52 88 54 89 53 90
REMARK H PARENT 19 6 85 32 26 39 70 58 48 69
REMARK Flexibility Score: inf
ROOT
ATOM      1  C   UNL A   1      32.553  28.359  22.365  1.00  0.00     0.021 C 
ENDROOT
BRANCH   1   2
ATOM      2  C   UNL A   1      31.863  29.637  22.831  1.00  0.00     0.116 C 
BRANCH   2   3
ATOM      3  N   UNL A   1      30.751  30.060  21.994  1.00  0.00    -0.352 N 
ATOM      4  C   UNL A   1      29.425  29.679  21.985  1.00  0.00     0.251 C 
ATOM      5  O   UNL A   1      28.671  30.181  21.152  1.00  0.00    -0.269 OA
ATOM      6  H   UNL A   1      30.985  30.734  21.316  1.00  0.00     0.163 HD
BRANCH   4   7
ATOM      7  C   UNL A   1      28.905  28.619  22.891  1.00  0.00     0.041 A 
ATOM      8  C   UNL A   1      29.147  26.432  23.903  1.00  0.00     0.069 A 
ATOM      9  C   UNL A   1      27.766  26.408  24.143  1.00  0.00     0.028 A 
ATOM     10  C   UNL A   1      29.718  27.602  23.396  1.00  0.00     0.042 A 
ATOM     11  C   UNL A   1      26.970  27.512  23.834  1.00  0.00     0.003 A 
ATOM     12  C   UNL A   1      27.533  28.602  23.171  1.00  0.00     0.014 A 
BRANCH   8  13
ATOM     13  N   UNL A   1      29.917  25.251  24.014  1.00  0.00    -0.196 N 
ATOM     14  C   UNL A   1      31.902  22.764  25.543  1.00  0.00     0.024 C 
ATOM     15  C   UNL A   1      31.345  23.649  24.709  1.00  0.00     0.065 C 
ATOM     16  C   UNL A   1      30.339  24.625  25.198  1.00  0.00     0.280 C 
ATOM     17  C   UNL A   1      31.449  23.914  23.268  1.00  0.00     0.071 C 
ATOM     18  O   UNL A   1      30.030  24.798  26.359  1.00  0.00    -0.267 OA
ATOM     19  N   UNL A   1      30.584  24.811  22.870  1.00  0.00    -0.169 NA
ATOM     20  C   UNL A   1      32.474  23.314  22.368  1.00  0.00     0.069 C 
BRANCH  14  21
ATOM     21  C   UNL A   1      32.812  21.668  25.210  1.00  0.00    -0.019 A 
ATOM     22  C   UNL A   1      35.026  20.749  24.924  1.00  0.00     0.163 A 
ATOM     23  C   UNL A   1      34.196  21.854  25.119  1.00  0.00     0.058 A 
ATOM     24  C   UNL A   1      34.493  19.458  24.884  1.00  0.00     0.176 A 
ATOM     25  C   UNL A   1      33.114  19.275  24.921  1.00  0.00     0.087 A 
ATOM     26  C   UNL A   1      32.274  20.379  25.081  1.00  0.00     0.032 A 
ATOM     27  Cl  UNL A   1      32.408  17.705  24.826  1.00  0.00    -0.080 Cl
BRANCH  22  28
ATOM     28  O   UNL A   1      36.387  20.915  24.886  1.00  0.00    -0.490 OA
BRANCH  28  29
ATOM     29  C   UNL A   1      36.859  21.720  25.980  1.00  0.00     0.226 C 
ATOM     30  C   UNL A   1      38.090  22.513  25.569  1.00  0.00     0.049 C 
ENDBRANCH  28  29
ENDBRANCH  22  28
BRANCH  24  31
ATOM     31  O   UNL A   1      35.334  18.379  24.862  1.00  0.00    -0.503 OA
ATOM     32  H   UNL A   1      36.161  18.421  25.302  1.00  0.00     0.293 HD
ENDBRANCH  24  31
ENDBRANCH  14  21
ENDBRANCH   8  13
ENDBRANCH   4   7
ENDBRANCH   2   3
ENDBRANCH   1   2
BRANCH   1  33
ATOM     33  C   UNL A   1      33.507  27.698  23.359  1.00  0.00     0.002 C 
BRANCH  33  34
ATOM     34  C   UNL A   1      32.884  27.192  24.662  1.00  0.00     0.002 C 
BRANCH  34  35
ATOM     35  C   UNL A   1      32.952  28.144  25.858  1.00  0.00     0.021 C 
BRANCH  35  36
ATOM     36  C   UNL A   1      34.110  29.136  25.844  1.00  0.00     0.116 C 
BRANCH  36  37
ATOM     37  N   UNL A   1      33.850  30.317  26.650  1.00  0.00    -0.352 N 
ATOM     38  C   UNL A   1      34.552  30.813  27.723  1.00  0.00     0.251 C 
ATOM     39  H   UNL A   1      33.057  30.838  26.390  1.00  0.00     0.163 HD
ATOM     40  O   UNL A   1      34.099  31.739  28.387  1.00  0.00    -0.269 OA
BRANCH  38  41
ATOM     41  C   UNL A   1      35.851  30.210  28.093  1.00  0.00     0.039 A 
ATOM     42  C   UNL A   1      36.927  30.325  27.208  1.00  0.00     0.014 A 
ATOM     43  C   UNL A   1      36.008  29.541  29.309  1.00  0.00     0.014 A 
ATOM     44  C   UNL A   1      38.180  29.832  27.576  1.00  0.00     0.010 A 
ATOM     45  C   UNL A   1      37.273  29.116  29.705  1.00  0.00     0.010 A 
ATOM     46  C   UNL A   1      38.373  29.259  28.844  1.00  0.00    -0.014 A 
BRANCH  46  47
ATOM     47  C   UNL A   1      39.715  28.811  29.298  1.00  0.00     0.031 A 
ATOM     48  C   UNL A   1      40.256  27.479  28.857  1.00  0.00     0.074 A 
ATOM     49  C   UNL A   1      40.411  29.566  30.171  1.00  0.00     0.049 A 
ATOM     50  N   UNL A   1      41.356  26.872  29.223  1.00  0.00    -0.248 NA
ATOM     51  C   UNL A   1      39.440  26.719  27.896  1.00  0.00     0.031 C 
ATOM     52  C   UNL A   1      39.987  30.864  30.698  1.00  0.00     0.029 A 
ATOM     53  N   UNL A   1      41.622  29.341  30.778  1.00  0.00    -0.354 N 
ATOM     54  C   UNL A   1      41.355  25.655  28.553  1.00  0.00     0.074 A 
ATOM     55  C   UNL A   1      40.124  25.588  27.798  1.00  0.00     0.031 C 
ATOM     56  C   UNL A   1      40.930  31.330  31.532  1.00  0.00     0.029 A 
ATOM     57  C   UNL A   1      42.001  30.344  31.639  1.00  0.00     0.049 A 
ATOM     58  H   UNL A   1      42.167  28.538  30.615  1.00  0.00     0.167 HD
ATOM     59  C   UNL A   1      42.303  24.687  28.552  1.00  0.00     0.031 A 
ATOM     60  C   UNL A   1      43.080  30.452  32.438  1.00  0.00     0.031 A 
ATOM     61  C   UNL A   1      43.530  24.757  29.301  1.00  0.00     0.049 A 
ATOM     62  C   UNL A   1      44.099  29.345  32.449  1.00  0.00     0.074 A 
ATOM     63  C   UNL A   1      44.575  23.850  29.327  1.00  0.00     0.029 A 
ATOM     64  N   UNL A   1      43.875  25.791  30.158  1.00  0.00    -0.354 N 
ATOM     65  N   UNL A   1      44.112  28.228  31.764  1.00  0.00    -0.248 NA
ATOM     66  C   UNL A   1      45.255  29.519  33.340  1.00  0.00     0.031 C 
ATOM     67  C   UNL A   1      45.524  24.304  30.248  1.00  0.00     0.029 A 
ATOM     68  C   UNL A   1      45.102  25.528  30.742  1.00  0.00     0.049 A 
ATOM     69  H   UNL A   1      43.328  26.593  30.325  1.00  0.00     0.167 HD
ATOM     70  C   UNL A   1      45.293  27.584  32.113  1.00  0.00     0.074 A 
ATOM     71  C   UNL A   1      45.972  28.440  33.063  1.00  0.00     0.031 C 
ATOM     72  C   UNL A   1      45.771  26.391  31.682  1.00  0.00     0.031 A 
BRANCH  59  73
ATOM     73  C   UNL A   1      42.039  23.457  27.729  1.00  0.00    -0.014 A 
ATOM     74  C   UNL A   1      42.438  23.379  26.384  1.00  0.00     0.009 A 
ATOM     75  C   UNL A   1      41.418  22.343  28.316  1.00  0.00     0.009 A 
ATOM     76  C   UNL A   1      42.184  22.226  25.636  1.00  0.00     0.001 A 
ATOM     77  C   UNL A   1      41.196  21.181  27.575  1.00  0.00     0.001 A 
ATOM     78  C   UNL A   1      41.570  21.127  26.233  1.00  0.00     0.000 A 
ENDBRANCH  59  73
BRANCH  60  79
ATOM     79  C   UNL A   1      43.257  31.655  33.293  1.00  0.00    -0.014 A 
ATOM     80  C   UNL A   1      42.729  31.691  34.593  1.00  0.00     0.009 A 
ATOM     81  C   UNL A   1      43.948  32.779  32.812  1.00  0.00     0.009 A 
ATOM     82  C   UNL A   1      42.863  32.836  35.382  1.00  0.00     0.001 A 
ATOM     83  C   UNL A   1      44.109  33.910  33.615  1.00  0.00     0.001 A 
ATOM     84  C   UNL A   1      43.558  33.942  34.894  1.00  0.00     0.000 A 
ENDBRANCH  60  79
BRANCH  72  85
ATOM     85  C   UNL A   1      47.115  25.955  32.194  1.00  0.00    -0.014 A 
ATOM     86  C   UNL A   1      47.243  25.208  33.375  1.00  0.00     0.009 A 
ATOM     87  C   UNL A   1      48.268  26.248  31.446  1.00  0.00     0.009 A 
ATOM     88  C   UNL A   1      48.501  24.783  33.808  1.00  0.00     0.001 A 
ATOM     89  C   UNL A   1      49.519  25.795  31.865  1.00  0.00     0.001 A 
ATOM     90  C   UNL A   1      49.636  25.070  33.049  1.00  0.00     0.000 A 
ENDBRANCH  72  85
ENDBRANCH  46  47
ENDBRANCH  38  41
ENDBRANCH  36  37
ENDBRANCH  35  36
ENDBRANCH  34  35
ENDBRANCH  33  34
ENDBRANCH   1  33
TORSDOF 18
ENDMDL
MODEL 3
REMARK VINA RESULT:     -11.1      1.269      5.851
REMARK SMILES CCOc1cc(/C=C2/C(=O)N(c3cccc(C(=O)NCCCCCCNC(=O)c4ccc(-c5c6nc(c(-c7ccccc7)c7ccc([nH]7)c(-c7ccccc7)c7nc(c(-c8ccccc8)c8ccc5[nH]8)C=C7)C=C6)cc4)c3)N=C2C)cc(Cl)c1O
REMARK SMILES IDX 21 1 20 2 19 3 17 4 18 5 16 7 12 8 13 9 77 10 14 11 15 12
REMARK SMILES IDX 11 13 7 14 8 15 9 16 79 17 10 18 78 19 80 20 6 21 4 22 5 23
REMARK SMILES IDX 84 24 82 25 81 26 83 27 3 28 2 29 1 30 85 31 22 33 23 34
REMARK SMILES IDX 24 35 25 36 26 37 27 38 28 40 29 41 30 42 76 43 31 44 75 45
REMARK SMILES IDX 32 46 33 47 34 48 69 49 35 50 74 51 68 52 70 53 36 54 73 55
REMARK SMILES IDX 67 56 66 57 37 59 59 60 44 61 58 62 45 63 48 64 57 65 71 66
REMARK SMILES IDX 46 67 47 68 56 70 72 71 49 72 38 73 39 74 43 75 40 76 42 77
REMARK SMILES IDX 41 78 60 79 61 80 65 81 62 82 64 83 63 84 50 85 51 86 55 87
REMARK SMILES IDX 52 88 54 89 53 90
REMARK H PARENT 19 6 85 32 26 39 70 58 48 69
REMARK Flexibility Score: inf
ROOT
ATOM      1  C   UNL A   1      32.450  28.268  22.386  1.00  0.00     0.021 C 
ENDROOT
BRANCH   1   2
ATOM      2  C   UNL A   1      31.866  29.629  22.753  1.00  0.00     0.116 C 
BRANCH   2   3
ATOM      3  N   UNL A   1      30.751  30.050  21.919  1.00  0.00    -0.352 N 
ATOM      4  C   UNL A   1      29.419  29.689  21.933  1.00  0.00     0.251 C 
ATOM      5  O   UNL A   1      28.664  30.183  21.097  1.00  0.00    -0.269 OA
ATOM      6  H   UNL A   1      30.988  30.704  21.223  1.00  0.00     0.163 HD
BRANCH   4   7
ATOM      7  C   UNL A   1      28.893  28.659  22.870  1.00  0.00     0.041 A 
ATOM      8  C   UNL A   1      29.198  26.579  24.073  1.00  0.00     0.069 A 
ATOM      9  C   UNL A   1      27.806  26.458  24.184  1.00  0.00     0.028 A 
ATOM     10  C   UNL A   1      29.727  27.753  23.529  1.00  0.00     0.042 A 
ATOM     11  C   UNL A   1      26.964  27.467  23.714  1.00  0.00     0.003 A 
ATOM     12  C   UNL A   1      27.506  28.548  23.020  1.00  0.00     0.014 A 
BRANCH   8  13
ATOM     13  N   UNL A   1      30.041  25.478  24.351  1.00  0.00    -0.196 N 
ATOM     14  C   UNL A   1      32.243  23.416  26.185  1.00  0.00     0.024 C 
ATOM     15  C   UNL A   1      31.593  24.103  25.240  1.00  0.00     0.065 C 
ATOM     16  C   UNL A   1      30.558  25.104  25.601  1.00  0.00     0.280 C 
ATOM     17  C   UNL A   1      31.608  24.101  23.771  1.00  0.00     0.071 C 
ATOM     18  O   UNL A   1      30.299  25.474  26.728  1.00  0.00    -0.267 OA
ATOM     19  N   UNL A   1      30.673  24.865  23.269  1.00  0.00    -0.169 NA
ATOM     20  C   UNL A   1      32.618  23.393  22.935  1.00  0.00     0.069 C 
BRANCH  14  21
ATOM     21  C   UNL A   1      33.197  22.323  26.003  1.00  0.00    -0.019 A 
ATOM     22  C   UNL A   1      33.755  20.069  25.340  1.00  0.00     0.163 A 
ATOM     23  C   UNL A   1      32.792  21.039  25.621  1.00  0.00     0.058 A 
ATOM     24  C   UNL A   1      35.115  20.389  25.372  1.00  0.00     0.176 A 
ATOM     25  C   UNL A   1      35.522  21.648  25.803  1.00  0.00     0.087 A 
ATOM     26  C   UNL A   1      34.564  22.614  26.120  1.00  0.00     0.032 A 
ATOM     27  Cl  UNL A   1      37.190  22.072  25.906  1.00  0.00    -0.080 Cl
BRANCH  22  28
ATOM     28  O   UNL A   1      33.368  18.825  24.915  1.00  0.00    -0.490 OA
BRANCH  28  29
ATOM     29  C   UNL A   1      32.932  18.838  23.544  1.00  0.00     0.226 C 
ATOM     30  C   UNL A   1      32.406  17.470  23.137  1.00  0.00     0.049 C 
ENDBRANCH  28  29
ENDBRANCH  22  28
BRANCH  24  31
ATOM     31  O   UNL A   1      36.035  19.477  24.931  1.00  0.00    -0.503 OA
ATOM     32  H   UNL A   1      36.920  19.742  24.778  1.00  0.00     0.293 HD
ENDBRANCH  24  31
ENDBRANCH  14  21
ENDBRANCH   8  13
ENDBRANCH   4   7
ENDBRANCH   2   3
ENDBRANCH   1   2
BRANCH   1  33
ATOM     33  C   UNL A   1      33.623  27.779  23.234  1.00  0.00     0.002 C 
BRANCH  33  34
ATOM     34  C   UNL A   1      33.271  27.189  24.602  1.00  0.00     0.002 C 
BRANCH  34  35
ATOM     35  C   UNL A   1      33.206  28.178  25.768  1.00  0.00     0.021 C 
BRANCH  35  36
ATOM     36  C   UNL A   1      34.219  29.317  25.721  1.00  0.00     0.116 C 
BRANCH  36  37
ATOM     37  N   UNL A   1      33.892  30.399  26.635  1.00  0.00    -0.352 N 
ATOM     38  C   UNL A   1      34.542  30.804  27.776  1.00  0.00     0.251 C 
ATOM     39  H   UNL A   1      33.089  30.919  26.401  1.00  0.00     0.163 HD
ATOM     40  O   UNL A   1      34.035  31.642  28.515  1.00  0.00    -0.269 OA
BRANCH  38  41
ATOM     41  C   UNL A   1      35.849  30.208  28.128  1.00  0.00     0.039 A 
ATOM     42  C   UNL A   1      36.903  30.302  27.215  1.00  0.00     0.014 A 
ATOM     43  C   UNL A   1      36.035  29.565  29.354  1.00  0.00     0.014 A 
ATOM     44  C   UNL A   1      38.165  29.815  27.564  1.00  0.00     0.010 A 
ATOM     45  C   UNL A   1      37.309  29.148  29.729  1.00  0.00     0.010 A 
ATOM     46  C   UNL A   1      38.388  29.270  28.838  1.00  0.00    -0.014 A 
BRANCH  46  47
ATOM     47  C   UNL A   1      39.740  28.831  29.270  1.00  0.00     0.031 A 
ATOM     48  C   UNL A   1      40.270  27.489  28.844  1.00  0.00     0.074 A 
ATOM     49  C   UNL A   1      40.457  29.604  30.109  1.00  0.00     0.049 A 
ATOM     50  N   UNL A   1      41.378  26.889  29.197  1.00  0.00    -0.248 NA
ATOM     51  C   UNL A   1      39.431  26.709  27.920  1.00  0.00     0.031 C 
ATOM     52  C   UNL A   1      40.047  30.913  30.618  1.00  0.00     0.029 A 
ATOM     53  N   UNL A   1      41.682  29.391  30.692  1.00  0.00    -0.354 N 
ATOM     54  C   UNL A   1      41.360  25.658  28.553  1.00  0.00     0.074 A 
ATOM     55  C   UNL A   1      40.111  25.576  27.831  1.00  0.00     0.031 C 
ATOM     56  C   UNL A   1      41.010  31.396  31.419  1.00  0.00     0.029 A 
ATOM     57  C   UNL A   1      42.082  30.411  31.522  1.00  0.00     0.049 A 
ATOM     58  H   UNL A   1      42.223  28.583  30.533  1.00  0.00     0.167 HD
ATOM     59  C   UNL A   1      42.307  24.689  28.551  1.00  0.00     0.031 A 
ATOM     60  C   UNL A   1      43.180  30.535  32.291  1.00  0.00     0.031 A 
ATOM     61  C   UNL A   1      43.552  24.774  29.269  1.00  0.00     0.049 A 
ATOM     62  C   UNL A   1      44.199  29.429  32.302  1.00  0.00     0.074 A 
ATOM     63  C   UNL A   1      44.597  23.867  29.288  1.00  0.00     0.029 A 
ATOM     64  N   UNL A   1      43.919  25.826  30.094  1.00  0.00    -0.354 N 
ATOM     65  N   UNL A   1      44.195  28.296  31.641  1.00  0.00    -0.248 NA
ATOM     66  C   UNL A   1      45.376  29.620  33.161  1.00  0.00     0.031 C 
ATOM     67  C   UNL A   1      45.568  24.340  30.177  1.00  0.00     0.029 A 
ATOM     68  C   UNL A   1      45.159  25.574  30.654  1.00  0.00     0.049 A 
ATOM     69  H   UNL A   1      43.376  26.632  30.257  1.00  0.00     0.167 HD
ATOM     70  C   UNL A   1      45.383  27.659  31.976  1.00  0.00     0.074 A 
ATOM     71  C   UNL A   1      46.086  28.534  32.890  1.00  0.00     0.031 C 
ATOM     72  C   UNL A   1      45.850  26.457  31.559  1.00  0.00     0.031 A 
BRANCH  59  73
ATOM     73  C   UNL A   1      42.023  23.441  27.761  1.00  0.00    -0.014 A 
ATOM     74  C   UNL A   1      41.356  22.348  28.337  1.00  0.00     0.009 A 
ATOM     75  C   UNL A   1      42.393  23.372  26.409  1.00  0.00     0.009 A 
ATOM     76  C   UNL A   1      41.102  21.197  27.586  1.00  0.00     0.001 A 
ATOM     77  C   UNL A   1      42.108  22.234  25.651  1.00  0.00     0.001 A 
ATOM     78  C   UNL A   1      41.473  21.144  26.243  1.00  0.00     0.000 A 
ENDBRANCH  59  73
BRANCH  60  79
ATOM     79  C   UNL A   1      43.379  31.757  33.116  1.00  0.00    -0.014 A 
ATOM     80  C   UNL A   1      44.093  32.853  32.609  1.00  0.00     0.009 A 
ATOM     81  C   UNL A   1      42.864  31.829  34.421  1.00  0.00     0.009 A 
ATOM     82  C   UNL A   1      44.311  33.985  33.398  1.00  0.00     0.001 A 
ATOM     83  C   UNL A   1      43.057  32.975  35.197  1.00  0.00     0.001 A 
ATOM     84  C   UNL A   1      43.788  34.046  34.689  1.00  0.00     0.000 A 
ENDBRANCH  60  79
BRANCH  72  85
ATOM     85  C   UNL A   1      47.207  26.030  32.048  1.00  0.00    -0.014 A 
ATOM     86  C   UNL A   1      48.380  26.400  31.374  1.00  0.00     0.009 A 
ATOM     87  C   UNL A   1      47.310  25.294  33.240  1.00  0.00     0.009 A 
ATOM     88  C   UNL A   1      49.628  26.021  31.872  1.00  0.00     0.001 A 
ATOM     89  C   UNL A   1      48.560  24.944  33.752  1.00  0.00     0.001 A 
ATOM     90  C   UNL A   1      49.718  25.301  33.063  1.00  0.00     0.000 A 
ENDBRANCH  72  85
ENDBRANCH  46  47
ENDBRANCH  38  41
ENDBRANCH  36  37
ENDBRANCH  35  36
ENDBRANCH  34  35
ENDBRANCH  33  34
ENDBRANCH   1  33
TORSDOF 18
ENDMDL
