MODEL 1
REMARK VINA RESULT:     -11.0      0.000      0.000
REMARK SMILES Cc1cc2nc(SCC(=O)NCCCCCCNC(=O)c3ccc(-c4c5nc(c(-c6ccccc6)c6ccc([nH]6)c(-c6ccccc6)c6nc(c(-c7ccccc7)c7ccc4[nH]7)C=C6)C=C5)cc3)[nH]c(=O)c2[nH]1
REMARK SMILES IDX 14 1 13 2 12 3 11 4 9 5 10 6 8 8 7 9 6 10 1 11 2 12 3 13
REMARK SMILES IDX 73 14 4 15 72 16 5 18 70 19 69 20 71 21 15 23 16 24 17 25
REMARK SMILES IDX 18 26 19 27 20 29 21 30 22 31 68 32 23 33 67 34 24 35 25 36
REMARK SMILES IDX 26 37 61 38 27 39 66 40 60 41 62 42 28 43 65 44 59 45 58 46
REMARK SMILES IDX 29 48 51 49 36 50 50 51 37 52 40 53 49 54 63 55 38 56 39 57
REMARK SMILES IDX 48 59 64 60 41 61 30 62 31 63 35 64 32 65 34 66 33 67 52 68
REMARK SMILES IDX 53 69 57 70 54 71 56 72 55 73 42 74 43 75 47 76 44 77 46 78
REMARK SMILES IDX 45 79
REMARK H PARENT 11 7 73 17 69 22 18 28 62 47 40 58
REMARK Flexibility Score: inf
ROOT
ATOM      1  C   UNL A   1      36.755  21.658  24.314  1.00  0.00     0.002 C 
ENDROOT
BRANCH   1   2
ATOM      2  C   UNL A   1      35.877  22.821  24.799  1.00  0.00     0.021 C 
BRANCH   2   3
ATOM      3  C   UNL A   1      35.304  23.677  23.667  1.00  0.00     0.116 C 
BRANCH   3   4
ATOM      4  N   UNL A   1      34.760  24.913  24.198  1.00  0.00    -0.355 N 
ATOM      5  C   UNL A   1      33.743  25.672  23.710  1.00  0.00     0.230 C 
ATOM      6  O   UNL A   1      33.608  26.829  24.116  1.00  0.00    -0.274 OA
ATOM      7  H   UNL A   1      35.184  25.248  25.021  1.00  0.00     0.163 HD
BRANCH   5   8
ATOM      8  C   UNL A   1      32.772  25.112  22.700  1.00  0.00     0.178 C 
BRANCH   8   9
ATOM      9  S   UNL A   1      31.329  24.330  23.418  1.00  0.00    -0.078 SA
BRANCH   9  10
ATOM     10  C   UNL A   1      31.861  22.955  24.351  1.00  0.00     0.169 A 
ATOM     11  C   UNL A   1      33.226  17.283  25.340  1.00  0.00     0.064 C 
ATOM     12  C   UNL A   1      32.967  18.734  25.161  1.00  0.00     0.014 A 
ATOM     13  C   UNL A   1      32.548  19.435  24.040  1.00  0.00     0.052 A 
ATOM     14  N   UNL A   1      33.103  19.638  26.198  1.00  0.00    -0.353 N 
ATOM     15  C   UNL A   1      32.389  20.765  24.445  1.00  0.00     0.097 A 
ATOM     16  C   UNL A   1      32.722  20.875  25.761  1.00  0.00     0.131 A 
ATOM     17  H   UNL A   1      33.420  19.424  27.105  1.00  0.00     0.166 HD
ATOM     18  N   UNL A   1      31.942  21.840  23.685  1.00  0.00    -0.222 NA
ATOM     19  C   UNL A   1      32.640  22.103  26.476  1.00  0.00     0.275 A 
ATOM     20  N   UNL A   1      32.178  23.128  25.679  1.00  0.00    -0.300 N 
ATOM     21  O   UNL A   1      32.934  22.249  27.650  1.00  0.00    -0.267 OA
ATOM     22  H   UNL A   1      32.069  24.023  26.077  1.00  0.00     0.172 HD
ENDBRANCH   9  10
ENDBRANCH   8   9
ENDBRANCH   5   8
ENDBRANCH   3   4
ENDBRANCH   2   3
ENDBRANCH   1   2
BRANCH   1  23
ATOM     23  C   UNL A   1      36.365  20.272  24.851  1.00  0.00     0.002 C 
BRANCH  23  24
ATOM     24  C   UNL A   1      37.516  19.267  25.002  1.00  0.00     0.021 C 
BRANCH  24  25
ATOM     25  C   UNL A   1      38.855  19.944  25.217  1.00  0.00     0.116 C 
BRANCH  25  26
ATOM     26  N   UNL A   1      39.890  18.998  25.639  1.00  0.00    -0.352 N 
ATOM     27  C   UNL A   1      41.190  19.260  26.023  1.00  0.00     0.251 C 
ATOM     28  H   UNL A   1      39.625  18.050  25.650  1.00  0.00     0.163 HD
ATOM     29  O   UNL A   1      42.038  18.377  26.049  1.00  0.00    -0.269 OA
BRANCH  27  30
ATOM     30  C   UNL A   1      41.525  20.625  26.454  1.00  0.00     0.039 A 
ATOM     31  C   UNL A   1      42.422  21.444  25.761  1.00  0.00     0.014 A 
ATOM     32  C   UNL A   1      40.933  21.062  27.635  1.00  0.00     0.014 A 
ATOM     33  C   UNL A   1      42.728  22.694  26.293  1.00  0.00     0.010 A 
ATOM     34  C   UNL A   1      41.029  22.363  28.009  1.00  0.00     0.010 A 
ATOM     35  C   UNL A   1      42.039  23.116  27.434  1.00  0.00    -0.014 A 
BRANCH  35  36
ATOM     36  C   UNL A   1      42.369  24.314  28.178  1.00  0.00     0.031 A 
ATOM     37  C   UNL A   1      41.388  25.419  28.052  1.00  0.00     0.074 A 
ATOM     38  C   UNL A   1      43.276  24.238  29.178  1.00  0.00     0.049 A 
ATOM     39  N   UNL A   1      41.587  26.605  27.584  1.00  0.00    -0.248 NA
ATOM     40  C   UNL A   1      39.977  25.129  28.374  1.00  0.00     0.031 C 
ATOM     41  C   UNL A   1      44.011  23.062  29.674  1.00  0.00     0.029 A 
ATOM     42  N   UNL A   1      43.624  25.193  30.072  1.00  0.00    -0.354 N 
ATOM     43  C   UNL A   1      40.363  27.257  27.676  1.00  0.00     0.074 A 
ATOM     44  C   UNL A   1      39.378  26.252  27.983  1.00  0.00     0.031 C 
ATOM     45  C   UNL A   1      44.525  23.331  30.898  1.00  0.00     0.029 A 
ATOM     46  C   UNL A   1      44.282  24.729  31.206  1.00  0.00     0.049 A 
ATOM     47  H   UNL A   1      43.425  26.145  29.930  1.00  0.00     0.167 HD
ATOM     48  C   UNL A   1      40.250  28.612  27.713  1.00  0.00     0.031 A 
ATOM     49  C   UNL A   1      44.527  25.454  32.328  1.00  0.00     0.031 A 
ATOM     50  C   UNL A   1      41.485  29.268  27.387  1.00  0.00     0.049 A 
ATOM     51  C   UNL A   1      44.361  26.883  31.953  1.00  0.00     0.074 A 
ATOM     52  C   UNL A   1      42.263  29.333  26.249  1.00  0.00     0.029 A 
ATOM     53  N   UNL A   1      42.319  29.590  28.434  1.00  0.00    -0.354 N 
ATOM     54  N   UNL A   1      45.125  27.497  31.095  1.00  0.00    -0.248 NA
ATOM     55  C   UNL A   1      43.052  27.484  32.167  1.00  0.00     0.031 C 
ATOM     56  C   UNL A   1      43.605  29.201  26.715  1.00  0.00     0.029 A 
ATOM     57  C   UNL A   1      43.578  29.145  28.110  1.00  0.00     0.049 A 
ATOM     58  H   UNL A   1      42.060  30.055  29.263  1.00  0.00     0.167 HD
ATOM     59  C   UNL A   1      44.265  28.302  30.361  1.00  0.00     0.074 A 
ATOM     60  C   UNL A   1      43.015  28.314  31.120  1.00  0.00     0.031 C 
ATOM     61  C   UNL A   1      44.541  28.638  29.067  1.00  0.00     0.031 A 
BRANCH  48  62
ATOM     62  C   UNL A   1      39.089  29.312  28.352  1.00  0.00    -0.014 A 
ATOM     63  C   UNL A   1      38.993  29.385  29.747  1.00  0.00     0.009 A 
ATOM     64  C   UNL A   1      37.973  29.747  27.608  1.00  0.00     0.009 A 
ATOM     65  C   UNL A   1      37.839  29.885  30.365  1.00  0.00     0.001 A 
ATOM     66  C   UNL A   1      36.840  30.287  28.216  1.00  0.00     0.001 A 
ATOM     67  C   UNL A   1      36.767  30.344  29.599  1.00  0.00     0.000 A 
ENDBRANCH  48  62
BRANCH  49  68
ATOM     68  C   UNL A   1      44.521  25.020  33.748  1.00  0.00    -0.014 A 
ATOM     69  C   UNL A   1      45.467  25.538  34.652  1.00  0.00     0.009 A 
ATOM     70  C   UNL A   1      43.411  24.347  34.287  1.00  0.00     0.009 A 
ATOM     71  C   UNL A   1      45.272  25.446  36.038  1.00  0.00     0.001 A 
ATOM     72  C   UNL A   1      43.218  24.252  35.673  1.00  0.00     0.001 A 
ATOM     73  C   UNL A   1      44.138  24.820  36.548  1.00  0.00     0.000 A 
ENDBRANCH  49  68
BRANCH  61  74
ATOM     74  C   UNL A   1      45.881  28.216  28.502  1.00  0.00    -0.014 A 
ATOM     75  C   UNL A   1      47.036  29.017  28.591  1.00  0.00     0.009 A 
ATOM     76  C   UNL A   1      46.025  26.902  28.041  1.00  0.00     0.009 A 
ATOM     77  C   UNL A   1      48.292  28.519  28.222  1.00  0.00     0.001 A 
ATOM     78  C   UNL A   1      47.281  26.398  27.689  1.00  0.00     0.001 A 
ATOM     79  C   UNL A   1      48.414  27.205  27.780  1.00  0.00     0.000 A 
ENDBRANCH  61  74
ENDBRANCH  35  36
ENDBRANCH  27  30
ENDBRANCH  25  26
ENDBRANCH  24  25
ENDBRANCH  23  24
ENDBRANCH   1  23
TORSDOF 15
ENDMDL
MODEL 2
REMARK VINA RESULT:     -10.9      2.671      7.637
REMARK SMILES Cc1cc2nc(SCC(=O)NCCCCCCNC(=O)c3ccc(-c4c5nc(c(-c6ccccc6)c6ccc([nH]6)c(-c6ccccc6)c6nc(c(-c7ccccc7)c7ccc4[nH]7)C=C6)C=C5)cc3)[nH]c(=O)c2[nH]1
REMARK SMILES IDX 14 1 13 2 12 3 11 4 9 5 10 6 8 8 7 9 6 10 1 11 2 12 3 13
REMARK SMILES IDX 73 14 4 15 72 16 5 18 70 19 69 20 71 21 15 23 16 24 17 25
REMARK SMILES IDX 18 26 19 27 20 29 21 30 22 31 68 32 23 33 67 34 24 35 25 36
REMARK SMILES IDX 26 37 61 38 27 39 66 40 60 41 62 42 28 43 65 44 59 45 58 46
REMARK SMILES IDX 29 48 51 49 36 50 50 51 37 52 40 53 49 54 63 55 38 56 39 57
REMARK SMILES IDX 48 59 64 60 41 61 30 62 31 63 35 64 32 65 34 66 33 67 52 68
REMARK SMILES IDX 53 69 57 70 54 71 56 72 55 73 42 74 43 75 47 76 44 77 46 78
REMARK SMILES IDX 45 79
REMARK H PARENT 11 7 73 17 69 22 18 28 62 47 40 58
REMARK Flexibility Score: inf
ROOT
ATOM      1  C   UNL A   1      36.231  30.378  28.324  1.00  0.00     0.002 C 
ENDROOT
BRANCH   1   2
ATOM      2  C   UNL A   1      35.401  29.418  27.458  1.00  0.00     0.021 C 
BRANCH   2   3
ATOM      3  C   UNL A   1      33.967  29.892  27.210  1.00  0.00     0.116 C 
BRANCH   3   4
ATOM      4  N   UNL A   1      33.022  28.977  27.823  1.00  0.00    -0.355 N 
ATOM      5  C   UNL A   1      32.102  28.178  27.221  1.00  0.00     0.230 C 
ATOM      6  O   UNL A   1      31.194  27.690  27.898  1.00  0.00    -0.274 OA
ATOM      7  H   UNL A   1      33.051  28.928  28.806  1.00  0.00     0.163 HD
BRANCH   5   8
ATOM      8  C   UNL A   1      32.191  27.864  25.748  1.00  0.00     0.178 C 
BRANCH   8   9
ATOM      9  S   UNL A   1      33.490  26.710  25.315  1.00  0.00    -0.078 SA
BRANCH   9  10
ATOM     10  C   UNL A   1      32.866  25.092  25.499  1.00  0.00     0.169 A 
ATOM     11  C   UNL A   1      32.529  19.271  24.491  1.00  0.00     0.064 C 
ATOM     12  C   UNL A   1      32.586  20.710  24.850  1.00  0.00     0.014 A 
ATOM     13  C   UNL A   1      33.427  21.713  24.389  1.00  0.00     0.052 A 
ATOM     14  N   UNL A   1      31.709  21.277  25.756  1.00  0.00    -0.353 N 
ATOM     15  C   UNL A   1      32.997  22.897  25.000  1.00  0.00     0.097 A 
ATOM     16  C   UNL A   1      31.948  22.620  25.824  1.00  0.00     0.131 A 
ATOM     17  H   UNL A   1      31.023  20.791  26.267  1.00  0.00     0.166 HD
ATOM     18  N   UNL A   1      33.499  24.180  24.819  1.00  0.00    -0.222 NA
ATOM     19  C   UNL A   1      31.270  23.624  26.571  1.00  0.00     0.275 A 
ATOM     20  N   UNL A   1      31.799  24.876  26.342  1.00  0.00    -0.300 N 
ATOM     21  O   UNL A   1      30.333  23.422  27.325  1.00  0.00    -0.267 OA
ATOM     22  H   UNL A   1      31.397  25.650  26.800  1.00  0.00     0.172 HD
ENDBRANCH   9  10
ENDBRANCH   8   9
ENDBRANCH   5   8
ENDBRANCH   3   4
ENDBRANCH   2   3
ENDBRANCH   1   2
BRANCH   1  23
ATOM     23  C   UNL A   1      36.194  31.852  27.892  1.00  0.00     0.002 C 
BRANCH  23  24
ATOM     24  C   UNL A   1      35.716  32.848  28.959  1.00  0.00     0.021 C 
BRANCH  24  25
ATOM     25  C   UNL A   1      34.830  32.200  30.004  1.00  0.00     0.116 C 
BRANCH  25  26
ATOM     26  N   UNL A   1      35.127  32.681  31.355  1.00  0.00    -0.352 N 
ATOM     27  C   UNL A   1      35.969  32.129  32.299  1.00  0.00     0.251 C 
ATOM     28  H   UNL A   1      34.665  33.507  31.626  1.00  0.00     0.163 HD
ATOM     29  O   UNL A   1      35.893  32.440  33.481  1.00  0.00    -0.269 OA
BRANCH  27  30
ATOM     30  C   UNL A   1      37.002  31.187  31.843  1.00  0.00     0.039 A 
ATOM     31  C   UNL A   1      36.806  29.803  31.802  1.00  0.00     0.014 A 
ATOM     32  C   UNL A   1      38.228  31.741  31.489  1.00  0.00     0.014 A 
ATOM     33  C   UNL A   1      37.872  28.992  31.424  1.00  0.00     0.010 A 
ATOM     34  C   UNL A   1      39.172  30.981  30.879  1.00  0.00     0.010 A 
ATOM     35  C   UNL A   1      39.053  29.605  30.996  1.00  0.00    -0.014 A 
BRANCH  35  36
ATOM     36  C   UNL A   1      40.284  28.889  30.729  1.00  0.00     0.031 A 
ATOM     37  C   UNL A   1      41.084  28.552  31.931  1.00  0.00     0.074 A 
ATOM     38  C   UNL A   1      40.439  28.272  29.537  1.00  0.00     0.049 A 
ATOM     39  N   UNL A   1      42.287  28.925  32.212  1.00  0.00    -0.248 NA
ATOM     40  C   UNL A   1      40.419  27.803  33.015  1.00  0.00     0.031 C 
ATOM     41  C   UNL A   1      39.498  28.189  28.406  1.00  0.00     0.029 A 
ATOM     42  N   UNL A   1      41.438  27.449  29.140  1.00  0.00    -0.354 N 
ATOM     43  C   UNL A   1      42.582  28.351  33.443  1.00  0.00     0.074 A 
ATOM     44  C   UNL A   1      41.344  27.841  33.972  1.00  0.00     0.031 C 
ATOM     45  C   UNL A   1      39.877  27.190  27.573  1.00  0.00     0.029 A 
ATOM     46  C   UNL A   1      41.152  26.665  28.028  1.00  0.00     0.049 A 
ATOM     47  H   UNL A   1      42.304  27.409  29.605  1.00  0.00     0.167 HD
ATOM     48  C   UNL A   1      43.855  28.127  33.866  1.00  0.00     0.031 A 
ATOM     49  C   UNL A   1      41.899  25.620  27.585  1.00  0.00     0.031 A 
ATOM     50  C   UNL A   1      44.826  28.778  33.032  1.00  0.00     0.049 A 
ATOM     51  C   UNL A   1      43.235  25.755  28.222  1.00  0.00     0.074 A 
ATOM     52  C   UNL A   1      45.117  30.099  32.753  1.00  0.00     0.029 A 
ATOM     53  N   UNL A   1      45.344  28.048  31.987  1.00  0.00    -0.354 N 
ATOM     54  N   UNL A   1      44.046  26.747  27.992  1.00  0.00    -0.248 NA
ATOM     55  C   UNL A   1      43.456  25.043  29.473  1.00  0.00     0.031 C 
ATOM     56  C   UNL A   1      45.345  30.133  31.346  1.00  0.00     0.029 A 
ATOM     57  C   UNL A   1      45.262  28.827  30.859  1.00  0.00     0.049 A 
ATOM     58  H   UNL A   1      45.709  27.134  32.040  1.00  0.00     0.167 HD
ATOM     59  C   UNL A   1      44.600  27.052  29.228  1.00  0.00     0.074 A 
ATOM     60  C   UNL A   1      44.262  25.917  30.086  1.00  0.00     0.031 C 
ATOM     61  C   UNL A   1      45.019  28.317  29.524  1.00  0.00     0.031 A 
BRANCH  48  62
ATOM     62  C   UNL A   1      44.205  27.059  34.857  1.00  0.00    -0.014 A 
ATOM     63  C   UNL A   1      44.337  25.728  34.439  1.00  0.00     0.009 A 
ATOM     64  C   UNL A   1      44.226  27.300  36.247  1.00  0.00     0.009 A 
ATOM     65  C   UNL A   1      44.498  24.693  35.370  1.00  0.00     0.001 A 
ATOM     66  C   UNL A   1      44.429  26.279  37.175  1.00  0.00     0.001 A 
ATOM     67  C   UNL A   1      44.553  24.970  36.736  1.00  0.00     0.000 A 
ENDBRANCH  48  62
BRANCH  49  68
ATOM     68  C   UNL A   1      41.456  24.340  26.977  1.00  0.00    -0.014 A 
ATOM     69  C   UNL A   1      42.304  23.643  26.097  1.00  0.00     0.009 A 
ATOM     70  C   UNL A   1      40.346  23.646  27.491  1.00  0.00     0.009 A 
ATOM     71  C   UNL A   1      42.088  22.289  25.800  1.00  0.00     0.001 A 
ATOM     72  C   UNL A   1      40.128  22.295  27.191  1.00  0.00     0.001 A 
ATOM     73  C   UNL A   1      41.012  21.610  26.363  1.00  0.00     0.000 A 
ENDBRANCH  49  68
BRANCH  61  74
ATOM     74  C   UNL A   1      44.984  29.346  28.414  1.00  0.00    -0.014 A 
ATOM     75  C   UNL A   1      43.846  30.124  28.127  1.00  0.00     0.009 A 
ATOM     76  C   UNL A   1      46.184  29.674  27.771  1.00  0.00     0.009 A 
ATOM     77  C   UNL A   1      43.907  31.189  27.219  1.00  0.00     0.001 A 
ATOM     78  C   UNL A   1      46.251  30.748  26.878  1.00  0.00     0.001 A 
ATOM     79  C   UNL A   1      45.113  31.506  26.602  1.00  0.00     0.000 A 
ENDBRANCH  61  74
ENDBRANCH  35  36
ENDBRANCH  27  30
ENDBRANCH  25  26
ENDBRANCH  24  25
ENDBRANCH  23  24
ENDBRANCH   1  23
TORSDOF 15
ENDMDL
MODEL 3
REMARK VINA RESULT:     -10.9      2.176      3.841
REMARK SMILES Cc1cc2nc(SCC(=O)NCCCCCCNC(=O)c3ccc(-c4c5nc(c(-c6ccccc6)c6ccc([nH]6)c(-c6ccccc6)c6nc(c(-c7ccccc7)c7ccc4[nH]7)C=C6)C=C5)cc3)[nH]c(=O)c2[nH]1
REMARK SMILES IDX 14 1 13 2 12 3 11 4 9 5 10 6 8 8 7 9 6 10 1 11 2 12 3 13
REMARK SMILES IDX 73 14 4 15 72 16 5 18 70 19 69 20 71 21 15 23 16 24 17 25
REMARK SMILES IDX 18 26 19 27 20 29 21 30 22 31 68 32 23 33 67 34 24 35 25 36
REMARK SMILES IDX 26 37 61 38 27 39 66 40 60 41 62 42 28 43 65 44 59 45 58 46
REMARK SMILES IDX 29 48 51 49 36 50 50 51 37 52 40 53 49 54 63 55 38 56 39 57
REMARK SMILES IDX 48 59 64 60 41 61 30 62 31 63 35 64 32 65 34 66 33 67 52 68
REMARK SMILES IDX 53 69 57 70 54 71 56 72 55 73 42 74 43 75 47 76 44 77 46 78
REMARK SMILES IDX 45 79
REMARK H PARENT 11 7 73 17 69 22 18 28 62 47 40 58
REMARK Flexibility Score: inf
ROOT
ATOM      1  C   UNL A   1      36.621  21.499  25.269  1.00  0.00     0.002 C 
ENDROOT
BRANCH   1   2
ATOM      2  C   UNL A   1      35.590  22.127  26.219  1.00  0.00     0.021 C 
BRANCH   2   3
ATOM      3  C   UNL A   1      34.500  22.931  25.507  1.00  0.00     0.116 C 
BRANCH   3   4
ATOM      4  N   UNL A   1      34.720  22.914  24.072  1.00  0.00    -0.355 N 
ATOM      5  C   UNL A   1      34.058  23.600  23.104  1.00  0.00     0.230 C 
ATOM      6  O   UNL A   1      34.179  23.249  21.928  1.00  0.00    -0.274 OA
ATOM      7  H   UNL A   1      35.445  22.326  23.758  1.00  0.00     0.163 HD
BRANCH   5   8
ATOM      8  C   UNL A   1      33.201  24.794  23.446  1.00  0.00     0.178 C 
BRANCH   8   9
ATOM      9  S   UNL A   1      33.232  26.101  22.223  1.00  0.00    -0.078 SA
BRANCH   9  10
ATOM     10  C   UNL A   1      32.330  27.457  22.850  1.00  0.00     0.169 A 
ATOM     11  C   UNL A   1      27.796  31.241  23.218  1.00  0.00     0.064 C 
ATOM     12  C   UNL A   1      28.943  30.299  23.236  1.00  0.00     0.014 A 
ATOM     13  C   UNL A   1      29.198  29.187  22.448  1.00  0.00     0.052 A 
ATOM     14  N   UNL A   1      30.003  30.449  24.111  1.00  0.00    -0.353 N 
ATOM     15  C   UNL A   1      30.456  28.710  22.837  1.00  0.00     0.097 A 
ATOM     16  C   UNL A   1      30.938  29.489  23.844  1.00  0.00     0.131 A 
ATOM     17  H   UNL A   1      30.074  31.137  24.812  1.00  0.00     0.166 HD
ATOM     18  N   UNL A   1      31.163  27.638  22.305  1.00  0.00    -0.222 NA
ATOM     19  C   UNL A   1      32.213  29.276  24.440  1.00  0.00     0.275 A 
ATOM     20  N   UNL A   1      32.874  28.212  23.865  1.00  0.00    -0.300 N 
ATOM     21  O   UNL A   1      32.681  29.942  25.347  1.00  0.00    -0.267 OA
ATOM     22  H   UNL A   1      33.774  27.982  24.193  1.00  0.00     0.172 HD
ENDBRANCH   9  10
ENDBRANCH   8   9
ENDBRANCH   5   8
ENDBRANCH   3   4
ENDBRANCH   2   3
ENDBRANCH   1   2
BRANCH   1  23
ATOM     23  C   UNL A   1      36.382  20.020  24.925  1.00  0.00     0.002 C 
BRANCH  23  24
ATOM     24  C   UNL A   1      37.634  19.131  24.905  1.00  0.00     0.021 C 
BRANCH  24  25
ATOM     25  C   UNL A   1      38.879  19.868  25.357  1.00  0.00     0.116 C 
BRANCH  25  26
ATOM     26  N   UNL A   1      39.970  18.952  25.697  1.00  0.00    -0.352 N 
ATOM     27  C   UNL A   1      41.282  19.253  26.003  1.00  0.00     0.251 C 
ATOM     28  H   UNL A   1      39.738  17.995  25.708  1.00  0.00     0.163 HD
ATOM     29  O   UNL A   1      42.159  18.399  25.960  1.00  0.00    -0.269 OA
BRANCH  27  30
ATOM     30  C   UNL A   1      41.598  20.622  26.435  1.00  0.00     0.039 A 
ATOM     31  C   UNL A   1      42.451  21.469  25.720  1.00  0.00     0.014 A 
ATOM     32  C   UNL A   1      41.036  21.034  27.639  1.00  0.00     0.014 A 
ATOM     33  C   UNL A   1      42.744  22.721  26.253  1.00  0.00     0.010 A 
ATOM     34  C   UNL A   1      41.113  22.333  28.022  1.00  0.00     0.010 A 
ATOM     35  C   UNL A   1      42.084  23.117  27.420  1.00  0.00    -0.014 A 
BRANCH  35  36
ATOM     36  C   UNL A   1      42.409  24.316  28.164  1.00  0.00     0.031 A 
ATOM     37  C   UNL A   1      41.427  25.419  28.034  1.00  0.00     0.074 A 
ATOM     38  C   UNL A   1      43.314  24.242  29.166  1.00  0.00     0.049 A 
ATOM     39  N   UNL A   1      41.624  26.604  27.566  1.00  0.00    -0.248 NA
ATOM     40  C   UNL A   1      40.016  25.126  28.354  1.00  0.00     0.031 C 
ATOM     41  C   UNL A   1      44.051  23.068  29.665  1.00  0.00     0.029 A 
ATOM     42  N   UNL A   1      43.658  25.199  30.061  1.00  0.00    -0.354 N 
ATOM     43  C   UNL A   1      40.398  27.254  27.654  1.00  0.00     0.074 A 
ATOM     44  C   UNL A   1      39.415  26.248  27.960  1.00  0.00     0.031 C 
ATOM     45  C   UNL A   1      44.561  23.340  30.891  1.00  0.00     0.029 A 
ATOM     46  C   UNL A   1      44.314  24.738  31.197  1.00  0.00     0.049 A 
ATOM     47  H   UNL A   1      43.458  26.151  29.917  1.00  0.00     0.167 HD
ATOM     48  C   UNL A   1      40.283  28.609  27.690  1.00  0.00     0.031 A 
ATOM     49  C   UNL A   1      44.555  25.465  32.318  1.00  0.00     0.031 A 
ATOM     50  C   UNL A   1      41.517  29.267  27.366  1.00  0.00     0.049 A 
ATOM     51  C   UNL A   1      44.387  26.892  31.942  1.00  0.00     0.074 A 
ATOM     52  C   UNL A   1      42.298  29.332  26.230  1.00  0.00     0.029 A 
ATOM     53  N   UNL A   1      42.348  29.592  28.415  1.00  0.00    -0.354 N 
ATOM     54  N   UNL A   1      45.152  27.508  31.085  1.00  0.00    -0.248 NA
ATOM     55  C   UNL A   1      43.076  27.491  32.152  1.00  0.00     0.031 C 
ATOM     56  C   UNL A   1      43.639  29.204  26.700  1.00  0.00     0.029 A 
ATOM     57  C   UNL A   1      43.608  29.150  28.095  1.00  0.00     0.049 A 
ATOM     58  H   UNL A   1      42.085  30.058  29.243  1.00  0.00     0.167 HD
ATOM     59  C   UNL A   1      44.292  28.310  30.348  1.00  0.00     0.074 A 
ATOM     60  C   UNL A   1      43.039  28.320  31.104  1.00  0.00     0.031 C 
ATOM     61  C   UNL A   1      44.570  28.645  29.054  1.00  0.00     0.031 A 
BRANCH  48  62
ATOM     62  C   UNL A   1      39.119  29.307  28.325  1.00  0.00    -0.014 A 
ATOM     63  C   UNL A   1      38.996  29.344  29.720  1.00  0.00     0.009 A 
ATOM     64  C   UNL A   1      38.023  29.778  27.572  1.00  0.00     0.009 A 
ATOM     65  C   UNL A   1      37.837  29.842  30.328  1.00  0.00     0.001 A 
ATOM     66  C   UNL A   1      36.885  30.316  28.173  1.00  0.00     0.001 A 
ATOM     67  C   UNL A   1      36.787  30.336  29.555  1.00  0.00     0.000 A 
ENDBRANCH  48  62
BRANCH  49  68
ATOM     68  C   UNL A   1      44.546  25.032  33.739  1.00  0.00    -0.014 A 
ATOM     69  C   UNL A   1      43.408  24.409  34.283  1.00  0.00     0.009 A 
ATOM     70  C   UNL A   1      45.744  24.943  34.469  1.00  0.00     0.009 A 
ATOM     71  C   UNL A   1      43.484  23.670  35.472  1.00  0.00     0.001 A 
ATOM     72  C   UNL A   1      45.819  24.208  35.661  1.00  0.00     0.001 A 
ATOM     73  C   UNL A   1      44.694  23.553  36.151  1.00  0.00     0.000 A 
ENDBRANCH  49  68
BRANCH  61  74
ATOM     74  C   UNL A   1      45.912  28.225  28.493  1.00  0.00    -0.014 A 
ATOM     75  C   UNL A   1      46.136  26.965  27.906  1.00  0.00     0.009 A 
ATOM     76  C   UNL A   1      46.920  29.191  28.382  1.00  0.00     0.009 A 
ATOM     77  C   UNL A   1      47.333  26.681  27.237  1.00  0.00     0.001 A 
ATOM     78  C   UNL A   1      48.108  28.915  27.699  1.00  0.00     0.001 A 
ATOM     79  C   UNL A   1      48.315  27.661  27.126  1.00  0.00     0.000 A 
ENDBRANCH  61  74
ENDBRANCH  35  36
ENDBRANCH  27  30
ENDBRANCH  25  26
ENDBRANCH  24  25
ENDBRANCH  23  24
ENDBRANCH   1  23
TORSDOF 15
ENDMDL
