MODEL 1
REMARK VINA RESULT:     -11.2      0.000      0.000
REMARK SMILES CCc1ccc(N2C(=O)/C(=C/c3cc(Cl)c(OCC(=O)NCCCCCCNC(=O)c4ccc(-c5c6nc(c(-c7ccccc7)c7ccc([nH]7)c(-c7ccccc7)c7nc(c(-c8ccccc8)c8ccc5[nH]8)C=C7)C=C6)cc4)c(Cl)c3)C(=O)NC2=S)cc1
REMARK SMILES IDX 23 1 22 2 21 3 19 4 20 5 18 7 17 8 16 9 12 10 13 11 81 12
REMARK SMILES IDX 14 13 79 14 15 15 80 16 11 17 7 18 8 19 85 20 9 21 10 22
REMARK SMILES IDX 84 23 86 24 82 25 83 27 6 28 3 29 4 30 88 31 5 32 87 33 2 34
REMARK SMILES IDX 1 35 24 36 25 37 26 38 27 39 28 40 29 41 30 43 31 44 32 45
REMARK SMILES IDX 78 46 33 47 77 48 34 49 35 50 36 51 71 52 37 53 76 54 70 55
REMARK SMILES IDX 72 56 38 57 75 58 69 59 68 60 39 62 61 63 46 64 60 65 47 66
REMARK SMILES IDX 50 67 59 68 73 69 48 70 49 71 58 73 74 74 51 75 40 76 41 77
REMARK SMILES IDX 45 78 42 79 44 80 43 81 62 82 63 83 67 84 64 85 66 86 65 87
REMARK SMILES IDX 52 88 53 89 57 90 54 91 56 92 55 93
REMARK H PARENT 21 6 84 26 28 42 72 61 50 72
REMARK Flexibility Score: inf
ROOT
ATOM      1  C   UNL A   1      45.468  22.461  26.016  1.00  0.00     0.021 C 
ENDROOT
BRANCH   1   2
ATOM      2  C   UNL A   1      44.205  22.039  25.266  1.00  0.00     0.116 C 
BRANCH   2   3
ATOM      3  N   UNL A   1      43.599  20.861  25.851  1.00  0.00    -0.353 N 
ATOM      4  C   UNL A   1      42.321  20.669  26.281  1.00  0.00     0.257 C 
ATOM      5  O   UNL A   1      42.004  19.546  26.674  1.00  0.00    -0.271 OA
ATOM      6  H   UNL A   1      44.198  20.086  25.954  1.00  0.00     0.163 HD
BRANCH   4   7
ATOM      7  C   UNL A   1      41.303  21.818  26.201  1.00  0.00     0.329 C 
BRANCH   7   8
ATOM      8  O   UNL A   1      40.069  21.758  26.894  1.00  0.00    -0.481 OA
BRANCH   8   9
ATOM      9  C   UNL A   1      38.908  22.089  26.249  1.00  0.00     0.157 A 
ATOM     10  C   UNL A   1      36.581  23.079  24.981  1.00  0.00    -0.021 A 
ATOM     11  C   UNL A   1      37.352  23.921  25.781  1.00  0.00     0.032 A 
ATOM     12  C   UNL A   1      36.988  21.761  24.783  1.00  0.00     0.032 A 
ATOM     13  C   UNL A   1      38.503  23.430  26.401  1.00  0.00     0.085 A 
ATOM     14  C   UNL A   1      38.155  21.272  25.392  1.00  0.00     0.085 A 
ATOM     15  Cl  UNL A   1      39.427  24.552  27.350  1.00  0.00    -0.080 Cl
ATOM     16  Cl  UNL A   1      38.639  19.690  24.895  1.00  0.00    -0.080 Cl
BRANCH  10  17
ATOM     17  C   UNL A   1      35.386  23.609  24.327  1.00  0.00     0.028 C 
ATOM     18  N   UNL A   1      31.985  24.520  24.804  1.00  0.00    -0.253 N 
ATOM     19  C   UNL A   1      33.085  24.202  23.997  1.00  0.00     0.270 C 
ATOM     20  C   UNL A   1      31.560  23.688  25.845  1.00  0.00     0.187 C 
ATOM     21  O   UNL A   1      33.285  24.603  22.852  1.00  0.00    -0.268 OA
ATOM     22  C   UNL A   1      34.107  23.370  24.681  1.00  0.00     0.106 C 
ATOM     23  N   UNL A   1      32.415  22.673  26.202  1.00  0.00    -0.298 N 
ATOM     24  S   UNL A   1      30.099  23.740  26.676  1.00  0.00    -0.040 S 
ATOM     25  C   UNL A   1      33.694  22.467  25.767  1.00  0.00     0.263 C 
ATOM     26  H   UNL A   1      32.065  22.017  26.848  1.00  0.00     0.172 HD
ATOM     27  O   UNL A   1      34.406  21.611  26.276  1.00  0.00    -0.269 OA
BRANCH  18  28
ATOM     28  C   UNL A   1      31.352  25.784  24.550  1.00  0.00     0.052 A 
ATOM     29  C   UNL A   1      30.420  28.354  23.862  1.00  0.00    -0.048 A 
ATOM     30  C   UNL A   1      29.948  27.223  23.188  1.00  0.00     0.006 A 
ATOM     31  C   UNL A   1      31.337  28.191  24.904  1.00  0.00     0.006 A 
ATOM     32  C   UNL A   1      30.419  25.949  23.521  1.00  0.00     0.027 A 
ATOM     33  C   UNL A   1      31.798  26.919  25.245  1.00  0.00     0.027 A 
BRANCH  29  34
ATOM     34  C   UNL A   1      29.950  29.732  23.472  1.00  0.00     0.032 C 
ATOM     35  C   UNL A   1      29.760  29.862  21.971  1.00  0.00     0.009 C 
ENDBRANCH  29  34
ENDBRANCH  18  28
ENDBRANCH  10  17
ENDBRANCH   8   9
ENDBRANCH   7   8
ENDBRANCH   4   7
ENDBRANCH   2   3
ENDBRANCH   1   2
BRANCH   1  36
ATOM     36  C   UNL A   1      45.238  23.131  27.376  1.00  0.00     0.002 C 
BRANCH  36  37
ATOM     37  C   UNL A   1      45.917  24.488  27.582  1.00  0.00     0.002 C 
BRANCH  37  38
ATOM     38  C   UNL A   1      46.582  25.090  26.343  1.00  0.00     0.021 C 
BRANCH  38  39
ATOM     39  C   UNL A   1      45.861  26.287  25.732  1.00  0.00     0.116 C 
BRANCH  39  40
ATOM     40  N   UNL A   1      44.635  25.920  25.041  1.00  0.00    -0.352 N 
ATOM     41  C   UNL A   1      43.332  26.046  25.458  1.00  0.00     0.251 C 
ATOM     42  H   UNL A   1      44.757  25.524  24.149  1.00  0.00     0.163 HD
ATOM     43  O   UNL A   1      42.420  25.564  24.795  1.00  0.00    -0.269 OA
BRANCH  41  44
ATOM     44  C   UNL A   1      43.028  26.743  26.728  1.00  0.00     0.039 A 
ATOM     45  C   UNL A   1      43.284  28.114  26.823  1.00  0.00     0.014 A 
ATOM     46  C   UNL A   1      42.494  26.052  27.819  1.00  0.00     0.014 A 
ATOM     47  C   UNL A   1      42.941  28.806  27.987  1.00  0.00     0.010 A 
ATOM     48  C   UNL A   1      42.098  26.753  28.956  1.00  0.00     0.010 A 
ATOM     49  C   UNL A   1      42.314  28.137  29.050  1.00  0.00    -0.014 A 
BRANCH  49  50
ATOM     50  C   UNL A   1      41.872  28.861  30.268  1.00  0.00     0.031 A 
ATOM     51  C   UNL A   1      40.629  29.706  30.236  1.00  0.00     0.074 A 
ATOM     52  C   UNL A   1      42.629  28.819  31.383  1.00  0.00     0.049 A 
ATOM     53  N   UNL A   1      40.140  30.489  31.163  1.00  0.00    -0.248 NA
ATOM     54  C   UNL A   1      39.848  29.684  28.990  1.00  0.00     0.031 C 
ATOM     55  C   UNL A   1      43.871  28.060  31.540  1.00  0.00     0.029 A 
ATOM     56  N   UNL A   1      42.466  29.444  32.594  1.00  0.00    -0.354 N 
ATOM     57  C   UNL A   1      39.007  31.069  30.606  1.00  0.00     0.074 A 
ATOM     58  C   UNL A   1      38.903  30.576  29.249  1.00  0.00     0.031 C 
ATOM     59  C   UNL A   1      44.346  28.249  32.781  1.00  0.00     0.029 A 
ATOM     60  C   UNL A   1      43.467  29.170  33.493  1.00  0.00     0.049 A 
ATOM     61  H   UNL A   1      41.703  30.032  32.799  1.00  0.00     0.167 HD
ATOM     62  C   UNL A   1      38.123  31.924  31.175  1.00  0.00     0.031 A 
ATOM     63  C   UNL A   1      43.663  29.619  34.747  1.00  0.00     0.031 A 
ATOM     64  C   UNL A   1      38.213  32.403  32.528  1.00  0.00     0.049 A 
ATOM     65  C   UNL A   1      42.676  30.578  35.351  1.00  0.00     0.074 A 
ATOM     66  C   UNL A   1      37.338  33.232  33.208  1.00  0.00     0.029 A 
ATOM     67  N   UNL A   1      39.238  32.092  33.407  1.00  0.00    -0.354 N 
ATOM     68  N   UNL A   1      41.585  31.081  34.827  1.00  0.00    -0.248 NA
ATOM     69  C   UNL A   1      42.945  31.025  36.726  1.00  0.00     0.031 C 
ATOM     70  C   UNL A   1      37.853  33.454  34.490  1.00  0.00     0.029 A 
ATOM     71  C   UNL A   1      39.026  32.727  34.620  1.00  0.00     0.049 A 
ATOM     72  H   UNL A   1      40.002  31.508  33.202  1.00  0.00     0.167 HD
ATOM     73  C   UNL A   1      41.024  31.880  35.813  1.00  0.00     0.074 A 
ATOM     74  C   UNL A   1      41.889  31.789  36.971  1.00  0.00     0.031 C 
ATOM     75  C   UNL A   1      39.891  32.622  35.765  1.00  0.00     0.031 A 
BRANCH  62  76
ATOM     76  C   UNL A   1      36.980  32.399  30.325  1.00  0.00    -0.014 A 
ATOM     77  C   UNL A   1      35.766  31.695  30.282  1.00  0.00     0.009 A 
ATOM     78  C   UNL A   1      37.108  33.580  29.580  1.00  0.00     0.009 A 
ATOM     79  C   UNL A   1      34.715  32.147  29.483  1.00  0.00     0.001 A 
ATOM     80  C   UNL A   1      36.046  34.045  28.801  1.00  0.00     0.001 A 
ATOM     81  C   UNL A   1      34.854  33.322  28.746  1.00  0.00     0.000 A 
ENDBRANCH  62  76
BRANCH  63  82
ATOM     82  C   UNL A   1      44.839  29.158  35.528  1.00  0.00    -0.014 A 
ATOM     83  C   UNL A   1      44.741  28.023  36.349  1.00  0.00     0.009 A 
ATOM     84  C   UNL A   1      46.057  29.849  35.464  1.00  0.00     0.009 A 
ATOM     85  C   UNL A   1      45.836  27.606  37.109  1.00  0.00     0.001 A 
ATOM     86  C   UNL A   1      47.157  29.414  36.208  1.00  0.00     0.001 A 
ATOM     87  C   UNL A   1      47.042  28.299  37.035  1.00  0.00     0.000 A 
ENDBRANCH  63  82
BRANCH  75  88
ATOM     88  C   UNL A   1      39.501  33.362  37.010  1.00  0.00    -0.014 A 
ATOM     89  C   UNL A   1      39.961  34.665  37.256  1.00  0.00     0.009 A 
ATOM     90  C   UNL A   1      38.626  32.761  37.929  1.00  0.00     0.009 A 
ATOM     91  C   UNL A   1      39.570  35.342  38.413  1.00  0.00     0.001 A 
ATOM     92  C   UNL A   1      38.220  33.449  39.072  1.00  0.00     0.001 A 
ATOM     93  C   UNL A   1      38.697  34.736  39.317  1.00  0.00     0.000 A 
ENDBRANCH  75  88
ENDBRANCH  49  50
ENDBRANCH  41  44
ENDBRANCH  39  40
ENDBRANCH  38  39
ENDBRANCH  37  38
ENDBRANCH  36  37
ENDBRANCH   1  36
TORSDOF 18
ENDMDL
MODEL 2
REMARK VINA RESULT:     -10.5      5.455      9.987
REMARK SMILES CCc1ccc(N2C(=O)/C(=C/c3cc(Cl)c(OCC(=O)NCCCCCCNC(=O)c4ccc(-c5c6nc(c(-c7ccccc7)c7ccc([nH]7)c(-c7ccccc7)c7nc(c(-c8ccccc8)c8ccc5[nH]8)C=C7)C=C6)cc4)c(Cl)c3)C(=O)NC2=S)cc1
REMARK SMILES IDX 23 1 22 2 21 3 19 4 20 5 18 7 17 8 16 9 12 10 13 11 81 12
REMARK SMILES IDX 14 13 79 14 15 15 80 16 11 17 7 18 8 19 85 20 9 21 10 22
REMARK SMILES IDX 84 23 86 24 82 25 83 27 6 28 3 29 4 30 88 31 5 32 87 33 2 34
REMARK SMILES IDX 1 35 24 36 25 37 26 38 27 39 28 40 29 41 30 43 31 44 32 45
REMARK SMILES IDX 78 46 33 47 77 48 34 49 35 50 36 51 71 52 37 53 76 54 70 55
REMARK SMILES IDX 72 56 38 57 75 58 69 59 68 60 39 62 61 63 46 64 60 65 47 66
REMARK SMILES IDX 50 67 59 68 73 69 48 70 49 71 58 73 74 74 51 75 40 76 41 77
REMARK SMILES IDX 45 78 42 79 44 80 43 81 62 82 63 83 67 84 64 85 66 86 65 87
REMARK SMILES IDX 52 88 53 89 57 90 54 91 56 92 55 93
REMARK H PARENT 21 6 84 26 28 42 72 61 50 72
REMARK Flexibility Score: inf
ROOT
ATOM      1  C   UNL A   1      37.940  28.946  31.890  1.00  0.00     0.021 C 
ENDROOT
BRANCH   1   2
ATOM      2  C   UNL A   1      38.202  30.335  31.309  1.00  0.00     0.116 C 
BRANCH   2   3
ATOM      3  N   UNL A   1      37.070  31.220  31.495  1.00  0.00    -0.353 N 
ATOM      4  C   UNL A   1      36.574  32.175  30.660  1.00  0.00     0.257 C 
ATOM      5  O   UNL A   1      35.542  32.757  30.996  1.00  0.00    -0.271 OA
ATOM      6  H   UNL A   1      36.592  31.117  32.349  1.00  0.00     0.163 HD
BRANCH   4   7
ATOM      7  C   UNL A   1      37.259  32.449  29.312  1.00  0.00     0.329 C 
BRANCH   7   8
ATOM      8  O   UNL A   1      36.515  32.509  28.108  1.00  0.00    -0.481 OA
BRANCH   8   9
ATOM      9  C   UNL A   1      35.623  31.515  27.808  1.00  0.00     0.157 A 
ATOM     10  C   UNL A   1      34.016  29.255  27.245  1.00  0.00    -0.021 A 
ATOM     11  C   UNL A   1      35.398  29.117  27.366  1.00  0.00     0.032 A 
ATOM     12  C   UNL A   1      33.434  30.506  27.442  1.00  0.00     0.032 A 
ATOM     13  C   UNL A   1      36.188  30.234  27.649  1.00  0.00     0.085 A 
ATOM     14  C   UNL A   1      34.225  31.626  27.744  1.00  0.00     0.085 A 
ATOM     15  Cl  UNL A   1      37.894  29.970  27.820  1.00  0.00    -0.080 Cl
ATOM     16  Cl  UNL A   1      33.351  33.057  28.157  1.00  0.00    -0.080 Cl
BRANCH  10  17
ATOM     17  C   UNL A   1      33.201  28.076  26.962  1.00  0.00     0.028 C 
ATOM     18  N   UNL A   1      32.411  25.617  24.522  1.00  0.00    -0.253 N 
ATOM     19  C   UNL A   1      32.154  26.320  25.706  1.00  0.00     0.270 C 
ATOM     20  C   UNL A   1      32.646  26.267  23.306  1.00  0.00     0.187 C 
ATOM     21  O   UNL A   1      31.543  25.896  26.686  1.00  0.00    -0.268 OA
ATOM     22  C   UNL A   1      32.779  27.667  25.749  1.00  0.00     0.106 C 
ATOM     23  N   UNL A   1      32.862  27.622  23.371  1.00  0.00    -0.298 N 
ATOM     24  S   UNL A   1      32.638  25.600  21.763  1.00  0.00    -0.040 S 
ATOM     25  C   UNL A   1      33.023  28.389  24.490  1.00  0.00     0.263 C 
ATOM     26  H   UNL A   1      32.907  28.097  22.509  1.00  0.00     0.172 HD
ATOM     27  O   UNL A   1      33.360  29.564  24.410  1.00  0.00    -0.269 OA
BRANCH  18  28
ATOM     28  C   UNL A   1      32.487  24.188  24.634  1.00  0.00     0.052 A 
ATOM     29  C   UNL A   1      32.722  21.438  25.215  1.00  0.00    -0.048 A 
ATOM     30  C   UNL A   1      31.462  22.032  25.083  1.00  0.00     0.006 A 
ATOM     31  C   UNL A   1      33.864  22.219  25.022  1.00  0.00     0.006 A 
ATOM     32  C   UNL A   1      31.345  23.398  24.807  1.00  0.00     0.027 A 
ATOM     33  C   UNL A   1      33.749  23.580  24.734  1.00  0.00     0.027 A 
BRANCH  29  34
ATOM     34  C   UNL A   1      32.849  19.977  25.559  1.00  0.00     0.032 C 
ATOM     35  C   UNL A   1      32.568  19.086  24.361  1.00  0.00     0.009 C 
ENDBRANCH  29  34
ENDBRANCH  18  28
ENDBRANCH  10  17
ENDBRANCH   8   9
ENDBRANCH   7   8
ENDBRANCH   4   7
ENDBRANCH   2   3
ENDBRANCH   1   2
BRANCH   1  36
ATOM     36  C   UNL A   1      39.021  27.895  31.606  1.00  0.00     0.002 C 
BRANCH  36  37
ATOM     37  C   UNL A   1      39.433  27.733  30.141  1.00  0.00     0.002 C 
BRANCH  37  38
ATOM     38  C   UNL A   1      39.067  26.396  29.494  1.00  0.00     0.021 C 
BRANCH  38  39
ATOM     39  C   UNL A   1      39.679  26.146  28.119  1.00  0.00     0.116 C 
BRANCH  39  40
ATOM     40  N   UNL A   1      40.087  24.764  27.923  1.00  0.00    -0.352 N 
ATOM     41  C   UNL A   1      41.316  24.264  27.568  1.00  0.00     0.251 C 
ATOM     42  H   UNL A   1      39.382  24.093  28.065  1.00  0.00     0.163 HD
ATOM     43  O   UNL A   1      41.452  23.070  27.322  1.00  0.00    -0.269 OA
BRANCH  41  44
ATOM     44  C   UNL A   1      42.478  25.173  27.452  1.00  0.00     0.039 A 
ATOM     45  C   UNL A   1      42.858  25.624  26.183  1.00  0.00     0.014 A 
ATOM     46  C   UNL A   1      43.191  25.580  28.583  1.00  0.00     0.014 A 
ATOM     47  C   UNL A   1      43.907  26.537  26.056  1.00  0.00     0.010 A 
ATOM     48  C   UNL A   1      44.198  26.536  28.460  1.00  0.00     0.010 A 
ATOM     49  C   UNL A   1      44.564  27.026  27.197  1.00  0.00    -0.014 A 
BRANCH  49  50
ATOM     50  C   UNL A   1      45.633  28.051  27.096  1.00  0.00     0.031 A 
ATOM     51  C   UNL A   1      45.280  29.512  27.098  1.00  0.00     0.074 A 
ATOM     52  C   UNL A   1      46.914  27.668  26.926  1.00  0.00     0.049 A 
ATOM     53  N   UNL A   1      46.059  30.549  26.919  1.00  0.00    -0.248 NA
ATOM     54  C   UNL A   1      43.864  29.850  27.308  1.00  0.00     0.031 C 
ATOM     55  C   UNL A   1      47.388  26.283  26.879  1.00  0.00     0.029 A 
ATOM     56  N   UNL A   1      48.051  28.415  26.749  1.00  0.00    -0.354 N 
ATOM     57  C   UNL A   1      45.225  31.658  26.973  1.00  0.00     0.074 A 
ATOM     58  C   UNL A   1      43.878  31.166  27.163  1.00  0.00     0.031 C 
ATOM     59  C   UNL A   1      48.719  26.281  26.704  1.00  0.00     0.029 A 
ATOM     60  C   UNL A   1      49.186  27.659  26.589  1.00  0.00     0.049 A 
ATOM     61  H   UNL A   1      48.053  29.400  26.739  1.00  0.00     0.167 HD
ATOM     62  C   UNL A   1      45.552  32.970  26.885  1.00  0.00     0.031 A 
ATOM     63  C   UNL A   1      50.460  28.032  26.362  1.00  0.00     0.031 A 
ATOM     64  C   UNL A   1      46.892  33.465  26.713  1.00  0.00     0.049 A 
ATOM     65  C   UNL A   1      50.794  29.493  26.255  1.00  0.00     0.074 A 
ATOM     66  C   UNL A   1      47.326  34.778  26.663  1.00  0.00     0.029 A 
ATOM     67  N   UNL A   1      48.013  32.665  26.565  1.00  0.00    -0.354 N 
ATOM     68  N   UNL A   1      50.001  30.531  26.353  1.00  0.00    -0.248 NA
ATOM     69  C   UNL A   1      52.205  29.832  26.012  1.00  0.00     0.031 C 
ATOM     70  C   UNL A   1      48.708  34.773  26.447  1.00  0.00     0.029 A 
ATOM     71  C   UNL A   1      49.138  33.457  26.408  1.00  0.00     0.049 A 
ATOM     72  H   UNL A   1      48.011  31.681  26.572  1.00  0.00     0.167 HD
ATOM     73  C   UNL A   1      50.817  31.645  26.213  1.00  0.00     0.074 A 
ATOM     74  C   UNL A   1      52.168  31.158  26.031  1.00  0.00     0.031 C 
ATOM     75  C   UNL A   1      50.476  32.957  26.235  1.00  0.00     0.031 A 
BRANCH  62  76
ATOM     76  C   UNL A   1      44.431  33.966  26.972  1.00  0.00    -0.014 A 
ATOM     77  C   UNL A   1      44.072  34.550  28.197  1.00  0.00     0.009 A 
ATOM     78  C   UNL A   1      43.743  34.346  25.809  1.00  0.00     0.009 A 
ATOM     79  C   UNL A   1      43.024  35.470  28.261  1.00  0.00     0.001 A 
ATOM     80  C   UNL A   1      42.712  35.286  25.872  1.00  0.00     0.001 A 
ATOM     81  C   UNL A   1      42.347  35.839  27.100  1.00  0.00     0.000 A 
ENDBRANCH  62  76
BRANCH  63  82
ATOM     82  C   UNL A   1      51.524  27.004  26.233  1.00  0.00    -0.014 A 
ATOM     83  C   UNL A   1      51.813  26.440  24.980  1.00  0.00     0.009 A 
ATOM     84  C   UNL A   1      52.248  26.577  27.355  1.00  0.00     0.009 A 
ATOM     85  C   UNL A   1      52.791  25.450  24.860  1.00  0.00     0.001 A 
ATOM     86  C   UNL A   1      53.242  25.604  27.227  1.00  0.00     0.001 A 
ATOM     87  C   UNL A   1      53.506  25.036  25.983  1.00  0.00     0.000 A 
ENDBRANCH  63  82
BRANCH  75  88
ATOM     88  C   UNL A   1      51.587  33.957  26.098  1.00  0.00    -0.014 A 
ATOM     89  C   UNL A   1      52.297  34.412  27.219  1.00  0.00     0.009 A 
ATOM     90  C   UNL A   1      51.955  34.415  24.823  1.00  0.00     0.009 A 
ATOM     91  C   UNL A   1      53.339  35.330  27.067  1.00  0.00     0.001 A 
ATOM     92  C   UNL A   1      53.012  35.313  24.673  1.00  0.00     0.001 A 
ATOM     93  C   UNL A   1      53.698  35.775  25.795  1.00  0.00     0.000 A 
ENDBRANCH  75  88
ENDBRANCH  49  50
ENDBRANCH  41  44
ENDBRANCH  39  40
ENDBRANCH  38  39
ENDBRANCH  37  38
ENDBRANCH  36  37
ENDBRANCH   1  36
TORSDOF 18
ENDMDL
MODEL 3
REMARK VINA RESULT:     -10.4      5.009     12.896
REMARK SMILES CCc1ccc(N2C(=O)/C(=C/c3cc(Cl)c(OCC(=O)NCCCCCCNC(=O)c4ccc(-c5c6nc(c(-c7ccccc7)c7ccc([nH]7)c(-c7ccccc7)c7nc(c(-c8ccccc8)c8ccc5[nH]8)C=C7)C=C6)cc4)c(Cl)c3)C(=O)NC2=S)cc1
REMARK SMILES IDX 23 1 22 2 21 3 19 4 20 5 18 7 17 8 16 9 12 10 13 11 81 12
REMARK SMILES IDX 14 13 79 14 15 15 80 16 11 17 7 18 8 19 85 20 9 21 10 22
REMARK SMILES IDX 84 23 86 24 82 25 83 27 6 28 3 29 4 30 88 31 5 32 87 33 2 34
REMARK SMILES IDX 1 35 24 36 25 37 26 38 27 39 28 40 29 41 30 43 31 44 32 45
REMARK SMILES IDX 78 46 33 47 77 48 34 49 35 50 36 51 71 52 37 53 76 54 70 55
REMARK SMILES IDX 72 56 38 57 75 58 69 59 68 60 39 62 61 63 46 64 60 65 47 66
REMARK SMILES IDX 50 67 59 68 73 69 48 70 49 71 58 73 74 74 51 75 40 76 41 77
REMARK SMILES IDX 45 78 42 79 44 80 43 81 62 82 63 83 67 84 64 85 66 86 65 87
REMARK SMILES IDX 52 88 53 89 57 90 54 91 56 92 55 93
REMARK H PARENT 21 6 84 26 28 42 72 61 50 72
REMARK Flexibility Score: inf
ROOT
ATOM      1  C   UNL A   1      36.469  32.425  33.668  1.00  0.00     0.021 C 
ENDROOT
BRANCH   1   2
ATOM      2  C   UNL A   1      37.652  32.027  34.551  1.00  0.00     0.116 C 
BRANCH   2   3
ATOM      3  N   UNL A   1      38.437  33.177  34.951  1.00  0.00    -0.353 N 
ATOM      4  C   UNL A   1      39.695  33.225  35.471  1.00  0.00     0.257 C 
ATOM      5  O   UNL A   1      40.199  34.332  35.663  1.00  0.00    -0.271 OA
ATOM      6  H   UNL A   1      37.996  34.049  34.833  1.00  0.00     0.163 HD
BRANCH   4   7
ATOM      7  C   UNL A   1      40.470  31.924  35.732  1.00  0.00     0.329 C 
BRANCH   7   8
ATOM      8  O   UNL A   1      41.390  31.412  34.784  1.00  0.00    -0.481 OA
BRANCH   8   9
ATOM      9  C   UNL A   1      41.616  30.064  34.713  1.00  0.00     0.157 A 
ATOM     10  C   UNL A   1      42.267  27.313  34.826  1.00  0.00    -0.021 A 
ATOM     11  C   UNL A   1      42.966  28.229  35.611  1.00  0.00     0.032 A 
ATOM     12  C   UNL A   1      41.224  27.761  34.018  1.00  0.00     0.032 A 
ATOM     13  C   UNL A   1      42.638  29.586  35.557  1.00  0.00     0.085 A 
ATOM     14  C   UNL A   1      40.882  29.122  33.976  1.00  0.00     0.085 A 
ATOM     15  Cl  UNL A   1      43.531  30.654  36.592  1.00  0.00    -0.080 Cl
ATOM     16  Cl  UNL A   1      39.447  29.496  33.089  1.00  0.00    -0.080 Cl
BRANCH  10  17
ATOM     17  C   UNL A   1      42.612  25.895  34.903  1.00  0.00     0.028 C 
ATOM     18  N   UNL A   1      45.289  23.572  35.149  1.00  0.00    -0.253 N 
ATOM     19  C   UNL A   1      43.955  23.908  34.883  1.00  0.00     0.270 C 
ATOM     20  C   UNL A   1      46.359  24.232  34.537  1.00  0.00     0.187 C 
ATOM     21  O   UNL A   1      42.980  23.169  35.014  1.00  0.00    -0.268 OA
ATOM     22  C   UNL A   1      43.762  25.327  34.492  1.00  0.00     0.106 C 
ATOM     23  N   UNL A   1      46.055  25.385  33.855  1.00  0.00    -0.298 N 
ATOM     24  S   UNL A   1      47.970  23.752  34.483  1.00  0.00    -0.040 S 
ATOM     25  C   UNL A   1      44.860  26.047  33.826  1.00  0.00     0.263 C 
ATOM     26  H   UNL A   1      46.784  25.781  33.325  1.00  0.00     0.172 HD
ATOM     27  O   UNL A   1      44.759  27.149  33.301  1.00  0.00    -0.269 OA
BRANCH  18  28
ATOM     28  C   UNL A   1      45.504  22.556  36.141  1.00  0.00     0.052 A 
ATOM     29  C   UNL A   1      46.279  20.550  37.966  1.00  0.00    -0.048 A 
ATOM     30  C   UNL A   1      46.123  21.875  38.388  1.00  0.00     0.006 A 
ATOM     31  C   UNL A   1      46.011  20.228  36.632  1.00  0.00     0.006 A 
ATOM     32  C   UNL A   1      45.751  22.872  37.481  1.00  0.00     0.027 A 
ATOM     33  C   UNL A   1      45.628  21.220  35.729  1.00  0.00     0.027 A 
BRANCH  29  34
ATOM     34  C   UNL A   1      46.726  19.484  38.931  1.00  0.00     0.032 C 
ATOM     35  C   UNL A   1      46.469  19.882  40.374  1.00  0.00     0.009 C 
ENDBRANCH  29  34
ENDBRANCH  18  28
ENDBRANCH  10  17
ENDBRANCH   8   9
ENDBRANCH   7   8
ENDBRANCH   4   7
ENDBRANCH   2   3
ENDBRANCH   1   2
BRANCH   1  36
ATOM     36  C   UNL A   1      36.485  31.854  32.244  1.00  0.00     0.002 C 
BRANCH  36  37
ATOM     37  C   UNL A   1      36.173  32.843  31.119  1.00  0.00     0.002 C 
BRANCH  37  38
ATOM     38  C   UNL A   1      34.804  32.682  30.455  1.00  0.00     0.021 C 
BRANCH  38  39
ATOM     39  C   UNL A   1      34.822  32.604  28.932  1.00  0.00     0.116 C 
BRANCH  39  40
ATOM     40  N   UNL A   1      34.143  31.425  28.417  1.00  0.00    -0.352 N 
ATOM     41  C   UNL A   1      34.660  30.191  28.106  1.00  0.00     0.251 C 
ATOM     42  H   UNL A   1      33.175  31.528  28.270  1.00  0.00     0.163 HD
ATOM     43  O   UNL A   1      33.960  29.346  27.558  1.00  0.00    -0.269 OA
BRANCH  41  44
ATOM     44  C   UNL A   1      36.078  29.888  28.405  1.00  0.00     0.039 A 
ATOM     45  C   UNL A   1      36.404  29.366  29.661  1.00  0.00     0.014 A 
ATOM     46  C   UNL A   1      37.080  30.116  27.459  1.00  0.00     0.014 A 
ATOM     47  C   UNL A   1      37.724  29.007  29.942  1.00  0.00     0.010 A 
ATOM     48  C   UNL A   1      38.385  29.703  27.719  1.00  0.00     0.010 A 
ATOM     49  C   UNL A   1      38.719  29.141  28.961  1.00  0.00    -0.014 A 
BRANCH  49  50
ATOM     50  C   UNL A   1      40.115  28.700  29.207  1.00  0.00     0.031 A 
ATOM     51  C   UNL A   1      41.098  29.634  29.856  1.00  0.00     0.074 A 
ATOM     52  C   UNL A   1      40.520  27.488  28.779  1.00  0.00     0.049 A 
ATOM     53  N   UNL A   1      42.380  29.469  30.063  1.00  0.00    -0.248 NA
ATOM     54  C   UNL A   1      40.575  30.931  30.313  1.00  0.00     0.031 C 
ATOM     55  C   UNL A   1      39.675  26.497  28.111  1.00  0.00     0.029 A 
ATOM     56  N   UNL A   1      41.754  26.891  28.833  1.00  0.00    -0.354 N 
ATOM     57  C   UNL A   1      42.821  30.647  30.652  1.00  0.00     0.074 A 
ATOM     58  C   UNL A   1      41.678  31.531  30.736  1.00  0.00     0.031 C 
ATOM     59  C   UNL A   1      40.411  25.409  27.834  1.00  0.00     0.029 A 
ATOM     60  C   UNL A   1      41.785  25.639  28.269  1.00  0.00     0.049 A 
ATOM     61  H   UNL A   1      42.543  27.319  29.239  1.00  0.00     0.167 HD
ATOM     62  C   UNL A   1      44.061  30.961  31.098  1.00  0.00     0.031 A 
ATOM     63  C   UNL A   1      42.806  24.777  28.109  1.00  0.00     0.031 A 
ATOM     64  C   UNL A   1      45.196  30.080  31.031  1.00  0.00     0.049 A 
ATOM     65  C   UNL A   1      44.176  25.155  28.599  1.00  0.00     0.074 A 
ATOM     66  C   UNL A   1      46.480  30.292  31.501  1.00  0.00     0.029 A 
ATOM     67  N   UNL A   1      45.180  28.817  30.462  1.00  0.00    -0.354 N 
ATOM     68  N   UNL A   1      44.565  26.254  29.195  1.00  0.00    -0.248 NA
ATOM     69  C   UNL A   1      45.246  24.166  28.398  1.00  0.00     0.031 C 
ATOM     70  C   UNL A   1      47.253  29.170  31.182  1.00  0.00     0.029 A 
ATOM     71  C   UNL A   1      46.437  28.244  30.554  1.00  0.00     0.049 A 
ATOM     72  H   UNL A   1      44.393  28.391  30.053  1.00  0.00     0.167 HD
ATOM     73  C   UNL A   1      45.916  26.081  29.466  1.00  0.00     0.074 A 
ATOM     74  C   UNL A   1      46.278  24.766  28.977  1.00  0.00     0.031 C 
ATOM     75  C   UNL A   1      46.779  26.933  30.068  1.00  0.00     0.031 A 
BRANCH  62  76
ATOM     76  C   UNL A   1      44.252  32.326  31.694  1.00  0.00    -0.014 A 
ATOM     77  C   UNL A   1      44.515  33.442  30.883  1.00  0.00     0.009 A 
ATOM     78  C   UNL A   1      44.140  32.504  33.082  1.00  0.00     0.009 A 
ATOM     79  C   UNL A   1      44.695  34.703  31.454  1.00  0.00     0.001 A 
ATOM     80  C   UNL A   1      44.295  33.771  33.647  1.00  0.00     0.001 A 
ATOM     81  C   UNL A   1      44.583  34.868  32.834  1.00  0.00     0.000 A 
ENDBRANCH  62  76
BRANCH  63  82
ATOM     82  C   UNL A   1      42.574  23.459  27.465  1.00  0.00    -0.014 A 
ATOM     83  C   UNL A   1      42.775  23.302  26.085  1.00  0.00     0.009 A 
ATOM     84  C   UNL A   1      42.144  22.358  28.220  1.00  0.00     0.009 A 
ATOM     85  C   UNL A   1      42.526  22.073  25.470  1.00  0.00     0.001 A 
ATOM     86  C   UNL A   1      41.919  21.124  27.605  1.00  0.00     0.001 A 
ATOM     87  C   UNL A   1      42.102  20.985  26.232  1.00  0.00     0.000 A 
ENDBRANCH  63  82
BRANCH  75  88
ATOM     88  C   UNL A   1      48.188  26.457  30.268  1.00  0.00    -0.014 A 
ATOM     89  C   UNL A   1      48.570  25.788  31.441  1.00  0.00     0.009 A 
ATOM     90  C   UNL A   1      49.135  26.642  29.248  1.00  0.00     0.009 A 
ATOM     91  C   UNL A   1      49.882  25.336  31.598  1.00  0.00     0.001 A 
ATOM     92  C   UNL A   1      50.438  26.169  29.399  1.00  0.00     0.001 A 
ATOM     93  C   UNL A   1      50.813  25.523  30.576  1.00  0.00     0.000 A 
ENDBRANCH  75  88
ENDBRANCH  49  50
ENDBRANCH  41  44
ENDBRANCH  39  40
ENDBRANCH  38  39
ENDBRANCH  37  38
ENDBRANCH  36  37
ENDBRANCH   1  36
TORSDOF 18
ENDMDL
