MODEL 1
REMARK VINA RESULT:     -10.9      0.000      0.000
REMARK SMILES CCOc1ccc(-c2nc(C(=O)NCCCCCCNC(=O)c3ccc(-c4c5nc(c(-c6ccccc6)c6ccc([nH]6)c(-c6ccccc6)c6nc(c(-c7ccccc7)c7ccc4[nH]7)C=C6)C=C5)cc3)cc(=O)[nH]2)cc1
REMARK SMILES IDX 16 1 15 2 14 3 13 4 11 5 12 6 10 8 8 9 9 10 74 11 72 12
REMARK SMILES IDX 71 14 73 15 7 16 4 17 5 18 76 19 6 20 75 21 3 22 2 23 1 24
REMARK SMILES IDX 17 25 18 26 19 27 20 28 21 29 22 31 23 32 24 33 70 34 25 35
REMARK SMILES IDX 69 36 26 37 27 38 28 39 63 40 29 41 68 42 62 43 64 44 30 45
REMARK SMILES IDX 67 46 61 47 60 48 31 50 53 51 38 52 52 53 39 54 42 55 51 56
REMARK SMILES IDX 65 57 40 58 41 59 50 61 66 62 43 63 32 64 33 65 37 66 34 67
REMARK SMILES IDX 36 68 35 69 54 70 55 71 59 72 56 73 58 74 57 75 44 76 45 77
REMARK SMILES IDX 49 78 46 79 48 80 47 81
REMARK H PARENT 13 7 74 13 20 30 64 49 42 60
REMARK Flexibility Score: inf
ROOT
ATOM      1  C   UNL A   1      34.386  25.209  25.742  1.00  0.00     0.002 C 
ENDROOT
BRANCH   1   2
ATOM      2  C   UNL A   1      35.177  24.086  25.069  1.00  0.00     0.021 C 
BRANCH   2   3
ATOM      3  C   UNL A   1      35.143  22.729  25.759  1.00  0.00     0.116 C 
BRANCH   3   4
ATOM      4  N   UNL A   1      34.492  21.699  24.976  1.00  0.00    -0.351 N 
ATOM      5  C   UNL A   1      33.188  21.491  24.628  1.00  0.00     0.270 C 
ATOM      6  O   UNL A   1      32.951  20.486  23.953  1.00  0.00    -0.268 OA
ATOM      7  H   UNL A   1      35.109  21.016  24.628  1.00  0.00     0.163 HD
BRANCH   5   8
ATOM      8  C   UNL A   1      32.057  22.401  25.071  1.00  0.00     0.136 A 
ATOM      9  C   UNL A   1      30.883  24.322  24.627  1.00  0.00     0.141 A 
ATOM     10  N   UNL A   1      31.740  23.444  24.217  1.00  0.00    -0.225 NA
ATOM     11  N   UNL A   1      30.173  24.181  25.789  1.00  0.00    -0.306 N 
ATOM     12  C   UNL A   1      30.399  23.152  26.646  1.00  0.00     0.251 A 
ATOM     13  H   UNL A   1      29.480  24.844  26.011  1.00  0.00     0.171 HD
ATOM     14  C   UNL A   1      31.525  22.283  26.294  1.00  0.00     0.105 A 
ATOM     15  O   UNL A   1      29.726  22.950  27.644  1.00  0.00    -0.269 OA
BRANCH   9  16
ATOM     16  C   UNL A   1      30.629  25.563  23.865  1.00  0.00     0.018 A 
ATOM     17  C   UNL A   1      30.248  27.961  22.503  1.00  0.00     0.119 A 
ATOM     18  C   UNL A   1      29.610  27.758  23.724  1.00  0.00     0.047 A 
ATOM     19  C   UNL A   1      31.114  26.996  21.986  1.00  0.00     0.047 A 
ATOM     20  C   UNL A   1      29.796  26.555  24.406  1.00  0.00     0.016 A 
ATOM     21  C   UNL A   1      31.303  25.791  22.664  1.00  0.00     0.016 A 
BRANCH  17  22
ATOM     22  O   UNL A   1      30.108  29.175  21.894  1.00  0.00    -0.494 OA
BRANCH  22  23
ATOM     23  C   UNL A   1      28.761  29.661  21.937  1.00  0.00     0.226 C 
ATOM     24  C   UNL A   1      28.673  31.103  21.465  1.00  0.00     0.049 C 
ENDBRANCH  22  23
ENDBRANCH  17  22
ENDBRANCH   9  16
ENDBRANCH   5   8
ENDBRANCH   3   4
ENDBRANCH   2   3
ENDBRANCH   1   2
BRANCH   1  25
ATOM     25  C   UNL A   1      34.058  26.425  24.871  1.00  0.00     0.002 C 
BRANCH  25  26
ATOM     26  C   UNL A   1      33.427  27.616  25.593  1.00  0.00     0.021 C 
BRANCH  26  27
ATOM     27  C   UNL A   1      34.228  28.160  26.768  1.00  0.00     0.116 C 
BRANCH  27  28
ATOM     28  N   UNL A   1      33.870  29.529  27.103  1.00  0.00    -0.352 N 
ATOM     29  C   UNL A   1      34.579  30.444  27.843  1.00  0.00     0.251 C 
ATOM     30  H   UNL A   1      33.004  29.841  26.752  1.00  0.00     0.163 HD
ATOM     31  O   UNL A   1      34.075  31.509  28.179  1.00  0.00    -0.269 OA
BRANCH  29  32
ATOM     32  C   UNL A   1      35.960  30.116  28.252  1.00  0.00     0.039 A 
ATOM     33  C   UNL A   1      36.192  29.606  29.532  1.00  0.00     0.014 A 
ATOM     34  C   UNL A   1      37.013  30.273  27.348  1.00  0.00     0.014 A 
ATOM     35  C   UNL A   1      37.476  29.184  29.883  1.00  0.00     0.010 A 
ATOM     36  C   UNL A   1      38.271  29.781  27.670  1.00  0.00     0.010 A 
ATOM     37  C   UNL A   1      38.516  29.233  28.941  1.00  0.00    -0.014 A 
BRANCH  37  38
ATOM     38  C   UNL A   1      39.880  28.731  29.243  1.00  0.00     0.031 A 
ATOM     39  C   UNL A   1      40.900  29.667  29.825  1.00  0.00     0.074 A 
ATOM     40  C   UNL A   1      40.234  27.483  28.885  1.00  0.00     0.049 A 
ATOM     41  N   UNL A   1      42.184  29.488  30.000  1.00  0.00    -0.248 NA
ATOM     42  C   UNL A   1      40.414  30.996  30.231  1.00  0.00     0.031 C 
ATOM     43  C   UNL A   1      39.344  26.484  28.288  1.00  0.00     0.029 A 
ATOM     44  N   UNL A   1      41.451  26.849  28.948  1.00  0.00    -0.354 N 
ATOM     45  C   UNL A   1      42.665  30.691  30.500  1.00  0.00     0.074 A 
ATOM     46  C   UNL A   1      41.543  31.604  30.558  1.00  0.00     0.031 C 
ATOM     47  C   UNL A   1      40.044  25.365  28.044  1.00  0.00     0.029 A 
ATOM     48  C   UNL A   1      41.439  25.583  28.415  1.00  0.00     0.049 A 
ATOM     49  H   UNL A   1      42.255  27.264  29.336  1.00  0.00     0.167 HD
ATOM     50  C   UNL A   1      43.925  31.007  30.883  1.00  0.00     0.031 A 
ATOM     51  C   UNL A   1      42.441  24.705  28.221  1.00  0.00     0.031 A 
ATOM     52  C   UNL A   1      45.033  30.092  30.827  1.00  0.00     0.049 A 
ATOM     53  C   UNL A   1      43.838  25.079  28.634  1.00  0.00     0.074 A 
ATOM     54  C   UNL A   1      46.336  30.291  31.251  1.00  0.00     0.029 A 
ATOM     55  N   UNL A   1      44.971  28.808  30.306  1.00  0.00    -0.354 N 
ATOM     56  N   UNL A   1      44.269  26.199  29.162  1.00  0.00    -0.248 NA
ATOM     57  C   UNL A   1      44.885  24.067  28.433  1.00  0.00     0.031 C 
ATOM     58  C   UNL A   1      47.077  29.152  30.925  1.00  0.00     0.029 A 
ATOM     59  C   UNL A   1      46.220  28.215  30.370  1.00  0.00     0.049 A 
ATOM     60  H   UNL A   1      44.160  28.383  29.945  1.00  0.00     0.167 HD
ATOM     61  C   UNL A   1      45.628  26.014  29.389  1.00  0.00     0.074 A 
ATOM     62  C   UNL A   1      45.948  24.674  28.943  1.00  0.00     0.031 C 
ATOM     63  C   UNL A   1      46.524  26.876  29.928  1.00  0.00     0.031 A 
BRANCH  50  64
ATOM     64  C   UNL A   1      44.170  32.412  31.364  1.00  0.00    -0.014 A 
ATOM     65  C   UNL A   1      44.065  32.754  32.722  1.00  0.00     0.009 A 
ATOM     66  C   UNL A   1      44.518  33.410  30.440  1.00  0.00     0.009 A 
ATOM     67  C   UNL A   1      44.249  34.075  33.136  1.00  0.00     0.001 A 
ATOM     68  C   UNL A   1      44.739  34.722  30.862  1.00  0.00     0.001 A 
ATOM     69  C   UNL A   1      44.590  35.057  32.206  1.00  0.00     0.000 A 
ENDBRANCH  50  64
BRANCH  51  70
ATOM     70  C   UNL A   1      42.153  23.383  27.606  1.00  0.00    -0.014 A 
ATOM     71  C   UNL A   1      41.609  22.342  28.374  1.00  0.00     0.009 A 
ATOM     72  C   UNL A   1      42.394  23.162  26.240  1.00  0.00     0.009 A 
ATOM     73  C   UNL A   1      41.326  21.104  27.790  1.00  0.00     0.001 A 
ATOM     74  C   UNL A   1      42.083  21.934  25.653  1.00  0.00     0.001 A 
ATOM     75  C   UNL A   1      41.556  20.904  26.431  1.00  0.00     0.000 A 
ENDBRANCH  51  70
BRANCH  63  76
ATOM     76  C   UNL A   1      47.933  26.388  30.124  1.00  0.00    -0.014 A 
ATOM     77  C   UNL A   1      48.352  25.812  31.332  1.00  0.00     0.009 A 
ATOM     78  C   UNL A   1      48.830  26.433  29.044  1.00  0.00     0.009 A 
ATOM     79  C   UNL A   1      49.649  25.307  31.459  1.00  0.00     0.001 A 
ATOM     80  C   UNL A   1      50.113  25.901  29.164  1.00  0.00     0.001 A 
ATOM     81  C   UNL A   1      50.524  25.344  30.374  1.00  0.00     0.000 A 
ENDBRANCH  63  76
ENDBRANCH  37  38
ENDBRANCH  29  32
ENDBRANCH  27  28
ENDBRANCH  26  27
ENDBRANCH  25  26
ENDBRANCH   1  25
TORSDOF 16
ENDMDL
MODEL 2
REMARK VINA RESULT:     -10.8      2.368      6.787
REMARK SMILES CCOc1ccc(-c2nc(C(=O)NCCCCCCNC(=O)c3ccc(-c4c5nc(c(-c6ccccc6)c6ccc([nH]6)c(-c6ccccc6)c6nc(c(-c7ccccc7)c7ccc4[nH]7)C=C6)C=C5)cc3)cc(=O)[nH]2)cc1
REMARK SMILES IDX 16 1 15 2 14 3 13 4 11 5 12 6 10 8 8 9 9 10 74 11 72 12
REMARK SMILES IDX 71 14 73 15 7 16 4 17 5 18 76 19 6 20 75 21 3 22 2 23 1 24
REMARK SMILES IDX 17 25 18 26 19 27 20 28 21 29 22 31 23 32 24 33 70 34 25 35
REMARK SMILES IDX 69 36 26 37 27 38 28 39 63 40 29 41 68 42 62 43 64 44 30 45
REMARK SMILES IDX 67 46 61 47 60 48 31 50 53 51 38 52 52 53 39 54 42 55 51 56
REMARK SMILES IDX 65 57 40 58 41 59 50 61 66 62 43 63 32 64 33 65 37 66 34 67
REMARK SMILES IDX 36 68 35 69 54 70 55 71 59 72 56 73 58 74 57 75 44 76 45 77
REMARK SMILES IDX 49 78 46 79 48 80 47 81
REMARK H PARENT 13 7 74 13 20 30 64 49 42 60
REMARK Flexibility Score: inf
ROOT
ATOM      1  C   UNL A   1      37.095  22.426  24.184  1.00  0.00     0.002 C 
ENDROOT
BRANCH   1   2
ATOM      2  C   UNL A   1      35.952  23.009  23.351  1.00  0.00     0.021 C 
BRANCH   2   3
ATOM      3  C   UNL A   1      34.582  23.044  24.016  1.00  0.00     0.116 C 
BRANCH   3   4
ATOM      4  N   UNL A   1      33.623  22.144  23.409  1.00  0.00    -0.351 N 
ATOM      5  C   UNL A   1      32.269  22.021  23.531  1.00  0.00     0.270 C 
ATOM      6  O   UNL A   1      31.736  21.119  22.879  1.00  0.00    -0.268 OA
ATOM      7  H   UNL A   1      34.026  21.495  22.789  1.00  0.00     0.163 HD
BRANCH   5   8
ATOM      8  C   UNL A   1      31.436  22.897  24.450  1.00  0.00     0.136 A 
ATOM      9  C   UNL A   1      30.509  24.971  24.764  1.00  0.00     0.141 A 
ATOM     10  N   UNL A   1      31.092  24.145  23.959  1.00  0.00    -0.225 NA
ATOM     11  N   UNL A   1      30.087  24.616  26.017  1.00  0.00    -0.306 N 
ATOM     12  C   UNL A   1      30.347  23.389  26.538  1.00  0.00     0.251 A 
ATOM     13  H   UNL A   1      29.582  25.266  26.555  1.00  0.00     0.171 HD
ATOM     14  C   UNL A   1      31.203  22.530  25.716  1.00  0.00     0.105 A 
ATOM     15  O   UNL A   1      29.910  23.011  27.614  1.00  0.00    -0.269 OA
BRANCH   9  16
ATOM     16  C   UNL A   1      30.278  26.382  24.384  1.00  0.00     0.018 A 
ATOM     17  C   UNL A   1      29.922  29.017  23.561  1.00  0.00     0.119 A 
ATOM     18  C   UNL A   1      31.054  28.677  24.298  1.00  0.00     0.047 A 
ATOM     19  C   UNL A   1      28.997  28.040  23.189  1.00  0.00     0.047 A 
ATOM     20  C   UNL A   1      31.232  27.358  24.715  1.00  0.00     0.016 A 
ATOM     21  C   UNL A   1      29.170  26.719  23.606  1.00  0.00     0.016 A 
BRANCH  17  22
ATOM     22  O   UNL A   1      29.811  30.299  23.102  1.00  0.00    -0.494 OA
BRANCH  22  23
ATOM     23  C   UNL A   1      28.525  30.571  22.534  1.00  0.00     0.226 C 
ATOM     24  C   UNL A   1      27.648  31.360  23.492  1.00  0.00     0.049 C 
ENDBRANCH  22  23
ENDBRANCH  17  22
ENDBRANCH   9  16
ENDBRANCH   5   8
ENDBRANCH   3   4
ENDBRANCH   2   3
ENDBRANCH   1   2
BRANCH   1  25
ATOM     25  C   UNL A   1      36.772  21.164  24.989  1.00  0.00     0.002 C 
BRANCH  25  26
ATOM     26  C   UNL A   1      37.835  20.064  24.964  1.00  0.00     0.021 C 
BRANCH  26  27
ATOM     27  C   UNL A   1      39.104  20.371  25.747  1.00  0.00     0.116 C 
BRANCH  27  28
ATOM     28  N   UNL A   1      39.994  19.225  25.840  1.00  0.00    -0.352 N 
ATOM     29  C   UNL A   1      41.350  19.208  26.061  1.00  0.00     0.251 C 
ATOM     30  H   UNL A   1      39.568  18.344  25.731  1.00  0.00     0.163 HD
ATOM     31  O   UNL A   1      41.994  18.171  25.951  1.00  0.00    -0.269 OA
BRANCH  29  32
ATOM     32  C   UNL A   1      42.032  20.470  26.413  1.00  0.00     0.039 A 
ATOM     33  C   UNL A   1      42.483  21.312  25.392  1.00  0.00     0.014 A 
ATOM     34  C   UNL A   1      42.182  20.835  27.753  1.00  0.00     0.014 A 
ATOM     35  C   UNL A   1      43.021  22.559  25.716  1.00  0.00     0.010 A 
ATOM     36  C   UNL A   1      42.644  22.105  28.069  1.00  0.00     0.010 A 
ATOM     37  C   UNL A   1      43.070  22.980  27.055  1.00  0.00    -0.014 A 
BRANCH  37  38
ATOM     38  C   UNL A   1      43.568  24.323  27.443  1.00  0.00     0.031 A 
ATOM     39  C   UNL A   1      42.589  25.376  27.879  1.00  0.00     0.074 A 
ATOM     40  C   UNL A   1      44.868  24.632  27.288  1.00  0.00     0.049 A 
ATOM     41  N   UNL A   1      42.784  26.652  28.089  1.00  0.00    -0.248 NA
ATOM     42  C   UNL A   1      41.196  24.939  28.068  1.00  0.00     0.031 C 
ATOM     43  C   UNL A   1      45.915  23.708  26.848  1.00  0.00     0.029 A 
ATOM     44  N   UNL A   1      45.527  25.825  27.459  1.00  0.00    -0.354 N 
ATOM     45  C   UNL A   1      41.535  27.176  28.398  1.00  0.00     0.074 A 
ATOM     46  C   UNL A   1      40.585  26.089  28.304  1.00  0.00     0.031 C 
ATOM     47  C   UNL A   1      47.084  24.366  26.788  1.00  0.00     0.029 A 
ATOM     48  C   UNL A   1      46.861  25.767  27.132  1.00  0.00     0.049 A 
ATOM     49  H   UNL A   1      45.086  26.643  27.783  1.00  0.00     0.167 HD
ATOM     50  C   UNL A   1      41.209  28.446  28.738  1.00  0.00     0.031 A 
ATOM     51  C   UNL A   1      47.793  26.737  27.085  1.00  0.00     0.031 A 
ATOM     52  C   UNL A   1      42.160  29.520  28.834  1.00  0.00     0.049 A 
ATOM     53  C   UNL A   1      47.409  28.146  27.446  1.00  0.00     0.074 A 
ATOM     54  C   UNL A   1      41.944  30.828  29.233  1.00  0.00     0.029 A 
ATOM     55  N   UNL A   1      43.507  29.412  28.521  1.00  0.00    -0.354 N 
ATOM     56  N   UNL A   1      46.237  28.617  27.794  1.00  0.00    -0.248 NA
ATOM     57  C   UNL A   1      48.478  29.155  27.414  1.00  0.00     0.031 C 
ATOM     58  C   UNL A   1      43.147  31.528  29.095  1.00  0.00     0.029 A 
ATOM     59  C   UNL A   1      44.128  30.638  28.687  1.00  0.00     0.049 A 
ATOM     60  H   UNL A   1      43.955  28.587  28.225  1.00  0.00     0.167 HD
ATOM     61  C   UNL A   1      46.432  29.967  28.059  1.00  0.00     0.074 A 
ATOM     62  C   UNL A   1      47.837  30.239  27.831  1.00  0.00     0.031 C 
ATOM     63  C   UNL A   1      45.529  30.893  28.464  1.00  0.00     0.031 A 
BRANCH  50  64
ATOM     64  C   UNL A   1      39.756  28.741  28.994  1.00  0.00    -0.014 A 
ATOM     65  C   UNL A   1      38.905  29.191  27.973  1.00  0.00     0.009 A 
ATOM     66  C   UNL A   1      39.229  28.558  30.283  1.00  0.00     0.009 A 
ATOM     67  C   UNL A   1      37.572  29.505  28.248  1.00  0.00     0.001 A 
ATOM     68  C   UNL A   1      37.887  28.836  30.547  1.00  0.00     0.001 A 
ATOM     69  C   UNL A   1      37.063  29.323  29.534  1.00  0.00     0.000 A 
ENDBRANCH  50  64
BRANCH  51  70
ATOM     70  C   UNL A   1      49.184  26.402  26.683  1.00  0.00    -0.014 A 
ATOM     71  C   UNL A   1      49.625  26.639  25.373  1.00  0.00     0.009 A 
ATOM     72  C   UNL A   1      50.089  25.867  27.616  1.00  0.00     0.009 A 
ATOM     73  C   UNL A   1      50.938  26.334  25.001  1.00  0.00     0.001 A 
ATOM     74  C   UNL A   1      51.408  25.592  27.249  1.00  0.00     0.001 A 
ATOM     75  C   UNL A   1      51.828  25.818  25.940  1.00  0.00     0.000 A 
ENDBRANCH  51  70
BRANCH  63  76
ATOM     76  C   UNL A   1      46.031  32.283  28.745  1.00  0.00    -0.014 A 
ATOM     77  C   UNL A   1      46.542  32.641  30.001  1.00  0.00     0.009 A 
ATOM     78  C   UNL A   1      46.067  33.222  27.702  1.00  0.00     0.009 A 
ATOM     79  C   UNL A   1      47.062  33.922  30.209  1.00  0.00     0.001 A 
ATOM     80  C   UNL A   1      46.615  34.489  27.905  1.00  0.00     0.001 A 
ATOM     81  C   UNL A   1      47.107  34.839  29.160  1.00  0.00     0.000 A 
ENDBRANCH  63  76
ENDBRANCH  37  38
ENDBRANCH  29  32
ENDBRANCH  27  28
ENDBRANCH  26  27
ENDBRANCH  25  26
ENDBRANCH   1  25
TORSDOF 16
ENDMDL
MODEL 3
REMARK VINA RESULT:     -10.5      3.465      7.506
REMARK SMILES CCOc1ccc(-c2nc(C(=O)NCCCCCCNC(=O)c3ccc(-c4c5nc(c(-c6ccccc6)c6ccc([nH]6)c(-c6ccccc6)c6nc(c(-c7ccccc7)c7ccc4[nH]7)C=C6)C=C5)cc3)cc(=O)[nH]2)cc1
REMARK SMILES IDX 16 1 15 2 14 3 13 4 11 5 12 6 10 8 8 9 9 10 74 11 72 12
REMARK SMILES IDX 71 14 73 15 7 16 4 17 5 18 76 19 6 20 75 21 3 22 2 23 1 24
REMARK SMILES IDX 17 25 18 26 19 27 20 28 21 29 22 31 23 32 24 33 70 34 25 35
REMARK SMILES IDX 69 36 26 37 27 38 28 39 63 40 29 41 68 42 62 43 64 44 30 45
REMARK SMILES IDX 67 46 61 47 60 48 31 50 53 51 38 52 52 53 39 54 42 55 51 56
REMARK SMILES IDX 65 57 40 58 41 59 50 61 66 62 43 63 32 64 33 65 37 66 34 67
REMARK SMILES IDX 36 68 35 69 54 70 55 71 59 72 56 73 58 74 57 75 44 76 45 77
REMARK SMILES IDX 49 78 46 79 48 80 47 81
REMARK H PARENT 13 7 74 13 20 30 64 49 42 60
REMARK Flexibility Score: inf
ROOT
ATOM      1  C   UNL A   1      31.771  29.046  26.949  1.00  0.00     0.002 C 
ENDROOT
BRANCH   1   2
ATOM      2  C   UNL A   1      33.234  28.766  27.298  1.00  0.00     0.021 C 
BRANCH   2   3
ATOM      3  C   UNL A   1      34.033  27.971  26.273  1.00  0.00     0.116 C 
BRANCH   3   4
ATOM      4  N   UNL A   1      33.804  26.543  26.343  1.00  0.00    -0.351 N 
ATOM      5  C   UNL A   1      33.321  25.641  25.439  1.00  0.00     0.270 C 
ATOM      6  O   UNL A   1      33.228  24.472  25.822  1.00  0.00    -0.268 OA
ATOM      7  H   UNL A   1      34.042  26.146  27.211  1.00  0.00     0.163 HD
BRANCH   5   8
ATOM      8  C   UNL A   1      32.867  26.029  24.044  1.00  0.00     0.136 A 
ATOM      9  C   UNL A   1      31.486  27.379  22.805  1.00  0.00     0.141 A 
ATOM     10  N   UNL A   1      32.007  27.110  23.958  1.00  0.00    -0.225 NA
ATOM     11  N   UNL A   1      31.862  26.742  21.653  1.00  0.00    -0.306 N 
ATOM     12  C   UNL A   1      32.742  25.707  21.662  1.00  0.00     0.251 A 
ATOM     13  H   UNL A   1      31.486  27.041  20.795  1.00  0.00     0.171 HD
ATOM     14  C   UNL A   1      33.159  25.254  22.991  1.00  0.00     0.105 A 
ATOM     15  O   UNL A   1      33.163  25.177  20.647  1.00  0.00    -0.269 OA
BRANCH   9  16
ATOM     16  C   UNL A   1      30.417  28.391  22.661  1.00  0.00     0.018 A 
ATOM     17  C   UNL A   1      28.384  30.250  22.262  1.00  0.00     0.119 A 
ATOM     18  C   UNL A   1      29.673  30.539  21.821  1.00  0.00     0.047 A 
ATOM     19  C   UNL A   1      28.096  29.018  22.852  1.00  0.00     0.047 A 
ATOM     20  C   UNL A   1      30.694  29.611  22.023  1.00  0.00     0.016 A 
ATOM     21  C   UNL A   1      29.115  28.086  23.059  1.00  0.00     0.016 A 
BRANCH  17  22
ATOM     22  O   UNL A   1      27.390  31.144  21.984  1.00  0.00    -0.494 OA
BRANCH  22  23
ATOM     23  C   UNL A   1      27.893  32.448  21.669  1.00  0.00     0.226 C 
ATOM     24  C   UNL A   1      27.629  32.811  20.218  1.00  0.00     0.049 C 
ENDBRANCH  22  23
ENDBRANCH  17  22
ENDBRANCH   9  16
ENDBRANCH   5   8
ENDBRANCH   3   4
ENDBRANCH   2   3
ENDBRANCH   1   2
BRANCH   1  25
ATOM     25  C   UNL A   1      31.517  30.164  25.935  1.00  0.00     0.002 C 
BRANCH  25  26
ATOM     26  C   UNL A   1      31.301  31.561  26.518  1.00  0.00     0.021 C 
BRANCH  26  27
ATOM     27  C   UNL A   1      32.569  32.370  26.750  1.00  0.00     0.116 C 
BRANCH  27  28
ATOM     28  N   UNL A   1      32.303  33.667  27.350  1.00  0.00    -0.352 N 
ATOM     29  C   UNL A   1      32.994  34.308  28.350  1.00  0.00     0.251 C 
ATOM     30  H   UNL A   1      31.524  34.151  26.991  1.00  0.00     0.163 HD
ATOM     31  O   UNL A   1      32.554  35.329  28.867  1.00  0.00    -0.269 OA
BRANCH  29  32
ATOM     32  C   UNL A   1      34.273  33.734  28.815  1.00  0.00     0.039 A 
ATOM     33  C   UNL A   1      35.474  34.314  28.398  1.00  0.00     0.014 A 
ATOM     34  C   UNL A   1      34.275  32.652  29.698  1.00  0.00     0.014 A 
ATOM     35  C   UNL A   1      36.682  33.851  28.927  1.00  0.00     0.010 A 
ATOM     36  C   UNL A   1      35.468  32.247  30.281  1.00  0.00     0.010 A 
ATOM     37  C   UNL A   1      36.684  32.841  29.901  1.00  0.00    -0.014 A 
BRANCH  37  38
ATOM     38  C   UNL A   1      37.934  32.365  30.544  1.00  0.00     0.031 A 
ATOM     39  C   UNL A   1      38.644  31.166  29.983  1.00  0.00     0.074 A 
ATOM     40  C   UNL A   1      38.360  32.928  31.690  1.00  0.00     0.049 A 
ATOM     41  N   UNL A   1      39.640  30.483  30.485  1.00  0.00    -0.248 NA
ATOM     42  C   UNL A   1      38.138  30.644  28.702  1.00  0.00     0.031 C 
ATOM     43  C   UNL A   1      37.745  34.081  32.350  1.00  0.00     0.029 A 
ATOM     44  N   UNL A   1      39.400  32.585  32.518  1.00  0.00    -0.354 N 
ATOM     45  C   UNL A   1      39.857  29.432  29.603  1.00  0.00     0.074 A 
ATOM     46  C   UNL A   1      38.859  29.543  28.559  1.00  0.00     0.031 C 
ATOM     47  C   UNL A   1      38.422  34.352  33.478  1.00  0.00     0.029 A 
ATOM     48  C   UNL A   1      39.482  33.362  33.648  1.00  0.00     0.049 A 
ATOM     49  H   UNL A   1      40.027  31.852  32.321  1.00  0.00     0.167 HD
ATOM     50  C   UNL A   1      40.804  28.466  29.651  1.00  0.00     0.031 A 
ATOM     51  C   UNL A   1      40.298  33.272  34.715  1.00  0.00     0.031 A 
ATOM     52  C   UNL A   1      41.795  28.365  30.689  1.00  0.00     0.049 A 
ATOM     53  C   UNL A   1      41.331  32.180  34.763  1.00  0.00     0.074 A 
ATOM     54  C   UNL A   1      42.839  27.464  30.797  1.00  0.00     0.029 A 
ATOM     55  N   UNL A   1      41.859  29.191  31.802  1.00  0.00    -0.354 N 
ATOM     56  N   UNL A   1      41.565  31.229  33.892  1.00  0.00    -0.248 NA
ATOM     57  C   UNL A   1      42.219  32.156  35.934  1.00  0.00     0.031 C 
ATOM     58  C   UNL A   1      43.493  27.700  32.009  1.00  0.00     0.029 A 
ATOM     59  C   UNL A   1      42.906  28.799  32.618  1.00  0.00     0.049 A 
ATOM     60  H   UNL A   1      41.250  29.943  31.984  1.00  0.00     0.167 HD
ATOM     61  C   UNL A   1      42.647  30.514  34.391  1.00  0.00     0.074 A 
ATOM     62  C   UNL A   1      43.024  31.144  35.640  1.00  0.00     0.031 C 
ATOM     63  C   UNL A   1      43.275  29.439  33.856  1.00  0.00     0.031 A 
BRANCH  50  64
ATOM     64  C   UNL A   1      40.785  27.424  28.565  1.00  0.00    -0.014 A 
ATOM     65  C   UNL A   1      41.520  27.584  27.380  1.00  0.00     0.009 A 
ATOM     66  C   UNL A   1      40.022  26.258  28.737  1.00  0.00     0.009 A 
ATOM     67  C   UNL A   1      41.447  26.626  26.366  1.00  0.00     0.001 A 
ATOM     68  C   UNL A   1      39.981  25.284  27.738  1.00  0.00     0.001 A 
ATOM     69  C   UNL A   1      40.681  25.475  26.548  1.00  0.00     0.000 A 
ENDBRANCH  50  64
BRANCH  51  70
ATOM     70  C   UNL A   1      40.167  34.252  35.825  1.00  0.00    -0.014 A 
ATOM     71  C   UNL A   1      39.362  33.967  36.938  1.00  0.00     0.009 A 
ATOM     72  C   UNL A   1      40.870  35.468  35.792  1.00  0.00     0.009 A 
ATOM     73  C   UNL A   1      39.251  34.884  37.987  1.00  0.00     0.001 A 
ATOM     74  C   UNL A   1      40.780  36.370  36.854  1.00  0.00     0.001 A 
ATOM     75  C   UNL A   1      39.965  36.080  37.947  1.00  0.00     0.000 A 
ENDBRANCH  51  70
BRANCH  63  76
ATOM     76  C   UNL A   1      44.476  28.898  34.581  1.00  0.00    -0.014 A 
ATOM     77  C   UNL A   1      45.762  29.413  34.362  1.00  0.00     0.009 A 
ATOM     78  C   UNL A   1      44.296  27.910  35.563  1.00  0.00     0.009 A 
ATOM     79  C   UNL A   1      46.847  28.934  35.102  1.00  0.00     0.001 A 
ATOM     80  C   UNL A   1      45.375  27.456  36.320  1.00  0.00     0.001 A 
ATOM     81  C   UNL A   1      46.652  27.964  36.085  1.00  0.00     0.000 A 
ENDBRANCH  63  76
ENDBRANCH  37  38
ENDBRANCH  29  32
ENDBRANCH  27  28
ENDBRANCH  26  27
ENDBRANCH  25  26
ENDBRANCH   1  25
TORSDOF 16
ENDMDL
