MODEL 1
REMARK VINA RESULT:     -10.5      0.000      0.000
REMARK SMILES CCN(C1CC1)S(=O)(=O)c1ccc(F)c(C(=O)NCCCCCCNC(=O)c2ccc(-c3c4nc(c(-c5ccccc5)c5ccc([nH]5)c(-c5ccccc5)c5nc(c(-c6ccccc6)c6ccc3[nH]6)C=C5)C=C4)cc2)c1F
REMARK SMILES IDX 21 1 20 2 19 3 18 4 16 5 17 6 15 8 10 9 11 10 76 11 12 12
REMARK SMILES IDX 77 13 13 14 14 15 7 16 8 17 9 18 3 19 2 20 1 21 4 22 5 23
REMARK SMILES IDX 6 24 22 25 23 26 24 27 25 28 26 29 27 31 28 32 29 33 75 34
REMARK SMILES IDX 30 35 74 36 31 37 32 38 33 39 68 40 34 41 73 42 67 43 69 44
REMARK SMILES IDX 35 45 72 46 66 47 65 48 36 50 58 51 43 52 57 53 44 54 47 55
REMARK SMILES IDX 56 56 70 57 45 58 46 59 55 61 71 62 48 63 37 64 38 65 42 66
REMARK SMILES IDX 39 67 41 68 40 69 59 70 60 71 64 72 61 73 63 74 62 75 49 76
REMARK SMILES IDX 50 77 54 78 51 79 53 80 52 81
REMARK H PARENT 18 7 25 30 69 49 47 60
REMARK Flexibility Score: inf
ROOT
ATOM      1  C   UNL A   1      30.477  30.264  24.270  1.00  0.00     0.002 C 
ENDROOT
BRANCH   1   2
ATOM      2  C   UNL A   1      30.187  28.820  23.838  1.00  0.00     0.021 C 
BRANCH   2   3
ATOM      3  C   UNL A   1      30.647  28.492  22.412  1.00  0.00     0.116 C 
BRANCH   3   4
ATOM      4  N   UNL A   1      32.058  28.795  22.263  1.00  0.00    -0.352 N 
ATOM      5  C   UNL A   1      33.197  28.326  22.861  1.00  0.00     0.257 C 
ATOM      6  O   UNL A   1      34.237  28.917  22.568  1.00  0.00    -0.269 OA
ATOM      7  H   UNL A   1      32.234  29.487  21.585  1.00  0.00     0.163 HD
BRANCH   5   8
ATOM      8  C   UNL A   1      33.267  27.170  23.794  1.00  0.00     0.112 A 
ATOM      9  C   UNL A   1      33.269  24.740  24.030  1.00  0.00     0.119 A 
ATOM     10  C   UNL A   1      33.533  24.849  25.396  1.00  0.00     0.028 A 
ATOM     11  C   UNL A   1      33.094  25.884  23.249  1.00  0.00     0.158 A 
ATOM     12  C   UNL A   1      33.688  26.112  25.953  1.00  0.00     0.042 A 
ATOM     13  F   UNL A   1      32.742  25.740  21.962  1.00  0.00    -0.205 F 
ATOM     14  C   UNL A   1      33.611  27.251  25.145  1.00  0.00     0.139 A 
ATOM     15  F   UNL A   1      33.962  28.403  25.727  1.00  0.00    -0.206 F 
BRANCH   9  16
ATOM     16  S   UNL A   1      33.464  23.166  23.234  1.00  0.00     0.246 S 
ATOM     17  O   UNL A   1      34.165  23.404  21.988  1.00  0.00    -0.207 OA
ATOM     18  O   UNL A   1      32.154  22.549  23.204  1.00  0.00    -0.207 OA
BRANCH  16  19
ATOM     19  N   UNL A   1      34.511  22.258  24.251  1.00  0.00    -0.195 NA
BRANCH  19  20
ATOM     20  C   UNL A   1      34.066  20.864  24.541  1.00  0.00     0.099 C 
ATOM     21  C   UNL A   1      33.479  20.684  25.930  1.00  0.00     0.022 C 
ENDBRANCH  19  20
BRANCH  19  22
ATOM     22  C   UNL A   1      35.959  22.387  23.930  1.00  0.00     0.073 C 
ATOM     23  C   UNL A   1      36.972  23.148  24.750  1.00  0.00     0.022 C 
ATOM     24  C   UNL A   1      37.030  21.654  24.698  1.00  0.00     0.022 C 
ENDBRANCH  19  22
ENDBRANCH  16  19
ENDBRANCH   9  16
ENDBRANCH   5   8
ENDBRANCH   3   4
ENDBRANCH   2   3
ENDBRANCH   1   2
BRANCH   1  25
ATOM     25  C   UNL A   1      31.365  30.404  25.512  1.00  0.00     0.002 C 
BRANCH  25  26
ATOM     26  C   UNL A   1      31.206  31.718  26.285  1.00  0.00     0.021 C 
BRANCH  26  27
ATOM     27  C   UNL A   1      32.476  32.218  26.969  1.00  0.00     0.116 C 
BRANCH  27  28
ATOM     28  N   UNL A   1      32.316  33.561  27.500  1.00  0.00    -0.352 N 
ATOM     29  C   UNL A   1      33.088  34.243  28.407  1.00  0.00     0.251 C 
ATOM     30  H   UNL A   1      31.536  34.056  27.159  1.00  0.00     0.163 HD
ATOM     31  O   UNL A   1      32.681  35.294  28.891  1.00  0.00    -0.269 OA
BRANCH  29  32
ATOM     32  C   UNL A   1      34.406  33.711  28.818  1.00  0.00     0.039 A 
ATOM     33  C   UNL A   1      34.491  32.972  30.001  1.00  0.00     0.014 A 
ATOM     34  C   UNL A   1      35.560  33.973  28.071  1.00  0.00     0.014 A 
ATOM     35  C   UNL A   1      35.722  32.456  30.410  1.00  0.00     0.010 A 
ATOM     36  C   UNL A   1      36.777  33.406  28.448  1.00  0.00     0.010 A 
ATOM     37  C   UNL A   1      36.871  32.647  29.625  1.00  0.00    -0.014 A 
BRANCH  37  38
ATOM     38  C   UNL A   1      38.170  32.052  30.026  1.00  0.00     0.031 A 
ATOM     39  C   UNL A   1      39.080  32.770  30.983  1.00  0.00     0.074 A 
ATOM     40  C   UNL A   1      38.548  30.872  29.495  1.00  0.00     0.049 A 
ATOM     41  N   UNL A   1      40.243  32.394  31.454  1.00  0.00    -0.248 NA
ATOM     42  C   UNL A   1      38.639  34.091  31.456  1.00  0.00     0.031 C 
ATOM     43  C   UNL A   1      37.779  30.099  28.518  1.00  0.00     0.029 A 
ATOM     44  N   UNL A   1      39.672  30.117  29.708  1.00  0.00    -0.354 N 
ATOM     45  C   UNL A   1      40.676  33.434  32.266  1.00  0.00     0.074 A 
ATOM     46  C   UNL A   1      39.675  34.476  32.188  1.00  0.00     0.031 C 
ATOM     47  C   UNL A   1      38.438  28.962  28.242  1.00  0.00     0.029 A 
ATOM     48  C   UNL A   1      39.686  28.940  29.001  1.00  0.00     0.049 A 
ATOM     49  H   UNL A   1      40.402  30.392  30.309  1.00  0.00     0.167 HD
ATOM     50  C   UNL A   1      41.797  33.509  33.025  1.00  0.00     0.031 A 
ATOM     51  C   UNL A   1      40.594  27.947  28.972  1.00  0.00     0.031 A 
ATOM     52  C   UNL A   1      42.789  32.471  33.112  1.00  0.00     0.049 A 
ATOM     53  C   UNL A   1      41.817  28.045  29.838  1.00  0.00     0.074 A 
ATOM     54  C   UNL A   1      43.932  32.432  33.893  1.00  0.00     0.029 A 
ATOM     55  N   UNL A   1      42.756  31.287  32.393  1.00  0.00    -0.354 N 
ATOM     56  N   UNL A   1      42.177  29.005  30.655  1.00  0.00    -0.248 NA
ATOM     57  C   UNL A   1      42.750  26.910  29.791  1.00  0.00     0.031 C 
ATOM     58  C   UNL A   1      44.610  31.240  33.616  1.00  0.00     0.029 A 
ATOM     59  C   UNL A   1      43.865  30.516  32.700  1.00  0.00     0.049 A 
ATOM     60  H   UNL A   1      42.048  31.031  31.758  1.00  0.00     0.167 HD
ATOM     61  C   UNL A   1      43.362  28.579  31.240  1.00  0.00     0.074 A 
ATOM     62  C   UNL A   1      43.650  27.268  30.696  1.00  0.00     0.031 C 
ATOM     63  C   UNL A   1      44.141  29.215  32.147  1.00  0.00     0.031 A 
BRANCH  50  64
ATOM     64  C   UNL A   1      42.008  34.767  33.821  1.00  0.00    -0.014 A 
ATOM     65  C   UNL A   1      41.503  34.893  35.126  1.00  0.00     0.009 A 
ATOM     66  C   UNL A   1      42.746  35.827  33.273  1.00  0.00     0.009 A 
ATOM     67  C   UNL A   1      41.703  36.069  35.851  1.00  0.00     0.001 A 
ATOM     68  C   UNL A   1      42.967  36.992  34.011  1.00  0.00     0.001 A 
ATOM     69  C   UNL A   1      42.437  37.116  35.295  1.00  0.00     0.000 A 
ENDBRANCH  50  64
BRANCH  51  70
ATOM     70  C   UNL A   1      40.359  26.752  28.123  1.00  0.00    -0.014 A 
ATOM     71  C   UNL A   1      40.912  26.679  26.834  1.00  0.00     0.009 A 
ATOM     72  C   UNL A   1      39.584  25.681  28.593  1.00  0.00     0.009 A 
ATOM     73  C   UNL A   1      40.671  25.567  26.024  1.00  0.00     0.001 A 
ATOM     74  C   UNL A   1      39.368  24.560  27.790  1.00  0.00     0.001 A 
ATOM     75  C   UNL A   1      39.904  24.507  26.504  1.00  0.00     0.000 A 
ENDBRANCH  51  70
BRANCH  63  76
ATOM     76  C   UNL A   1      45.361  28.485  32.630  1.00  0.00    -0.014 A 
ATOM     77  C   UNL A   1      46.623  28.719  32.061  1.00  0.00     0.009 A 
ATOM     78  C   UNL A   1      45.247  27.561  33.680  1.00  0.00     0.009 A 
ATOM     79  C   UNL A   1      47.740  28.010  32.508  1.00  0.00     0.001 A 
ATOM     80  C   UNL A   1      46.370  26.874  34.144  1.00  0.00     0.001 A 
ATOM     81  C   UNL A   1      47.612  27.091  33.550  1.00  0.00     0.000 A 
ENDBRANCH  63  76
ENDBRANCH  37  38
ENDBRANCH  29  32
ENDBRANCH  27  28
ENDBRANCH  26  27
ENDBRANCH  25  26
ENDBRANCH   1  25
TORSDOF 17
ENDMDL
MODEL 2
REMARK VINA RESULT:     -10.2      0.696      5.891
REMARK SMILES CCN(C1CC1)S(=O)(=O)c1ccc(F)c(C(=O)NCCCCCCNC(=O)c2ccc(-c3c4nc(c(-c5ccccc5)c5ccc([nH]5)c(-c5ccccc5)c5nc(c(-c6ccccc6)c6ccc3[nH]6)C=C5)C=C4)cc2)c1F
REMARK SMILES IDX 21 1 20 2 19 3 18 4 16 5 17 6 15 8 10 9 11 10 76 11 12 12
REMARK SMILES IDX 77 13 13 14 14 15 7 16 8 17 9 18 3 19 2 20 1 21 4 22 5 23
REMARK SMILES IDX 6 24 22 25 23 26 24 27 25 28 26 29 27 31 28 32 29 33 75 34
REMARK SMILES IDX 30 35 74 36 31 37 32 38 33 39 68 40 34 41 73 42 67 43 69 44
REMARK SMILES IDX 35 45 72 46 66 47 65 48 36 50 58 51 43 52 57 53 44 54 47 55
REMARK SMILES IDX 56 56 70 57 45 58 46 59 55 61 71 62 48 63 37 64 38 65 42 66
REMARK SMILES IDX 39 67 41 68 40 69 59 70 60 71 64 72 61 73 63 74 62 75 49 76
REMARK SMILES IDX 50 77 54 78 51 79 53 80 52 81
REMARK H PARENT 18 7 25 30 69 49 47 60
REMARK Flexibility Score: inf
ROOT
ATOM      1  C   UNL A   1      30.711  30.310  24.644  1.00  0.00     0.002 C 
ENDROOT
BRANCH   1   2
ATOM      2  C   UNL A   1      30.652  28.836  24.218  1.00  0.00     0.021 C 
BRANCH   2   3
ATOM      3  C   UNL A   1      30.812  28.618  22.707  1.00  0.00     0.116 C 
BRANCH   3   4
ATOM      4  N   UNL A   1      32.209  28.731  22.334  1.00  0.00    -0.352 N 
ATOM      5  C   UNL A   1      33.362  28.148  22.787  1.00  0.00     0.257 C 
ATOM      6  O   UNL A   1      34.408  28.588  22.306  1.00  0.00    -0.269 OA
ATOM      7  H   UNL A   1      32.360  29.363  21.594  1.00  0.00     0.163 HD
BRANCH   5   8
ATOM      8  C   UNL A   1      33.437  27.037  23.772  1.00  0.00     0.112 A 
ATOM      9  C   UNL A   1      33.553  24.622  24.113  1.00  0.00     0.119 A 
ATOM     10  C   UNL A   1      33.727  24.800  25.486  1.00  0.00     0.028 A 
ATOM     11  C   UNL A   1      33.366  25.722  23.273  1.00  0.00     0.158 A 
ATOM     12  C   UNL A   1      33.781  26.092  25.996  1.00  0.00     0.042 A 
ATOM     13  F   UNL A   1      33.101  25.507  21.976  1.00  0.00    -0.205 F 
ATOM     14  C   UNL A   1      33.693  27.191  25.135  1.00  0.00     0.139 A 
ATOM     15  F   UNL A   1      33.946  28.384  25.686  1.00  0.00    -0.206 F 
BRANCH   9  16
ATOM     16  S   UNL A   1      33.881  23.030  23.399  1.00  0.00     0.246 S 
ATOM     17  O   UNL A   1      34.713  23.251  22.233  1.00  0.00    -0.207 OA
ATOM     18  O   UNL A   1      32.600  22.373  23.242  1.00  0.00    -0.207 OA
BRANCH  16  19
ATOM     19  N   UNL A   1      34.829  22.188  24.558  1.00  0.00    -0.195 NA
BRANCH  19  20
ATOM     20  C   UNL A   1      34.284  20.866  24.987  1.00  0.00     0.099 C 
ATOM     21  C   UNL A   1      33.630  20.889  26.357  1.00  0.00     0.022 C 
ENDBRANCH  19  20
BRANCH  19  22
ATOM     22  C   UNL A   1      36.293  22.191  24.289  1.00  0.00     0.073 C 
ATOM     23  C   UNL A   1      37.359  22.647  25.256  1.00  0.00     0.022 C 
ATOM     24  C   UNL A   1      37.237  21.196  24.915  1.00  0.00     0.022 C 
ENDBRANCH  19  22
ENDBRANCH  16  19
ENDBRANCH   9  16
ENDBRANCH   5   8
ENDBRANCH   3   4
ENDBRANCH   2   3
ENDBRANCH   1   2
BRANCH   1  25
ATOM     25  C   UNL A   1      31.399  30.569  25.990  1.00  0.00     0.002 C 
BRANCH  25  26
ATOM     26  C   UNL A   1      31.300  32.008  26.508  1.00  0.00     0.021 C 
BRANCH  26  27
ATOM     27  C   UNL A   1      32.635  32.650  26.877  1.00  0.00     0.116 C 
BRANCH  27  28
ATOM     28  N   UNL A   1      32.457  33.925  27.553  1.00  0.00    -0.352 N 
ATOM     29  C   UNL A   1      33.133  34.449  28.626  1.00  0.00     0.251 C 
ATOM     30  H   UNL A   1      31.745  34.497  27.186  1.00  0.00     0.163 HD
ATOM     31  O   UNL A   1      32.706  35.453  29.188  1.00  0.00    -0.269 OA
BRANCH  29  32
ATOM     32  C   UNL A   1      34.369  33.804  29.121  1.00  0.00     0.039 A 
ATOM     33  C   UNL A   1      35.586  34.140  28.522  1.00  0.00     0.014 A 
ATOM     34  C   UNL A   1      34.330  32.843  30.137  1.00  0.00     0.014 A 
ATOM     35  C   UNL A   1      36.768  33.549  28.972  1.00  0.00     0.010 A 
ATOM     36  C   UNL A   1      35.517  32.299  30.626  1.00  0.00     0.010 A 
ATOM     37  C   UNL A   1      36.747  32.642  30.045  1.00  0.00    -0.014 A 
BRANCH  37  38
ATOM     38  C   UNL A   1      38.007  32.055  30.564  1.00  0.00     0.031 A 
ATOM     39  C   UNL A   1      38.571  30.797  29.966  1.00  0.00     0.074 A 
ATOM     40  C   UNL A   1      38.628  32.640  31.607  1.00  0.00     0.049 A 
ATOM     41  N   UNL A   1      39.666  30.151  30.284  1.00  0.00    -0.248 NA
ATOM     42  C   UNL A   1      37.795  30.167  28.886  1.00  0.00     0.031 C 
ATOM     43  C   UNL A   1      38.157  33.837  32.309  1.00  0.00     0.029 A 
ATOM     44  N   UNL A   1      39.790  32.310  32.254  1.00  0.00    -0.354 N 
ATOM     45  C   UNL A   1      39.703  29.038  29.454  1.00  0.00     0.074 A 
ATOM     46  C   UNL A   1      38.499  29.069  28.651  1.00  0.00     0.031 C 
ATOM     47  C   UNL A   1      39.041  34.159  33.267  1.00  0.00     0.029 A 
ATOM     48  C   UNL A   1      40.124  33.179  33.263  1.00  0.00     0.049 A 
ATOM     49  H   UNL A   1      40.335  31.524  32.019  1.00  0.00     0.167 HD
ATOM     50  C   UNL A   1      40.662  28.086  29.354  1.00  0.00     0.031 A 
ATOM     51  C   UNL A   1      41.188  33.195  34.088  1.00  0.00     0.031 A 
ATOM     52  C   UNL A   1      41.864  28.057  30.143  1.00  0.00     0.049 A 
ATOM     53  C   UNL A   1      42.246  32.140  33.943  1.00  0.00     0.074 A 
ATOM     54  C   UNL A   1      42.919  27.162  30.079  1.00  0.00     0.029 A 
ATOM     55  N   UNL A   1      42.172  28.966  31.143  1.00  0.00    -0.354 N 
ATOM     56  N   UNL A   1      42.301  31.133  33.105  1.00  0.00    -0.248 NA
ATOM     57  C   UNL A   1      43.400  32.236  34.847  1.00  0.00     0.031 C 
ATOM     58  C   UNL A   1      43.847  27.509  31.066  1.00  0.00     0.029 A 
ATOM     59  C   UNL A   1      43.394  28.647  31.713  1.00  0.00     0.049 A 
ATOM     60  H   UNL A   1      41.606  29.727  31.408  1.00  0.00     0.167 HD
ATOM     61  C   UNL A   1      43.505  30.493  33.360  1.00  0.00     0.074 A 
ATOM     62  C   UNL A   1      44.158  31.235  34.420  1.00  0.00     0.031 C 
ATOM     63  C   UNL A   1      44.027  29.391  32.770  1.00  0.00     0.031 A 
BRANCH  50  64
ATOM     64  C   UNL A   1      40.441  26.988  28.350  1.00  0.00    -0.014 A 
ATOM     65  C   UNL A   1      40.951  27.085  27.044  1.00  0.00     0.009 A 
ATOM     66  C   UNL A   1      39.742  25.829  28.721  1.00  0.00     0.009 A 
ATOM     67  C   UNL A   1      40.734  26.060  26.122  1.00  0.00     0.001 A 
ATOM     68  C   UNL A   1      39.549  24.794  27.803  1.00  0.00     0.001 A 
ATOM     69  C   UNL A   1      40.036  24.914  26.502  1.00  0.00     0.000 A 
ENDBRANCH  50  64
BRANCH  51  70
ATOM     70  C   UNL A   1      41.325  34.273  35.100  1.00  0.00    -0.014 A 
ATOM     71  C   UNL A   1      40.812  34.100  36.395  1.00  0.00     0.009 A 
ATOM     72  C   UNL A   1      41.968  35.478  34.778  1.00  0.00     0.009 A 
ATOM     73  C   UNL A   1      40.917  35.122  37.340  1.00  0.00     0.001 A 
ATOM     74  C   UNL A   1      42.095  36.488  35.734  1.00  0.00     0.001 A 
ATOM     75  C   UNL A   1      41.563  36.313  37.011  1.00  0.00     0.000 A 
ENDBRANCH  51  70
BRANCH  63  76
ATOM     76  C   UNL A   1      45.382  28.943  33.238  1.00  0.00    -0.014 A 
ATOM     77  C   UNL A   1      46.556  29.439  32.649  1.00  0.00     0.009 A 
ATOM     78  C   UNL A   1      45.483  28.024  34.293  1.00  0.00     0.009 A 
ATOM     79  C   UNL A   1      47.805  28.990  33.083  1.00  0.00     0.001 A 
ATOM     80  C   UNL A   1      46.734  27.598  34.743  1.00  0.00     0.001 A 
ATOM     81  C   UNL A   1      47.892  28.072  34.131  1.00  0.00     0.000 A 
ENDBRANCH  63  76
ENDBRANCH  37  38
ENDBRANCH  29  32
ENDBRANCH  27  28
ENDBRANCH  26  27
ENDBRANCH  25  26
ENDBRANCH   1  25
TORSDOF 17
ENDMDL
MODEL 3
REMARK VINA RESULT:     -10.2      1.937      7.809
REMARK SMILES CCN(C1CC1)S(=O)(=O)c1ccc(F)c(C(=O)NCCCCCCNC(=O)c2ccc(-c3c4nc(c(-c5ccccc5)c5ccc([nH]5)c(-c5ccccc5)c5nc(c(-c6ccccc6)c6ccc3[nH]6)C=C5)C=C4)cc2)c1F
REMARK SMILES IDX 21 1 20 2 19 3 18 4 16 5 17 6 15 8 10 9 11 10 76 11 12 12
REMARK SMILES IDX 77 13 13 14 14 15 7 16 8 17 9 18 3 19 2 20 1 21 4 22 5 23
REMARK SMILES IDX 6 24 22 25 23 26 24 27 25 28 26 29 27 31 28 32 29 33 75 34
REMARK SMILES IDX 30 35 74 36 31 37 32 38 33 39 68 40 34 41 73 42 67 43 69 44
REMARK SMILES IDX 35 45 72 46 66 47 65 48 36 50 58 51 43 52 57 53 44 54 47 55
REMARK SMILES IDX 56 56 70 57 45 58 46 59 55 61 71 62 48 63 37 64 38 65 42 66
REMARK SMILES IDX 39 67 41 68 40 69 59 70 60 71 64 72 61 73 63 74 62 75 49 76
REMARK SMILES IDX 50 77 54 78 51 79 53 80 52 81
REMARK H PARENT 18 7 25 30 69 49 47 60
REMARK Flexibility Score: inf
ROOT
ATOM      1  C   UNL A   1      35.143  21.908  25.951  1.00  0.00     0.002 C 
ENDROOT
BRANCH   1   2
ATOM      2  C   UNL A   1      33.793  21.496  26.555  1.00  0.00     0.021 C 
BRANCH   2   3
ATOM      3  C   UNL A   1      33.364  22.346  27.758  1.00  0.00     0.116 C 
BRANCH   3   4
ATOM      4  N   UNL A   1      31.931  22.568  27.724  1.00  0.00    -0.352 N 
ATOM      5  C   UNL A   1      31.100  23.279  26.899  1.00  0.00     0.257 C 
ATOM      6  O   UNL A   1      29.923  23.346  27.255  1.00  0.00    -0.269 OA
ATOM      7  H   UNL A   1      31.452  22.108  28.450  1.00  0.00     0.163 HD
BRANCH   5   8
ATOM      8  C   UNL A   1      31.505  23.936  25.628  1.00  0.00     0.112 A 
ATOM      9  C   UNL A   1      32.415  25.940  24.570  1.00  0.00     0.119 A 
ATOM     10  C   UNL A   1      32.463  25.295  23.334  1.00  0.00     0.028 A 
ATOM     11  C   UNL A   1      31.902  25.285  25.692  1.00  0.00     0.158 A 
ATOM     12  C   UNL A   1      32.057  23.968  23.251  1.00  0.00     0.042 A 
ATOM     13  F   UNL A   1      31.778  25.970  26.839  1.00  0.00    -0.205 F 
ATOM     14  C   UNL A   1      31.638  23.288  24.399  1.00  0.00     0.139 A 
ATOM     15  F   UNL A   1      31.452  21.971  24.260  1.00  0.00    -0.206 F 
BRANCH   9  16
ATOM     16  S   UNL A   1      33.288  27.471  24.782  1.00  0.00     0.246 S 
ATOM     17  O   UNL A   1      34.026  27.711  23.558  1.00  0.00    -0.207 OA
ATOM     18  O   UNL A   1      34.007  27.370  26.035  1.00  0.00    -0.207 OA
BRANCH  16  19
ATOM     19  N   UNL A   1      32.077  28.684  24.902  1.00  0.00    -0.195 NA
BRANCH  19  20
ATOM     20  C   UNL A   1      32.510  29.954  25.555  1.00  0.00     0.099 C 
ATOM     21  C   UNL A   1      31.944  30.149  26.950  1.00  0.00     0.022 C 
ENDBRANCH  19  20
BRANCH  19  22
ATOM     22  C   UNL A   1      31.258  28.873  23.673  1.00  0.00     0.073 C 
ATOM     23  C   UNL A   1      29.900  28.263  23.423  1.00  0.00     0.022 C 
ATOM     24  C   UNL A   1      30.023  29.737  23.644  1.00  0.00     0.022 C 
ENDBRANCH  19  22
ENDBRANCH  16  19
ENDBRANCH   9  16
ENDBRANCH   5   8
ENDBRANCH   3   4
ENDBRANCH   2   3
ENDBRANCH   1   2
BRANCH   1  25
ATOM     25  C   UNL A   1      35.104  22.272  24.462  1.00  0.00     0.002 C 
BRANCH  25  26
ATOM     26  C   UNL A   1      36.240  23.181  23.981  1.00  0.00     0.021 C 
BRANCH  26  27
ATOM     27  C   UNL A   1      37.168  23.685  25.083  1.00  0.00     0.116 C 
BRANCH  27  28
ATOM     28  N   UNL A   1      38.220  22.729  25.387  1.00  0.00    -0.352 N 
ATOM     29  C   UNL A   1      39.415  22.918  26.034  1.00  0.00     0.251 C 
ATOM     30  H   UNL A   1      38.051  21.808  25.081  1.00  0.00     0.163 HD
ATOM     31  O   UNL A   1      40.268  22.036  26.016  1.00  0.00    -0.269 OA
BRANCH  29  32
ATOM     32  C   UNL A   1      39.690  24.186  26.745  1.00  0.00     0.039 A 
ATOM     33  C   UNL A   1      39.182  24.354  28.036  1.00  0.00     0.014 A 
ATOM     34  C   UNL A   1      40.404  25.222  26.133  1.00  0.00     0.014 A 
ATOM     35  C   UNL A   1      39.429  25.540  28.730  1.00  0.00     0.010 A 
ATOM     36  C   UNL A   1      40.702  26.380  26.850  1.00  0.00     0.010 A 
ATOM     37  C   UNL A   1      40.212  26.554  28.153  1.00  0.00    -0.014 A 
BRANCH  37  38
ATOM     38  C   UNL A   1      40.526  27.791  28.910  1.00  0.00     0.031 A 
ATOM     39  C   UNL A   1      41.852  27.954  29.598  1.00  0.00     0.074 A 
ATOM     40  C   UNL A   1      39.594  28.759  29.008  1.00  0.00     0.049 A 
ATOM     41  N   UNL A   1      42.302  28.970  30.292  1.00  0.00    -0.248 NA
ATOM     42  C   UNL A   1      42.787  26.821  29.518  1.00  0.00     0.031 C 
ATOM     43  C   UNL A   1      38.250  28.703  28.428  1.00  0.00     0.029 A 
ATOM     44  N   UNL A   1      39.639  29.982  29.627  1.00  0.00    -0.354 N 
ATOM     45  C   UNL A   1      43.563  28.595  30.738  1.00  0.00     0.074 A 
ATOM     46  C   UNL A   1      43.789  27.242  30.278  1.00  0.00     0.031 C 
ATOM     47  C   UNL A   1      37.611  29.854  28.690  1.00  0.00     0.029 A 
ATOM     48  C   UNL A   1      38.488  30.716  29.477  1.00  0.00     0.049 A 
ATOM     49  H   UNL A   1      40.420  30.304  30.132  1.00  0.00     0.167 HD
ATOM     50  C   UNL A   1      44.461  29.318  31.450  1.00  0.00     0.031 A 
ATOM     51  C   UNL A   1      38.175  31.951  29.913  1.00  0.00     0.031 A 
ATOM     52  C   UNL A   1      44.244  30.667  31.901  1.00  0.00     0.049 A 
ATOM     53  C   UNL A   1      39.196  32.739  30.682  1.00  0.00     0.074 A 
ATOM     54  C   UNL A   1      45.113  31.500  32.583  1.00  0.00     0.029 A 
ATOM     55  N   UNL A   1      43.071  31.381  31.712  1.00  0.00    -0.354 N 
ATOM     56  N   UNL A   1      40.411  32.396  31.036  1.00  0.00    -0.248 NA
ATOM     57  C   UNL A   1      38.807  34.094  31.096  1.00  0.00     0.031 C 
ATOM     58  C   UNL A   1      44.452  32.705  32.842  1.00  0.00     0.029 A 
ATOM     59  C   UNL A   1      43.188  32.640  32.278  1.00  0.00     0.049 A 
ATOM     60  H   UNL A   1      42.273  31.043  31.245  1.00  0.00     0.167 HD
ATOM     61  C   UNL A   1      40.941  33.500  31.688  1.00  0.00     0.074 A 
ATOM     62  C   UNL A   1      39.922  34.529  31.667  1.00  0.00     0.031 C 
ATOM     63  C   UNL A   1      42.163  33.651  32.253  1.00  0.00     0.031 A 
BRANCH  50  64
ATOM     64  C   UNL A   1      45.767  28.653  31.789  1.00  0.00    -0.014 A 
ATOM     65  C   UNL A   1      46.887  28.784  30.951  1.00  0.00     0.009 A 
ATOM     66  C   UNL A   1      45.889  27.914  32.975  1.00  0.00     0.009 A 
ATOM     67  C   UNL A   1      48.091  28.158  31.277  1.00  0.00     0.001 A 
ATOM     68  C   UNL A   1      47.103  27.310  33.312  1.00  0.00     0.001 A 
ATOM     69  C   UNL A   1      48.200  27.424  32.458  1.00  0.00     0.000 A 
ENDBRANCH  50  64
BRANCH  51  70
ATOM     70  C   UNL A   1      36.848  32.535  29.596  1.00  0.00    -0.014 A 
ATOM     71  C   UNL A   1      35.780  32.398  30.496  1.00  0.00     0.009 A 
ATOM     72  C   UNL A   1      36.641  33.230  28.395  1.00  0.00     0.009 A 
ATOM     73  C   UNL A   1      34.523  32.925  30.188  1.00  0.00     0.001 A 
ATOM     74  C   UNL A   1      35.390  33.778  28.102  1.00  0.00     0.001 A 
ATOM     75  C   UNL A   1      34.331  33.618  28.994  1.00  0.00     0.000 A 
ENDBRANCH  51  70
BRANCH  63  76
ATOM     76  C   UNL A   1      42.472  34.987  32.864  1.00  0.00    -0.014 A 
ATOM     77  C   UNL A   1      43.256  35.935  32.187  1.00  0.00     0.009 A 
ATOM     78  C   UNL A   1      41.957  35.307  34.130  1.00  0.00     0.009 A 
ATOM     79  C   UNL A   1      43.551  37.162  32.785  1.00  0.00     0.001 A 
ATOM     80  C   UNL A   1      42.232  36.545  34.713  1.00  0.00     0.001 A 
ATOM     81  C   UNL A   1      43.037  37.466  34.045  1.00  0.00     0.000 A 
ENDBRANCH  63  76
ENDBRANCH  37  38
ENDBRANCH  29  32
ENDBRANCH  27  28
ENDBRANCH  26  27
ENDBRANCH  25  26
ENDBRANCH   1  25
TORSDOF 17
ENDMDL
