MODEL 1
REMARK VINA RESULT:     -11.4      0.000      0.000
REMARK SMILES CS(=O)(=O)c1ccc(N2N=C(C(=O)NCCCCCCNC(=O)c3ccc(-c4c5nc(c(-c6ccccc6)c6ccc([nH]6)c(-c6ccccc6)c6nc(c(-c7ccccc7)c7ccc4[nH]7)C=C6)C=C5)cc3)C[C@H]2c2ccco2)cc1
REMARK SMILES IDX 17 1 16 2 15 3 14 4 12 5 13 6 11 8 9 9 10 10 73 11 72 12
REMARK SMILES IDX 8 13 5 14 6 15 80 16 7 17 79 18 2 19 1 20 3 21 4 22 74 23
REMARK SMILES IDX 75 24 78 25 76 26 77 27 18 28 19 29 20 30 21 31 22 32 23 34
REMARK SMILES IDX 24 35 25 36 71 37 26 38 70 39 27 40 28 41 29 42 64 43 30 44
REMARK SMILES IDX 69 45 63 46 65 47 31 48 68 49 62 50 61 51 32 53 54 54 39 55
REMARK SMILES IDX 53 56 40 57 43 58 52 59 66 60 41 61 42 62 51 64 67 65 44 66
REMARK SMILES IDX 33 67 34 68 38 69 35 70 37 71 36 72 55 73 56 74 60 75 57 76
REMARK SMILES IDX 59 77 58 78 45 79 46 80 50 81 47 82 49 83 48 84
REMARK H PARENT 14 7 21 33 65 52 43 63
REMARK Flexibility Score: inf
ROOT
ATOM      1  C   UNL A   1      31.076  28.935  24.685  1.00  0.00     0.002 C 
ENDROOT
BRANCH   1   2
ATOM      2  C   UNL A   1      30.969  28.303  23.295  1.00  0.00     0.021 C 
BRANCH   2   3
ATOM      3  C   UNL A   1      30.695  26.803  23.316  1.00  0.00     0.116 C 
BRANCH   3   4
ATOM      4  N   UNL A   1      30.473  26.333  24.667  1.00  0.00    -0.351 N 
ATOM      5  C   UNL A   1      30.904  25.247  25.383  1.00  0.00     0.267 C 
ATOM      6  O   UNL A   1      30.430  25.083  26.506  1.00  0.00    -0.268 OA
ATOM      7  H   UNL A   1      29.883  26.926  25.187  1.00  0.00     0.163 HD
BRANCH   5   8
ATOM      8  C   UNL A   1      31.960  24.271  24.890  1.00  0.00     0.128 C 
ATOM      9  N   UNL A   1      33.006  22.423  24.700  1.00  0.00    -0.254 N 
ATOM     10  N   UNL A   1      31.831  22.991  25.078  1.00  0.00    -0.171 NA
ATOM     11  C   UNL A   1      33.936  23.350  24.050  1.00  0.00     0.180 C 
ATOM     12  C   UNL A   1      33.207  24.688  24.190  1.00  0.00     0.099 C 
BRANCH   9  13
ATOM     13  C   UNL A   1      33.110  21.045  24.562  1.00  0.00     0.060 A 
ATOM     14  C   UNL A   1      33.401  18.267  24.263  1.00  0.00     0.067 A 
ATOM     15  C   UNL A   1      32.512  18.959  23.442  1.00  0.00     0.022 A 
ATOM     16  C   UNL A   1      34.122  18.941  25.250  1.00  0.00     0.022 A 
ATOM     17  C   UNL A   1      32.363  20.343  23.604  1.00  0.00     0.029 A 
ATOM     18  C   UNL A   1      33.963  20.317  25.398  1.00  0.00     0.029 A 
BRANCH  14  19
ATOM     19  S   UNL A   1      33.697  16.525  24.111  1.00  0.00     0.175 S 
ATOM     20  C   UNL A   1      35.120  16.143  25.087  1.00  0.00     0.163 C 
ATOM     21  O   UNL A   1      34.034  16.282  22.721  1.00  0.00    -0.224 OA
ATOM     22  O   UNL A   1      32.566  15.865  24.735  1.00  0.00    -0.224 OA
ENDBRANCH  14  19
ENDBRANCH   9  13
BRANCH  11  23
ATOM     23  C   UNL A   1      35.350  23.409  24.553  1.00  0.00     0.128 A 
ATOM     24  C   UNL A   1      36.535  22.881  24.077  1.00  0.00     0.048 A 
ATOM     25  O   UNL A   1      35.599  24.118  25.696  1.00  0.00    -0.467 OA
ATOM     26  C   UNL A   1      37.546  23.261  24.990  1.00  0.00     0.042 A 
ATOM     27  C   UNL A   1      36.928  24.028  25.947  1.00  0.00     0.195 A 
ENDBRANCH  11  23
ENDBRANCH   5   8
ENDBRANCH   3   4
ENDBRANCH   2   3
ENDBRANCH   1   2
BRANCH   1  28
ATOM     28  C   UNL A   1      32.477  29.429  25.064  1.00  0.00     0.002 C 
BRANCH  28  29
ATOM     29  C   UNL A   1      33.364  28.396  25.765  1.00  0.00     0.021 C 
BRANCH  29  30
ATOM     30  C   UNL A   1      33.533  28.619  27.263  1.00  0.00     0.116 C 
BRANCH  30  31
ATOM     31  N   UNL A   1      33.522  30.031  27.606  1.00  0.00    -0.352 N 
ATOM     32  C   UNL A   1      34.478  30.781  28.241  1.00  0.00     0.251 C 
ATOM     33  H   UNL A   1      32.709  30.521  27.344  1.00  0.00     0.163 HD
ATOM     34  O   UNL A   1      34.215  31.910  28.638  1.00  0.00    -0.269 OA
BRANCH  32  35
ATOM     35  C   UNL A   1      35.826  30.216  28.460  1.00  0.00     0.039 A 
ATOM     36  C   UNL A   1      36.738  30.221  27.403  1.00  0.00     0.014 A 
ATOM     37  C   UNL A   1      36.184  29.674  29.697  1.00  0.00     0.014 A 
ATOM     38  C   UNL A   1      38.029  29.731  27.604  1.00  0.00     0.010 A 
ATOM     39  C   UNL A   1      37.495  29.259  29.918  1.00  0.00     0.010 A 
ATOM     40  C   UNL A   1      38.428  29.277  28.871  1.00  0.00    -0.014 A 
BRANCH  40  41
ATOM     41  C   UNL A   1      39.819  28.823  29.119  1.00  0.00     0.031 A 
ATOM     42  C   UNL A   1      40.818  29.746  29.759  1.00  0.00     0.074 A 
ATOM     43  C   UNL A   1      40.196  27.592  28.721  1.00  0.00     0.049 A 
ATOM     44  N   UNL A   1      42.085  29.538  30.022  1.00  0.00    -0.248 NA
ATOM     45  C   UNL A   1      40.342  31.089  30.129  1.00  0.00     0.031 C 
ATOM     46  C   UNL A   1      39.332  26.614  28.057  1.00  0.00     0.029 A 
ATOM     47  N   UNL A   1      41.407  26.954  28.816  1.00  0.00    -0.354 N 
ATOM     48  C   UNL A   1      42.555  30.722  30.576  1.00  0.00     0.074 A 
ATOM     49  C   UNL A   1      41.457  31.662  30.558  1.00  0.00     0.031 C 
ATOM     50  C   UNL A   1      40.031  25.489  27.836  1.00  0.00     0.029 A 
ATOM     51  C   UNL A   1      41.401  25.681  28.300  1.00  0.00     0.049 A 
ATOM     52  H   UNL A   1      42.205  27.368  29.217  1.00  0.00     0.167 HD
ATOM     53  C   UNL A   1      43.784  30.997  31.073  1.00  0.00     0.031 A 
ATOM     54  C   UNL A   1      42.388  24.772  28.203  1.00  0.00     0.031 A 
ATOM     55  C   UNL A   1      44.877  30.060  31.090  1.00  0.00     0.049 A 
ATOM     56  C   UNL A   1      43.753  25.111  28.734  1.00  0.00     0.074 A 
ATOM     57  C   UNL A   1      46.145  30.225  31.617  1.00  0.00     0.029 A 
ATOM     58  N   UNL A   1      44.832  28.784  30.548  1.00  0.00    -0.354 N 
ATOM     59  N   UNL A   1      44.162  26.212  29.318  1.00  0.00    -0.248 NA
ATOM     60  C   UNL A   1      44.789  24.078  28.601  1.00  0.00     0.031 C 
ATOM     61  C   UNL A   1      46.888  29.073  31.338  1.00  0.00     0.029 A 
ATOM     62  C   UNL A   1      46.061  28.163  30.699  1.00  0.00     0.049 A 
ATOM     63  H   UNL A   1      44.043  28.380  30.119  1.00  0.00     0.167 HD
ATOM     64  C   UNL A   1      45.494  25.992  29.649  1.00  0.00     0.074 A 
ATOM     65  C   UNL A   1      45.815  24.647  29.218  1.00  0.00     0.031 C 
ATOM     66  C   UNL A   1      46.370  26.827  30.258  1.00  0.00     0.031 A 
BRANCH  53  67
ATOM     67  C   UNL A   1      44.015  32.377  31.628  1.00  0.00    -0.014 A 
ATOM     68  C   UNL A   1      44.255  33.474  30.785  1.00  0.00     0.009 A 
ATOM     69  C   UNL A   1      43.961  32.588  33.015  1.00  0.00     0.009 A 
ATOM     70  C   UNL A   1      44.476  34.745  31.321  1.00  0.00     0.001 A 
ATOM     71  C   UNL A   1      44.149  33.865  33.546  1.00  0.00     0.001 A 
ATOM     72  C   UNL A   1      44.417  34.940  32.701  1.00  0.00     0.000 A 
ENDBRANCH  53  67
BRANCH  54  73
ATOM     73  C   UNL A   1      42.121  23.444  27.587  1.00  0.00    -0.014 A 
ATOM     74  C   UNL A   1      42.468  23.196  26.250  1.00  0.00     0.009 A 
ATOM     75  C   UNL A   1      41.512  22.421  28.330  1.00  0.00     0.009 A 
ATOM     76  C   UNL A   1      42.183  21.960  25.662  1.00  0.00     0.001 A 
ATOM     77  C   UNL A   1      41.259  21.176  27.750  1.00  0.00     0.001 A 
ATOM     78  C   UNL A   1      41.584  20.950  26.415  1.00  0.00     0.000 A 
ENDBRANCH  54  73
BRANCH  66  79
ATOM     79  C   UNL A   1      47.751  26.298  30.528  1.00  0.00    -0.014 A 
ATOM     80  C   UNL A   1      48.100  25.760  31.777  1.00  0.00     0.009 A 
ATOM     81  C   UNL A   1      48.709  26.306  29.501  1.00  0.00     0.009 A 
ATOM     82  C   UNL A   1      49.391  25.277  32.002  1.00  0.00     0.001 A 
ATOM     83  C   UNL A   1      49.987  25.791  29.719  1.00  0.00     0.001 A 
ATOM     84  C   UNL A   1      50.331  25.287  30.972  1.00  0.00     0.000 A 
ENDBRANCH  66  79
ENDBRANCH  40  41
ENDBRANCH  32  35
ENDBRANCH  30  31
ENDBRANCH  29  30
ENDBRANCH  28  29
ENDBRANCH   1  28
TORSDOF 16
ENDMDL
MODEL 2
REMARK VINA RESULT:     -10.9      4.292      6.631
REMARK SMILES CS(=O)(=O)c1ccc(N2N=C(C(=O)NCCCCCCNC(=O)c3ccc(-c4c5nc(c(-c6ccccc6)c6ccc([nH]6)c(-c6ccccc6)c6nc(c(-c7ccccc7)c7ccc4[nH]7)C=C6)C=C5)cc3)C[C@H]2c2ccco2)cc1
REMARK SMILES IDX 17 1 16 2 15 3 14 4 12 5 13 6 11 8 9 9 10 10 73 11 72 12
REMARK SMILES IDX 8 13 5 14 6 15 80 16 7 17 79 18 2 19 1 20 3 21 4 22 74 23
REMARK SMILES IDX 75 24 78 25 76 26 77 27 18 28 19 29 20 30 21 31 22 32 23 34
REMARK SMILES IDX 24 35 25 36 71 37 26 38 70 39 27 40 28 41 29 42 64 43 30 44
REMARK SMILES IDX 69 45 63 46 65 47 31 48 68 49 62 50 61 51 32 53 54 54 39 55
REMARK SMILES IDX 53 56 40 57 43 58 52 59 66 60 41 61 42 62 51 64 67 65 44 66
REMARK SMILES IDX 33 67 34 68 38 69 35 70 37 71 36 72 55 73 56 74 60 75 57 76
REMARK SMILES IDX 59 77 58 78 45 79 46 80 50 81 47 82 49 83 48 84
REMARK H PARENT 14 7 21 33 65 52 43 63
REMARK Flexibility Score: inf
ROOT
ATOM      1  C   UNL A   1      35.250  33.873  28.917  1.00  0.00     0.002 C 
ENDROOT
BRANCH   1   2
ATOM      2  C   UNL A   1      34.214  32.785  29.207  1.00  0.00     0.021 C 
BRANCH   2   3
ATOM      3  C   UNL A   1      34.021  31.792  28.066  1.00  0.00     0.116 C 
BRANCH   3   4
ATOM      4  N   UNL A   1      35.177  30.933  27.924  1.00  0.00    -0.351 N 
ATOM      5  C   UNL A   1      35.361  29.640  27.511  1.00  0.00     0.267 C 
ATOM      6  O   UNL A   1      36.490  29.165  27.615  1.00  0.00    -0.268 OA
ATOM      7  H   UNL A   1      36.018  31.377  28.180  1.00  0.00     0.163 HD
BRANCH   5   8
ATOM      8  C   UNL A   1      34.266  28.784  26.893  1.00  0.00     0.128 C 
ATOM      9  N   UNL A   1      33.390  27.115  25.896  1.00  0.00    -0.254 N 
ATOM     10  N   UNL A   1      34.478  27.537  26.593  1.00  0.00    -0.171 NA
ATOM     11  C   UNL A   1      32.289  28.080  25.867  1.00  0.00     0.180 C 
ATOM     12  C   UNL A   1      32.905  29.293  26.566  1.00  0.00     0.099 C 
BRANCH   9  13
ATOM     13  C   UNL A   1      33.206  25.765  25.631  1.00  0.00     0.060 A 
ATOM     14  C   UNL A   1      32.850  23.048  25.010  1.00  0.00     0.067 A 
ATOM     15  C   UNL A   1      31.776  23.788  25.504  1.00  0.00     0.022 A 
ATOM     16  C   UNL A   1      34.103  23.640  24.852  1.00  0.00     0.022 A 
ATOM     17  C   UNL A   1      31.964  25.140  25.822  1.00  0.00     0.029 A 
ATOM     18  C   UNL A   1      34.273  24.986  25.172  1.00  0.00     0.029 A 
BRANCH  14  19
ATOM     19  S   UNL A   1      32.709  21.345  24.537  1.00  0.00     0.175 S 
ATOM     20  C   UNL A   1      34.236  20.554  24.943  1.00  0.00     0.163 C 
ATOM     21  O   UNL A   1      32.571  21.327  23.092  1.00  0.00    -0.224 OA
ATOM     22  O   UNL A   1      31.691  20.767  25.394  1.00  0.00    -0.224 OA
ENDBRANCH  14  19
ENDBRANCH   9  13
BRANCH  11  23
ATOM     23  C   UNL A   1      31.683  28.428  24.538  1.00  0.00     0.128 A 
ATOM     24  C   UNL A   1      30.398  28.322  24.038  1.00  0.00     0.048 A 
ATOM     25  O   UNL A   1      32.495  28.975  23.582  1.00  0.00    -0.467 OA
ATOM     26  C   UNL A   1      30.438  28.798  22.707  1.00  0.00     0.042 A 
ATOM     27  C   UNL A   1      31.732  29.202  22.484  1.00  0.00     0.195 A 
ENDBRANCH  11  23
ENDBRANCH   5   8
ENDBRANCH   3   4
ENDBRANCH   2   3
ENDBRANCH   1   2
BRANCH   1  28
ATOM     28  C   UNL A   1      34.681  35.166  28.321  1.00  0.00     0.002 C 
BRANCH  28  29
ATOM     29  C   UNL A   1      33.332  35.607  28.892  1.00  0.00     0.021 C 
BRANCH  29  30
ATOM     30  C   UNL A   1      33.424  36.654  29.996  1.00  0.00     0.116 C 
BRANCH  30  31
ATOM     31  N   UNL A   1      32.405  36.461  31.014  1.00  0.00    -0.352 N 
ATOM     32  C   UNL A   1      32.407  35.623  32.099  1.00  0.00     0.251 C 
ATOM     33  H   UNL A   1      31.596  37.011  30.910  1.00  0.00     0.163 HD
ATOM     34  O   UNL A   1      31.376  35.433  32.735  1.00  0.00    -0.269 OA
BRANCH  32  35
ATOM     35  C   UNL A   1      33.654  34.934  32.491  1.00  0.00     0.039 A 
ATOM     36  C   UNL A   1      33.577  33.624  32.970  1.00  0.00     0.014 A 
ATOM     37  C   UNL A   1      34.890  35.577  32.398  1.00  0.00     0.014 A 
ATOM     38  C   UNL A   1      34.747  32.942  33.305  1.00  0.00     0.010 A 
ATOM     39  C   UNL A   1      36.061  34.871  32.656  1.00  0.00     0.010 A 
ATOM     40  C   UNL A   1      36.001  33.548  33.119  1.00  0.00    -0.014 A 
BRANCH  40  41
ATOM     41  C   UNL A   1      37.257  32.809  33.400  1.00  0.00     0.031 A 
ATOM     42  C   UNL A   1      38.024  33.069  34.667  1.00  0.00     0.074 A 
ATOM     43  C   UNL A   1      37.735  31.940  32.489  1.00  0.00     0.049 A 
ATOM     44  N   UNL A   1      39.157  32.547  35.067  1.00  0.00    -0.248 NA
ATOM     45  C   UNL A   1      37.461  34.062  35.595  1.00  0.00     0.031 C 
ATOM     46  C   UNL A   1      37.104  31.626  31.204  1.00  0.00     0.029 A 
ATOM     47  N   UNL A   1      38.864  31.160  32.502  1.00  0.00    -0.354 N 
ATOM     48  C   UNL A   1      39.444  33.155  36.283  1.00  0.00     0.074 A 
ATOM     49  C   UNL A   1      38.399  34.125  36.527  1.00  0.00     0.031 C 
ATOM     50  C   UNL A   1      37.836  30.696  30.571  1.00  0.00     0.029 A 
ATOM     51  C   UNL A   1      39.009  30.382  31.380  1.00  0.00     0.049 A 
ATOM     52  H   UNL A   1      39.509  31.159  33.246  1.00  0.00     0.167 HD
ATOM     53  C   UNL A   1      40.473  32.916  37.130  1.00  0.00     0.031 A 
ATOM     54  C   UNL A   1      39.982  29.517  31.035  1.00  0.00     0.031 A 
ATOM     55  C   UNL A   1      41.512  31.950  36.886  1.00  0.00     0.049 A 
ATOM     56  C   UNL A   1      41.130  29.291  31.979  1.00  0.00     0.074 A 
ATOM     57  C   UNL A   1      42.569  31.597  37.706  1.00  0.00     0.029 A 
ATOM     58  N   UNL A   1      41.628  31.189  35.733  1.00  0.00    -0.354 N 
ATOM     59  N   UNL A   1      41.349  29.824  33.157  1.00  0.00    -0.248 NA
ATOM     60  C   UNL A   1      42.159  28.335  31.548  1.00  0.00     0.031 C 
ATOM     61  C   UNL A   1      43.361  30.669  37.022  1.00  0.00     0.029 A 
ATOM     62  C   UNL A   1      42.758  30.392  35.805  1.00  0.00     0.049 A 
ATOM     63  H   UNL A   1      41.000  31.213  34.974  1.00  0.00     0.167 HD
ATOM     64  C   UNL A   1      42.525  29.245  33.621  1.00  0.00     0.074 A 
ATOM     65  C   UNL A   1      42.959  28.308  32.605  1.00  0.00     0.031 C 
ATOM     66  C   UNL A   1      43.183  29.468  34.784  1.00  0.00     0.031 A 
BRANCH  53  67
ATOM     67  C   UNL A   1      40.530  33.725  38.398  1.00  0.00    -0.014 A 
ATOM     68  C   UNL A   1      41.256  34.926  38.467  1.00  0.00     0.009 A 
ATOM     69  C   UNL A   1      39.822  33.297  39.531  1.00  0.00     0.009 A 
ATOM     70  C   UNL A   1      41.304  35.657  39.657  1.00  0.00     0.001 A 
ATOM     71  C   UNL A   1      39.844  34.047  40.708  1.00  0.00     0.001 A 
ATOM     72  C   UNL A   1      40.594  35.220  40.774  1.00  0.00     0.000 A 
ENDBRANCH  53  67
BRANCH  54  73
ATOM     73  C   UNL A   1      39.907  28.790  29.740  1.00  0.00    -0.014 A 
ATOM     74  C   UNL A   1      39.371  27.494  29.681  1.00  0.00     0.009 A 
ATOM     75  C   UNL A   1      40.377  29.384  28.558  1.00  0.00     0.009 A 
ATOM     76  C   UNL A   1      39.335  26.798  28.469  1.00  0.00     0.001 A 
ATOM     77  C   UNL A   1      40.308  28.698  27.343  1.00  0.00     0.001 A 
ATOM     78  C   UNL A   1      39.798  27.402  27.302  1.00  0.00     0.000 A 
ENDBRANCH  54  73
BRANCH  66  79
ATOM     79  C   UNL A   1      44.424  28.659  35.038  1.00  0.00    -0.014 A 
ATOM     80  C   UNL A   1      44.377  27.444  35.741  1.00  0.00     0.009 A 
ATOM     81  C   UNL A   1      45.657  29.103  34.534  1.00  0.00     0.009 A 
ATOM     82  C   UNL A   1      45.544  26.712  35.966  1.00  0.00     0.001 A 
ATOM     83  C   UNL A   1      46.816  28.351  34.730  1.00  0.00     0.001 A 
ATOM     84  C   UNL A   1      46.761  27.162  35.455  1.00  0.00     0.000 A 
ENDBRANCH  66  79
ENDBRANCH  40  41
ENDBRANCH  32  35
ENDBRANCH  30  31
ENDBRANCH  29  30
ENDBRANCH  28  29
ENDBRANCH   1  28
TORSDOF 16
ENDMDL
MODEL 3
REMARK VINA RESULT:     -10.8      4.688      7.791
REMARK SMILES CS(=O)(=O)c1ccc(N2N=C(C(=O)NCCCCCCNC(=O)c3ccc(-c4c5nc(c(-c6ccccc6)c6ccc([nH]6)c(-c6ccccc6)c6nc(c(-c7ccccc7)c7ccc4[nH]7)C=C6)C=C5)cc3)C[C@H]2c2ccco2)cc1
REMARK SMILES IDX 17 1 16 2 15 3 14 4 12 5 13 6 11 8 9 9 10 10 73 11 72 12
REMARK SMILES IDX 8 13 5 14 6 15 80 16 7 17 79 18 2 19 1 20 3 21 4 22 74 23
REMARK SMILES IDX 75 24 78 25 76 26 77 27 18 28 19 29 20 30 21 31 22 32 23 34
REMARK SMILES IDX 24 35 25 36 71 37 26 38 70 39 27 40 28 41 29 42 64 43 30 44
REMARK SMILES IDX 69 45 63 46 65 47 31 48 68 49 62 50 61 51 32 53 54 54 39 55
REMARK SMILES IDX 53 56 40 57 43 58 52 59 66 60 41 61 42 62 51 64 67 65 44 66
REMARK SMILES IDX 33 67 34 68 38 69 35 70 37 71 36 72 55 73 56 74 60 75 57 76
REMARK SMILES IDX 59 77 58 78 45 79 46 80 50 81 47 82 49 83 48 84
REMARK H PARENT 14 7 21 33 65 52 43 63
REMARK Flexibility Score: inf
ROOT
ATOM      1  C   UNL A   1      35.366  33.739  28.958  1.00  0.00     0.002 C 
ENDROOT
BRANCH   1   2
ATOM      2  C   UNL A   1      34.272  32.741  29.345  1.00  0.00     0.021 C 
BRANCH   2   3
ATOM      3  C   UNL A   1      34.042  31.642  28.313  1.00  0.00     0.116 C 
BRANCH   3   4
ATOM      4  N   UNL A   1      35.168  30.734  28.260  1.00  0.00    -0.351 N 
ATOM      5  C   UNL A   1      35.407  29.545  27.623  1.00  0.00     0.267 C 
ATOM      6  O   UNL A   1      36.457  28.962  27.883  1.00  0.00    -0.268 OA
ATOM      7  H   UNL A   1      35.932  31.039  28.802  1.00  0.00     0.163 HD
BRANCH   5   8
ATOM      8  C   UNL A   1      34.475  28.937  26.586  1.00  0.00     0.128 C 
ATOM      9  N   UNL A   1      32.716  28.709  25.405  1.00  0.00    -0.254 N 
ATOM     10  N   UNL A   1      33.429  29.581  26.165  1.00  0.00    -0.171 NA
ATOM     11  C   UNL A   1      33.404  27.441  25.146  1.00  0.00     0.180 C 
ATOM     12  C   UNL A   1      34.666  27.580  26.000  1.00  0.00     0.099 C 
BRANCH   9  13
ATOM     13  C   UNL A   1      31.661  29.157  24.621  1.00  0.00     0.060 A 
ATOM     14  C   UNL A   1      29.475  30.056  23.103  1.00  0.00     0.067 A 
ATOM     15  C   UNL A   1      30.141  28.890  22.728  1.00  0.00     0.022 A 
ATOM     16  C   UNL A   1      29.905  30.792  24.207  1.00  0.00     0.022 A 
ATOM     17  C   UNL A   1      31.238  28.454  23.483  1.00  0.00     0.029 A 
ATOM     18  C   UNL A   1      30.997  30.344  24.948  1.00  0.00     0.029 A 
BRANCH  14  19
ATOM     19  S   UNL A   1      28.050  30.669  22.243  1.00  0.00     0.175 S 
ATOM     20  C   UNL A   1      28.287  32.404  21.998  1.00  0.00     0.163 C 
ATOM     21  O   UNL A   1      26.920  30.498  23.137  1.00  0.00    -0.224 OA
ATOM     22  O   UNL A   1      28.069  30.050  20.931  1.00  0.00    -0.224 OA
ENDBRANCH  14  19
ENDBRANCH   9  13
BRANCH  11  23
ATOM     23  C   UNL A   1      32.665  26.163  25.416  1.00  0.00     0.128 A 
ATOM     24  C   UNL A   1      32.594  24.961  24.735  1.00  0.00     0.048 A 
ATOM     25  O   UNL A   1      31.897  26.087  26.545  1.00  0.00    -0.467 OA
ATOM     26  C   UNL A   1      31.719  24.128  25.470  1.00  0.00     0.042 A 
ATOM     27  C   UNL A   1      31.336  24.852  26.572  1.00  0.00     0.195 A 
ENDBRANCH  11  23
ENDBRANCH   5   8
ENDBRANCH   3   4
ENDBRANCH   2   3
ENDBRANCH   1   2
BRANCH   1  28
ATOM     28  C   UNL A   1      34.858  35.112  28.505  1.00  0.00     0.002 C 
BRANCH  28  29
ATOM     29  C   UNL A   1      33.462  35.488  29.008  1.00  0.00     0.021 C 
BRANCH  29  30
ATOM     30  C   UNL A   1      33.439  36.635  30.012  1.00  0.00     0.116 C 
BRANCH  30  31
ATOM     31  N   UNL A   1      32.418  36.445  31.029  1.00  0.00    -0.352 N 
ATOM     32  C   UNL A   1      32.418  35.612  32.118  1.00  0.00     0.251 C 
ATOM     33  H   UNL A   1      31.609  36.995  30.921  1.00  0.00     0.163 HD
ATOM     34  O   UNL A   1      31.386  35.424  32.752  1.00  0.00    -0.269 OA
BRANCH  32  35
ATOM     35  C   UNL A   1      33.665  34.925  32.516  1.00  0.00     0.039 A 
ATOM     36  C   UNL A   1      33.598  33.590  32.920  1.00  0.00     0.014 A 
ATOM     37  C   UNL A   1      34.890  35.595  32.501  1.00  0.00     0.014 A 
ATOM     38  C   UNL A   1      34.769  32.912  33.257  1.00  0.00     0.010 A 
ATOM     39  C   UNL A   1      36.066  34.896  32.761  1.00  0.00     0.010 A 
ATOM     40  C   UNL A   1      36.016  33.549  33.149  1.00  0.00    -0.014 A 
BRANCH  40  41
ATOM     41  C   UNL A   1      37.276  32.819  33.433  1.00  0.00     0.031 A 
ATOM     42  C   UNL A   1      38.037  33.083  34.703  1.00  0.00     0.074 A 
ATOM     43  C   UNL A   1      37.763  31.954  32.523  1.00  0.00     0.049 A 
ATOM     44  N   UNL A   1      39.173  32.568  35.107  1.00  0.00    -0.248 NA
ATOM     45  C   UNL A   1      37.464  34.071  35.630  1.00  0.00     0.031 C 
ATOM     46  C   UNL A   1      37.138  31.637  31.236  1.00  0.00     0.029 A 
ATOM     47  N   UNL A   1      38.897  31.182  32.539  1.00  0.00    -0.354 N 
ATOM     48  C   UNL A   1      39.451  33.177  36.324  1.00  0.00     0.074 A 
ATOM     49  C   UNL A   1      38.399  34.140  36.566  1.00  0.00     0.031 C 
ATOM     50  C   UNL A   1      37.880  30.713  30.604  1.00  0.00     0.029 A 
ATOM     51  C   UNL A   1      39.052  30.406  31.416  1.00  0.00     0.049 A 
ATOM     52  H   UNL A   1      39.540  31.184  33.285  1.00  0.00     0.167 HD
ATOM     53  C   UNL A   1      40.479  32.944  37.175  1.00  0.00     0.031 A 
ATOM     54  C   UNL A   1      40.032  29.549  31.074  1.00  0.00     0.031 A 
ATOM     55  C   UNL A   1      41.526  31.986  36.933  1.00  0.00     0.049 A 
ATOM     56  C   UNL A   1      41.178  29.329  32.021  1.00  0.00     0.074 A 
ATOM     57  C   UNL A   1      42.582  31.639  37.755  1.00  0.00     0.029 A 
ATOM     58  N   UNL A   1      41.651  31.227  35.779  1.00  0.00    -0.354 N 
ATOM     59  N   UNL A   1      41.390  29.862  33.200  1.00  0.00    -0.248 NA
ATOM     60  C   UNL A   1      42.215  28.381  31.593  1.00  0.00     0.031 C 
ATOM     61  C   UNL A   1      43.383  30.717  37.073  1.00  0.00     0.029 A 
ATOM     62  C   UNL A   1      42.786  30.437  35.854  1.00  0.00     0.049 A 
ATOM     63  H   UNL A   1      41.025  31.247  35.018  1.00  0.00     0.167 HD
ATOM     64  C   UNL A   1      42.568  29.292  33.668  1.00  0.00     0.074 A 
ATOM     65  C   UNL A   1      43.012  28.358  32.653  1.00  0.00     0.031 C 
ATOM     66  C   UNL A   1      43.221  29.518  34.833  1.00  0.00     0.031 A 
BRANCH  53  67
ATOM     67  C   UNL A   1      40.527  33.752  38.443  1.00  0.00    -0.014 A 
ATOM     68  C   UNL A   1      39.901  33.306  39.619  1.00  0.00     0.009 A 
ATOM     69  C   UNL A   1      41.234  34.964  38.471  1.00  0.00     0.009 A 
ATOM     70  C   UNL A   1      39.950  34.076  40.783  1.00  0.00     0.001 A 
ATOM     71  C   UNL A   1      41.309  35.716  39.646  1.00  0.00     0.001 A 
ATOM     72  C   UNL A   1      40.658  35.278  40.797  1.00  0.00     0.000 A 
ENDBRANCH  53  67
BRANCH  54  73
ATOM     73  C   UNL A   1      39.966  28.822  29.778  1.00  0.00    -0.014 A 
ATOM     74  C   UNL A   1      39.410  27.535  29.710  1.00  0.00     0.009 A 
ATOM     75  C   UNL A   1      40.465  29.408  28.604  1.00  0.00     0.009 A 
ATOM     76  C   UNL A   1      39.382  26.839  28.498  1.00  0.00     0.001 A 
ATOM     77  C   UNL A   1      40.405  28.723  27.388  1.00  0.00     0.001 A 
ATOM     78  C   UNL A   1      39.874  27.436  27.338  1.00  0.00     0.000 A 
ENDBRANCH  54  73
BRANCH  66  79
ATOM     79  C   UNL A   1      44.467  28.717  35.091  1.00  0.00    -0.014 A 
ATOM     80  C   UNL A   1      44.415  27.462  35.720  1.00  0.00     0.009 A 
ATOM     81  C   UNL A   1      45.710  29.211  34.664  1.00  0.00     0.009 A 
ATOM     82  C   UNL A   1      45.587  26.739  35.950  1.00  0.00     0.001 A 
ATOM     83  C   UNL A   1      46.875  28.469  34.863  1.00  0.00     0.001 A 
ATOM     84  C   UNL A   1      46.815  27.240  35.516  1.00  0.00     0.000 A 
ENDBRANCH  66  79
ENDBRANCH  40  41
ENDBRANCH  32  35
ENDBRANCH  30  31
ENDBRANCH  29  30
ENDBRANCH  28  29
ENDBRANCH   1  28
TORSDOF 16
ENDMDL
