MODEL 1
REMARK VINA RESULT:     -10.8      0.000      0.000
REMARK SMILES CC(=O)c1cc(C(=O)NC[C@H]2CC[C@H](C(=O)NCCCCCCNC(=O)c3ccc(-c4c5nc(c(-c6ccccc6)c6ccc([nH]6)c(-c6ccccc6)c6nc(c(-c7ccccc7)c7ccc4[nH]7)C=C6)C=C5)cc3)O2)n(C)c1
REMARK SMILES IDX 19 1 18 2 17 3 15 4 16 5 14 7 11 8 12 9 75 10 13 11 10 12
REMARK SMILES IDX 9 13 7 14 8 15 6 17 4 18 5 19 78 20 76 21 77 22 2 23 1 24
REMARK SMILES IDX 3 25 20 26 21 27 22 28 23 29 24 30 25 31 26 33 27 34 28 35
REMARK SMILES IDX 74 36 29 37 73 38 30 39 31 40 32 41 67 42 33 43 72 44 66 45
REMARK SMILES IDX 68 46 34 47 71 48 65 49 64 50 35 52 57 53 42 54 56 55 43 56
REMARK SMILES IDX 46 57 55 58 69 59 44 60 45 61 54 63 70 64 47 65 36 66 37 67
REMARK SMILES IDX 41 68 38 69 40 70 39 71 58 72 59 73 63 74 60 75 62 76 61 77
REMARK SMILES IDX 48 78 49 79 53 80 50 81 52 82 51 83
REMARK H PARENT 17 6 9 16 24 32 68 51 46 62
REMARK Flexibility Score: inf
ROOT
ATOM      1  C   UNL A   1      31.979  28.584  23.385  1.00  0.00     0.021 C 
ENDROOT
BRANCH   1   2
ATOM      2  C   UNL A   1      31.166  27.620  22.527  1.00  0.00     0.116 C 
BRANCH   2   3
ATOM      3  N   UNL A   1      31.995  26.964  21.542  1.00  0.00    -0.354 N 
ATOM      4  C   UNL A   1      32.497  25.698  21.534  1.00  0.00     0.249 C 
ATOM      5  O   UNL A   1      33.204  25.363  20.578  1.00  0.00    -0.272 OA
ATOM      6  H   UNL A   1      32.233  27.515  20.762  1.00  0.00     0.163 HD
BRANCH   4   7
ATOM      7  C   UNL A   1      32.271  24.738  22.716  1.00  0.00     0.207 C 
ATOM      8  C   UNL A   1      31.261  24.789  24.827  1.00  0.00     0.138 C 
ATOM      9  C   UNL A   1      32.679  25.302  25.008  1.00  0.00     0.037 C 
ATOM     10  O   UNL A   1      31.022  24.850  23.406  1.00  0.00    -0.363 OA
ATOM     11  C   UNL A   1      33.385  24.850  23.752  1.00  0.00     0.045 C 
BRANCH   8  12
ATOM     12  C   UNL A   1      31.096  23.330  25.264  1.00  0.00     0.148 C 
BRANCH  12  13
ATOM     13  N   UNL A   1      31.543  23.069  26.614  1.00  0.00    -0.348 N 
ATOM     14  C   UNL A   1      32.643  22.471  27.158  1.00  0.00     0.268 C 
ATOM     15  O   UNL A   1      32.634  22.462  28.395  1.00  0.00    -0.268 OA
ATOM     16  H   UNL A   1      30.911  23.397  27.294  1.00  0.00     0.163 HD
BRANCH  14  17
ATOM     17  C   UNL A   1      33.726  21.831  26.421  1.00  0.00     0.107 A 
ATOM     18  C   UNL A   1      35.897  21.568  25.659  1.00  0.00     0.036 A 
ATOM     19  C   UNL A   1      35.033  22.337  26.474  1.00  0.00     0.045 A 
ATOM     20  C   UNL A   1      35.104  20.571  25.141  1.00  0.00     0.097 A 
ATOM     21  N   UNL A   1      33.795  20.791  25.509  1.00  0.00    -0.346 N 
ATOM     22  C   UNL A   1      32.741  20.072  24.829  1.00  0.00     0.150 C 
BRANCH  18  23
ATOM     23  C   UNL A   1      37.317  21.738  25.360  1.00  0.00     0.161 C 
ATOM     24  C   UNL A   1      38.047  22.901  25.981  1.00  0.00     0.093 C 
ATOM     25  O   UNL A   1      37.918  20.947  24.632  1.00  0.00    -0.294 OA
ENDBRANCH  18  23
ENDBRANCH  14  17
ENDBRANCH  12  13
ENDBRANCH   8  12
ENDBRANCH   4   7
ENDBRANCH   2   3
ENDBRANCH   1   2
BRANCH   1  26
ATOM     26  C   UNL A   1      31.126  29.346  24.398  1.00  0.00     0.002 C 
BRANCH  26  27
ATOM     27  C   UNL A   1      31.811  29.597  25.749  1.00  0.00     0.002 C 
BRANCH  27  28
ATOM     28  C   UNL A   1      32.525  28.384  26.352  1.00  0.00     0.021 C 
BRANCH  28  29
ATOM     29  C   UNL A   1      33.695  28.736  27.265  1.00  0.00     0.116 C 
BRANCH  29  30
ATOM     30  N   UNL A   1      33.643  30.126  27.685  1.00  0.00    -0.352 N 
ATOM     31  C   UNL A   1      34.552  30.853  28.408  1.00  0.00     0.251 C 
ATOM     32  H   UNL A   1      32.835  30.617  27.411  1.00  0.00     0.163 HD
ATOM     33  O   UNL A   1      34.232  31.931  28.896  1.00  0.00    -0.269 OA
BRANCH  31  34
ATOM     34  C   UNL A   1      35.921  30.336  28.593  1.00  0.00     0.039 A 
ATOM     35  C   UNL A   1      36.834  30.445  27.541  1.00  0.00     0.014 A 
ATOM     36  C   UNL A   1      36.291  29.710  29.787  1.00  0.00     0.014 A 
ATOM     37  C   UNL A   1      38.132  29.962  27.702  1.00  0.00     0.010 A 
ATOM     38  C   UNL A   1      37.604  29.289  29.969  1.00  0.00     0.010 A 
ATOM     39  C   UNL A   1      38.532  29.400  28.924  1.00  0.00    -0.014 A 
BRANCH  39  40
ATOM     40  C   UNL A   1      39.915  28.906  29.125  1.00  0.00     0.031 A 
ATOM     41  C   UNL A   1      40.966  29.818  29.694  1.00  0.00     0.074 A 
ATOM     42  C   UNL A   1      40.236  27.657  28.739  1.00  0.00     0.049 A 
ATOM     43  N   UNL A   1      42.239  29.589  29.887  1.00  0.00    -0.248 NA
ATOM     44  C   UNL A   1      40.534  31.174  30.071  1.00  0.00     0.031 C 
ATOM     45  C   UNL A   1      39.313  26.689  28.141  1.00  0.00     0.029 A 
ATOM     46  N   UNL A   1      41.433  26.989  28.788  1.00  0.00    -0.354 N 
ATOM     47  C   UNL A   1      42.763  30.773  30.391  1.00  0.00     0.074 A 
ATOM     48  C   UNL A   1      41.681  31.733  30.428  1.00  0.00     0.031 C 
ATOM     49  C   UNL A   1      39.973  25.544  27.902  1.00  0.00     0.029 A 
ATOM     50  C   UNL A   1      41.369  25.710  28.293  1.00  0.00     0.049 A 
ATOM     51  H   UNL A   1      42.259  27.390  29.143  1.00  0.00     0.167 HD
ATOM     52  C   UNL A   1      44.026  31.033  30.802  1.00  0.00     0.031 A 
ATOM     53  C   UNL A   1      42.330  24.777  28.164  1.00  0.00     0.031 A 
ATOM     54  C   UNL A   1      45.098  30.075  30.778  1.00  0.00     0.049 A 
ATOM     55  C   UNL A   1      43.727  25.095  28.618  1.00  0.00     0.074 A 
ATOM     56  C   UNL A   1      46.399  30.223  31.227  1.00  0.00     0.029 A 
ATOM     57  N   UNL A   1      44.990  28.787  30.275  1.00  0.00    -0.354 N 
ATOM     58  N   UNL A   1      44.191  26.198  29.152  1.00  0.00    -0.248 NA
ATOM     59  C   UNL A   1      44.729  24.032  28.459  1.00  0.00     0.031 C 
ATOM     60  C   UNL A   1      47.092  29.039  30.951  1.00  0.00     0.029 A 
ATOM     61  C   UNL A   1      46.208  28.137  30.379  1.00  0.00     0.049 A 
ATOM     62  H   UNL A   1      44.170  28.393  29.899  1.00  0.00     0.167 HD
ATOM     63  C   UNL A   1      45.532  25.955  29.415  1.00  0.00     0.074 A 
ATOM     64  C   UNL A   1      45.801  24.594  29.000  1.00  0.00     0.031 C 
ATOM     65  C   UNL A   1      46.458  26.784  29.956  1.00  0.00     0.031 A 
BRANCH  52  66
ATOM     66  C   UNL A   1      44.317  32.418  31.311  1.00  0.00    -0.014 A 
ATOM     67  C   UNL A   1      44.578  33.478  30.428  1.00  0.00     0.009 A 
ATOM     68  C   UNL A   1      44.300  32.673  32.691  1.00  0.00     0.009 A 
ATOM     69  C   UNL A   1      44.853  34.756  30.919  1.00  0.00     0.001 A 
ATOM     70  C   UNL A   1      44.547  33.959  33.177  1.00  0.00     0.001 A 
ATOM     71  C   UNL A   1      44.832  34.996  32.292  1.00  0.00     0.000 A 
ENDBRANCH  52  66
BRANCH  53  72
ATOM     72  C   UNL A   1      42.002  23.445  27.592  1.00  0.00    -0.014 A 
ATOM     73  C   UNL A   1      42.205  23.188  26.228  1.00  0.00     0.009 A 
ATOM     74  C   UNL A   1      41.480  22.427  28.405  1.00  0.00     0.009 A 
ATOM     75  C   UNL A   1      41.866  21.947  25.683  1.00  0.00     0.001 A 
ATOM     76  C   UNL A   1      41.168  21.178  27.863  1.00  0.00     0.001 A 
ATOM     77  C   UNL A   1      41.352  20.942  26.502  1.00  0.00     0.000 A 
ENDBRANCH  53  72
BRANCH  65  78
ATOM     78  C   UNL A   1      47.841  26.231  30.151  1.00  0.00    -0.014 A 
ATOM     79  C   UNL A   1      48.252  25.720  31.391  1.00  0.00     0.009 A 
ATOM     80  C   UNL A   1      48.732  26.189  29.067  1.00  0.00     0.009 A 
ATOM     81  C   UNL A   1      49.541  25.206  31.549  1.00  0.00     0.001 A 
ATOM     82  C   UNL A   1      50.008  25.648  29.221  1.00  0.00     0.001 A 
ATOM     83  C   UNL A   1      50.415  25.166  30.464  1.00  0.00     0.000 A 
ENDBRANCH  65  78
ENDBRANCH  39  40
ENDBRANCH  31  34
ENDBRANCH  29  30
ENDBRANCH  28  29
ENDBRANCH  27  28
ENDBRANCH  26  27
ENDBRANCH   1  26
TORSDOF 17
ENDMDL
MODEL 2
REMARK VINA RESULT:     -10.3      2.266      8.295
REMARK SMILES CC(=O)c1cc(C(=O)NC[C@H]2CC[C@H](C(=O)NCCCCCCNC(=O)c3ccc(-c4c5nc(c(-c6ccccc6)c6ccc([nH]6)c(-c6ccccc6)c6nc(c(-c7ccccc7)c7ccc4[nH]7)C=C6)C=C5)cc3)O2)n(C)c1
REMARK SMILES IDX 19 1 18 2 17 3 15 4 16 5 14 7 11 8 12 9 75 10 13 11 10 12
REMARK SMILES IDX 9 13 7 14 8 15 6 17 4 18 5 19 78 20 76 21 77 22 2 23 1 24
REMARK SMILES IDX 3 25 20 26 21 27 22 28 23 29 24 30 25 31 26 33 27 34 28 35
REMARK SMILES IDX 74 36 29 37 73 38 30 39 31 40 32 41 67 42 33 43 72 44 66 45
REMARK SMILES IDX 68 46 34 47 71 48 65 49 64 50 35 52 57 53 42 54 56 55 43 56
REMARK SMILES IDX 46 57 55 58 69 59 44 60 45 61 54 63 70 64 47 65 36 66 37 67
REMARK SMILES IDX 41 68 38 69 40 70 39 71 58 72 59 73 63 74 60 75 62 76 61 77
REMARK SMILES IDX 48 78 49 79 53 80 50 81 52 82 51 83
REMARK H PARENT 17 6 9 16 24 32 68 51 46 62
REMARK Flexibility Score: inf
ROOT
ATOM      1  C   UNL A   1      37.478  23.266  25.394  1.00  0.00     0.021 C 
ENDROOT
BRANCH   1   2
ATOM      2  C   UNL A   1      36.163  23.063  26.139  1.00  0.00     0.116 C 
BRANCH   2   3
ATOM      3  N   UNL A   1      35.581  21.774  25.839  1.00  0.00    -0.354 N 
ATOM      4  C   UNL A   1      34.472  21.472  25.110  1.00  0.00     0.249 C 
ATOM      5  O   UNL A   1      34.157  20.282  25.003  1.00  0.00    -0.272 OA
ATOM      6  H   UNL A   1      36.059  21.001  26.218  1.00  0.00     0.163 HD
BRANCH   4   7
ATOM      7  C   UNL A   1      33.580  22.575  24.512  1.00  0.00     0.207 C 
ATOM      8  C   UNL A   1      31.694  22.728  23.134  1.00  0.00     0.138 C 
ATOM      9  C   UNL A   1      32.903  22.664  22.216  1.00  0.00     0.037 C 
ATOM     10  O   UNL A   1      32.180  22.291  24.420  1.00  0.00    -0.363 OA
ATOM     11  C   UNL A   1      34.060  22.997  23.127  1.00  0.00     0.045 C 
BRANCH   8  12
ATOM     12  C   UNL A   1      31.148  24.150  23.302  1.00  0.00     0.148 C 
BRANCH  12  13
ATOM     13  N   UNL A   1      30.655  24.435  24.630  1.00  0.00    -0.348 N 
ATOM     14  C   UNL A   1      30.321  25.576  25.302  1.00  0.00     0.268 C 
ATOM     15  O   UNL A   1      29.926  25.367  26.455  1.00  0.00    -0.268 OA
ATOM     16  H   UNL A   1      30.531  23.623  25.173  1.00  0.00     0.163 HD
BRANCH  14  17
ATOM     17  C   UNL A   1      30.451  26.939  24.799  1.00  0.00     0.107 A 
ATOM     18  C   UNL A   1      29.903  28.771  23.493  1.00  0.00     0.036 A 
ATOM     19  C   UNL A   1      29.558  27.443  23.844  1.00  0.00     0.045 A 
ATOM     20  C   UNL A   1      30.994  29.072  24.273  1.00  0.00     0.097 A 
ATOM     21  N   UNL A   1      31.383  27.949  24.969  1.00  0.00    -0.346 N 
ATOM     22  C   UNL A   1      32.683  27.926  25.600  1.00  0.00     0.150 C 
BRANCH  18  23
ATOM     23  C   UNL A   1      29.304  29.678  22.516  1.00  0.00     0.161 C 
ATOM     24  C   UNL A   1      28.209  30.605  22.974  1.00  0.00     0.093 C 
ATOM     25  O   UNL A   1      29.690  29.704  21.347  1.00  0.00    -0.294 OA
ENDBRANCH  18  23
ENDBRANCH  14  17
ENDBRANCH  12  13
ENDBRANCH   8  12
ENDBRANCH   4   7
ENDBRANCH   2   3
ENDBRANCH   1   2
BRANCH   1  26
ATOM     26  C   UNL A   1      38.574  23.868  26.272  1.00  0.00     0.002 C 
BRANCH  26  27
ATOM     27  C   UNL A   1      39.533  22.840  26.890  1.00  0.00     0.002 C 
BRANCH  27  28
ATOM     28  C   UNL A   1      39.689  21.537  26.099  1.00  0.00     0.021 C 
BRANCH  28  29
ATOM     29  C   UNL A   1      40.373  20.414  26.871  1.00  0.00     0.116 C 
BRANCH  29  30
ATOM     30  N   UNL A   1      41.577  19.961  26.196  1.00  0.00    -0.352 N 
ATOM     31  C   UNL A   1      42.668  20.680  25.783  1.00  0.00     0.251 C 
ATOM     32  H   UNL A   1      41.614  18.995  26.006  1.00  0.00     0.163 HD
ATOM     33  O   UNL A   1      43.473  20.186  25.000  1.00  0.00    -0.269 OA
BRANCH  31  34
ATOM     34  C   UNL A   1      42.876  22.049  26.289  1.00  0.00     0.039 A 
ATOM     35  C   UNL A   1      42.908  23.110  25.379  1.00  0.00     0.014 A 
ATOM     36  C   UNL A   1      43.078  22.282  27.653  1.00  0.00     0.014 A 
ATOM     37  C   UNL A   1      43.102  24.410  25.844  1.00  0.00     0.010 A 
ATOM     38  C   UNL A   1      43.206  23.585  28.121  1.00  0.00     0.010 A 
ATOM     39  C   UNL A   1      43.231  24.660  27.219  1.00  0.00    -0.014 A 
BRANCH  39  40
ATOM     40  C   UNL A   1      43.411  26.037  27.735  1.00  0.00     0.031 A 
ATOM     41  C   UNL A   1      42.212  26.869  28.097  1.00  0.00     0.074 A 
ATOM     42  C   UNL A   1      44.650  26.557  27.821  1.00  0.00     0.049 A 
ATOM     43  N   UNL A   1      42.163  28.110  28.506  1.00  0.00    -0.248 NA
ATOM     44  C   UNL A   1      40.893  26.229  27.955  1.00  0.00     0.031 C 
ATOM     45  C   UNL A   1      45.889  25.862  27.467  1.00  0.00     0.029 A 
ATOM     46  N   UNL A   1      45.069  27.798  28.230  1.00  0.00    -0.354 N 
ATOM     47  C   UNL A   1      40.813  28.405  28.653  1.00  0.00     0.074 A 
ATOM     48  C   UNL A   1      40.075  27.231  28.245  1.00  0.00     0.031 C 
ATOM     49  C   UNL A   1      46.930  26.678  27.697  1.00  0.00     0.029 A 
ATOM     50  C   UNL A   1      46.431  27.962  28.177  1.00  0.00     0.049 A 
ATOM     51  H   UNL A   1      44.451  28.503  28.531  1.00  0.00     0.167 HD
ATOM     52  C   UNL A   1      40.240  29.545  29.106  1.00  0.00     0.031 A 
ATOM     53  C   UNL A   1      47.192  29.031  28.476  1.00  0.00     0.031 A 
ATOM     54  C   UNL A   1      40.975  30.708  29.526  1.00  0.00     0.049 A 
ATOM     55  C   UNL A   1      46.530  30.289  28.966  1.00  0.00     0.074 A 
ATOM     56  C   UNL A   1      40.489  31.891  30.055  1.00  0.00     0.029 A 
ATOM     57  N   UNL A   1      42.355  30.832  29.463  1.00  0.00    -0.354 N 
ATOM     58  N   UNL A   1      45.257  30.529  29.161  1.00  0.00    -0.248 NA
ATOM     59  C   UNL A   1      47.415  31.417  29.286  1.00  0.00     0.031 C 
ATOM     60  C   UNL A   1      41.573  32.751  30.267  1.00  0.00     0.029 A 
ATOM     61  C   UNL A   1      42.737  32.082  29.919  1.00  0.00     0.049 A 
ATOM     62  H   UNL A   1      42.971  30.136  29.141  1.00  0.00     0.167 HD
ATOM     63  C   UNL A   1      45.188  31.827  29.649  1.00  0.00     0.074 A 
ATOM     64  C   UNL A   1      46.549  32.314  29.738  1.00  0.00     0.031 C 
ATOM     65  C   UNL A   1      44.096  32.551  29.996  1.00  0.00     0.031 A 
BRANCH  52  66
ATOM     66  C   UNL A   1      38.738  29.589  29.165  1.00  0.00    -0.014 A 
ATOM     67  C   UNL A   1      38.048  29.302  30.354  1.00  0.00     0.009 A 
ATOM     68  C   UNL A   1      38.005  29.951  28.025  1.00  0.00     0.009 A 
ATOM     69  C   UNL A   1      36.652  29.341  30.388  1.00  0.00     0.001 A 
ATOM     70  C   UNL A   1      36.610  30.018  28.071  1.00  0.00     0.001 A 
ATOM     71  C   UNL A   1      35.936  29.704  29.249  1.00  0.00     0.000 A 
ENDBRANCH  52  66
BRANCH  53  72
ATOM     72  C   UNL A   1      48.669  28.955  28.337  1.00  0.00    -0.014 A 
ATOM     73  C   UNL A   1      49.464  28.538  29.414  1.00  0.00     0.009 A 
ATOM     74  C   UNL A   1      49.291  29.304  27.128  1.00  0.00     0.009 A 
ATOM     75  C   UNL A   1      50.856  28.497  29.293  1.00  0.00     0.001 A 
ATOM     76  C   UNL A   1      50.681  29.237  27.001  1.00  0.00     0.001 A 
ATOM     77  C   UNL A   1      51.461  28.842  28.086  1.00  0.00     0.000 A 
ENDBRANCH  53  72
BRANCH  65  78
ATOM     78  C   UNL A   1      44.332  33.936  30.526  1.00  0.00    -0.014 A 
ATOM     79  C   UNL A   1      44.331  35.051  29.674  1.00  0.00     0.009 A 
ATOM     80  C   UNL A   1      44.523  34.130  31.903  1.00  0.00     0.009 A 
ATOM     81  C   UNL A   1      44.548  36.331  30.188  1.00  0.00     0.001 A 
ATOM     82  C   UNL A   1      44.711  35.413  32.417  1.00  0.00     0.001 A 
ATOM     83  C   UNL A   1      44.733  36.511  31.558  1.00  0.00     0.000 A 
ENDBRANCH  65  78
ENDBRANCH  39  40
ENDBRANCH  31  34
ENDBRANCH  29  30
ENDBRANCH  28  29
ENDBRANCH  27  28
ENDBRANCH  26  27
ENDBRANCH   1  26
TORSDOF 17
ENDMDL
MODEL 3
REMARK VINA RESULT:     -10.3      2.372      7.893
REMARK SMILES CC(=O)c1cc(C(=O)NC[C@H]2CC[C@H](C(=O)NCCCCCCNC(=O)c3ccc(-c4c5nc(c(-c6ccccc6)c6ccc([nH]6)c(-c6ccccc6)c6nc(c(-c7ccccc7)c7ccc4[nH]7)C=C6)C=C5)cc3)O2)n(C)c1
REMARK SMILES IDX 19 1 18 2 17 3 15 4 16 5 14 7 11 8 12 9 75 10 13 11 10 12
REMARK SMILES IDX 9 13 7 14 8 15 6 17 4 18 5 19 78 20 76 21 77 22 2 23 1 24
REMARK SMILES IDX 3 25 20 26 21 27 22 28 23 29 24 30 25 31 26 33 27 34 28 35
REMARK SMILES IDX 74 36 29 37 73 38 30 39 31 40 32 41 67 42 33 43 72 44 66 45
REMARK SMILES IDX 68 46 34 47 71 48 65 49 64 50 35 52 57 53 42 54 56 55 43 56
REMARK SMILES IDX 46 57 55 58 69 59 44 60 45 61 54 63 70 64 47 65 36 66 37 67
REMARK SMILES IDX 41 68 38 69 40 70 39 71 58 72 59 73 63 74 60 75 62 76 61 77
REMARK SMILES IDX 48 78 49 79 53 80 50 81 52 82 51 83
REMARK H PARENT 17 6 9 16 24 32 68 51 46 62
REMARK Flexibility Score: inf
ROOT
ATOM      1  C   UNL A   1      38.676  23.387  26.504  1.00  0.00     0.021 C 
ENDROOT
BRANCH   1   2
ATOM      2  C   UNL A   1      37.321  23.727  25.892  1.00  0.00     0.116 C 
BRANCH   2   3
ATOM      3  N   UNL A   1      37.336  23.565  24.456  1.00  0.00    -0.354 N 
ATOM      4  C   UNL A   1      36.417  22.981  23.639  1.00  0.00     0.249 C 
ATOM      5  O   UNL A   1      36.659  22.947  22.428  1.00  0.00    -0.272 OA
ATOM      6  H   UNL A   1      38.129  23.931  24.002  1.00  0.00     0.163 HD
BRANCH   4   7
ATOM      7  C   UNL A   1      35.157  22.301  24.205  1.00  0.00     0.207 C 
ATOM      8  C   UNL A   1      33.832  22.427  26.131  1.00  0.00     0.138 C 
ATOM      9  C   UNL A   1      34.966  21.464  26.441  1.00  0.00     0.037 C 
ATOM     10  O   UNL A   1      34.257  23.131  24.946  1.00  0.00    -0.363 OA
ATOM     11  C   UNL A   1      35.510  21.103  25.080  1.00  0.00     0.045 C 
BRANCH   8  12
ATOM     12  C   UNL A   1      32.518  21.710  25.800  1.00  0.00     0.148 C 
BRANCH  12  13
ATOM     13  N   UNL A   1      31.385  22.186  26.561  1.00  0.00    -0.348 N 
ATOM     14  C   UNL A   1      30.690  23.361  26.608  1.00  0.00     0.268 C 
ATOM     15  O   UNL A   1      29.757  23.346  27.421  1.00  0.00    -0.268 OA
ATOM     16  H   UNL A   1      31.035  21.511  27.186  1.00  0.00     0.163 HD
BRANCH  14  17
ATOM     17  C   UNL A   1      30.997  24.572  25.855  1.00  0.00     0.107 A 
ATOM     18  C   UNL A   1      31.464  26.822  25.570  1.00  0.00     0.036 A 
ATOM     19  C   UNL A   1      31.213  25.793  26.509  1.00  0.00     0.045 A 
ATOM     20  C   UNL A   1      31.432  26.200  24.344  1.00  0.00     0.097 A 
ATOM     21  N   UNL A   1      31.050  24.887  24.507  1.00  0.00    -0.346 N 
ATOM     22  C   UNL A   1      30.635  24.124  23.352  1.00  0.00     0.150 C 
BRANCH  18  23
ATOM     23  C   UNL A   1      31.692  28.251  25.770  1.00  0.00     0.161 C 
ATOM     24  C   UNL A   1      32.428  28.695  27.008  1.00  0.00     0.093 C 
ATOM     25  O   UNL A   1      31.312  29.082  24.945  1.00  0.00    -0.294 OA
ENDBRANCH  18  23
ENDBRANCH  14  17
ENDBRANCH  12  13
ENDBRANCH   8  12
ENDBRANCH   4   7
ENDBRANCH   2   3
ENDBRANCH   1   2
BRANCH   1  26
ATOM     26  C   UNL A   1      39.184  22.005  26.095  1.00  0.00     0.002 C 
BRANCH  26  27
ATOM     27  C   UNL A   1      40.342  21.472  26.952  1.00  0.00     0.002 C 
BRANCH  27  28
ATOM     28  C   UNL A   1      40.812  20.056  26.603  1.00  0.00     0.021 C 
BRANCH  28  29
ATOM     29  C   UNL A   1      42.225  19.731  27.077  1.00  0.00     0.116 C 
BRANCH  29  30
ATOM     30  N   UNL A   1      43.136  19.564  25.958  1.00  0.00    -0.352 N 
ATOM     31  C   UNL A   1      43.796  20.512  25.222  1.00  0.00     0.251 C 
ATOM     32  H   UNL A   1      43.304  18.631  25.689  1.00  0.00     0.163 HD
ATOM     33  O   UNL A   1      44.317  20.212  24.153  1.00  0.00    -0.269 OA
BRANCH  31  34
ATOM     34  C   UNL A   1      43.884  21.897  25.723  1.00  0.00     0.039 A 
ATOM     35  C   UNL A   1      43.405  22.938  24.923  1.00  0.00     0.014 A 
ATOM     36  C   UNL A   1      44.474  22.170  26.960  1.00  0.00     0.014 A 
ATOM     37  C   UNL A   1      43.481  24.252  25.385  1.00  0.00     0.010 A 
ATOM     38  C   UNL A   1      44.490  23.473  27.447  1.00  0.00     0.010 A 
ATOM     39  C   UNL A   1      44.004  24.527  26.658  1.00  0.00    -0.014 A 
BRANCH  39  40
ATOM     40  C   UNL A   1      44.068  25.913  27.178  1.00  0.00     0.031 A 
ATOM     41  C   UNL A   1      45.395  26.607  27.311  1.00  0.00     0.074 A 
ATOM     42  C   UNL A   1      42.939  26.522  27.585  1.00  0.00     0.049 A 
ATOM     43  N   UNL A   1      45.661  27.792  27.799  1.00  0.00    -0.248 NA
ATOM     44  C   UNL A   1      46.583  25.862  26.860  1.00  0.00     0.031 C 
ATOM     45  C   UNL A   1      41.596  25.939  27.540  1.00  0.00     0.029 A 
ATOM     46  N   UNL A   1      42.743  27.768  28.125  1.00  0.00    -0.354 N 
ATOM     47  C   UNL A   1      47.042  27.927  27.729  1.00  0.00     0.074 A 
ATOM     48  C   UNL A   1      47.563  26.687  27.198  1.00  0.00     0.031 C 
ATOM     49  C   UNL A   1      40.713  26.835  28.008  1.00  0.00     0.029 A 
ATOM     50  C   UNL A   1      41.430  28.038  28.421  1.00  0.00     0.049 A 
ATOM     51  H   UNL A   1      43.475  28.407  28.285  1.00  0.00     0.167 HD
ATOM     52  C   UNL A   1      47.806  28.994  28.061  1.00  0.00     0.031 A 
ATOM     53  C   UNL A   1      40.868  29.131  28.969  1.00  0.00     0.031 A 
ATOM     54  C   UNL A   1      47.286  30.232  28.576  1.00  0.00     0.049 A 
ATOM     55  C   UNL A   1      41.740  30.298  29.338  1.00  0.00     0.074 A 
ATOM     56  C   UNL A   1      47.971  31.393  28.888  1.00  0.00     0.029 A 
ATOM     57  N   UNL A   1      45.948  30.467  28.855  1.00  0.00    -0.354 N 
ATOM     58  N   UNL A   1      43.036  30.434  29.206  1.00  0.00    -0.248 NA
ATOM     59  C   UNL A   1      41.065  31.465  29.923  1.00  0.00     0.031 C 
ATOM     60  C   UNL A   1      47.054  32.316  29.402  1.00  0.00     0.029 A 
ATOM     61  C   UNL A   1      45.791  31.747  29.360  1.00  0.00     0.049 A 
ATOM     62  H   UNL A   1      45.219  29.822  28.716  1.00  0.00     0.167 HD
ATOM     63  C   UNL A   1      43.331  31.709  29.669  1.00  0.00     0.074 A 
ATOM     64  C   UNL A   1      42.075  32.311  30.066  1.00  0.00     0.031 C 
ATOM     65  C   UNL A   1      44.534  32.328  29.755  1.00  0.00     0.031 A 
BRANCH  52  66
ATOM     66  C   UNL A   1      49.293  28.864  27.879  1.00  0.00    -0.014 A 
ATOM     67  C   UNL A   1      49.910  29.196  26.662  1.00  0.00     0.009 A 
ATOM     68  C   UNL A   1      50.092  28.432  28.949  1.00  0.00     0.009 A 
ATOM     69  C   UNL A   1      51.291  29.062  26.510  1.00  0.00     0.001 A 
ATOM     70  C   UNL A   1      51.477  28.327  28.802  1.00  0.00     0.001 A 
ATOM     71  C   UNL A   1      52.073  28.633  27.581  1.00  0.00     0.000 A 
ENDBRANCH  52  66
BRANCH  53  72
ATOM     72  C   UNL A   1      39.399  29.181  29.188  1.00  0.00    -0.014 A 
ATOM     73  C   UNL A   1      38.542  29.617  28.166  1.00  0.00     0.009 A 
ATOM     74  C   UNL A   1      38.846  28.796  30.420  1.00  0.00     0.009 A 
ATOM     75  C   UNL A   1      37.164  29.695  28.382  1.00  0.00     0.001 A 
ATOM     76  C   UNL A   1      37.466  28.849  30.624  1.00  0.00     0.001 A 
ATOM     77  C   UNL A   1      36.627  29.306  29.609  1.00  0.00     0.000 A 
ENDBRANCH  53  72
BRANCH  65  78
ATOM     78  C   UNL A   1      44.543  33.737  30.275  1.00  0.00    -0.014 A 
ATOM     79  C   UNL A   1      44.364  34.831  29.416  1.00  0.00     0.009 A 
ATOM     80  C   UNL A   1      44.698  33.968  31.651  1.00  0.00     0.009 A 
ATOM     81  C   UNL A   1      44.371  36.133  29.922  1.00  0.00     0.001 A 
ATOM     82  C   UNL A   1      44.675  35.268  32.157  1.00  0.00     0.001 A 
ATOM     83  C   UNL A   1      44.522  36.349  31.291  1.00  0.00     0.000 A 
ENDBRANCH  65  78
ENDBRANCH  39  40
ENDBRANCH  31  34
ENDBRANCH  29  30
ENDBRANCH  28  29
ENDBRANCH  27  28
ENDBRANCH  26  27
ENDBRANCH   1  26
TORSDOF 17
ENDMDL
