MODEL 1
REMARK VINA RESULT:      -9.5      0.000      0.000
REMARK SMILES CC[C@H]1CC[C@](C[C@H](O)COC)(C(=O)NCCCCCCNC(=O)c2ccc(-c3c4nc(c(-c5ccccc5)c5ccc([nH]5)c(-c5ccccc5)c5nc(c(-c6ccccc6)c6ccc3[nH]6)C=C5)C=C4)cc2)CC1
REMARK SMILES IDX 17 1 16 2 15 3 13 4 14 5 6 7 3 8 74 9 4 10 73 11 5 12 2 13
REMARK SMILES IDX 1 14 7 15 8 16 10 17 11 18 12 19 9 20 18 22 19 23 20 24
REMARK SMILES IDX 21 25 22 26 23 27 24 29 25 30 26 31 72 32 27 33 71 34 28 35
REMARK SMILES IDX 29 36 30 37 65 38 31 39 70 40 64 41 66 42 32 43 69 44 63 45
REMARK SMILES IDX 62 46 33 48 55 49 40 50 54 51 41 52 44 53 53 54 67 55 42 56
REMARK SMILES IDX 43 57 52 59 68 60 45 61 34 62 35 63 39 64 36 65 38 66 37 67
REMARK SMILES IDX 56 68 57 69 61 70 58 71 60 72 59 73 46 74 47 75 51 76 48 77
REMARK SMILES IDX 50 78 49 79
REMARK H PARENT 15 6 9 21 22 28 66 47 44 58
REMARK Flexibility Score: inf
ROOT
ATOM      1  C   UNL A   1      30.542  26.342  23.868  1.00  0.00     0.021 C 
ENDROOT
BRANCH   1   2
ATOM      2  C   UNL A   1      30.776  24.844  24.022  1.00  0.00     0.116 C 
BRANCH   2   3
ATOM      3  N   UNL A   1      31.528  24.242  22.942  1.00  0.00    -0.356 N 
ATOM      4  C   UNL A   1      32.614  23.422  22.944  1.00  0.00     0.226 C 
ATOM      5  O   UNL A   1      32.735  22.728  21.926  1.00  0.00    -0.274 OA
ATOM      6  H   UNL A   1      31.193  24.466  22.043  1.00  0.00     0.163 HD
BRANCH   4   7
ATOM      7  C   UNL A   1      33.663  23.317  24.100  1.00  0.00     0.052 C 
ATOM      8  C   UNL A   1      36.640  23.684  24.822  1.00  0.00    -0.011 C 
ATOM      9  C   UNL A   1      36.089  22.327  24.365  1.00  0.00     0.005 C 
ATOM     10  C   UNL A   1      35.521  24.581  25.358  1.00  0.00     0.005 C 
ATOM     11  C   UNL A   1      34.835  22.444  23.490  1.00  0.00     0.017 C 
ATOM     12  C   UNL A   1      34.333  24.672  24.401  1.00  0.00     0.017 C 
BRANCH   8  13
ATOM     13  C   UNL A   1      37.755  23.467  25.864  1.00  0.00    -0.000 C 
ATOM     14  C   UNL A   1      38.295  22.043  25.911  1.00  0.00     0.004 C 
ENDBRANCH   8  13
BRANCH   7  15
ATOM     15  C   UNL A   1      33.112  22.488  25.317  1.00  0.00     0.051 C 
BRANCH  15  16
ATOM     16  C   UNL A   1      32.188  21.265  25.185  1.00  0.00     0.141 C 
BRANCH  16  17
ATOM     17  C   UNL A   1      32.877  19.915  25.449  1.00  0.00     0.191 C 
BRANCH  17  18
ATOM     18  O   UNL A   1      32.222  18.820  24.799  1.00  0.00    -0.382 OA
ATOM     19  C   UNL A   1      32.442  18.831  23.394  1.00  0.00     0.195 C 
ENDBRANCH  17  18
ENDBRANCH  16  17
BRANCH  16  20
ATOM     20  O   UNL A   1      31.013  21.447  25.957  1.00  0.00    -0.391 OA
ATOM     21  H   UNL A   1      30.297  20.906  25.589  1.00  0.00     0.211 HD
ENDBRANCH  16  20
ENDBRANCH  15  16
ENDBRANCH   7  15
ENDBRANCH   4   7
ENDBRANCH   2   3
ENDBRANCH   1   2
BRANCH   1  22
ATOM     22  C   UNL A   1      31.560  27.236  24.589  1.00  0.00     0.002 C 
BRANCH  22  23
ATOM     23  C   UNL A   1      31.503  27.265  26.123  1.00  0.00     0.002 C 
BRANCH  23  24
ATOM     24  C   UNL A   1      32.810  27.560  26.867  1.00  0.00     0.021 C 
BRANCH  24  25
ATOM     25  C   UNL A   1      33.733  28.598  26.235  1.00  0.00     0.116 C 
BRANCH  25  26
ATOM     26  N   UNL A   1      33.545  29.926  26.786  1.00  0.00    -0.352 N 
ATOM     27  C   UNL A   1      34.342  30.664  27.623  1.00  0.00     0.251 C 
ATOM     28  H   UNL A   1      32.709  30.369  26.517  1.00  0.00     0.163 HD
ATOM     29  O   UNL A   1      33.917  31.726  28.072  1.00  0.00    -0.269 OA
BRANCH  27  30
ATOM     30  C   UNL A   1      35.697  30.204  28.015  1.00  0.00     0.039 A 
ATOM     31  C   UNL A   1      35.844  29.591  29.264  1.00  0.00     0.014 A 
ATOM     32  C   UNL A   1      36.824  30.428  27.219  1.00  0.00     0.014 A 
ATOM     33  C   UNL A   1      37.104  29.173  29.699  1.00  0.00     0.010 A 
ATOM     34  C   UNL A   1      38.078  29.961  27.629  1.00  0.00     0.010 A 
ATOM     35  C   UNL A   1      38.231  29.337  28.876  1.00  0.00    -0.014 A 
BRANCH  35  36
ATOM     36  C   UNL A   1      39.562  28.857  29.326  1.00  0.00     0.031 A 
ATOM     37  C   UNL A   1      40.399  29.675  30.271  1.00  0.00     0.074 A 
ATOM     38  C   UNL A   1      40.031  27.678  28.872  1.00  0.00     0.049 A 
ATOM     39  N   UNL A   1      41.567  29.394  30.794  1.00  0.00    -0.248 NA
ATOM     40  C   UNL A   1      39.863  30.986  30.669  1.00  0.00     0.031 C 
ATOM     41  C   UNL A   1      39.339  26.802  27.923  1.00  0.00     0.029 A 
ATOM     42  N   UNL A   1      41.197  27.012  29.153  1.00  0.00    -0.354 N 
ATOM     43  C   UNL A   1      41.908  30.491  31.575  1.00  0.00     0.074 A 
ATOM     44  C   UNL A   1      40.845  31.462  31.423  1.00  0.00     0.031 C 
ATOM     45  C   UNL A   1      40.080  25.700  27.724  1.00  0.00     0.029 A 
ATOM     46  C   UNL A   1      41.306  25.803  28.510  1.00  0.00     0.049 A 
ATOM     47  H   UNL A   1      41.889  27.366  29.756  1.00  0.00     0.167 HD
ATOM     48  C   UNL A   1      42.997  30.671  32.360  1.00  0.00     0.031 A 
ATOM     49  C   UNL A   1      42.279  24.874  28.554  1.00  0.00     0.031 A 
ATOM     50  C   UNL A   1      44.055  29.708  32.521  1.00  0.00     0.049 A 
ATOM     51  C   UNL A   1      43.475  25.095  29.435  1.00  0.00     0.074 A 
ATOM     52  C   UNL A   1      45.172  29.782  33.337  1.00  0.00     0.029 A 
ATOM     53  N   UNL A   1      44.129  28.498  31.852  1.00  0.00    -0.354 N 
ATOM     54  N   UNL A   1      43.747  26.109  30.218  1.00  0.00    -0.248 NA
ATOM     55  C   UNL A   1      44.491  24.032  29.447  1.00  0.00     0.031 C 
ATOM     56  C   UNL A   1      45.942  28.632  33.129  1.00  0.00     0.029 A 
ATOM     57  C   UNL A   1      45.282  27.824  32.219  1.00  0.00     0.049 A 
ATOM     58  H   UNL A   1      43.460  28.165  31.210  1.00  0.00     0.167 HD
ATOM     59  C   UNL A   1      44.956  25.800  30.830  1.00  0.00     0.074 A 
ATOM     60  C   UNL A   1      45.352  24.494  30.342  1.00  0.00     0.031 C 
ATOM     61  C   UNL A   1      45.672  26.533  31.717  1.00  0.00     0.031 A 
BRANCH  48  62
ATOM     62  C   UNL A   1      43.100  31.970  33.108  1.00  0.00    -0.014 A 
ATOM     63  C   UNL A   1      42.582  32.101  34.406  1.00  0.00     0.009 A 
ATOM     64  C   UNL A   1      43.755  33.065  32.523  1.00  0.00     0.009 A 
ATOM     65  C   UNL A   1      42.688  33.314  35.091  1.00  0.00     0.001 A 
ATOM     66  C   UNL A   1      43.881  34.269  33.220  1.00  0.00     0.001 A 
ATOM     67  C   UNL A   1      43.340  34.395  34.498  1.00  0.00     0.000 A 
ENDBRANCH  48  62
BRANCH  49  68
ATOM     68  C   UNL A   1      42.150  23.630  27.754  1.00  0.00    -0.014 A 
ATOM     69  C   UNL A   1      42.600  23.590  26.426  1.00  0.00     0.009 A 
ATOM     70  C   UNL A   1      41.578  22.478  28.314  1.00  0.00     0.009 A 
ATOM     71  C   UNL A   1      42.460  22.427  25.667  1.00  0.00     0.001 A 
ATOM     72  C   UNL A   1      41.462  21.309  27.559  1.00  0.00     0.001 A 
ATOM     73  C   UNL A   1      41.895  21.287  26.235  1.00  0.00     0.000 A 
ENDBRANCH  49  68
BRANCH  61  74
ATOM     74  C   UNL A   1      46.949  25.928  32.225  1.00  0.00    -0.014 A 
ATOM     75  C   UNL A   1      48.167  26.144  31.562  1.00  0.00     0.009 A 
ATOM     76  C   UNL A   1      46.936  25.149  33.392  1.00  0.00     0.009 A 
ATOM     77  C   UNL A   1      49.343  25.561  32.039  1.00  0.00     0.001 A 
ATOM     78  C   UNL A   1      48.118  24.588  33.880  1.00  0.00     0.001 A 
ATOM     79  C   UNL A   1      49.317  24.787  33.199  1.00  0.00     0.000 A 
ENDBRANCH  61  74
ENDBRANCH  35  36
ENDBRANCH  27  30
ENDBRANCH  25  26
ENDBRANCH  24  25
ENDBRANCH  23  24
ENDBRANCH  22  23
ENDBRANCH   1  22
TORSDOF 19
ENDMDL
MODEL 2
REMARK VINA RESULT:      -9.5      1.387      6.103
REMARK SMILES CC[C@H]1CC[C@](C[C@H](O)COC)(C(=O)NCCCCCCNC(=O)c2ccc(-c3c4nc(c(-c5ccccc5)c5ccc([nH]5)c(-c5ccccc5)c5nc(c(-c6ccccc6)c6ccc3[nH]6)C=C5)C=C4)cc2)CC1
REMARK SMILES IDX 17 1 16 2 15 3 13 4 14 5 6 7 3 8 74 9 4 10 73 11 5 12 2 13
REMARK SMILES IDX 1 14 7 15 8 16 10 17 11 18 12 19 9 20 18 22 19 23 20 24
REMARK SMILES IDX 21 25 22 26 23 27 24 29 25 30 26 31 72 32 27 33 71 34 28 35
REMARK SMILES IDX 29 36 30 37 65 38 31 39 70 40 64 41 66 42 32 43 69 44 63 45
REMARK SMILES IDX 62 46 33 48 55 49 40 50 54 51 41 52 44 53 53 54 67 55 42 56
REMARK SMILES IDX 43 57 52 59 68 60 45 61 34 62 35 63 39 64 36 65 38 66 37 67
REMARK SMILES IDX 56 68 57 69 61 70 58 71 60 72 59 73 46 74 47 75 51 76 48 77
REMARK SMILES IDX 50 78 49 79
REMARK H PARENT 15 6 9 21 22 28 66 47 44 58
REMARK Flexibility Score: inf
ROOT
ATOM      1  C   UNL A   1      30.529  26.439  24.720  1.00  0.00     0.021 C 
ENDROOT
BRANCH   1   2
ATOM      2  C   UNL A   1      30.534  25.324  23.681  1.00  0.00     0.116 C 
BRANCH   2   3
ATOM      3  N   UNL A   1      31.551  25.461  22.661  1.00  0.00    -0.356 N 
ATOM      4  C   UNL A   1      32.735  24.817  22.474  1.00  0.00     0.226 C 
ATOM      5  O   UNL A   1      33.144  24.824  21.305  1.00  0.00    -0.274 OA
ATOM      6  H   UNL A   1      31.350  26.142  21.979  1.00  0.00     0.163 HD
BRANCH   4   7
ATOM      7  C   UNL A   1      33.566  24.110  23.596  1.00  0.00     0.052 C 
ATOM      8  C   UNL A   1      36.359  23.903  24.890  1.00  0.00    -0.011 C 
ATOM      9  C   UNL A   1      35.930  22.962  23.756  1.00  0.00     0.005 C 
ATOM     10  C   UNL A   1      35.142  24.507  25.594  1.00  0.00     0.005 C 
ATOM     11  C   UNL A   1      34.848  23.559  22.848  1.00  0.00     0.017 C 
ATOM     12  C   UNL A   1      34.139  25.116  24.614  1.00  0.00     0.017 C 
BRANCH   8  13
ATOM     13  C   UNL A   1      37.278  23.147  25.871  1.00  0.00    -0.000 C 
ATOM     14  C   UNL A   1      37.684  21.758  25.399  1.00  0.00     0.004 C 
ENDBRANCH   8  13
BRANCH   7  15
ATOM     15  C   UNL A   1      32.829  22.840  24.158  1.00  0.00     0.051 C 
BRANCH  15  16
ATOM     16  C   UNL A   1      32.636  21.533  23.371  1.00  0.00     0.141 C 
BRANCH  16  17
ATOM     17  C   UNL A   1      32.374  20.296  24.248  1.00  0.00     0.191 C 
BRANCH  17  18
ATOM     18  O   UNL A   1      32.659  19.066  23.574  1.00  0.00    -0.382 OA
ATOM     19  C   UNL A   1      32.428  17.938  24.410  1.00  0.00     0.195 C 
ENDBRANCH  17  18
ENDBRANCH  16  17
BRANCH  16  20
ATOM     20  O   UNL A   1      31.664  21.706  22.354  1.00  0.00    -0.391 OA
ATOM     21  H   UNL A   1      31.120  20.906  22.288  1.00  0.00     0.211 HD
ENDBRANCH  16  20
ENDBRANCH  15  16
ENDBRANCH   7  15
ENDBRANCH   4   7
ENDBRANCH   2   3
ENDBRANCH   1   2
BRANCH   1  22
ATOM     22  C   UNL A   1      31.198  27.746  24.274  1.00  0.00     0.002 C 
BRANCH  22  23
ATOM     23  C   UNL A   1      31.841  28.611  25.367  1.00  0.00     0.002 C 
BRANCH  23  24
ATOM     24  C   UNL A   1      32.398  27.886  26.597  1.00  0.00     0.021 C 
BRANCH  24  25
ATOM     25  C   UNL A   1      33.716  28.413  27.158  1.00  0.00     0.116 C 
BRANCH  25  26
ATOM     26  N   UNL A   1      33.644  29.809  27.540  1.00  0.00    -0.352 N 
ATOM     27  C   UNL A   1      34.567  30.612  28.160  1.00  0.00     0.251 C 
ATOM     28  H   UNL A   1      32.794  30.254  27.319  1.00  0.00     0.163 HD
ATOM     29  O   UNL A   1      34.238  31.744  28.508  1.00  0.00    -0.269 OA
BRANCH  27  30
ATOM     30  C   UNL A   1      35.946  30.142  28.438  1.00  0.00     0.039 A 
ATOM     31  C   UNL A   1      36.888  30.232  27.408  1.00  0.00     0.014 A 
ATOM     32  C   UNL A   1      36.307  29.553  29.653  1.00  0.00     0.014 A 
ATOM     33  C   UNL A   1      38.192  29.769  27.604  1.00  0.00     0.010 A 
ATOM     34  C   UNL A   1      37.626  29.139  29.870  1.00  0.00     0.010 A 
ATOM     35  C   UNL A   1      38.578  29.234  28.844  1.00  0.00    -0.014 A 
BRANCH  35  36
ATOM     36  C   UNL A   1      39.975  28.778  29.061  1.00  0.00     0.031 A 
ATOM     37  C   UNL A   1      40.404  27.393  28.661  1.00  0.00     0.074 A 
ATOM     38  C   UNL A   1      40.864  29.613  29.633  1.00  0.00     0.049 A 
ATOM     39  N   UNL A   1      41.589  26.841  28.744  1.00  0.00    -0.248 NA
ATOM     40  C   UNL A   1      39.366  26.507  28.112  1.00  0.00     0.031 C 
ATOM     41  C   UNL A   1      40.571  30.968  30.102  1.00  0.00     0.029 A 
ATOM     42  N   UNL A   1      42.197  29.443  29.911  1.00  0.00    -0.354 N 
ATOM     43  C   UNL A   1      41.440  25.545  28.265  1.00  0.00     0.074 A 
ATOM     44  C   UNL A   1      40.040  25.379  27.935  1.00  0.00     0.031 C 
ATOM     45  C   UNL A   1      41.698  31.519  30.582  1.00  0.00     0.029 A 
ATOM     46  C   UNL A   1      42.784  30.549  30.477  1.00  0.00     0.049 A 
ATOM     47  H   UNL A   1      42.686  28.610  29.724  1.00  0.00     0.167 HD
ATOM     48  C   UNL A   1      42.381  24.586  28.100  1.00  0.00     0.031 A 
ATOM     49  C   UNL A   1      44.056  30.764  30.862  1.00  0.00     0.031 A 
ATOM     50  C   UNL A   1      43.775  24.746  28.420  1.00  0.00     0.049 A 
ATOM     51  C   UNL A   1      45.081  29.685  30.664  1.00  0.00     0.074 A 
ATOM     52  C   UNL A   1      44.812  23.845  28.236  1.00  0.00     0.029 A 
ATOM     53  N   UNL A   1      44.328  25.879  28.992  1.00  0.00    -0.354 N 
ATOM     54  N   UNL A   1      44.934  28.490  30.147  1.00  0.00    -0.248 NA
ATOM     55  C   UNL A   1      46.454  29.994  31.092  1.00  0.00     0.031 C 
ATOM     56  C   UNL A   1      45.985  24.421  28.736  1.00  0.00     0.029 A 
ATOM     57  C   UNL A   1      45.687  25.695  29.189  1.00  0.00     0.049 A 
ATOM     58  H   UNL A   1      43.829  26.696  29.225  1.00  0.00     0.167 HD
ATOM     59  C   UNL A   1      46.197  27.911  30.170  1.00  0.00     0.074 A 
ATOM     60  C   UNL A   1      47.100  28.894  30.733  1.00  0.00     0.031 C 
ATOM     61  C   UNL A   1      46.572  26.675  29.760  1.00  0.00     0.031 A 
BRANCH  48  62
ATOM     62  C   UNL A   1      41.928  23.265  27.545  1.00  0.00    -0.014 A 
ATOM     63  C   UNL A   1      42.046  22.974  26.177  1.00  0.00     0.009 A 
ATOM     64  C   UNL A   1      41.410  22.284  28.406  1.00  0.00     0.009 A 
ATOM     65  C   UNL A   1      41.623  21.741  25.676  1.00  0.00     0.001 A 
ATOM     66  C   UNL A   1      41.011  21.042  27.906  1.00  0.00     0.001 A 
ATOM     67  C   UNL A   1      41.109  20.776  26.541  1.00  0.00     0.000 A 
ENDBRANCH  48  62
BRANCH  49  68
ATOM     68  C   UNL A   1      44.439  32.072  31.452  1.00  0.00    -0.014 A 
ATOM     69  C   UNL A   1      44.878  33.120  30.630  1.00  0.00     0.009 A 
ATOM     70  C   UNL A   1      44.366  32.277  32.838  1.00  0.00     0.009 A 
ATOM     71  C   UNL A   1      45.257  34.342  31.187  1.00  0.00     0.001 A 
ATOM     72  C   UNL A   1      44.723  33.509  33.389  1.00  0.00     0.001 A 
ATOM     73  C   UNL A   1      45.176  34.537  32.564  1.00  0.00     0.000 A 
ENDBRANCH  49  68
BRANCH  61  74
ATOM     74  C   UNL A   1      48.026  26.326  29.895  1.00  0.00    -0.014 A 
ATOM     75  C   UNL A   1      48.928  26.561  28.846  1.00  0.00     0.009 A 
ATOM     76  C   UNL A   1      48.504  25.775  31.094  1.00  0.00     0.009 A 
ATOM     77  C   UNL A   1      50.275  26.217  28.982  1.00  0.00     0.001 A 
ATOM     78  C   UNL A   1      49.855  25.454  31.236  1.00  0.00     0.001 A 
ATOM     79  C   UNL A   1      50.737  25.667  30.178  1.00  0.00     0.000 A 
ENDBRANCH  61  74
ENDBRANCH  35  36
ENDBRANCH  27  30
ENDBRANCH  25  26
ENDBRANCH  24  25
ENDBRANCH  23  24
ENDBRANCH  22  23
ENDBRANCH   1  22
TORSDOF 19
ENDMDL
MODEL 3
REMARK VINA RESULT:      -9.0      1.262      2.692
REMARK SMILES CC[C@H]1CC[C@](C[C@H](O)COC)(C(=O)NCCCCCCNC(=O)c2ccc(-c3c4nc(c(-c5ccccc5)c5ccc([nH]5)c(-c5ccccc5)c5nc(c(-c6ccccc6)c6ccc3[nH]6)C=C5)C=C4)cc2)CC1
REMARK SMILES IDX 17 1 16 2 15 3 13 4 14 5 6 7 3 8 74 9 4 10 73 11 5 12 2 13
REMARK SMILES IDX 1 14 7 15 8 16 10 17 11 18 12 19 9 20 18 22 19 23 20 24
REMARK SMILES IDX 21 25 22 26 23 27 24 29 25 30 26 31 72 32 27 33 71 34 28 35
REMARK SMILES IDX 29 36 30 37 65 38 31 39 70 40 64 41 66 42 32 43 69 44 63 45
REMARK SMILES IDX 62 46 33 48 55 49 40 50 54 51 41 52 44 53 53 54 67 55 42 56
REMARK SMILES IDX 43 57 52 59 68 60 45 61 34 62 35 63 39 64 36 65 38 66 37 67
REMARK SMILES IDX 56 68 57 69 61 70 58 71 60 72 59 73 46 74 47 75 51 76 48 77
REMARK SMILES IDX 50 78 49 79
REMARK H PARENT 15 6 9 21 22 28 66 47 44 58
REMARK Flexibility Score: inf
ROOT
ATOM      1  C   UNL A   1      30.863  25.268  25.981  1.00  0.00     0.021 C 
ENDROOT
BRANCH   1   2
ATOM      2  C   UNL A   1      32.097  24.507  25.514  1.00  0.00     0.116 C 
BRANCH   2   3
ATOM      3  N   UNL A   1      32.670  23.626  26.510  1.00  0.00    -0.356 N 
ATOM      4  C   UNL A   1      33.454  22.521  26.394  1.00  0.00     0.226 C 
ATOM      5  O   UNL A   1      34.139  22.271  27.395  1.00  0.00    -0.274 OA
ATOM      6  H   UNL A   1      32.452  23.872  27.439  1.00  0.00     0.163 HD
BRANCH   4   7
ATOM      7  C   UNL A   1      33.532  21.597  25.134  1.00  0.00     0.052 C 
ATOM      8  C   UNL A   1      32.670  18.873  23.969  1.00  0.00    -0.011 C 
ATOM      9  C   UNL A   1      34.014  19.046  24.689  1.00  0.00     0.005 C 
ATOM     10  C   UNL A   1      32.137  20.216  23.465  1.00  0.00     0.005 C 
ATOM     11  C   UNL A   1      34.017  20.199  25.699  1.00  0.00     0.017 C 
ATOM     12  C   UNL A   1      32.137  21.292  24.551  1.00  0.00     0.017 C 
BRANCH   8  13
ATOM     13  C   UNL A   1      32.821  17.847  22.828  1.00  0.00    -0.000 C 
ATOM     14  C   UNL A   1      33.989  16.885  23.006  1.00  0.00     0.004 C 
ENDBRANCH   8  13
BRANCH   7  15
ATOM     15  C   UNL A   1      34.655  22.059  24.136  1.00  0.00     0.051 C 
BRANCH  15  16
ATOM     16  C   UNL A   1      35.289  23.460  24.136  1.00  0.00     0.141 C 
BRANCH  16  17
ATOM     17  C   UNL A   1      36.707  23.517  24.731  1.00  0.00     0.191 C 
BRANCH  17  18
ATOM     18  O   UNL A   1      37.479  22.347  24.441  1.00  0.00    -0.382 OA
ATOM     19  C   UNL A   1      38.115  21.831  25.604  1.00  0.00     0.195 C 
ENDBRANCH  17  18
ENDBRANCH  16  17
BRANCH  16  20
ATOM     20  O   UNL A   1      35.208  24.039  22.845  1.00  0.00    -0.391 OA
ATOM     21  H   UNL A   1      34.288  24.282  22.657  1.00  0.00     0.211 HD
ENDBRANCH  16  20
ENDBRANCH  15  16
ENDBRANCH   7  15
ENDBRANCH   4   7
ENDBRANCH   2   3
ENDBRANCH   1   2
BRANCH   1  22
ATOM     22  C   UNL A   1      31.067  26.776  26.184  1.00  0.00     0.002 C 
BRANCH  22  23
ATOM     23  C   UNL A   1      32.018  27.490  25.213  1.00  0.00     0.002 C 
BRANCH  23  24
ATOM     24  C   UNL A   1      33.355  27.982  25.778  1.00  0.00     0.021 C 
BRANCH  24  25
ATOM     25  C   UNL A   1      33.382  28.316  27.267  1.00  0.00     0.116 C 
BRANCH  25  26
ATOM     26  N   UNL A   1      33.322  29.742  27.523  1.00  0.00    -0.352 N 
ATOM     27  C   UNL A   1      34.270  30.600  28.018  1.00  0.00     0.251 C 
ATOM     28  H   UNL A   1      32.458  30.163  27.308  1.00  0.00     0.163 HD
ATOM     29  O   UNL A   1      33.953  31.758  28.278  1.00  0.00    -0.269 OA
BRANCH  27  30
ATOM     30  C   UNL A   1      35.664  30.160  28.265  1.00  0.00     0.039 A 
ATOM     31  C   UNL A   1      35.993  29.718  29.552  1.00  0.00     0.014 A 
ATOM     32  C   UNL A   1      36.662  30.241  27.289  1.00  0.00     0.014 A 
ATOM     33  C   UNL A   1      37.302  29.328  29.849  1.00  0.00     0.010 A 
ATOM     34  C   UNL A   1      37.959  29.799  27.570  1.00  0.00     0.010 A 
ATOM     35  C   UNL A   1      38.293  29.347  28.855  1.00  0.00    -0.014 A 
BRANCH  35  36
ATOM     36  C   UNL A   1      39.673  28.894  29.165  1.00  0.00     0.031 A 
ATOM     37  C   UNL A   1      40.620  29.777  29.931  1.00  0.00     0.074 A 
ATOM     38  C   UNL A   1      40.085  27.682  28.745  1.00  0.00     0.049 A 
ATOM     39  N   UNL A   1      41.846  29.530  30.320  1.00  0.00    -0.248 NA
ATOM     40  C   UNL A   1      40.134  31.117  30.295  1.00  0.00     0.031 C 
ATOM     41  C   UNL A   1      39.282  26.741  27.961  1.00  0.00     0.029 A 
ATOM     42  N   UNL A   1      41.280  27.033  28.923  1.00  0.00    -0.354 N 
ATOM     43  C   UNL A   1      42.280  30.681  30.966  1.00  0.00     0.074 A 
ATOM     44  C   UNL A   1      41.202  31.643  30.878  1.00  0.00     0.031 C 
ATOM     45  C   UNL A   1      39.995  25.624  27.752  1.00  0.00     0.029 A 
ATOM     46  C   UNL A   1      41.312  25.778  28.365  1.00  0.00     0.049 A 
ATOM     47  H   UNL A   1      42.043  27.428  29.405  1.00  0.00     0.167 HD
ATOM     48  C   UNL A   1      43.460  30.913  31.589  1.00  0.00     0.031 A 
ATOM     49  C   UNL A   1      42.287  24.850  28.354  1.00  0.00     0.031 A 
ATOM     50  C   UNL A   1      44.534  29.959  31.685  1.00  0.00     0.049 A 
ATOM     51  C   UNL A   1      43.584  25.131  29.054  1.00  0.00     0.074 A 
ATOM     52  C   UNL A   1      45.746  30.089  32.343  1.00  0.00     0.029 A 
ATOM     53  N   UNL A   1      44.527  28.702  31.105  1.00  0.00    -0.354 N 
ATOM     54  N   UNL A   1      43.950  26.200  29.718  1.00  0.00    -0.248 NA
ATOM     55  C   UNL A   1      44.598  24.066  29.016  1.00  0.00     0.031 C 
ATOM     56  C   UNL A   1      46.489  28.923  32.126  1.00  0.00     0.029 A 
ATOM     57  C   UNL A   1      45.721  28.052  31.371  1.00  0.00     0.049 A 
ATOM     58  H   UNL A   1      43.783  28.325  30.582  1.00  0.00     0.167 HD
ATOM     59  C   UNL A   1      45.229  25.931  30.192  1.00  0.00     0.074 A 
ATOM     60  C   UNL A   1      45.565  24.590  29.756  1.00  0.00     0.031 C 
ATOM     61  C   UNL A   1      46.049  26.725  30.922  1.00  0.00     0.031 A 
BRANCH  48  62
ATOM     62  C   UNL A   1      43.652  32.264  32.218  1.00  0.00    -0.014 A 
ATOM     63  C   UNL A   1      44.184  33.337  31.483  1.00  0.00     0.009 A 
ATOM     64  C   UNL A   1      43.264  32.479  33.550  1.00  0.00     0.009 A 
ATOM     65  C   UNL A   1      44.354  34.588  32.079  1.00  0.00     0.001 A 
ATOM     66  C   UNL A   1      43.412  33.738  34.136  1.00  0.00     0.001 A 
ATOM     67  C   UNL A   1      43.965  34.788  33.404  1.00  0.00     0.000 A 
ENDBRANCH  48  62
BRANCH  49  68
ATOM     68  C   UNL A   1      42.062  23.550  27.672  1.00  0.00    -0.014 A 
ATOM     69  C   UNL A   1      42.453  23.372  26.337  1.00  0.00     0.009 A 
ATOM     70  C   UNL A   1      41.456  22.484  28.353  1.00  0.00     0.009 A 
ATOM     71  C   UNL A   1      42.223  22.157  25.690  1.00  0.00     0.001 A 
ATOM     72  C   UNL A   1      41.249  21.262  27.710  1.00  0.00     0.001 A 
ATOM     73  C   UNL A   1      41.625  21.102  26.378  1.00  0.00     0.000 A 
ENDBRANCH  49  68
BRANCH  61  74
ATOM     74  C   UNL A   1      47.383  26.153  31.306  1.00  0.00    -0.014 A 
ATOM     75  C   UNL A   1      48.451  26.130  30.396  1.00  0.00     0.009 A 
ATOM     76  C   UNL A   1      47.580  25.650  32.601  1.00  0.00     0.009 A 
ATOM     77  C   UNL A   1      49.681  25.581  30.764  1.00  0.00     0.001 A 
ATOM     78  C   UNL A   1      48.818  25.124  32.974  1.00  0.00     0.001 A 
ATOM     79  C   UNL A   1      49.864  25.082  32.054  1.00  0.00     0.000 A 
ENDBRANCH  61  74
ENDBRANCH  35  36
ENDBRANCH  27  30
ENDBRANCH  25  26
ENDBRANCH  24  25
ENDBRANCH  23  24
ENDBRANCH  22  23
ENDBRANCH   1  22
TORSDOF 19
ENDMDL
