MODEL 1
REMARK VINA RESULT:     -11.7      0.000      0.000
REMARK SMILES Cc1ccc(Nc2c(Cl)cc(Cl)cc2Cl)c(CC(=O)NCCCCCCNC(=O)c2ccc(-c3c4nc(c(-c5ccccc5)c5ccc([nH]5)c(-c5ccccc5)c5nc(c(-c6ccccc6)c6ccc3[nH]6)C=C5)C=C4)cc2)c1
REMARK SMILES IDX 23 1 22 2 21 3 20 4 18 5 19 6 17 8 16 9 1 10 2 11 3 12 78 13
REMARK SMILES IDX 4 14 5 15 6 16 7 18 8 19 14 20 9 21 10 22 13 23 15 24 11 25
REMARK SMILES IDX 12 26 24 27 25 28 26 29 27 30 28 31 29 33 30 34 31 35 77 36
REMARK SMILES IDX 32 37 76 38 33 39 34 40 35 41 70 42 36 43 75 44 69 45 71 46
REMARK SMILES IDX 37 47 74 48 68 49 67 50 38 52 60 53 45 54 59 55 46 56 49 57
REMARK SMILES IDX 58 58 72 59 47 60 48 61 57 63 73 64 50 65 39 66 40 67 44 68
REMARK SMILES IDX 41 69 43 70 42 71 61 72 62 73 66 74 63 75 65 76 64 77 51 78
REMARK SMILES IDX 52 79 56 80 53 81 55 82 54 83
REMARK H PARENT 20 7 6 17 27 32 71 51 49 62
REMARK Flexibility Score: inf
ROOT
ATOM      1  C   UNL A   1      32.080  28.143  25.851  1.00  0.00     0.002 C 
ENDROOT
BRANCH   1   2
ATOM      2  C   UNL A   1      33.285  27.241  26.158  1.00  0.00     0.021 C 
BRANCH   2   3
ATOM      3  C   UNL A   1      33.732  26.339  25.003  1.00  0.00     0.116 C 
BRANCH   3   4
ATOM      4  N   UNL A   1      34.026  27.097  23.806  1.00  0.00    -0.356 N 
ATOM      5  C   UNL A   1      33.500  26.959  22.557  1.00  0.00     0.224 C 
ATOM      6  O   UNL A   1      34.002  27.601  21.631  1.00  0.00    -0.275 OA
ATOM      7  H   UNL A   1      34.699  27.809  23.907  1.00  0.00     0.163 HD
BRANCH   5   8
ATOM      8  C   UNL A   1      32.339  26.015  22.301  1.00  0.00     0.137 C 
BRANCH   8   9
ATOM      9  C   UNL A   1      30.993  26.585  22.695  1.00  0.00    -0.015 A 
ATOM     10  C   UNL A   1      29.289  30.002  22.426  1.00  0.00     0.044 C 
ATOM     11  C   UNL A   1      29.544  28.561  22.751  1.00  0.00    -0.051 A 
ATOM     12  C   UNL A   1      28.598  27.823  23.457  1.00  0.00     0.005 A 
ATOM     13  C   UNL A   1      30.724  27.928  22.354  1.00  0.00     0.009 A 
ATOM     14  C   UNL A   1      28.833  26.479  23.761  1.00  0.00     0.026 A 
ATOM     15  C   UNL A   1      30.025  25.833  23.395  1.00  0.00     0.042 A 
BRANCH  15  16
ATOM     16  N   UNL A   1      30.222  24.459  23.663  1.00  0.00    -0.353 N 
ATOM     17  H   UNL A   1      29.750  23.838  23.063  1.00  0.00     0.167 HD
BRANCH  16  18
ATOM     18  C   UNL A   1      31.005  23.851  24.673  1.00  0.00     0.076 A 
ATOM     19  C   UNL A   1      30.881  24.180  26.039  1.00  0.00     0.067 A 
ATOM     20  C   UNL A   1      32.012  22.930  24.312  1.00  0.00     0.067 A 
ATOM     21  Cl  UNL A   1      29.619  25.213  26.623  1.00  0.00    -0.082 Cl
ATOM     22  C   UNL A   1      31.743  23.632  26.994  1.00  0.00     0.043 A 
ATOM     23  C   UNL A   1      32.871  22.379  25.264  1.00  0.00     0.043 A 
ATOM     24  Cl  UNL A   1      32.244  22.470  22.659  1.00  0.00    -0.082 Cl
ATOM     25  C   UNL A   1      32.736  22.742  26.600  1.00  0.00     0.044 A 
ATOM     26  Cl  UNL A   1      33.804  22.083  27.775  1.00  0.00    -0.084 Cl
ENDBRANCH  16  18
ENDBRANCH  15  16
ENDBRANCH   8   9
ENDBRANCH   5   8
ENDBRANCH   3   4
ENDBRANCH   2   3
ENDBRANCH   1   2
BRANCH   1  27
ATOM     27  C   UNL A   1      32.395  29.568  25.369  1.00  0.00     0.002 C 
BRANCH  27  28
ATOM     28  C   UNL A   1      32.432  30.648  26.451  1.00  0.00     0.021 C 
BRANCH  28  29
ATOM     29  C   UNL A   1      33.360  30.339  27.618  1.00  0.00     0.116 C 
BRANCH  29  30
ATOM     30  N   UNL A   1      34.233  31.446  27.982  1.00  0.00    -0.352 N 
ATOM     31  C   UNL A   1      35.543  31.446  28.430  1.00  0.00     0.251 C 
ATOM     32  H   UNL A   1      33.826  32.339  27.896  1.00  0.00     0.163 HD
ATOM     33  O   UNL A   1      36.068  32.496  28.758  1.00  0.00    -0.269 OA
BRANCH  31  34
ATOM     34  C   UNL A   1      36.356  30.202  28.358  1.00  0.00     0.039 A 
ATOM     35  C   UNL A   1      36.507  29.474  29.546  1.00  0.00     0.014 A 
ATOM     36  C   UNL A   1      37.136  29.891  27.250  1.00  0.00     0.014 A 
ATOM     37  C   UNL A   1      37.621  28.656  29.708  1.00  0.00     0.010 A 
ATOM     38  C   UNL A   1      38.293  29.165  27.439  1.00  0.00     0.010 A 
ATOM     39  C   UNL A   1      38.574  28.624  28.696  1.00  0.00    -0.014 A 
BRANCH  39  40
ATOM     40  C   UNL A   1      39.956  28.224  28.913  1.00  0.00     0.031 A 
ATOM     41  C   UNL A   1      40.457  26.932  28.420  1.00  0.00     0.074 A 
ATOM     42  C   UNL A   1      40.813  29.121  29.451  1.00  0.00     0.049 A 
ATOM     43  N   UNL A   1      41.569  26.404  28.806  1.00  0.00    -0.248 NA
ATOM     44  C   UNL A   1      39.703  26.079  27.507  1.00  0.00     0.031 C 
ATOM     45  C   UNL A   1      42.272  29.098  29.428  1.00  0.00     0.029 A 
ATOM     46  N   UNL A   1      40.497  30.147  30.343  1.00  0.00    -0.354 N 
ATOM     47  C   UNL A   1      41.832  25.353  27.968  1.00  0.00     0.074 A 
ATOM     48  C   UNL A   1      40.585  25.097  27.291  1.00  0.00     0.031 C 
ATOM     49  C   UNL A   1      42.732  29.871  30.424  1.00  0.00     0.029 A 
ATOM     50  C   UNL A   1      41.588  30.267  31.227  1.00  0.00     0.049 A 
ATOM     51  H   UNL A   1      39.672  30.683  30.353  1.00  0.00     0.167 HD
ATOM     52  C   UNL A   1      43.119  24.927  27.838  1.00  0.00     0.031 A 
ATOM     53  C   UNL A   1      41.433  29.981  32.555  1.00  0.00     0.031 A 
ATOM     54  C   UNL A   1      43.996  25.505  28.864  1.00  0.00     0.049 A 
ATOM     55  C   UNL A   1      42.261  28.809  33.052  1.00  0.00     0.074 A 
ATOM     56  C   UNL A   1      45.041  26.413  28.863  1.00  0.00     0.029 A 
ATOM     57  N   UNL A   1      43.658  25.319  30.197  1.00  0.00    -0.354 N 
ATOM     58  N   UNL A   1      43.016  28.058  32.298  1.00  0.00    -0.248 NA
ATOM     59  C   UNL A   1      42.215  28.330  34.434  1.00  0.00     0.031 C 
ATOM     60  C   UNL A   1      45.315  26.777  30.217  1.00  0.00     0.029 A 
ATOM     61  C   UNL A   1      44.454  26.070  31.035  1.00  0.00     0.049 A 
ATOM     62  H   UNL A   1      42.938  24.721  30.506  1.00  0.00     0.167 HD
ATOM     63  C   UNL A   1      43.485  26.997  33.027  1.00  0.00     0.074 A 
ATOM     64  C   UNL A   1      42.963  27.215  34.364  1.00  0.00     0.031 C 
ATOM     65  C   UNL A   1      44.219  25.991  32.470  1.00  0.00     0.031 A 
BRANCH  52  66
ATOM     66  C   UNL A   1      43.637  24.128  26.661  1.00  0.00    -0.014 A 
ATOM     67  C   UNL A   1      43.365  22.749  26.587  1.00  0.00     0.009 A 
ATOM     68  C   UNL A   1      44.477  24.634  25.651  1.00  0.00     0.009 A 
ATOM     69  C   UNL A   1      43.924  21.930  25.594  1.00  0.00     0.001 A 
ATOM     70  C   UNL A   1      45.022  23.828  24.643  1.00  0.00     0.001 A 
ATOM     71  C   UNL A   1      44.755  22.470  24.622  1.00  0.00     0.000 A 
ENDBRANCH  52  66
BRANCH  53  72
ATOM     72  C   UNL A   1      40.080  30.337  33.074  1.00  0.00    -0.014 A 
ATOM     73  C   UNL A   1      39.751  31.702  33.208  1.00  0.00     0.009 A 
ATOM     74  C   UNL A   1      39.041  29.395  33.084  1.00  0.00     0.009 A 
ATOM     75  C   UNL A   1      38.418  32.119  33.229  1.00  0.00     0.001 A 
ATOM     76  C   UNL A   1      37.707  29.817  33.123  1.00  0.00     0.001 A 
ATOM     77  C   UNL A   1      37.396  31.177  33.158  1.00  0.00     0.000 A 
ENDBRANCH  53  72
BRANCH  65  78
ATOM     78  C   UNL A   1      44.738  24.799  33.230  1.00  0.00    -0.014 A 
ATOM     79  C   UNL A   1      43.927  23.725  33.618  1.00  0.00     0.009 A 
ATOM     80  C   UNL A   1      46.075  24.783  33.684  1.00  0.00     0.009 A 
ATOM     81  C   UNL A   1      44.444  22.657  34.365  1.00  0.00     0.001 A 
ATOM     82  C   UNL A   1      46.588  23.733  34.450  1.00  0.00     0.001 A 
ATOM     83  C   UNL A   1      45.774  22.661  34.779  1.00  0.00     0.000 A 
ENDBRANCH  65  78
ENDBRANCH  39  40
ENDBRANCH  31  34
ENDBRANCH  29  30
ENDBRANCH  28  29
ENDBRANCH  27  28
ENDBRANCH   1  27
TORSDOF 16
ENDMDL
MODEL 2
REMARK VINA RESULT:     -11.5      1.874      3.071
REMARK SMILES Cc1ccc(Nc2c(Cl)cc(Cl)cc2Cl)c(CC(=O)NCCCCCCNC(=O)c2ccc(-c3c4nc(c(-c5ccccc5)c5ccc([nH]5)c(-c5ccccc5)c5nc(c(-c6ccccc6)c6ccc3[nH]6)C=C5)C=C4)cc2)c1
REMARK SMILES IDX 23 1 22 2 21 3 20 4 18 5 19 6 17 8 16 9 1 10 2 11 3 12 78 13
REMARK SMILES IDX 4 14 5 15 6 16 7 18 8 19 14 20 9 21 10 22 13 23 15 24 11 25
REMARK SMILES IDX 12 26 24 27 25 28 26 29 27 30 28 31 29 33 30 34 31 35 77 36
REMARK SMILES IDX 32 37 76 38 33 39 34 40 35 41 70 42 36 43 75 44 69 45 71 46
REMARK SMILES IDX 37 47 74 48 68 49 67 50 38 52 60 53 45 54 59 55 46 56 49 57
REMARK SMILES IDX 58 58 72 59 47 60 48 61 57 63 73 64 50 65 39 66 40 67 44 68
REMARK SMILES IDX 41 69 43 70 42 71 61 72 62 73 66 74 63 75 65 76 64 77 51 78
REMARK SMILES IDX 52 79 56 80 53 81 55 82 54 83
REMARK H PARENT 20 7 6 17 27 32 71 51 49 62
REMARK Flexibility Score: inf
ROOT
ATOM      1  C   UNL A   1      32.547  28.060  27.257  1.00  0.00     0.002 C 
ENDROOT
BRANCH   1   2
ATOM      2  C   UNL A   1      32.299  27.672  25.792  1.00  0.00     0.021 C 
BRANCH   2   3
ATOM      3  C   UNL A   1      33.432  26.884  25.127  1.00  0.00     0.116 C 
BRANCH   3   4
ATOM      4  N   UNL A   1      33.854  27.490  23.881  1.00  0.00    -0.356 N 
ATOM      5  C   UNL A   1      33.479  27.176  22.610  1.00  0.00     0.224 C 
ATOM      6  O   UNL A   1      34.077  27.708  21.671  1.00  0.00    -0.275 OA
ATOM      7  H   UNL A   1      34.501  28.227  23.964  1.00  0.00     0.163 HD
BRANCH   5   8
ATOM      8  C   UNL A   1      32.368  26.176  22.349  1.00  0.00     0.137 C 
BRANCH   8   9
ATOM      9  C   UNL A   1      30.989  26.691  22.701  1.00  0.00    -0.015 A 
ATOM     10  C   UNL A   1      29.159  30.037  22.375  1.00  0.00     0.044 C 
ATOM     11  C   UNL A   1      29.461  28.608  22.709  1.00  0.00    -0.051 A 
ATOM     12  C   UNL A   1      28.524  27.833  23.387  1.00  0.00     0.005 A 
ATOM     13  C   UNL A   1      30.677  28.022  22.349  1.00  0.00     0.009 A 
ATOM     14  C   UNL A   1      28.803  26.499  23.700  1.00  0.00     0.026 A 
ATOM     15  C   UNL A   1      30.030  25.901  23.371  1.00  0.00     0.042 A 
BRANCH  15  16
ATOM     16  N   UNL A   1      30.274  24.536  23.647  1.00  0.00    -0.353 N 
ATOM     17  H   UNL A   1      29.827  23.897  23.048  1.00  0.00     0.167 HD
BRANCH  16  18
ATOM     18  C   UNL A   1      31.073  23.961  24.665  1.00  0.00     0.076 A 
ATOM     19  C   UNL A   1      30.911  24.271  26.031  1.00  0.00     0.067 A 
ATOM     20  C   UNL A   1      32.131  23.096  24.312  1.00  0.00     0.067 A 
ATOM     21  Cl  UNL A   1      29.588  25.231  26.604  1.00  0.00    -0.082 Cl
ATOM     22  C   UNL A   1      31.786  23.760  26.994  1.00  0.00     0.043 A 
ATOM     23  C   UNL A   1      33.003  22.582  25.273  1.00  0.00     0.043 A 
ATOM     24  Cl  UNL A   1      32.411  22.663  22.658  1.00  0.00    -0.082 Cl
ATOM     25  C   UNL A   1      32.830  22.926  26.609  1.00  0.00     0.044 A 
ATOM     26  Cl  UNL A   1      33.913  22.313  27.795  1.00  0.00    -0.084 Cl
ENDBRANCH  16  18
ENDBRANCH  15  16
ENDBRANCH   8   9
ENDBRANCH   5   8
ENDBRANCH   3   4
ENDBRANCH   2   3
ENDBRANCH   1   2
BRANCH   1  27
ATOM     27  C   UNL A   1      33.781  28.933  27.536  1.00  0.00     0.002 C 
BRANCH  27  28
ATOM     28  C   UNL A   1      33.772  30.325  26.903  1.00  0.00     0.021 C 
BRANCH  28  29
ATOM     29  C   UNL A   1      34.571  31.370  27.668  1.00  0.00     0.116 C 
BRANCH  29  30
ATOM     30  N   UNL A   1      33.793  32.540  28.049  1.00  0.00    -0.352 N 
ATOM     31  C   UNL A   1      33.991  33.456  29.069  1.00  0.00     0.251 C 
ATOM     32  H   UNL A   1      32.999  32.708  27.492  1.00  0.00     0.163 HD
ATOM     33  O   UNL A   1      33.163  34.330  29.263  1.00  0.00    -0.269 OA
BRANCH  31  34
ATOM     34  C   UNL A   1      35.277  33.476  29.815  1.00  0.00     0.039 A 
ATOM     35  C   UNL A   1      36.375  34.063  29.171  1.00  0.00     0.014 A 
ATOM     36  C   UNL A   1      35.469  32.741  30.980  1.00  0.00     0.014 A 
ATOM     37  C   UNL A   1      37.663  33.670  29.521  1.00  0.00     0.010 A 
ATOM     38  C   UNL A   1      36.733  32.271  31.264  1.00  0.00     0.010 A 
ATOM     39  C   UNL A   1      37.815  32.669  30.474  1.00  0.00    -0.014 A 
BRANCH  39  40
ATOM     40  C   UNL A   1      39.011  31.848  30.586  1.00  0.00     0.031 A 
ATOM     41  C   UNL A   1      39.104  30.548  29.902  1.00  0.00     0.074 A 
ATOM     42  C   UNL A   1      40.092  32.361  31.213  1.00  0.00     0.049 A 
ATOM     43  N   UNL A   1      40.003  29.664  30.173  1.00  0.00    -0.248 NA
ATOM     44  C   UNL A   1      38.138  30.099  28.906  1.00  0.00     0.031 C 
ATOM     45  C   UNL A   1      41.477  31.907  31.138  1.00  0.00     0.029 A 
ATOM     46  N   UNL A   1      40.091  33.297  32.250  1.00  0.00    -0.354 N 
ATOM     47  C   UNL A   1      39.946  28.713  29.189  1.00  0.00     0.074 A 
ATOM     48  C   UNL A   1      38.685  28.940  28.526  1.00  0.00     0.031 C 
ATOM     49  C   UNL A   1      42.139  32.357  32.216  1.00  0.00     0.029 A 
ATOM     50  C   UNL A   1      41.159  32.958  33.104  1.00  0.00     0.049 A 
ATOM     51  H   UNL A   1      39.466  34.048  32.362  1.00  0.00     0.167 HD
ATOM     52  C   UNL A   1      41.046  27.944  28.957  1.00  0.00     0.031 A 
ATOM     53  C   UNL A   1      40.913  32.545  34.384  1.00  0.00     0.031 A 
ATOM     54  C   UNL A   1      42.047  28.082  30.023  1.00  0.00     0.049 A 
ATOM     55  C   UNL A   1      41.346  31.121  34.686  1.00  0.00     0.074 A 
ATOM     56  C   UNL A   1      43.316  28.626  30.113  1.00  0.00     0.029 A 
ATOM     57  N   UNL A   1      41.656  27.817  31.328  1.00  0.00    -0.354 N 
ATOM     58  N   UNL A   1      41.847  30.294  33.809  1.00  0.00    -0.248 NA
ATOM     59  C   UNL A   1      41.145  30.486  35.989  1.00  0.00     0.031 C 
ATOM     60  C   UNL A   1      43.674  28.696  31.494  1.00  0.00     0.029 A 
ATOM     61  C   UNL A   1      42.633  28.169  32.235  1.00  0.00     0.049 A 
ATOM     62  H   UNL A   1      40.787  27.425  31.576  1.00  0.00     0.167 HD
ATOM     63  C   UNL A   1      41.969  29.050  34.368  1.00  0.00     0.074 A 
ATOM     64  C   UNL A   1      41.524  29.220  35.739  1.00  0.00     0.031 C 
ATOM     65  C   UNL A   1      42.372  27.960  33.652  1.00  0.00     0.031 A 
BRANCH  52  66
ATOM     66  C   UNL A   1      41.311  27.203  27.664  1.00  0.00    -0.014 A 
ATOM     67  C   UNL A   1      41.062  25.820  27.595  1.00  0.00     0.009 A 
ATOM     68  C   UNL A   1      41.896  27.771  26.516  1.00  0.00     0.009 A 
ATOM     69  C   UNL A   1      41.407  25.054  26.471  1.00  0.00     0.001 A 
ATOM     70  C   UNL A   1      42.224  27.018  25.381  1.00  0.00     0.001 A 
ATOM     71  C   UNL A   1      41.991  25.653  25.364  1.00  0.00     0.000 A 
ENDBRANCH  52  66
BRANCH  53  72
ATOM     72  C   UNL A   1      39.725  33.212  34.993  1.00  0.00    -0.014 A 
ATOM     73  C   UNL A   1      38.453  32.638  34.785  1.00  0.00     0.009 A 
ATOM     74  C   UNL A   1      39.876  34.145  36.029  1.00  0.00     0.009 A 
ATOM     75  C   UNL A   1      37.398  32.900  35.662  1.00  0.00     0.001 A 
ATOM     76  C   UNL A   1      38.810  34.418  36.894  1.00  0.00     0.001 A 
ATOM     77  C   UNL A   1      37.585  33.769  36.733  1.00  0.00     0.000 A 
ENDBRANCH  53  72
BRANCH  65  78
ATOM     78  C   UNL A   1      42.502  26.571  34.221  1.00  0.00    -0.014 A 
ATOM     79  C   UNL A   1      41.566  26.014  35.102  1.00  0.00     0.009 A 
ATOM     80  C   UNL A   1      43.664  25.812  33.963  1.00  0.00     0.009 A 
ATOM     81  C   UNL A   1      41.751  24.734  35.644  1.00  0.00     0.001 A 
ATOM     82  C   UNL A   1      43.864  24.547  34.521  1.00  0.00     0.001 A 
ATOM     83  C   UNL A   1      42.899  24.001  35.352  1.00  0.00     0.000 A 
ENDBRANCH  65  78
ENDBRANCH  39  40
ENDBRANCH  31  34
ENDBRANCH  29  30
ENDBRANCH  28  29
ENDBRANCH  27  28
ENDBRANCH   1  27
TORSDOF 16
ENDMDL
MODEL 3
REMARK VINA RESULT:     -11.4      2.144      3.062
REMARK SMILES Cc1ccc(Nc2c(Cl)cc(Cl)cc2Cl)c(CC(=O)NCCCCCCNC(=O)c2ccc(-c3c4nc(c(-c5ccccc5)c5ccc([nH]5)c(-c5ccccc5)c5nc(c(-c6ccccc6)c6ccc3[nH]6)C=C5)C=C4)cc2)c1
REMARK SMILES IDX 23 1 22 2 21 3 20 4 18 5 19 6 17 8 16 9 1 10 2 11 3 12 78 13
REMARK SMILES IDX 4 14 5 15 6 16 7 18 8 19 14 20 9 21 10 22 13 23 15 24 11 25
REMARK SMILES IDX 12 26 24 27 25 28 26 29 27 30 28 31 29 33 30 34 31 35 77 36
REMARK SMILES IDX 32 37 76 38 33 39 34 40 35 41 70 42 36 43 75 44 69 45 71 46
REMARK SMILES IDX 37 47 74 48 68 49 67 50 38 52 60 53 45 54 59 55 46 56 49 57
REMARK SMILES IDX 58 58 72 59 47 60 48 61 57 63 73 64 50 65 39 66 40 67 44 68
REMARK SMILES IDX 41 69 43 70 42 71 61 72 62 73 66 74 63 75 65 76 64 77 51 78
REMARK SMILES IDX 52 79 56 80 53 81 55 82 54 83
REMARK H PARENT 20 7 6 17 27 32 71 51 49 62
REMARK Flexibility Score: inf
ROOT
ATOM      1  C   UNL A   1      31.822  29.680  26.639  1.00  0.00     0.002 C 
ENDROOT
BRANCH   1   2
ATOM      2  C   UNL A   1      31.624  28.284  27.248  1.00  0.00     0.021 C 
BRANCH   2   3
ATOM      3  C   UNL A   1      31.136  27.210  26.269  1.00  0.00     0.116 C 
BRANCH   3   4
ATOM      4  N   UNL A   1      31.296  25.876  26.806  1.00  0.00    -0.356 N 
ATOM      5  C   UNL A   1      32.271  24.961  26.543  1.00  0.00     0.224 C 
ATOM      6  O   UNL A   1      32.140  23.816  26.983  1.00  0.00    -0.275 OA
ATOM      7  H   UNL A   1      30.607  25.589  27.447  1.00  0.00     0.163 HD
BRANCH   5   8
ATOM      8  C   UNL A   1      33.481  25.331  25.704  1.00  0.00     0.137 C 
BRANCH   8   9
ATOM      9  C   UNL A   1      33.481  24.705  24.326  1.00  0.00    -0.015 A 
ATOM     10  C   UNL A   1      32.389  25.806  20.826  1.00  0.00     0.044 C 
ATOM     11  C   UNL A   1      32.915  24.973  21.956  1.00  0.00    -0.051 A 
ATOM     12  C   UNL A   1      33.305  23.656  21.734  1.00  0.00     0.005 A 
ATOM     13  C   UNL A   1      33.030  25.495  23.246  1.00  0.00     0.009 A 
ATOM     14  C   UNL A   1      33.797  22.877  22.785  1.00  0.00     0.026 A 
ATOM     15  C   UNL A   1      33.893  23.374  24.095  1.00  0.00     0.042 A 
BRANCH  15  16
ATOM     16  N   UNL A   1      34.443  22.591  25.135  1.00  0.00    -0.353 N 
ATOM     17  H   UNL A   1      33.936  22.591  25.978  1.00  0.00     0.167 HD
BRANCH  16  18
ATOM     18  C   UNL A   1      35.621  21.806  25.133  1.00  0.00     0.076 A 
ATOM     19  C   UNL A   1      35.610  20.411  24.927  1.00  0.00     0.067 A 
ATOM     20  C   UNL A   1      36.861  22.414  25.424  1.00  0.00     0.067 A 
ATOM     21  Cl  UNL A   1      34.174  19.564  24.457  1.00  0.00    -0.082 Cl
ATOM     22  C   UNL A   1      36.784  19.658  25.033  1.00  0.00     0.043 A 
ATOM     23  C   UNL A   1      38.034  21.664  25.527  1.00  0.00     0.043 A 
ATOM     24  Cl  UNL A   1      36.972  24.121  25.698  1.00  0.00    -0.082 Cl
ATOM     25  C   UNL A   1      37.985  20.287  25.339  1.00  0.00     0.044 A 
ATOM     26  Cl  UNL A   1      39.422  19.355  25.486  1.00  0.00    -0.084 Cl
ENDBRANCH  16  18
ENDBRANCH  15  16
ENDBRANCH   8   9
ENDBRANCH   5   8
ENDBRANCH   3   4
ENDBRANCH   2   3
ENDBRANCH   1   2
BRANCH   1  27
ATOM     27  C   UNL A   1      33.124  29.909  25.857  1.00  0.00     0.002 C 
BRANCH  27  28
ATOM     28  C   UNL A   1      34.402  29.987  26.693  1.00  0.00     0.021 C 
BRANCH  28  29
ATOM     29  C   UNL A   1      34.228  30.655  28.050  1.00  0.00     0.116 C 
BRANCH  29  30
ATOM     30  N   UNL A   1      35.253  31.643  28.353  1.00  0.00    -0.352 N 
ATOM     31  C   UNL A   1      36.595  31.480  28.655  1.00  0.00     0.251 C 
ATOM     32  H   UNL A   1      34.943  32.578  28.340  1.00  0.00     0.163 HD
ATOM     33  O   UNL A   1      37.266  32.452  28.957  1.00  0.00    -0.269 OA
BRANCH  31  34
ATOM     34  C   UNL A   1      37.250  30.160  28.455  1.00  0.00     0.039 A 
ATOM     35  C   UNL A   1      37.247  29.279  29.545  1.00  0.00     0.014 A 
ATOM     36  C   UNL A   1      38.042  29.887  27.345  1.00  0.00     0.014 A 
ATOM     37  C   UNL A   1      38.241  28.310  29.643  1.00  0.00     0.010 A 
ATOM     38  C   UNL A   1      39.088  29.000  27.482  1.00  0.00     0.010 A 
ATOM     39  C   UNL A   1      39.235  28.279  28.670  1.00  0.00    -0.014 A 
BRANCH  39  40
ATOM     40  C   UNL A   1      40.543  27.680  28.884  1.00  0.00     0.031 A 
ATOM     41  C   UNL A   1      40.790  26.265  28.566  1.00  0.00     0.074 A 
ATOM     42  C   UNL A   1      41.570  28.480  29.247  1.00  0.00     0.049 A 
ATOM     43  N   UNL A   1      41.823  25.612  28.977  1.00  0.00    -0.248 NA
ATOM     44  C   UNL A   1      39.846  25.438  27.821  1.00  0.00     0.031 C 
ATOM     45  C   UNL A   1      43.000  28.203  29.165  1.00  0.00     0.029 A 
ATOM     46  N   UNL A   1      41.488  29.659  29.992  1.00  0.00    -0.354 N 
ATOM     47  C   UNL A   1      41.853  24.426  28.292  1.00  0.00     0.074 A 
ATOM     48  C   UNL A   1      40.538  24.298  27.714  1.00  0.00     0.031 C 
ATOM     49  C   UNL A   1      43.647  29.015  30.017  1.00  0.00     0.029 A 
ATOM     50  C   UNL A   1      42.640  29.709  30.801  1.00  0.00     0.049 A 
ATOM     51  H   UNL A   1      40.765  30.326  29.958  1.00  0.00     0.167 HD
ATOM     52  C   UNL A   1      43.041  23.770  28.171  1.00  0.00     0.031 A 
ATOM     53  C   UNL A   1      42.529  29.639  32.162  1.00  0.00     0.031 A 
ATOM     54  C   UNL A   1      44.067  24.324  29.063  1.00  0.00     0.049 A 
ATOM     55  C   UNL A   1      43.185  28.422  32.790  1.00  0.00     0.074 A 
ATOM     56  C   UNL A   1      45.245  25.028  28.884  1.00  0.00     0.029 A 
ATOM     57  N   UNL A   1      43.793  24.383  30.422  1.00  0.00    -0.354 N 
ATOM     58  N   UNL A   1      43.753  27.455  32.123  1.00  0.00    -0.248 NA
ATOM     59  C   UNL A   1      43.153  28.153  34.229  1.00  0.00     0.031 C 
ATOM     60  C   UNL A   1      45.665  25.523  30.157  1.00  0.00     0.029 A 
ATOM     61  C   UNL A   1      44.756  25.094  31.106  1.00  0.00     0.049 A 
ATOM     62  H   UNL A   1      43.007  23.968  30.846  1.00  0.00     0.167 HD
ATOM     63  C   UNL A   1      44.089  26.440  32.979  1.00  0.00     0.074 A 
ATOM     64  C   UNL A   1      43.701  26.926  34.291  1.00  0.00     0.031 C 
ATOM     65  C   UNL A   1      44.608  25.255  32.545  1.00  0.00     0.031 A 
BRANCH  52  66
ATOM     66  C   UNL A   1      43.339  22.739  27.103  1.00  0.00    -0.014 A 
ATOM     67  C   UNL A   1      42.536  21.588  27.009  1.00  0.00     0.009 A 
ATOM     68  C   UNL A   1      44.444  22.780  26.231  1.00  0.00     0.009 A 
ATOM     69  C   UNL A   1      42.838  20.537  26.129  1.00  0.00     0.001 A 
ATOM     70  C   UNL A   1      44.741  21.745  25.335  1.00  0.00     0.001 A 
ATOM     71  C   UNL A   1      43.943  20.615  25.293  1.00  0.00     0.000 A 
ENDBRANCH  52  66
BRANCH  53  72
ATOM     72  C   UNL A   1      41.292  30.292  32.680  1.00  0.00    -0.014 A 
ATOM     73  C   UNL A   1      41.259  31.700  32.760  1.00  0.00     0.009 A 
ATOM     74  C   UNL A   1      40.079  29.590  32.742  1.00  0.00     0.009 A 
ATOM     75  C   UNL A   1      40.043  32.388  32.778  1.00  0.00     0.001 A 
ATOM     76  C   UNL A   1      38.864  30.284  32.777  1.00  0.00     0.001 A 
ATOM     77  C   UNL A   1      38.845  31.679  32.758  1.00  0.00     0.000 A 
ENDBRANCH  53  72
BRANCH  65  78
ATOM     78  C   UNL A   1      44.974  24.107  33.450  1.00  0.00    -0.014 A 
ATOM     79  C   UNL A   1      44.163  22.977  33.619  1.00  0.00     0.009 A 
ATOM     80  C   UNL A   1      46.126  24.192  34.262  1.00  0.00     0.009 A 
ATOM     81  C   UNL A   1      44.522  21.953  34.507  1.00  0.00     0.001 A 
ATOM     82  C   UNL A   1      46.474  23.186  35.166  1.00  0.00     0.001 A 
ATOM     83  C   UNL A   1      45.677  22.057  35.279  1.00  0.00     0.000 A 
ENDBRANCH  65  78
ENDBRANCH  39  40
ENDBRANCH  31  34
ENDBRANCH  29  30
ENDBRANCH  28  29
ENDBRANCH  27  28
ENDBRANCH   1  27
TORSDOF 16
ENDMDL
