MODEL 1
REMARK VINA RESULT:     -12.1      0.000      0.000
REMARK SMILES CCc1ccc(C(=O)N2Cc3nc[nH]c3C[C@@H]2C(=O)NCCCCCCNC(=O)c2ccc(-c3c4nc(c(-c5ccccc5)c5ccc([nH]5)c(-c5ccccc5)c5nc(c(-c6ccccc6)c6ccc3[nH]6)C=C5)C=C4)cc2)o1
REMARK SMILES IDX 23 1 22 2 21 3 20 4 18 5 19 6 17 8 9 9 10 10 11 11 16 12
REMARK SMILES IDX 12 13 15 14 13 15 14 16 7 18 8 19 6 20 3 21 4 22 78 23 5 24
REMARK SMILES IDX 2 25 1 26 24 27 25 28 26 29 27 30 28 31 29 33 30 34 31 35
REMARK SMILES IDX 77 36 32 37 76 38 33 39 34 40 35 41 70 42 36 43 75 44 69 45
REMARK SMILES IDX 71 46 37 47 74 48 68 49 67 50 38 52 60 53 45 54 59 55 46 56
REMARK SMILES IDX 49 57 58 58 72 59 47 60 48 61 57 63 73 64 50 65 39 66 40 67
REMARK SMILES IDX 44 68 41 69 43 70 42 71 61 72 62 73 66 74 63 75 65 76 64 77
REMARK SMILES IDX 51 78 52 79 56 80 53 81 55 82 54 83
REMARK H PARENT 20 7 14 17 27 32 71 51 49 62
REMARK Flexibility Score: inf
ROOT
ATOM      1  C   UNL A   1      32.802  29.870  26.605  1.00  0.00     0.002 C 
ENDROOT
BRANCH   1   2
ATOM      2  C   UNL A   1      32.511  28.490  27.209  1.00  0.00     0.021 C 
BRANCH   2   3
ATOM      3  C   UNL A   1      31.438  27.689  26.461  1.00  0.00     0.116 C 
BRANCH   3   4
ATOM      4  N   UNL A   1      31.317  26.367  27.045  1.00  0.00    -0.354 N 
ATOM      5  C   UNL A   1      31.770  25.167  26.594  1.00  0.00     0.243 C 
ATOM      6  O   UNL A   1      31.248  24.148  27.057  1.00  0.00    -0.273 OA
ATOM      7  H   UNL A   1      30.831  26.333  27.902  1.00  0.00     0.163 HD
BRANCH   5   8
ATOM      8  C   UNL A   1      32.839  25.056  25.492  1.00  0.00     0.181 C 
ATOM      9  N   UNL A   1      32.375  24.674  24.116  1.00  0.00    -0.318 N 
ATOM     10  C   UNL A   1      33.407  24.566  23.063  1.00  0.00     0.179 C 
ATOM     11  C   UNL A   1      34.591  23.848  23.590  1.00  0.00     0.081 A 
ATOM     12  C   UNL A   1      33.966  24.105  26.033  1.00  0.00     0.091 C 
ATOM     13  N   UNL A   1      35.579  23.286  22.830  1.00  0.00    -0.240 NA
ATOM     14  C   UNL A   1      34.840  23.657  24.926  1.00  0.00     0.042 A 
ATOM     15  C   UNL A   1      36.389  22.713  23.694  1.00  0.00     0.197 A 
ATOM     16  N   UNL A   1      35.971  22.897  24.986  1.00  0.00    -0.348 N 
ATOM     17  H   UNL A   1      36.404  22.549  25.799  1.00  0.00     0.167 HD
BRANCH   9  18
ATOM     18  C   UNL A   1      31.061  24.639  23.639  1.00  0.00     0.290 C 
ATOM     19  O   UNL A   1      30.592  23.550  23.299  1.00  0.00    -0.265 OA
BRANCH  18  20
ATOM     20  C   UNL A   1      30.304  25.870  23.475  1.00  0.00     0.191 A 
ATOM     21  C   UNL A   1      30.099  27.989  22.865  1.00  0.00     0.104 A 
ATOM     22  C   UNL A   1      28.931  27.658  23.513  1.00  0.00     0.046 A 
ATOM     23  O   UNL A   1      30.925  26.909  22.821  1.00  0.00    -0.456 OA
ATOM     24  C   UNL A   1      29.076  26.313  23.935  1.00  0.00     0.056 A 
BRANCH  21  25
ATOM     25  C   UNL A   1      30.619  29.259  22.296  1.00  0.00     0.072 C 
ATOM     26  C   UNL A   1      29.516  30.198  21.841  1.00  0.00     0.012 C 
ENDBRANCH  21  25
ENDBRANCH  18  20
ENDBRANCH   9  18
ENDBRANCH   5   8
ENDBRANCH   3   4
ENDBRANCH   2   3
ENDBRANCH   1   2
BRANCH   1  27
ATOM     27  C   UNL A   1      31.614  30.557  25.917  1.00  0.00     0.002 C 
BRANCH  27  28
ATOM     28  C   UNL A   1      31.347  32.015  26.319  1.00  0.00     0.021 C 
BRANCH  28  29
ATOM     29  C   UNL A   1      32.189  32.491  27.492  1.00  0.00     0.116 C 
BRANCH  29  30
ATOM     30  N   UNL A   1      32.232  33.957  27.610  1.00  0.00    -0.352 N 
ATOM     31  C   UNL A   1      33.006  34.754  28.449  1.00  0.00     0.251 C 
ATOM     32  H   UNL A   1      31.624  34.445  27.009  1.00  0.00     0.163 HD
ATOM     33  O   UNL A   1      32.698  35.903  28.701  1.00  0.00    -0.269 OA
BRANCH  31  34
ATOM     34  C   UNL A   1      34.244  34.175  29.002  1.00  0.00     0.039 A 
ATOM     35  C   UNL A   1      34.428  33.810  30.340  1.00  0.00     0.014 A 
ATOM     36  C   UNL A   1      35.242  33.943  28.076  1.00  0.00     0.014 A 
ATOM     37  C   UNL A   1      35.643  33.219  30.701  1.00  0.00     0.010 A 
ATOM     38  C   UNL A   1      36.164  32.994  28.353  1.00  0.00     0.010 A 
ATOM     39  C   UNL A   1      36.519  32.847  29.678  1.00  0.00    -0.014 A 
BRANCH  39  40
ATOM     40  C   UNL A   1      37.849  32.291  29.852  1.00  0.00     0.031 A 
ATOM     41  C   UNL A   1      37.971  30.876  29.452  1.00  0.00     0.074 A 
ATOM     42  C   UNL A   1      38.924  33.108  29.980  1.00  0.00     0.049 A 
ATOM     43  N   UNL A   1      38.167  29.860  30.220  1.00  0.00    -0.248 NA
ATOM     44  C   UNL A   1      37.692  30.527  28.049  1.00  0.00     0.031 C 
ATOM     45  C   UNL A   1      38.957  34.584  29.998  1.00  0.00     0.029 A 
ATOM     46  N   UNL A   1      40.247  32.792  29.981  1.00  0.00    -0.354 N 
ATOM     47  C   UNL A   1      38.246  28.764  29.370  1.00  0.00     0.074 A 
ATOM     48  C   UNL A   1      37.711  29.195  28.105  1.00  0.00     0.031 C 
ATOM     49  C   UNL A   1      40.223  35.019  29.799  1.00  0.00     0.029 A 
ATOM     50  C   UNL A   1      41.109  33.871  29.803  1.00  0.00     0.049 A 
ATOM     51  H   UNL A   1      40.570  31.870  30.098  1.00  0.00     0.167 HD
ATOM     52  C   UNL A   1      39.019  27.687  29.677  1.00  0.00     0.031 A 
ATOM     53  C   UNL A   1      42.457  33.819  29.662  1.00  0.00     0.031 A 
ATOM     54  C   UNL A   1      39.504  27.763  31.033  1.00  0.00     0.049 A 
ATOM     55  C   UNL A   1      42.894  32.500  30.169  1.00  0.00     0.074 A 
ATOM     56  C   UNL A   1      38.928  27.758  32.285  1.00  0.00     0.029 A 
ATOM     57  N   UNL A   1      40.763  28.294  31.184  1.00  0.00    -0.354 N 
ATOM     58  N   UNL A   1      42.798  32.152  31.419  1.00  0.00    -0.248 NA
ATOM     59  C   UNL A   1      43.021  31.400  29.225  1.00  0.00     0.031 C 
ATOM     60  C   UNL A   1      39.706  28.675  33.054  1.00  0.00     0.029 A 
ATOM     61  C   UNL A   1      40.757  29.141  32.261  1.00  0.00     0.049 A 
ATOM     62  H   UNL A   1      41.540  28.100  30.612  1.00  0.00     0.167 HD
ATOM     63  C   UNL A   1      42.394  30.825  31.385  1.00  0.00     0.074 A 
ATOM     64  C   UNL A   1      42.686  30.381  30.023  1.00  0.00     0.031 C 
ATOM     65  C   UNL A   1      41.596  30.318  32.371  1.00  0.00     0.031 A 
BRANCH  52  66
ATOM     66  C   UNL A   1      39.710  26.822  28.650  1.00  0.00    -0.014 A 
ATOM     67  C   UNL A   1      40.570  27.443  27.727  1.00  0.00     0.009 A 
ATOM     68  C   UNL A   1      39.352  25.488  28.376  1.00  0.00     0.009 A 
ATOM     69  C   UNL A   1      40.986  26.789  26.562  1.00  0.00     0.001 A 
ATOM     70  C   UNL A   1      39.799  24.817  27.235  1.00  0.00     0.001 A 
ATOM     71  C   UNL A   1      40.593  25.478  26.312  1.00  0.00     0.000 A 
ENDBRANCH  52  66
BRANCH  53  72
ATOM     72  C   UNL A   1      43.368  34.718  28.924  1.00  0.00    -0.014 A 
ATOM     73  C   UNL A   1      43.753  34.448  27.600  1.00  0.00     0.009 A 
ATOM     74  C   UNL A   1      43.638  36.001  29.435  1.00  0.00     0.009 A 
ATOM     75  C   UNL A   1      44.354  35.439  26.809  1.00  0.00     0.001 A 
ATOM     76  C   UNL A   1      44.231  36.991  28.643  1.00  0.00     0.001 A 
ATOM     77  C   UNL A   1      44.577  36.713  27.324  1.00  0.00     0.000 A 
ENDBRANCH  53  72
BRANCH  65  78
ATOM     78  C   UNL A   1      41.394  31.178  33.598  1.00  0.00    -0.014 A 
ATOM     79  C   UNL A   1      40.453  32.222  33.662  1.00  0.00     0.009 A 
ATOM     80  C   UNL A   1      42.088  30.841  34.768  1.00  0.00     0.009 A 
ATOM     81  C   UNL A   1      40.238  32.928  34.851  1.00  0.00     0.001 A 
ATOM     82  C   UNL A   1      41.860  31.532  35.959  1.00  0.00     0.001 A 
ATOM     83  C   UNL A   1      40.941  32.578  36.001  1.00  0.00     0.000 A 
ENDBRANCH  65  78
ENDBRANCH  39  40
ENDBRANCH  31  34
ENDBRANCH  29  30
ENDBRANCH  28  29
ENDBRANCH  27  28
ENDBRANCH   1  27
TORSDOF 16
ENDMDL
MODEL 2
REMARK VINA RESULT:     -11.5      3.098      6.782
REMARK SMILES CCc1ccc(C(=O)N2Cc3nc[nH]c3C[C@@H]2C(=O)NCCCCCCNC(=O)c2ccc(-c3c4nc(c(-c5ccccc5)c5ccc([nH]5)c(-c5ccccc5)c5nc(c(-c6ccccc6)c6ccc3[nH]6)C=C5)C=C4)cc2)o1
REMARK SMILES IDX 23 1 22 2 21 3 20 4 18 5 19 6 17 8 9 9 10 10 11 11 16 12
REMARK SMILES IDX 12 13 15 14 13 15 14 16 7 18 8 19 6 20 3 21 4 22 78 23 5 24
REMARK SMILES IDX 2 25 1 26 24 27 25 28 26 29 27 30 28 31 29 33 30 34 31 35
REMARK SMILES IDX 77 36 32 37 76 38 33 39 34 40 35 41 70 42 36 43 75 44 69 45
REMARK SMILES IDX 71 46 37 47 74 48 68 49 67 50 38 52 60 53 45 54 59 55 46 56
REMARK SMILES IDX 49 57 58 58 72 59 47 60 48 61 57 63 73 64 50 65 39 66 40 67
REMARK SMILES IDX 44 68 41 69 43 70 42 71 61 72 62 73 66 74 63 75 65 76 64 77
REMARK SMILES IDX 51 78 52 79 56 80 53 81 55 82 54 83
REMARK H PARENT 20 7 14 17 27 32 71 51 49 62
REMARK Flexibility Score: inf
ROOT
ATOM      1  C   UNL A   1      31.920  27.215  26.845  1.00  0.00     0.002 C 
ENDROOT
BRANCH   1   2
ATOM      2  C   UNL A   1      30.736  26.534  26.148  1.00  0.00     0.021 C 
BRANCH   2   3
ATOM      3  C   UNL A   1      31.000  25.082  25.733  1.00  0.00     0.116 C 
BRANCH   3   4
ATOM      4  N   UNL A   1      31.372  24.299  26.896  1.00  0.00    -0.354 N 
ATOM      5  C   UNL A   1      32.344  23.361  27.045  1.00  0.00     0.243 C 
ATOM      6  O   UNL A   1      32.245  22.579  27.996  1.00  0.00    -0.273 OA
ATOM      7  H   UNL A   1      30.836  24.476  27.704  1.00  0.00     0.163 HD
BRANCH   5   8
ATOM      8  C   UNL A   1      33.496  23.207  26.035  1.00  0.00     0.181 C 
ATOM      9  N   UNL A   1      33.369  22.125  25.002  1.00  0.00    -0.318 N 
ATOM     10  C   UNL A   1      34.480  21.981  24.038  1.00  0.00     0.179 C 
ATOM     11  C   UNL A   1      35.778  22.077  24.747  1.00  0.00     0.081 A 
ATOM     12  C   UNL A   1      34.827  23.097  26.862  1.00  0.00     0.091 C 
ATOM     13  N   UNL A   1      36.985  21.672  24.248  1.00  0.00    -0.240 NA
ATOM     14  C   UNL A   1      35.926  22.593  26.010  1.00  0.00     0.042 A 
ATOM     15  C   UNL A   1      37.845  21.887  25.219  1.00  0.00     0.197 A 
ATOM     16  N   UNL A   1      37.244  22.433  26.322  1.00  0.00    -0.348 N 
ATOM     17  H   UNL A   1      37.679  22.665  27.175  1.00  0.00     0.167 HD
BRANCH   9  18
ATOM     18  C   UNL A   1      32.228  21.385  24.678  1.00  0.00     0.290 C 
ATOM     19  O   UNL A   1      31.129  21.941  24.759  1.00  0.00    -0.265 OA
BRANCH  18  20
ATOM     20  C   UNL A   1      32.337  19.977  24.336  1.00  0.00     0.191 A 
ATOM     21  C   UNL A   1      32.768  17.859  24.824  1.00  0.00     0.104 A 
ATOM     22  C   UNL A   1      32.581  17.912  23.461  1.00  0.00     0.046 A 
ATOM     23  O   UNL A   1      32.603  19.098  25.362  1.00  0.00    -0.456 OA
ATOM     24  C   UNL A   1      32.339  19.272  23.145  1.00  0.00     0.056 A 
BRANCH  21  25
ATOM     25  C   UNL A   1      33.163  16.769  25.752  1.00  0.00     0.072 C 
ATOM     26  C   UNL A   1      32.531  15.435  25.398  1.00  0.00     0.012 C 
ENDBRANCH  21  25
ENDBRANCH  18  20
ENDBRANCH   9  18
ENDBRANCH   5   8
ENDBRANCH   3   4
ENDBRANCH   2   3
ENDBRANCH   1   2
BRANCH   1  27
ATOM     27  C   UNL A   1      31.585  28.501  27.615  1.00  0.00     0.002 C 
BRANCH  27  28
ATOM     28  C   UNL A   1      32.118  29.810  27.014  1.00  0.00     0.021 C 
BRANCH  28  29
ATOM     29  C   UNL A   1      33.607  30.023  27.232  1.00  0.00     0.116 C 
BRANCH  29  30
ATOM     30  N   UNL A   1      33.926  31.361  27.756  1.00  0.00    -0.352 N 
ATOM     31  C   UNL A   1      34.933  31.749  28.636  1.00  0.00     0.251 C 
ATOM     32  H   UNL A   1      33.343  32.087  27.438  1.00  0.00     0.163 HD
ATOM     33  O   UNL A   1      34.870  32.792  29.256  1.00  0.00    -0.269 OA
BRANCH  31  34
ATOM     34  C   UNL A   1      36.109  30.870  28.769  1.00  0.00     0.039 A 
ATOM     35  C   UNL A   1      36.199  29.573  28.253  1.00  0.00     0.014 A 
ATOM     36  C   UNL A   1      37.192  31.440  29.408  1.00  0.00     0.014 A 
ATOM     37  C   UNL A   1      37.405  28.882  28.413  1.00  0.00     0.010 A 
ATOM     38  C   UNL A   1      38.423  30.947  29.143  1.00  0.00     0.010 A 
ATOM     39  C   UNL A   1      38.506  29.592  28.898  1.00  0.00    -0.014 A 
BRANCH  39  40
ATOM     40  C   UNL A   1      39.814  29.039  29.201  1.00  0.00     0.031 A 
ATOM     41  C   UNL A   1      40.091  28.892  30.643  1.00  0.00     0.074 A 
ATOM     42  C   UNL A   1      40.513  28.368  28.253  1.00  0.00     0.049 A 
ATOM     43  N   UNL A   1      40.940  29.557  31.349  1.00  0.00    -0.248 NA
ATOM     44  C   UNL A   1      39.214  28.008  31.429  1.00  0.00     0.031 C 
ATOM     45  C   UNL A   1      40.140  28.113  26.847  1.00  0.00     0.029 A 
ATOM     46  N   UNL A   1      41.656  27.643  28.381  1.00  0.00    -0.354 N 
ATOM     47  C   UNL A   1      40.852  29.024  32.630  1.00  0.00     0.074 A 
ATOM     48  C   UNL A   1      39.629  28.268  32.669  1.00  0.00     0.031 C 
ATOM     49  C   UNL A   1      40.921  27.135  26.333  1.00  0.00     0.029 A 
ATOM     50  C   UNL A   1      41.949  26.811  27.304  1.00  0.00     0.049 A 
ATOM     51  H   UNL A   1      42.233  27.702  29.177  1.00  0.00     0.167 HD
ATOM     52  C   UNL A   1      41.933  28.994  33.457  1.00  0.00     0.031 A 
ATOM     53  C   UNL A   1      42.963  25.914  27.222  1.00  0.00     0.031 A 
ATOM     54  C   UNL A   1      43.024  29.766  32.917  1.00  0.00     0.049 A 
ATOM     55  C   UNL A   1      43.950  26.280  28.261  1.00  0.00     0.074 A 
ATOM     56  C   UNL A   1      43.237  31.095  32.620  1.00  0.00     0.029 A 
ATOM     57  N   UNL A   1      43.961  29.053  32.208  1.00  0.00    -0.354 N 
ATOM     58  N   UNL A   1      44.639  27.384  28.228  1.00  0.00    -0.248 NA
ATOM     59  C   UNL A   1      43.851  25.648  29.567  1.00  0.00     0.031 C 
ATOM     60  C   UNL A   1      44.014  31.089  31.424  1.00  0.00     0.029 A 
ATOM     61  C   UNL A   1      44.299  29.764  31.085  1.00  0.00     0.049 A 
ATOM     62  H   UNL A   1      44.329  28.176  32.463  1.00  0.00     0.167 HD
ATOM     63  C   UNL A   1      44.667  27.820  29.545  1.00  0.00     0.074 A 
ATOM     64  C   UNL A   1      44.294  26.649  30.335  1.00  0.00     0.031 C 
ATOM     65  C   UNL A   1      44.700  29.155  29.832  1.00  0.00     0.031 A 
BRANCH  52  66
ATOM     66  C   UNL A   1      42.174  27.923  34.493  1.00  0.00    -0.014 A 
ATOM     67  C   UNL A   1      42.718  26.697  34.069  1.00  0.00     0.009 A 
ATOM     68  C   UNL A   1      41.647  27.959  35.799  1.00  0.00     0.009 A 
ATOM     69  C   UNL A   1      42.670  25.558  34.880  1.00  0.00     0.001 A 
ATOM     70  C   UNL A   1      41.636  26.835  36.628  1.00  0.00     0.001 A 
ATOM     71  C   UNL A   1      42.121  25.624  36.156  1.00  0.00     0.000 A 
ENDBRANCH  52  66
BRANCH  53  72
ATOM     72  C   UNL A   1      43.045  24.641  26.476  1.00  0.00    -0.014 A 
ATOM     73  C   UNL A   1      43.621  24.574  25.197  1.00  0.00     0.009 A 
ATOM     74  C   UNL A   1      42.803  23.428  27.149  1.00  0.00     0.009 A 
ATOM     75  C   UNL A   1      43.974  23.341  24.629  1.00  0.00     0.001 A 
ATOM     76  C   UNL A   1      43.162  22.199  26.584  1.00  0.00     0.001 A 
ATOM     77  C   UNL A   1      43.761  22.156  25.330  1.00  0.00     0.000 A 
ENDBRANCH  53  72
BRANCH  65  78
ATOM     78  C   UNL A   1      44.956  30.098  28.678  1.00  0.00    -0.014 A 
ATOM     79  C   UNL A   1      43.935  30.605  27.854  1.00  0.00     0.009 A 
ATOM     80  C   UNL A   1      46.257  30.586  28.496  1.00  0.00     0.009 A 
ATOM     81  C   UNL A   1      44.213  31.547  26.857  1.00  0.00     0.001 A 
ATOM     82  C   UNL A   1      46.532  31.541  27.515  1.00  0.00     0.001 A 
ATOM     83  C   UNL A   1      45.513  32.017  26.692  1.00  0.00     0.000 A 
ENDBRANCH  65  78
ENDBRANCH  39  40
ENDBRANCH  31  34
ENDBRANCH  29  30
ENDBRANCH  28  29
ENDBRANCH  27  28
ENDBRANCH   1  27
TORSDOF 16
ENDMDL
MODEL 3
REMARK VINA RESULT:     -11.5      3.923      9.062
REMARK SMILES CCc1ccc(C(=O)N2Cc3nc[nH]c3C[C@@H]2C(=O)NCCCCCCNC(=O)c2ccc(-c3c4nc(c(-c5ccccc5)c5ccc([nH]5)c(-c5ccccc5)c5nc(c(-c6ccccc6)c6ccc3[nH]6)C=C5)C=C4)cc2)o1
REMARK SMILES IDX 23 1 22 2 21 3 20 4 18 5 19 6 17 8 9 9 10 10 11 11 16 12
REMARK SMILES IDX 12 13 15 14 13 15 14 16 7 18 8 19 6 20 3 21 4 22 78 23 5 24
REMARK SMILES IDX 2 25 1 26 24 27 25 28 26 29 27 30 28 31 29 33 30 34 31 35
REMARK SMILES IDX 77 36 32 37 76 38 33 39 34 40 35 41 70 42 36 43 75 44 69 45
REMARK SMILES IDX 71 46 37 47 74 48 68 49 67 50 38 52 60 53 45 54 59 55 46 56
REMARK SMILES IDX 49 57 58 58 72 59 47 60 48 61 57 63 73 64 50 65 39 66 40 67
REMARK SMILES IDX 44 68 41 69 43 70 42 71 61 72 62 73 66 74 63 75 65 76 64 77
REMARK SMILES IDX 51 78 52 79 56 80 53 81 55 82 54 83
REMARK H PARENT 20 7 14 17 27 32 71 51 49 62
REMARK Flexibility Score: inf
ROOT
ATOM      1  C   UNL A   1      40.378  22.242  26.505  1.00  0.00     0.002 C 
ENDROOT
BRANCH   1   2
ATOM      2  C   UNL A   1      38.911  22.057  26.097  1.00  0.00     0.021 C 
BRANCH   2   3
ATOM      3  C   UNL A   1      38.104  23.359  26.041  1.00  0.00     0.116 C 
BRANCH   3   4
ATOM      4  N   UNL A   1      37.548  23.536  24.713  1.00  0.00    -0.354 N 
ATOM      5  C   UNL A   1      36.254  23.649  24.314  1.00  0.00     0.243 C 
ATOM      6  O   UNL A   1      35.999  23.430  23.125  1.00  0.00    -0.273 OA
ATOM      7  H   UNL A   1      38.213  23.581  23.987  1.00  0.00     0.163 HD
BRANCH   5   8
ATOM      8  C   UNL A   1      35.116  23.963  25.302  1.00  0.00     0.181 C 
ATOM      9  N   UNL A   1      34.248  22.819  25.742  1.00  0.00    -0.318 N 
ATOM     10  C   UNL A   1      33.156  23.128  26.688  1.00  0.00     0.179 C 
ATOM     11  C   UNL A   1      32.462  24.368  26.269  1.00  0.00     0.081 A 
ATOM     12  C   UNL A   1      34.286  25.149  24.693  1.00  0.00     0.091 C 
ATOM     13  N   UNL A   1      31.228  24.770  26.701  1.00  0.00    -0.240 NA
ATOM     14  C   UNL A   1      32.983  25.277  25.383  1.00  0.00     0.042 A 
ATOM     15  C   UNL A   1      30.980  25.880  26.041  1.00  0.00     0.197 A 
ATOM     16  N   UNL A   1      32.015  26.222  25.211  1.00  0.00    -0.348 N 
ATOM     17  H   UNL A   1      32.053  26.999  24.608  1.00  0.00     0.167 HD
BRANCH   9  18
ATOM     18  C   UNL A   1      34.483  21.453  25.561  1.00  0.00     0.290 C 
ATOM     19  O   UNL A   1      35.476  20.954  26.097  1.00  0.00    -0.265 OA
BRANCH  18  20
ATOM     20  C   UNL A   1      33.619  20.666  24.696  1.00  0.00     0.191 A 
ATOM     21  C   UNL A   1      33.070  18.806  23.626  1.00  0.00     0.104 A 
ATOM     22  C   UNL A   1      32.188  19.772  23.198  1.00  0.00     0.046 A 
ATOM     23  O   UNL A   1      33.925  19.333  24.544  1.00  0.00    -0.456 OA
ATOM     24  C   UNL A   1      32.561  20.970  23.856  1.00  0.00     0.056 A 
BRANCH  21  25
ATOM     25  C   UNL A   1      33.290  17.388  23.237  1.00  0.00     0.072 C 
ATOM     26  C   UNL A   1      34.292  16.680  24.131  1.00  0.00     0.012 C 
ENDBRANCH  21  25
ENDBRANCH  18  20
ENDBRANCH   9  18
ENDBRANCH   5   8
ENDBRANCH   3   4
ENDBRANCH   2   3
ENDBRANCH   1   2
BRANCH   1  27
ATOM     27  C   UNL A   1      40.871  21.330  27.638  1.00  0.00     0.002 C 
BRANCH  27  28
ATOM     28  C   UNL A   1      41.869  20.233  27.242  1.00  0.00     0.021 C 
BRANCH  28  29
ATOM     29  C   UNL A   1      42.119  20.144  25.745  1.00  0.00     0.116 C 
BRANCH  29  30
ATOM     30  N   UNL A   1      43.549  20.089  25.404  1.00  0.00    -0.352 N 
ATOM     31  C   UNL A   1      44.438  21.129  25.145  1.00  0.00     0.251 C 
ATOM     32  H   UNL A   1      43.934  19.184  25.350  1.00  0.00     0.163 HD
ATOM     33  O   UNL A   1      45.475  20.946  24.538  1.00  0.00    -0.269 OA
BRANCH  31  34
ATOM     34  C   UNL A   1      44.103  22.468  25.666  1.00  0.00     0.039 A 
ATOM     35  C   UNL A   1      43.369  23.434  24.970  1.00  0.00     0.014 A 
ATOM     36  C   UNL A   1      44.518  22.710  26.959  1.00  0.00     0.014 A 
ATOM     37  C   UNL A   1      43.084  24.639  25.619  1.00  0.00     0.010 A 
ATOM     38  C   UNL A   1      43.856  23.643  27.680  1.00  0.00     0.010 A 
ATOM     39  C   UNL A   1      43.372  24.730  26.984  1.00  0.00    -0.014 A 
BRANCH  39  40
ATOM     40  C   UNL A   1      43.217  25.913  27.813  1.00  0.00     0.031 A 
ATOM     41  C   UNL A   1      44.236  26.955  27.578  1.00  0.00     0.074 A 
ATOM     42  C   UNL A   1      42.037  26.173  28.426  1.00  0.00     0.049 A 
ATOM     43  N   UNL A   1      45.175  27.326  28.378  1.00  0.00    -0.248 NA
ATOM     44  C   UNL A   1      44.317  27.552  26.234  1.00  0.00     0.031 C 
ATOM     45  C   UNL A   1      40.797  25.372  28.406  1.00  0.00     0.029 A 
ATOM     46  N   UNL A   1      41.644  27.291  29.094  1.00  0.00    -0.354 N 
ATOM     47  C   UNL A   1      45.837  28.354  27.718  1.00  0.00     0.074 A 
ATOM     48  C   UNL A   1      45.430  28.278  26.340  1.00  0.00     0.031 C 
ATOM     49  C   UNL A   1      39.757  26.120  28.843  1.00  0.00     0.029 A 
ATOM     50  C   UNL A   1      40.275  27.386  29.327  1.00  0.00     0.049 A 
ATOM     51  H   UNL A   1      42.281  27.981  29.388  1.00  0.00     0.167 HD
ATOM     52  C   UNL A   1      46.426  29.370  28.407  1.00  0.00     0.031 A 
ATOM     53  C   UNL A   1      39.614  28.437  29.874  1.00  0.00     0.031 A 
ATOM     54  C   UNL A   1      46.459  29.091  29.821  1.00  0.00     0.049 A 
ATOM     55  C   UNL A   1      40.621  29.261  30.578  1.00  0.00     0.074 A 
ATOM     56  C   UNL A   1      47.059  28.144  30.623  1.00  0.00     0.029 A 
ATOM     57  N   UNL A   1      45.430  29.630  30.556  1.00  0.00    -0.354 N 
ATOM     58  N   UNL A   1      41.268  28.847  31.628  1.00  0.00    -0.248 NA
ATOM     59  C   UNL A   1      41.239  30.365  29.862  1.00  0.00     0.031 C 
ATOM     60  C   UNL A   1      46.101  27.861  31.643  1.00  0.00     0.029 A 
ATOM     61  C   UNL A   1      44.995  28.694  31.458  1.00  0.00     0.049 A 
ATOM     62  H   UNL A   1      45.064  30.539  30.452  1.00  0.00     0.167 HD
ATOM     63  C   UNL A   1      42.565  29.307  31.447  1.00  0.00     0.074 A 
ATOM     64  C   UNL A   1      42.452  30.347  30.425  1.00  0.00     0.031 C 
ATOM     65  C   UNL A   1      43.627  28.595  31.926  1.00  0.00     0.031 A 
BRANCH  52  66
ATOM     66  C   UNL A   1      46.549  30.783  27.889  1.00  0.00    -0.014 A 
ATOM     67  C   UNL A   1      45.368  31.486  27.586  1.00  0.00     0.009 A 
ATOM     68  C   UNL A   1      47.753  31.351  27.431  1.00  0.00     0.009 A 
ATOM     69  C   UNL A   1      45.390  32.649  26.809  1.00  0.00     0.001 A 
ATOM     70  C   UNL A   1      47.783  32.536  26.692  1.00  0.00     0.001 A 
ATOM     71  C   UNL A   1      46.598  33.170  26.355  1.00  0.00     0.000 A 
ENDBRANCH  52  66
BRANCH  53  72
ATOM     72  C   UNL A   1      38.232  28.907  29.651  1.00  0.00    -0.014 A 
ATOM     73  C   UNL A   1      37.468  29.462  30.691  1.00  0.00     0.009 A 
ATOM     74  C   UNL A   1      37.758  29.065  28.335  1.00  0.00     0.009 A 
ATOM     75  C   UNL A   1      36.293  30.180  30.418  1.00  0.00     0.001 A 
ATOM     76  C   UNL A   1      36.590  29.786  28.063  1.00  0.00     0.001 A 
ATOM     77  C   UNL A   1      35.865  30.356  29.104  1.00  0.00     0.000 A 
ENDBRANCH  53  72
BRANCH  65  78
ATOM     78  C   UNL A   1      43.316  27.447  32.860  1.00  0.00    -0.014 A 
ATOM     79  C   UNL A   1      43.909  26.177  32.746  1.00  0.00     0.009 A 
ATOM     80  C   UNL A   1      42.492  27.695  33.966  1.00  0.00     0.009 A 
ATOM     81  C   UNL A   1      43.659  25.176  33.691  1.00  0.00     0.001 A 
ATOM     82  C   UNL A   1      42.257  26.703  34.920  1.00  0.00     0.001 A 
ATOM     83  C   UNL A   1      42.835  25.443  34.781  1.00  0.00     0.000 A 
ENDBRANCH  65  78
ENDBRANCH  39  40
ENDBRANCH  31  34
ENDBRANCH  29  30
ENDBRANCH  28  29
ENDBRANCH  27  28
ENDBRANCH   1  27
TORSDOF 16
ENDMDL
