MODEL 1
REMARK VINA RESULT:     -11.5      0.000      0.000
REMARK SMILES CC(C)c1cc2c(cc1Cl)C=C(C(=O)NCCCCCCNC(=O)c1ccc(-c3c4nc(c(-c5ccccc5)c5ccc([nH]5)c(-c5ccccc5)c5nc(c(-c6ccccc6)c6ccc3[nH]6)C=C5)C=C4)cc1)[C@@H](C(F)(F)F)O2
REMARK SMILES IDX 19 1 18 2 17 3 16 4 15 5 13 6 14 7 12 9 4 10 5 11 9 12 6 13
REMARK SMILES IDX 8 14 10 15 7 16 78 17 11 18 73 19 2 20 1 21 3 22 74 23 75 24
REMARK SMILES IDX 76 25 77 26 20 27 21 28 22 29 23 30 24 32 25 33 26 34 72 35
REMARK SMILES IDX 27 36 71 37 28 38 29 39 30 40 65 41 31 42 70 43 64 44 66 45
REMARK SMILES IDX 32 46 69 47 63 48 62 49 33 51 55 52 40 53 54 54 41 55 44 56
REMARK SMILES IDX 53 57 67 58 42 59 43 60 52 62 68 63 45 64 34 65 35 66 39 67
REMARK SMILES IDX 36 68 38 69 37 70 56 71 57 72 61 73 58 74 60 75 59 76 46 77
REMARK SMILES IDX 47 78 51 79 48 80 50 81 49 82
REMARK H PARENT 15 8 22 31 66 50 44 61
REMARK Flexibility Score: inf
ROOT
ATOM      1  C   UNL A   1      36.019  21.505  24.693  1.00  0.00     0.002 C 
ENDROOT
BRANCH   1   2
ATOM      2  C   UNL A   1      34.603  21.350  25.266  1.00  0.00     0.002 C 
BRANCH   2   3
ATOM      3  C   UNL A   1      33.496  21.102  24.236  1.00  0.00     0.021 C 
BRANCH   3   4
ATOM      4  C   UNL A   1      32.284  22.017  24.391  1.00  0.00     0.116 C 
BRANCH   4   5
ATOM      5  N   UNL A   1      32.099  22.444  25.766  1.00  0.00    -0.352 N 
ATOM      6  C   UNL A   1      31.822  23.596  26.421  1.00  0.00     0.251 C 
ATOM      7  O   UNL A   1      31.715  23.487  27.648  1.00  0.00    -0.270 OA
ATOM      8  H   UNL A   1      32.203  21.692  26.393  1.00  0.00     0.163 HD
BRANCH   6   9
ATOM      9  C   UNL A   1      31.649  24.937  25.785  1.00  0.00     0.067 C 
ATOM     10  C   UNL A   1      29.713  29.068  23.578  1.00  0.00    -0.023 A 
ATOM     11  C   UNL A   1      30.931  28.745  24.202  1.00  0.00     0.052 A 
ATOM     12  C   UNL A   1      28.716  28.076  23.544  1.00  0.00     0.045 A 
ATOM     13  C   UNL A   1      31.148  27.485  24.752  1.00  0.00     0.128 A 
ATOM     14  C   UNL A   1      28.936  26.811  24.113  1.00  0.00     0.032 A 
ATOM     15  Cl  UNL A   1      27.166  28.347  22.828  1.00  0.00    -0.084 Cl
ATOM     16  C   UNL A   1      30.157  26.511  24.720  1.00  0.00     0.019 A 
ATOM     17  O   UNL A   1      32.354  27.299  25.356  1.00  0.00    -0.475 OA
ATOM     18  C   UNL A   1      30.404  25.225  25.361  1.00  0.00     0.025 C 
ATOM     19  C   UNL A   1      32.763  25.924  25.579  1.00  0.00     0.314 C 
BRANCH  10  20
ATOM     20  C   UNL A   1      29.533  30.463  22.999  1.00  0.00     0.014 C 
ATOM     21  C   UNL A   1      29.345  30.401  21.479  1.00  0.00     0.012 C 
ATOM     22  C   UNL A   1      28.365  31.206  23.659  1.00  0.00     0.012 C 
ENDBRANCH  10  20
BRANCH  19  23
ATOM     23  C   UNL A   1      33.730  25.504  24.457  1.00  0.00     0.429 C 
ATOM     24  F   UNL A   1      34.322  26.596  23.909  1.00  0.00    -0.167 F 
ATOM     25  F   UNL A   1      34.733  24.713  24.902  1.00  0.00    -0.167 F 
ATOM     26  F   UNL A   1      33.110  24.835  23.459  1.00  0.00    -0.167 F 
ENDBRANCH  19  23
ENDBRANCH   6   9
ENDBRANCH   4   5
ENDBRANCH   3   4
ENDBRANCH   2   3
ENDBRANCH   1   2
BRANCH   1  27
ATOM     27  C   UNL A   1      37.001  20.383  25.036  1.00  0.00     0.021 C 
BRANCH  27  28
ATOM     28  C   UNL A   1      38.415  20.845  25.363  1.00  0.00     0.116 C 
BRANCH  28  29
ATOM     29  N   UNL A   1      39.353  19.740  25.472  1.00  0.00    -0.352 N 
ATOM     30  C   UNL A   1      40.647  19.744  25.935  1.00  0.00     0.251 C 
ATOM     31  H   UNL A   1      39.013  18.865  25.173  1.00  0.00     0.163 HD
ATOM     32  O   UNL A   1      41.352  18.746  25.820  1.00  0.00    -0.269 OA
BRANCH  30  33
ATOM     33  C   UNL A   1      41.198  20.973  26.541  1.00  0.00     0.039 A 
ATOM     34  C   UNL A   1      41.081  21.202  27.914  1.00  0.00     0.014 A 
ATOM     35  C   UNL A   1      41.817  21.919  25.720  1.00  0.00     0.014 A 
ATOM     36  C   UNL A   1      41.438  22.439  28.437  1.00  0.00     0.010 A 
ATOM     37  C   UNL A   1      42.249  23.131  26.263  1.00  0.00     0.010 A 
ATOM     38  C   UNL A   1      42.021  23.419  27.618  1.00  0.00    -0.014 A 
BRANCH  38  39
ATOM     39  C   UNL A   1      42.388  24.735  28.202  1.00  0.00     0.031 A 
ATOM     40  C   UNL A   1      43.817  25.054  28.545  1.00  0.00     0.074 A 
ATOM     41  C   UNL A   1      41.431  25.667  28.368  1.00  0.00     0.049 A 
ATOM     42  N   UNL A   1      44.316  26.163  29.030  1.00  0.00    -0.248 NA
ATOM     43  C   UNL A   1      44.818  23.999  28.315  1.00  0.00     0.031 C 
ATOM     44  C   UNL A   1      40.013  25.482  28.052  1.00  0.00     0.029 A 
ATOM     45  N   UNL A   1      41.506  26.962  28.813  1.00  0.00    -0.354 N 
ATOM     46  C   UNL A   1      45.679  25.937  29.176  1.00  0.00     0.074 A 
ATOM     47  C   UNL A   1      45.929  24.575  28.755  1.00  0.00     0.031 C 
ATOM     48  C   UNL A   1      39.363  26.637  28.255  1.00  0.00     0.029 A 
ATOM     49  C   UNL A   1      40.302  27.623  28.780  1.00  0.00     0.049 A 
ATOM     50  H   UNL A   1      42.342  27.378  29.125  1.00  0.00     0.167 HD
ATOM     51  C   UNL A   1      46.636  26.789  29.611  1.00  0.00     0.031 A 
ATOM     52  C   UNL A   1      39.980  28.880  29.140  1.00  0.00     0.031 A 
ATOM     53  C   UNL A   1      46.387  28.146  30.022  1.00  0.00     0.049 A 
ATOM     54  C   UNL A   1      41.051  29.789  29.666  1.00  0.00     0.074 A 
ATOM     55  C   UNL A   1      47.298  29.088  30.467  1.00  0.00     0.029 A 
ATOM     56  N   UNL A   1      45.142  28.753  30.037  1.00  0.00    -0.354 N 
ATOM     57  N   UNL A   1      42.335  29.557  29.795  1.00  0.00    -0.248 NA
ATOM     58  C   UNL A   1      40.633  31.129  30.101  1.00  0.00     0.031 C 
ATOM     59  C   UNL A   1      46.597  30.248  30.803  1.00  0.00     0.029 A 
ATOM     60  C   UNL A   1      45.258  30.051  30.507  1.00  0.00     0.049 A 
ATOM     61  H   UNL A   1      44.300  28.327  29.755  1.00  0.00     0.167 HD
ATOM     62  C   UNL A   1      42.880  30.722  30.317  1.00  0.00     0.074 A 
ATOM     63  C   UNL A   1      41.792  31.668  30.460  1.00  0.00     0.031 C 
ATOM     64  C   UNL A   1      44.167  30.980  30.651  1.00  0.00     0.031 A 
BRANCH  51  65
ATOM     65  C   UNL A   1      48.053  26.289  29.680  1.00  0.00    -0.014 A 
ATOM     66  C   UNL A   1      48.540  25.740  30.876  1.00  0.00     0.009 A 
ATOM     67  C   UNL A   1      48.933  26.452  28.599  1.00  0.00     0.009 A 
ATOM     68  C   UNL A   1      49.884  25.376  30.995  1.00  0.00     0.001 A 
ATOM     69  C   UNL A   1      50.269  26.063  28.712  1.00  0.00     0.001 A 
ATOM     70  C   UNL A   1      50.746  25.535  29.911  1.00  0.00     0.000 A 
ENDBRANCH  51  65
BRANCH  52  71
ATOM     71  C   UNL A   1      38.573  29.337  29.003  1.00  0.00    -0.014 A 
ATOM     72  C   UNL A   1      37.697  29.283  30.101  1.00  0.00     0.009 A 
ATOM     73  C   UNL A   1      38.080  29.770  27.764  1.00  0.00     0.009 A 
ATOM     74  C   UNL A   1      36.352  29.622  29.954  1.00  0.00     0.001 A 
ATOM     75  C   UNL A   1      36.739  30.137  27.627  1.00  0.00     0.001 A 
ATOM     76  C   UNL A   1      35.874  30.053  28.718  1.00  0.00     0.000 A 
ENDBRANCH  52  71
BRANCH  64  77
ATOM     77  C   UNL A   1      44.489  32.339  31.203  1.00  0.00    -0.014 A 
ATOM     78  C   UNL A   1      44.881  33.370  30.333  1.00  0.00     0.009 A 
ATOM     79  C   UNL A   1      44.505  32.572  32.586  1.00  0.00     0.009 A 
ATOM     80  C   UNL A   1      45.300  34.602  30.839  1.00  0.00     0.001 A 
ATOM     81  C   UNL A   1      44.897  33.814  33.087  1.00  0.00     0.001 A 
ATOM     82  C   UNL A   1      45.304  34.823  32.215  1.00  0.00     0.000 A 
ENDBRANCH  64  77
ENDBRANCH  38  39
ENDBRANCH  30  33
ENDBRANCH  28  29
ENDBRANCH  27  28
ENDBRANCH   1  27
TORSDOF 15
ENDMDL
MODEL 2
REMARK VINA RESULT:     -11.5      0.404      5.838
REMARK SMILES CC(C)c1cc2c(cc1Cl)C=C(C(=O)NCCCCCCNC(=O)c1ccc(-c3c4nc(c(-c5ccccc5)c5ccc([nH]5)c(-c5ccccc5)c5nc(c(-c6ccccc6)c6ccc3[nH]6)C=C5)C=C4)cc1)[C@@H](C(F)(F)F)O2
REMARK SMILES IDX 19 1 18 2 17 3 16 4 15 5 13 6 14 7 12 9 4 10 5 11 9 12 6 13
REMARK SMILES IDX 8 14 10 15 7 16 78 17 11 18 73 19 2 20 1 21 3 22 74 23 75 24
REMARK SMILES IDX 76 25 77 26 20 27 21 28 22 29 23 30 24 32 25 33 26 34 72 35
REMARK SMILES IDX 27 36 71 37 28 38 29 39 30 40 65 41 31 42 70 43 64 44 66 45
REMARK SMILES IDX 32 46 69 47 63 48 62 49 33 51 55 52 40 53 54 54 41 55 44 56
REMARK SMILES IDX 53 57 67 58 42 59 43 60 52 62 68 63 45 64 34 65 35 66 39 67
REMARK SMILES IDX 36 68 38 69 37 70 56 71 57 72 61 73 58 74 60 75 59 76 46 77
REMARK SMILES IDX 47 78 51 79 48 80 50 81 49 82
REMARK H PARENT 15 8 22 31 66 50 44 61
REMARK Flexibility Score: inf
ROOT
ATOM      1  C   UNL A   1      35.878  20.913  25.183  1.00  0.00     0.002 C 
ENDROOT
BRANCH   1   2
ATOM      2  C   UNL A   1      34.989  21.923  24.443  1.00  0.00     0.002 C 
BRANCH   2   3
ATOM      3  C   UNL A   1      33.583  21.429  24.087  1.00  0.00     0.021 C 
BRANCH   3   4
ATOM      4  C   UNL A   1      32.505  22.506  24.169  1.00  0.00     0.116 C 
BRANCH   4   5
ATOM      5  N   UNL A   1      32.221  22.888  25.541  1.00  0.00    -0.352 N 
ATOM      6  C   UNL A   1      31.833  24.002  26.204  1.00  0.00     0.251 C 
ATOM      7  O   UNL A   1      31.671  23.857  27.421  1.00  0.00    -0.270 OA
ATOM      8  H   UNL A   1      32.344  22.130  26.157  1.00  0.00     0.163 HD
BRANCH   6   9
ATOM      9  C   UNL A   1      31.600  25.343  25.587  1.00  0.00     0.067 C 
ATOM     10  C   UNL A   1      29.486  29.414  23.431  1.00  0.00    -0.023 A 
ATOM     11  C   UNL A   1      30.715  29.137  24.056  1.00  0.00     0.052 A 
ATOM     12  C   UNL A   1      28.535  28.377  23.379  1.00  0.00     0.045 A 
ATOM     13  C   UNL A   1      30.987  27.880  24.589  1.00  0.00     0.128 A 
ATOM     14  C   UNL A   1      28.811  27.115  23.930  1.00  0.00     0.032 A 
ATOM     15  Cl  UNL A   1      26.977  28.588  22.660  1.00  0.00    -0.084 Cl
ATOM     16  C   UNL A   1      30.042  26.863  24.538  1.00  0.00     0.019 A 
ATOM     17  O   UNL A   1      32.199  27.741  25.195  1.00  0.00    -0.475 OA
ATOM     18  C   UNL A   1      30.345  25.580  25.161  1.00  0.00     0.025 C 
ATOM     19  C   UNL A   1      32.669  26.383  25.400  1.00  0.00     0.314 C 
BRANCH  10  20
ATOM     20  C   UNL A   1      29.245  30.808  22.872  1.00  0.00     0.014 C 
ATOM     21  C   UNL A   1      28.967  30.749  21.366  1.00  0.00     0.012 C 
ATOM     22  C   UNL A   1      28.103  31.524  23.605  1.00  0.00     0.012 C 
ENDBRANCH  10  20
BRANCH  19  23
ATOM     23  C   UNL A   1      33.658  26.025  24.276  1.00  0.00     0.429 C 
ATOM     24  F   UNL A   1      33.007  25.427  23.246  1.00  0.00    -0.167 F 
ATOM     25  F   UNL A   1      34.272  27.113  23.754  1.00  0.00    -0.167 F 
ATOM     26  F   UNL A   1      34.630  25.180  24.687  1.00  0.00    -0.167 F 
ENDBRANCH  19  23
ENDBRANCH   6   9
ENDBRANCH   4   5
ENDBRANCH   3   4
ENDBRANCH   2   3
ENDBRANCH   1   2
BRANCH   1  27
ATOM     27  C   UNL A   1      37.289  20.733  24.619  1.00  0.00     0.021 C 
BRANCH  27  28
ATOM     28  C   UNL A   1      38.414  20.984  25.614  1.00  0.00     0.116 C 
BRANCH  28  29
ATOM     29  N   UNL A   1      39.376  19.895  25.657  1.00  0.00    -0.352 N 
ATOM     30  C   UNL A   1      40.700  19.922  26.026  1.00  0.00     0.251 C 
ATOM     31  H   UNL A   1      39.031  19.014  25.384  1.00  0.00     0.163 HD
ATOM     32  O   UNL A   1      41.412  18.936  25.863  1.00  0.00    -0.269 OA
BRANCH  30  33
ATOM     33  C   UNL A   1      41.273  21.161  26.589  1.00  0.00     0.039 A 
ATOM     34  C   UNL A   1      41.215  21.411  27.962  1.00  0.00     0.014 A 
ATOM     35  C   UNL A   1      41.852  22.097  25.728  1.00  0.00     0.014 A 
ATOM     36  C   UNL A   1      41.589  22.657  28.451  1.00  0.00     0.010 A 
ATOM     37  C   UNL A   1      42.303  23.319  26.234  1.00  0.00     0.010 A 
ATOM     38  C   UNL A   1      42.133  23.626  27.593  1.00  0.00    -0.014 A 
BRANCH  38  39
ATOM     39  C   UNL A   1      42.520  24.951  28.141  1.00  0.00     0.031 A 
ATOM     40  C   UNL A   1      41.492  26.031  28.345  1.00  0.00     0.074 A 
ATOM     41  C   UNL A   1      43.798  25.159  28.509  1.00  0.00     0.049 A 
ATOM     42  N   UNL A   1      41.652  27.231  28.844  1.00  0.00    -0.248 NA
ATOM     43  C   UNL A   1      40.108  25.729  27.945  1.00  0.00     0.031 C 
ATOM     44  C   UNL A   1      44.880  24.181  28.379  1.00  0.00     0.029 A 
ATOM     45  N   UNL A   1      44.399  26.244  29.095  1.00  0.00    -0.354 N 
ATOM     46  C   UNL A   1      40.399  27.830  28.803  1.00  0.00     0.074 A 
ATOM     47  C   UNL A   1      39.492  26.874  28.207  1.00  0.00     0.031 C 
ATOM     48  C   UNL A   1      45.996  24.686  28.923  1.00  0.00     0.029 A 
ATOM     49  C   UNL A   1      45.729  26.046  29.380  1.00  0.00     0.049 A 
ATOM     50  H   UNL A   1      43.924  27.083  29.294  1.00  0.00     0.167 HD
ATOM     51  C   UNL A   1      40.037  29.061  29.234  1.00  0.00     0.031 A 
ATOM     52  C   UNL A   1      46.640  26.867  29.936  1.00  0.00     0.031 A 
ATOM     53  C   UNL A   1      40.939  30.008  29.834  1.00  0.00     0.049 A 
ATOM     54  C   UNL A   1      46.223  28.245  30.358  1.00  0.00     0.074 A 
ATOM     55  C   UNL A   1      40.658  31.277  30.312  1.00  0.00     0.029 A 
ATOM     56  N   UNL A   1      42.292  29.792  30.041  1.00  0.00    -0.354 N 
ATOM     57  N   UNL A   1      45.032  28.793  30.314  1.00  0.00    -0.248 NA
ATOM     58  C   UNL A   1      47.270  29.120  30.903  1.00  0.00     0.031 C 
ATOM     59  C   UNL A   1      41.851  31.850  30.757  1.00  0.00     0.029 A 
ATOM     60  C   UNL A   1      42.864  30.914  30.617  1.00  0.00     0.049 A 
ATOM     61  H   UNL A   1      42.775  28.965  29.812  1.00  0.00     0.167 HD
ATOM     62  C   UNL A   1      45.185  30.072  30.830  1.00  0.00     0.074 A 
ATOM     63  C   UNL A   1      46.578  30.211  31.204  1.00  0.00     0.031 C 
ATOM     64  C   UNL A   1      44.253  31.043  30.978  1.00  0.00     0.031 A 
BRANCH  51  65
ATOM     65  C   UNL A   1      38.600  29.475  29.069  1.00  0.00    -0.014 A 
ATOM     66  C   UNL A   1      37.701  29.309  30.134  1.00  0.00     0.009 A 
ATOM     67  C   UNL A   1      38.114  29.932  27.835  1.00  0.00     0.009 A 
ATOM     68  C   UNL A   1      36.341  29.580  29.964  1.00  0.00     0.001 A 
ATOM     69  C   UNL A   1      36.759  30.228  27.675  1.00  0.00     0.001 A 
ATOM     70  C   UNL A   1      35.873  30.043  28.735  1.00  0.00     0.000 A 
ENDBRANCH  51  65
BRANCH  52  71
ATOM     71  C   UNL A   1      48.033  26.387  30.120  1.00  0.00    -0.014 A 
ATOM     72  C   UNL A   1      48.962  26.477  29.070  1.00  0.00     0.009 A 
ATOM     73  C   UNL A   1      48.426  25.781  31.322  1.00  0.00     0.009 A 
ATOM     74  C   UNL A   1      50.244  25.943  29.207  1.00  0.00     0.001 A 
ATOM     75  C   UNL A   1      49.720  25.274  31.467  1.00  0.00     0.001 A 
ATOM     76  C   UNL A   1      50.624  25.345  30.407  1.00  0.00     0.000 A 
ENDBRANCH  52  71
BRANCH  64  77
ATOM     77  C   UNL A   1      44.691  32.351  31.571  1.00  0.00    -0.014 A 
ATOM     78  C   UNL A   1      44.590  32.557  32.957  1.00  0.00     0.009 A 
ATOM     79  C   UNL A   1      45.104  33.414  30.753  1.00  0.00     0.009 A 
ATOM     80  C   UNL A   1      44.878  33.806  33.510  1.00  0.00     0.001 A 
ATOM     81  C   UNL A   1      45.418  34.653  31.313  1.00  0.00     0.001 A 
ATOM     82  C   UNL A   1      45.295  34.851  32.687  1.00  0.00     0.000 A 
ENDBRANCH  64  77
ENDBRANCH  38  39
ENDBRANCH  30  33
ENDBRANCH  28  29
ENDBRANCH  27  28
ENDBRANCH   1  27
TORSDOF 15
ENDMDL
MODEL 3
REMARK VINA RESULT:     -11.3      1.629      2.267
REMARK SMILES CC(C)c1cc2c(cc1Cl)C=C(C(=O)NCCCCCCNC(=O)c1ccc(-c3c4nc(c(-c5ccccc5)c5ccc([nH]5)c(-c5ccccc5)c5nc(c(-c6ccccc6)c6ccc3[nH]6)C=C5)C=C4)cc1)[C@@H](C(F)(F)F)O2
REMARK SMILES IDX 19 1 18 2 17 3 16 4 15 5 13 6 14 7 12 9 4 10 5 11 9 12 6 13
REMARK SMILES IDX 8 14 10 15 7 16 78 17 11 18 73 19 2 20 1 21 3 22 74 23 75 24
REMARK SMILES IDX 76 25 77 26 20 27 21 28 22 29 23 30 24 32 25 33 26 34 72 35
REMARK SMILES IDX 27 36 71 37 28 38 29 39 30 40 65 41 31 42 70 43 64 44 66 45
REMARK SMILES IDX 32 46 69 47 63 48 62 49 33 51 55 52 40 53 54 54 41 55 44 56
REMARK SMILES IDX 53 57 67 58 42 59 43 60 52 62 68 63 45 64 34 65 35 66 39 67
REMARK SMILES IDX 36 68 38 69 37 70 56 71 57 72 61 73 58 74 60 75 59 76 46 77
REMARK SMILES IDX 47 78 51 79 48 80 50 81 49 82
REMARK H PARENT 15 8 22 31 66 50 44 61
REMARK Flexibility Score: inf
ROOT
ATOM      1  C   UNL A   1      37.366  21.662  24.495  1.00  0.00     0.002 C 
ENDROOT
BRANCH   1   2
ATOM      2  C   UNL A   1      35.841  21.703  24.334  1.00  0.00     0.002 C 
BRANCH   2   3
ATOM      3  C   UNL A   1      35.043  21.859  25.633  1.00  0.00     0.021 C 
BRANCH   3   4
ATOM      4  C   UNL A   1      33.822  20.947  25.727  1.00  0.00     0.116 C 
BRANCH   4   5
ATOM      5  N   UNL A   1      33.182  20.760  24.437  1.00  0.00    -0.352 N 
ATOM      6  C   UNL A   1      32.460  21.503  23.567  1.00  0.00     0.251 C 
ATOM      7  O   UNL A   1      32.134  20.921  22.527  1.00  0.00    -0.270 OA
ATOM      8  H   UNL A   1      33.308  19.841  24.105  1.00  0.00     0.163 HD
BRANCH   6   9
ATOM      9  C   UNL A   1      32.044  22.924  23.775  1.00  0.00     0.067 C 
ATOM     10  C   UNL A   1      31.824  27.986  23.765  1.00  0.00    -0.023 A 
ATOM     11  C   UNL A   1      30.923  26.947  24.056  1.00  0.00     0.052 A 
ATOM     12  C   UNL A   1      33.112  27.628  23.327  1.00  0.00     0.045 A 
ATOM     13  C   UNL A   1      31.297  25.612  23.930  1.00  0.00     0.128 A 
ATOM     14  C   UNL A   1      33.479  26.279  23.190  1.00  0.00     0.032 A 
ATOM     15  Cl  UNL A   1      34.309  28.805  22.915  1.00  0.00    -0.084 Cl
ATOM     16  C   UNL A   1      32.569  25.264  23.492  1.00  0.00     0.019 A 
ATOM     17  O   UNL A   1      30.331  24.694  24.211  1.00  0.00    -0.475 OA
ATOM     18  C   UNL A   1      32.901  23.856  23.317  1.00  0.00     0.025 C 
ATOM     19  C   UNL A   1      30.780  23.339  24.474  1.00  0.00     0.314 C 
BRANCH  10  20
ATOM     20  C   UNL A   1      31.356  29.426  23.918  1.00  0.00     0.014 C 
ATOM     21  C   UNL A   1      29.902  29.577  23.458  1.00  0.00     0.012 C 
ATOM     22  C   UNL A   1      31.522  29.928  25.358  1.00  0.00     0.012 C 
ENDBRANCH  10  20
BRANCH  19  23
ATOM     23  C   UNL A   1      30.842  23.122  25.996  1.00  0.00     0.429 C 
ATOM     24  F   UNL A   1      30.623  21.817  26.297  1.00  0.00    -0.167 F 
ATOM     25  F   UNL A   1      32.052  23.433  26.518  1.00  0.00    -0.167 F 
ATOM     26  F   UNL A   1      29.922  23.852  26.665  1.00  0.00    -0.167 F 
ENDBRANCH  19  23
ENDBRANCH   6   9
ENDBRANCH   4   5
ENDBRANCH   3   4
ENDBRANCH   2   3
ENDBRANCH   1   2
BRANCH   1  27
ATOM     27  C   UNL A   1      37.955  20.311  24.906  1.00  0.00     0.021 C 
BRANCH  27  28
ATOM     28  C   UNL A   1      38.980  20.372  26.030  1.00  0.00     0.116 C 
BRANCH  28  29
ATOM     29  N   UNL A   1      40.080  19.442  25.837  1.00  0.00    -0.352 N 
ATOM     30  C   UNL A   1      41.429  19.648  25.999  1.00  0.00     0.251 C 
ATOM     31  H   UNL A   1      39.822  18.536  25.550  1.00  0.00     0.163 HD
ATOM     32  O   UNL A   1      42.236  18.793  25.649  1.00  0.00    -0.269 OA
BRANCH  30  33
ATOM     33  C   UNL A   1      41.906  20.926  26.566  1.00  0.00     0.039 A 
ATOM     34  C   UNL A   1      41.950  21.117  27.949  1.00  0.00     0.014 A 
ATOM     35  C   UNL A   1      42.290  21.954  25.701  1.00  0.00     0.014 A 
ATOM     36  C   UNL A   1      42.223  22.380  28.460  1.00  0.00     0.010 A 
ATOM     37  C   UNL A   1      42.643  23.202  26.221  1.00  0.00     0.010 A 
ATOM     38  C   UNL A   1      42.568  23.438  27.603  1.00  0.00    -0.014 A 
BRANCH  38  39
ATOM     39  C   UNL A   1      42.850  24.779  28.176  1.00  0.00     0.031 A 
ATOM     40  C   UNL A   1      44.258  25.198  28.498  1.00  0.00     0.074 A 
ATOM     41  C   UNL A   1      41.833  25.643  28.351  1.00  0.00     0.049 A 
ATOM     42  N   UNL A   1      44.685  26.343  28.970  1.00  0.00    -0.248 NA
ATOM     43  C   UNL A   1      45.326  24.214  28.259  1.00  0.00     0.031 C 
ATOM     44  C   UNL A   1      40.427  25.358  28.054  1.00  0.00     0.029 A 
ATOM     45  N   UNL A   1      41.823  26.943  28.788  1.00  0.00    -0.354 N 
ATOM     46  C   UNL A   1      46.063  26.212  29.098  1.00  0.00     0.074 A 
ATOM     47  C   UNL A   1      46.401  24.869  28.680  1.00  0.00     0.031 C 
ATOM     48  C   UNL A   1      39.701  26.466  28.262  1.00  0.00     0.029 A 
ATOM     49  C   UNL A   1      40.576  27.519  28.768  1.00  0.00     0.049 A 
ATOM     50  H   UNL A   1      42.632  27.418  29.086  1.00  0.00     0.167 HD
ATOM     51  C   UNL A   1      46.963  27.132  29.515  1.00  0.00     0.031 A 
ATOM     52  C   UNL A   1      40.172  28.752  29.126  1.00  0.00     0.031 A 
ATOM     53  C   UNL A   1      46.626  28.470  29.923  1.00  0.00     0.049 A 
ATOM     54  C   UNL A   1      41.184  29.736  29.634  1.00  0.00     0.074 A 
ATOM     55  C   UNL A   1      47.475  29.476  30.351  1.00  0.00     0.029 A 
ATOM     56  N   UNL A   1      45.342  28.990  29.952  1.00  0.00    -0.354 N 
ATOM     57  N   UNL A   1      42.483  29.595  29.746  1.00  0.00    -0.248 NA
ATOM     58  C   UNL A   1      40.680  31.046  30.068  1.00  0.00     0.031 C 
ATOM     59  C   UNL A   1      46.700  30.587  30.692  1.00  0.00     0.029 A 
ATOM     60  C   UNL A   1      45.373  30.295  30.415  1.00  0.00     0.049 A 
ATOM     61  H   UNL A   1      44.528  28.504  29.684  1.00  0.00     0.167 HD
ATOM     62  C   UNL A   1      42.953  30.798  30.255  1.00  0.00     0.074 A 
ATOM     63  C   UNL A   1      41.803  31.666  30.408  1.00  0.00     0.031 C 
ATOM     64  C   UNL A   1      44.223  31.147  30.569  1.00  0.00     0.031 A 
BRANCH  51  65
ATOM     65  C   UNL A   1      48.412  26.732  29.567  1.00  0.00    -0.014 A 
ATOM     66  C   UNL A   1      49.270  27.083  28.513  1.00  0.00     0.009 A 
ATOM     67  C   UNL A   1      48.905  25.924  30.603  1.00  0.00     0.009 A 
ATOM     68  C   UNL A   1      50.589  26.624  28.487  1.00  0.00     0.001 A 
ATOM     69  C   UNL A   1      50.232  25.488  30.588  1.00  0.00     0.001 A 
ATOM     70  C   UNL A   1      51.069  25.830  29.527  1.00  0.00     0.000 A 
ENDBRANCH  51  65
BRANCH  52  71
ATOM     71  C   UNL A   1      38.735  29.109  29.007  1.00  0.00    -0.014 A 
ATOM     72  C   UNL A   1      38.229  29.636  27.806  1.00  0.00     0.009 A 
ATOM     73  C   UNL A   1      37.875  28.985  30.107  1.00  0.00     0.009 A 
ATOM     74  C   UNL A   1      36.903  30.060  27.719  1.00  0.00     0.001 A 
ATOM     75  C   UNL A   1      36.539  29.382  30.008  1.00  0.00     0.001 A 
ATOM     76  C   UNL A   1      36.057  29.929  28.819  1.00  0.00     0.000 A 
ENDBRANCH  52  71
BRANCH  64  77
ATOM     77  C   UNL A   1      44.457  32.528  31.110  1.00  0.00    -0.014 A 
ATOM     78  C   UNL A   1      44.767  33.578  30.230  1.00  0.00     0.009 A 
ATOM     79  C   UNL A   1      44.473  32.770  32.492  1.00  0.00     0.009 A 
ATOM     80  C   UNL A   1      45.105  34.839  30.724  1.00  0.00     0.001 A 
ATOM     81  C   UNL A   1      44.784  34.039  32.981  1.00  0.00     0.001 A 
ATOM     82  C   UNL A   1      45.110  35.069  32.099  1.00  0.00     0.000 A 
ENDBRANCH  64  77
ENDBRANCH  38  39
ENDBRANCH  30  33
ENDBRANCH  28  29
ENDBRANCH  27  28
ENDBRANCH   1  27
TORSDOF 15
ENDMDL
