MODEL 1
REMARK VINA RESULT:     -12.3      0.000      0.000
REMARK SMILES Cc1ccc(-c2ncc(C(=O)NCCCCCCNC(=O)c3ccc(-c4c5nc(c(-c6ccccc6)c6ccc([nH]6)c(-c6ccccc6)c6nc(c(-c7ccccc7)c7ccc4[nH]7)C=C6)C=C5)cc3)c(Nc3ccccc3)n2)cc1
REMARK SMILES IDX 15 1 14 2 13 3 12 4 10 5 11 6 9 8 6 9 7 10 78 11 8 12 70 13
REMARK SMILES IDX 5 14 1 15 2 16 3 17 80 18 4 19 79 20 71 21 72 23 73 24 77 25
REMARK SMILES IDX 74 26 76 27 75 28 16 29 17 30 18 31 19 32 20 33 21 35 22 36
REMARK SMILES IDX 23 37 69 38 24 39 68 40 25 41 26 42 27 43 62 44 28 45 67 46
REMARK SMILES IDX 61 47 63 48 29 49 66 50 60 51 59 52 30 54 52 55 37 56 51 57
REMARK SMILES IDX 38 58 41 59 50 60 64 61 39 62 40 63 49 65 65 66 42 67 31 68
REMARK SMILES IDX 32 69 36 70 33 71 35 72 34 73 53 74 54 75 58 76 55 77 57 78
REMARK SMILES IDX 56 79 43 80 44 81 48 82 45 83 47 84 46 85
REMARK H PARENT 12 7 71 22 19 34 63 53 41 64
REMARK Flexibility Score: inf
ROOT
ATOM      1  C   UNL A   1      33.317  26.044  26.092  1.00  0.00     0.002 C 
ENDROOT
BRANCH   1   2
ATOM      2  C   UNL A   1      31.953  25.558  25.574  1.00  0.00     0.021 C 
BRANCH   2   3
ATOM      3  C   UNL A   1      31.746  24.044  25.688  1.00  0.00     0.116 C 
BRANCH   3   4
ATOM      4  N   UNL A   1      31.968  23.414  24.400  1.00  0.00    -0.352 N 
ATOM      5  C   UNL A   1      33.085  22.951  23.755  1.00  0.00     0.256 C 
ATOM      6  O   UNL A   1      32.925  22.524  22.608  1.00  0.00    -0.269 OA
ATOM      7  H   UNL A   1      31.141  23.293  23.879  1.00  0.00     0.163 HD
BRANCH   5   8
ATOM      8  C   UNL A   1      34.439  22.899  24.354  1.00  0.00     0.100 A 
ATOM      9  C   UNL A   1      36.916  22.766  25.469  1.00  0.00     0.161 A 
ATOM     10  N   UNL A   1      36.652  23.816  24.678  1.00  0.00    -0.236 NA
ATOM     11  N   UNL A   1      36.064  21.760  25.705  1.00  0.00    -0.210 NA
ATOM     12  C   UNL A   1      35.426  23.831  24.113  1.00  0.00     0.131 A 
ATOM     13  C   UNL A   1      34.834  21.814  25.142  1.00  0.00     0.147 A 
BRANCH   9  14
ATOM     14  C   UNL A   1      38.250  22.673  26.055  1.00  0.00     0.019 A 
ATOM     15  C   UNL A   1      42.249  22.412  27.690  1.00  0.00     0.044 C 
ATOM     16  C   UNL A   1      40.860  22.493  27.129  1.00  0.00    -0.051 A 
ATOM     17  C   UNL A   1      40.127  23.679  27.241  1.00  0.00     0.004 A 
ATOM     18  C   UNL A   1      40.275  21.389  26.501  1.00  0.00     0.004 A 
ATOM     19  C   UNL A   1      38.840  23.770  26.702  1.00  0.00     0.012 A 
ATOM     20  C   UNL A   1      38.982  21.478  25.978  1.00  0.00     0.012 A 
ENDBRANCH   9  14
BRANCH  13  21
ATOM     21  N   UNL A   1      33.963  20.722  25.351  1.00  0.00    -0.339 N 
ATOM     22  H   UNL A   1      33.373  20.787  26.137  1.00  0.00     0.168 HD
BRANCH  21  23
ATOM     23  C   UNL A   1      33.836  19.557  24.580  1.00  0.00     0.040 A 
ATOM     24  C   UNL A   1      34.830  18.572  24.657  1.00  0.00     0.026 A 
ATOM     25  C   UNL A   1      32.694  19.294  23.817  1.00  0.00     0.026 A 
ATOM     26  C   UNL A   1      34.688  17.358  23.984  1.00  0.00     0.002 A 
ATOM     27  C   UNL A   1      32.558  18.090  23.124  1.00  0.00     0.002 A 
ATOM     28  C   UNL A   1      33.553  17.119  23.212  1.00  0.00     0.000 A 
ENDBRANCH  21  23
ENDBRANCH  13  21
ENDBRANCH   5   8
ENDBRANCH   3   4
ENDBRANCH   2   3
ENDBRANCH   1   2
BRANCH   1  29
ATOM     29  C   UNL A   1      33.636  27.532  25.863  1.00  0.00     0.002 C 
BRANCH  29  30
ATOM     30  C   UNL A   1      33.338  28.465  27.039  1.00  0.00     0.021 C 
BRANCH  30  31
ATOM     31  C   UNL A   1      34.280  29.657  27.125  1.00  0.00     0.116 C 
BRANCH  31  32
ATOM     32  N   UNL A   1      33.597  30.939  27.109  1.00  0.00    -0.352 N 
ATOM     33  C   UNL A   1      33.816  32.094  27.848  1.00  0.00     0.251 C 
ATOM     34  H   UNL A   1      32.852  30.999  26.468  1.00  0.00     0.163 HD
ATOM     35  O   UNL A   1      33.051  33.022  27.743  1.00  0.00    -0.269 OA
BRANCH  33  36
ATOM     36  C   UNL A   1      35.072  32.244  28.638  1.00  0.00     0.039 A 
ATOM     37  C   UNL A   1      36.124  32.942  28.028  1.00  0.00     0.014 A 
ATOM     38  C   UNL A   1      35.294  31.564  29.830  1.00  0.00     0.014 A 
ATOM     39  C   UNL A   1      37.430  32.735  28.462  1.00  0.00     0.010 A 
ATOM     40  C   UNL A   1      36.590  31.280  30.206  1.00  0.00     0.010 A 
ATOM     41  C   UNL A   1      37.654  31.804  29.473  1.00  0.00    -0.014 A 
BRANCH  41  42
ATOM     42  C   UNL A   1      38.958  31.230  29.760  1.00  0.00     0.031 A 
ATOM     43  C   UNL A   1      39.360  29.951  29.146  1.00  0.00     0.074 A 
ATOM     44  C   UNL A   1      39.821  31.897  30.557  1.00  0.00     0.049 A 
ATOM     45  N   UNL A   1      40.241  29.154  29.650  1.00  0.00    -0.248 NA
ATOM     46  C   UNL A   1      38.754  29.442  27.920  1.00  0.00     0.031 C 
ATOM     47  C   UNL A   1      41.244  31.629  30.752  1.00  0.00     0.029 A 
ATOM     48  N   UNL A   1      39.568  32.884  31.488  1.00  0.00    -0.354 N 
ATOM     49  C   UNL A   1      40.534  28.211  28.695  1.00  0.00     0.074 A 
ATOM     50  C   UNL A   1      39.524  28.376  27.674  1.00  0.00     0.031 C 
ATOM     51  C   UNL A   1      41.644  32.214  31.895  1.00  0.00     0.029 A 
ATOM     52  C   UNL A   1      40.458  32.741  32.549  1.00  0.00     0.049 A 
ATOM     53  H   UNL A   1      38.873  33.577  31.415  1.00  0.00     0.167 HD
ATOM     54  C   UNL A   1      41.686  27.492  28.794  1.00  0.00     0.031 A 
ATOM     55  C   UNL A   1      40.056  32.396  33.810  1.00  0.00     0.031 A 
ATOM     56  C   UNL A   1      42.428  27.816  30.011  1.00  0.00     0.049 A 
ATOM     57  C   UNL A   1      40.637  31.077  34.292  1.00  0.00     0.074 A 
ATOM     58  C   UNL A   1      43.513  28.640  30.260  1.00  0.00     0.029 A 
ATOM     59  N   UNL A   1      41.874  27.508  31.247  1.00  0.00    -0.354 N 
ATOM     60  N   UNL A   1      41.158  30.178  33.502  1.00  0.00    -0.248 NA
ATOM     61  C   UNL A   1      40.645  30.652  35.690  1.00  0.00     0.031 C 
ATOM     62  C   UNL A   1      43.571  28.879  31.658  1.00  0.00     0.029 A 
ATOM     63  C   UNL A   1      42.540  28.175  32.256  1.00  0.00     0.049 A 
ATOM     64  H   UNL A   1      41.114  26.899  31.385  1.00  0.00     0.167 HD
ATOM     65  C   UNL A   1      41.565  29.094  34.234  1.00  0.00     0.074 A 
ATOM     66  C   UNL A   1      41.231  29.443  35.603  1.00  0.00     0.031 C 
ATOM     67  C   UNL A   1      42.132  28.000  33.644  1.00  0.00     0.031 A 
BRANCH  54  68
ATOM     68  C   UNL A   1      42.275  26.727  27.636  1.00  0.00    -0.014 A 
ATOM     69  C   UNL A   1      43.428  25.944  27.833  1.00  0.00     0.009 A 
ATOM     70  C   UNL A   1      41.778  26.773  26.323  1.00  0.00     0.009 A 
ATOM     71  C   UNL A   1      44.101  25.333  26.769  1.00  0.00     0.001 A 
ATOM     72  C   UNL A   1      42.469  26.200  25.247  1.00  0.00     0.001 A 
ATOM     73  C   UNL A   1      43.639  25.487  25.469  1.00  0.00     0.000 A 
ENDBRANCH  54  68
BRANCH  55  74
ATOM     74  C   UNL A   1      38.705  32.904  34.175  1.00  0.00    -0.014 A 
ATOM     75  C   UNL A   1      38.489  34.295  34.150  1.00  0.00     0.009 A 
ATOM     76  C   UNL A   1      37.591  32.052  34.166  1.00  0.00     0.009 A 
ATOM     77  C   UNL A   1      37.201  34.817  33.990  1.00  0.00     0.001 A 
ATOM     78  C   UNL A   1      36.302  32.580  34.015  1.00  0.00     0.001 A 
ATOM     79  C   UNL A   1      36.112  33.956  33.889  1.00  0.00     0.000 A 
ENDBRANCH  55  74
BRANCH  67  80
ATOM     80  C   UNL A   1      42.424  26.669  34.298  1.00  0.00    -0.014 A 
ATOM     81  C   UNL A   1      41.544  25.990  35.149  1.00  0.00     0.009 A 
ATOM     82  C   UNL A   1      43.607  25.980  33.936  1.00  0.00     0.009 A 
ATOM     83  C   UNL A   1      41.845  24.709  35.639  1.00  0.00     0.001 A 
ATOM     84  C   UNL A   1      43.887  24.687  34.383  1.00  0.00     0.001 A 
ATOM     85  C   UNL A   1      43.009  24.054  35.247  1.00  0.00     0.000 A 
ENDBRANCH  67  80
ENDBRANCH  41  42
ENDBRANCH  33  36
ENDBRANCH  31  32
ENDBRANCH  30  31
ENDBRANCH  29  30
ENDBRANCH   1  29
TORSDOF 16
ENDMDL
MODEL 2
REMARK VINA RESULT:     -12.2      3.208      8.947
REMARK SMILES Cc1ccc(-c2ncc(C(=O)NCCCCCCNC(=O)c3ccc(-c4c5nc(c(-c6ccccc6)c6ccc([nH]6)c(-c6ccccc6)c6nc(c(-c7ccccc7)c7ccc4[nH]7)C=C6)C=C5)cc3)c(Nc3ccccc3)n2)cc1
REMARK SMILES IDX 15 1 14 2 13 3 12 4 10 5 11 6 9 8 6 9 7 10 78 11 8 12 70 13
REMARK SMILES IDX 5 14 1 15 2 16 3 17 80 18 4 19 79 20 71 21 72 23 73 24 77 25
REMARK SMILES IDX 74 26 76 27 75 28 16 29 17 30 18 31 19 32 20 33 21 35 22 36
REMARK SMILES IDX 23 37 69 38 24 39 68 40 25 41 26 42 27 43 62 44 28 45 67 46
REMARK SMILES IDX 61 47 63 48 29 49 66 50 60 51 59 52 30 54 52 55 37 56 51 57
REMARK SMILES IDX 38 58 41 59 50 60 64 61 39 62 40 63 49 65 65 66 42 67 31 68
REMARK SMILES IDX 32 69 36 70 33 71 35 72 34 73 53 74 54 75 58 76 55 77 57 78
REMARK SMILES IDX 56 79 43 80 44 81 48 82 45 83 47 84 46 85
REMARK H PARENT 12 7 71 22 19 34 63 53 41 64
REMARK Flexibility Score: inf
ROOT
ATOM      1  C   UNL A   1      35.403  23.486  23.865  1.00  0.00     0.002 C 
ENDROOT
BRANCH   1   2
ATOM      2  C   UNL A   1      34.154  22.842  23.239  1.00  0.00     0.021 C 
BRANCH   2   3
ATOM      3  C   UNL A   1      33.461  23.717  22.189  1.00  0.00     0.116 C 
BRANCH   3   4
ATOM      4  N   UNL A   1      32.044  23.815  22.480  1.00  0.00    -0.352 N 
ATOM      5  C   UNL A   1      31.303  24.614  23.311  1.00  0.00     0.256 C 
ATOM      6  O   UNL A   1      30.093  24.379  23.370  1.00  0.00    -0.269 OA
ATOM      7  H   UNL A   1      31.498  23.170  21.974  1.00  0.00     0.163 HD
BRANCH   5   8
ATOM      8  C   UNL A   1      31.851  25.744  24.097  1.00  0.00     0.100 A 
ATOM      9  C   UNL A   1      32.834  27.846  25.516  1.00  0.00     0.161 A 
ATOM     10  N   UNL A   1      33.177  26.614  25.921  1.00  0.00    -0.236 NA
ATOM     11  N   UNL A   1      32.006  28.106  24.497  1.00  0.00    -0.210 NA
ATOM     12  C   UNL A   1      32.642  25.595  25.216  1.00  0.00     0.131 A 
ATOM     13  C   UNL A   1      31.502  27.064  23.795  1.00  0.00     0.147 A 
BRANCH   9  14
ATOM     14  C   UNL A   1      33.338  28.980  26.284  1.00  0.00     0.019 A 
ATOM     15  C   UNL A   1      34.771  32.310  28.649  1.00  0.00     0.044 C 
ATOM     16  C   UNL A   1      34.272  31.163  27.821  1.00  0.00    -0.051 A 
ATOM     17  C   UNL A   1      35.070  30.028  27.642  1.00  0.00     0.004 A 
ATOM     18  C   UNL A   1      33.015  31.214  27.209  1.00  0.00     0.004 A 
ATOM     19  C   UNL A   1      34.604  28.945  26.889  1.00  0.00     0.012 A 
ATOM     20  C   UNL A   1      32.559  30.137  26.443  1.00  0.00     0.012 A 
ENDBRANCH   9  14
BRANCH  13  21
ATOM     21  N   UNL A   1      30.587  27.347  22.757  1.00  0.00    -0.339 N 
ATOM     22  H   UNL A   1      30.608  26.737  21.986  1.00  0.00     0.168 HD
BRANCH  21  23
ATOM     23  C   UNL A   1      29.651  28.391  22.690  1.00  0.00     0.040 A 
ATOM     24  C   UNL A   1      30.022  29.607  22.099  1.00  0.00     0.026 A 
ATOM     25  C   UNL A   1      28.324  28.224  23.097  1.00  0.00     0.026 A 
ATOM     26  C   UNL A   1      29.089  30.630  21.923  1.00  0.00     0.002 A 
ATOM     27  C   UNL A   1      27.393  29.254  22.943  1.00  0.00     0.002 A 
ATOM     28  C   UNL A   1      27.775  30.455  22.351  1.00  0.00     0.000 A 
ENDBRANCH  21  23
ENDBRANCH  13  21
ENDBRANCH   5   8
ENDBRANCH   3   4
ENDBRANCH   2   3
ENDBRANCH   1   2
BRANCH   1  29
ATOM     29  C   UNL A   1      36.745  22.796  23.558  1.00  0.00     0.002 C 
BRANCH  29  30
ATOM     30  C   UNL A   1      37.392  22.051  24.728  1.00  0.00     0.021 C 
BRANCH  30  31
ATOM     31  C   UNL A   1      37.873  22.968  25.843  1.00  0.00     0.116 C 
BRANCH  31  32
ATOM     32  N   UNL A   1      39.253  22.735  26.231  1.00  0.00    -0.352 N 
ATOM     33  C   UNL A   1      40.209  23.599  26.748  1.00  0.00     0.251 C 
ATOM     34  H   UNL A   1      39.564  21.809  26.107  1.00  0.00     0.163 HD
ATOM     35  O   UNL A   1      41.341  23.210  26.904  1.00  0.00    -0.269 OA
BRANCH  33  36
ATOM     36  C   UNL A   1      39.803  24.942  27.253  1.00  0.00     0.039 A 
ATOM     37  C   UNL A   1      40.208  26.052  26.497  1.00  0.00     0.014 A 
ATOM     38  C   UNL A   1      39.235  25.132  28.508  1.00  0.00     0.014 A 
ATOM     39  C   UNL A   1      40.292  27.303  27.102  1.00  0.00     0.010 A 
ATOM     40  C   UNL A   1      39.404  26.345  29.141  1.00  0.00     0.010 A 
ATOM     41  C   UNL A   1      40.002  27.405  28.460  1.00  0.00    -0.014 A 
BRANCH  41  42
ATOM     42  C   UNL A   1      40.396  28.538  29.281  1.00  0.00     0.031 A 
ATOM     43  C   UNL A   1      39.402  29.555  29.671  1.00  0.00     0.074 A 
ATOM     44  C   UNL A   1      41.668  28.631  29.724  1.00  0.00     0.049 A 
ATOM     45  N   UNL A   1      39.700  30.772  29.983  1.00  0.00    -0.248 NA
ATOM     46  C   UNL A   1      37.969  29.286  29.695  1.00  0.00     0.031 C 
ATOM     47  C   UNL A   1      42.190  29.526  30.754  1.00  0.00     0.029 A 
ATOM     48  N   UNL A   1      42.812  28.033  29.234  1.00  0.00    -0.354 N 
ATOM     49  C   UNL A   1      38.575  31.342  30.527  1.00  0.00     0.074 A 
ATOM     50  C   UNL A   1      37.503  30.413  30.246  1.00  0.00     0.031 C 
ATOM     51  C   UNL A   1      43.525  29.615  30.617  1.00  0.00     0.029 A 
ATOM     52  C   UNL A   1      43.884  28.906  29.400  1.00  0.00     0.049 A 
ATOM     53  H   UNL A   1      42.863  27.135  28.834  1.00  0.00     0.167 HD
ATOM     54  C   UNL A   1      38.694  32.464  31.289  1.00  0.00     0.031 A 
ATOM     55  C   UNL A   1      44.546  29.472  28.346  1.00  0.00     0.031 A 
ATOM     56  C   UNL A   1      40.073  32.941  31.345  1.00  0.00     0.049 A 
ATOM     57  C   UNL A   1      44.450  30.988  28.312  1.00  0.00     0.074 A 
ATOM     58  C   UNL A   1      41.080  32.803  32.288  1.00  0.00     0.029 A 
ATOM     59  N   UNL A   1      40.681  33.403  30.185  1.00  0.00    -0.354 N 
ATOM     60  N   UNL A   1      43.558  31.677  28.970  1.00  0.00    -0.248 NA
ATOM     61  C   UNL A   1      45.324  31.843  27.512  1.00  0.00     0.031 C 
ATOM     62  C   UNL A   1      42.313  33.126  31.665  1.00  0.00     0.029 A 
ATOM     63  C   UNL A   1      42.049  33.487  30.355  1.00  0.00     0.049 A 
ATOM     64  H   UNL A   1      40.204  33.637  29.357  1.00  0.00     0.167 HD
ATOM     65  C   UNL A   1      43.717  33.013  28.712  1.00  0.00     0.074 A 
ATOM     66  C   UNL A   1      44.844  33.067  27.799  1.00  0.00     0.031 C 
ATOM     67  C   UNL A   1      42.896  33.955  29.265  1.00  0.00     0.031 A 
BRANCH  54  68
ATOM     68  C   UNL A   1      37.607  32.939  32.221  1.00  0.00    -0.014 A 
ATOM     69  C   UNL A   1      36.746  33.975  31.814  1.00  0.00     0.009 A 
ATOM     70  C   UNL A   1      37.411  32.448  33.522  1.00  0.00     0.009 A 
ATOM     71  C   UNL A   1      35.818  34.555  32.688  1.00  0.00     0.001 A 
ATOM     72  C   UNL A   1      36.515  33.050  34.416  1.00  0.00     0.001 A 
ATOM     73  C   UNL A   1      35.725  34.113  34.001  1.00  0.00     0.000 A 
ENDBRANCH  54  68
BRANCH  55  74
ATOM     74  C   UNL A   1      44.609  28.607  27.135  1.00  0.00    -0.014 A 
ATOM     75  C   UNL A   1      45.492  27.510  27.149  1.00  0.00     0.009 A 
ATOM     76  C   UNL A   1      43.581  28.628  26.182  1.00  0.00     0.009 A 
ATOM     77  C   UNL A   1      45.275  26.405  26.319  1.00  0.00     0.001 A 
ATOM     78  C   UNL A   1      43.373  27.522  25.346  1.00  0.00     0.001 A 
ATOM     79  C   UNL A   1      44.195  26.399  25.442  1.00  0.00     0.000 A 
ENDBRANCH  55  74
BRANCH  67  80
ATOM     80  C   UNL A   1      42.826  35.420  28.900  1.00  0.00    -0.014 A 
ATOM     81  C   UNL A   1      43.568  36.432  29.520  1.00  0.00     0.009 A 
ATOM     82  C   UNL A   1      42.064  35.801  27.770  1.00  0.00     0.009 A 
ATOM     83  C   UNL A   1      43.524  37.757  29.058  1.00  0.00     0.001 A 
ATOM     84  C   UNL A   1      42.055  37.109  27.278  1.00  0.00     0.001 A 
ATOM     85  C   UNL A   1      42.778  38.092  27.932  1.00  0.00     0.000 A 
ENDBRANCH  67  80
ENDBRANCH  41  42
ENDBRANCH  33  36
ENDBRANCH  31  32
ENDBRANCH  30  31
ENDBRANCH  29  30
ENDBRANCH   1  29
TORSDOF 16
ENDMDL
MODEL 3
REMARK VINA RESULT:     -12.2      1.700      2.829
REMARK SMILES Cc1ccc(-c2ncc(C(=O)NCCCCCCNC(=O)c3ccc(-c4c5nc(c(-c6ccccc6)c6ccc([nH]6)c(-c6ccccc6)c6nc(c(-c7ccccc7)c7ccc4[nH]7)C=C6)C=C5)cc3)c(Nc3ccccc3)n2)cc1
REMARK SMILES IDX 15 1 14 2 13 3 12 4 10 5 11 6 9 8 6 9 7 10 78 11 8 12 70 13
REMARK SMILES IDX 5 14 1 15 2 16 3 17 80 18 4 19 79 20 71 21 72 23 73 24 77 25
REMARK SMILES IDX 74 26 76 27 75 28 16 29 17 30 18 31 19 32 20 33 21 35 22 36
REMARK SMILES IDX 23 37 69 38 24 39 68 40 25 41 26 42 27 43 62 44 28 45 67 46
REMARK SMILES IDX 61 47 63 48 29 49 66 50 60 51 59 52 30 54 52 55 37 56 51 57
REMARK SMILES IDX 38 58 41 59 50 60 64 61 39 62 40 63 49 65 65 66 42 67 31 68
REMARK SMILES IDX 32 69 36 70 33 71 35 72 34 73 53 74 54 75 58 76 55 77 57 78
REMARK SMILES IDX 56 79 43 80 44 81 48 82 45 83 47 84 46 85
REMARK H PARENT 12 7 71 22 19 34 63 53 41 64
REMARK Flexibility Score: inf
ROOT
ATOM      1  C   UNL A   1      32.031  27.063  26.514  1.00  0.00     0.002 C 
ENDROOT
BRANCH   1   2
ATOM      2  C   UNL A   1      31.909  26.147  25.285  1.00  0.00     0.021 C 
BRANCH   2   3
ATOM      3  C   UNL A   1      32.225  24.676  25.570  1.00  0.00     0.116 C 
BRANCH   3   4
ATOM      4  N   UNL A   1      31.978  23.876  24.386  1.00  0.00    -0.352 N 
ATOM      5  C   UNL A   1      32.730  22.969  23.684  1.00  0.00     0.256 C 
ATOM      6  O   UNL A   1      32.226  22.512  22.654  1.00  0.00    -0.269 OA
ATOM      7  H   UNL A   1      31.080  24.012  24.005  1.00  0.00     0.163 HD
BRANCH   5   8
ATOM      8  C   UNL A   1      34.068  22.488  24.100  1.00  0.00     0.100 A 
ATOM      9  C   UNL A   1      36.506  21.567  24.875  1.00  0.00     0.161 A 
ATOM     10  N   UNL A   1      36.461  22.772  24.287  1.00  0.00    -0.236 NA
ATOM     11  N   UNL A   1      35.445  20.772  25.059  1.00  0.00    -0.210 NA
ATOM     12  C   UNL A   1      35.239  23.181  23.884  1.00  0.00     0.131 A 
ATOM     13  C   UNL A   1      34.230  21.219  24.664  1.00  0.00     0.147 A 
BRANCH   9  14
ATOM     14  C   UNL A   1      37.814  21.055  25.274  1.00  0.00     0.019 A 
ATOM     15  C   UNL A   1      41.652  19.528  26.566  1.00  0.00     0.044 C 
ATOM     16  C   UNL A   1      40.327  20.066  26.113  1.00  0.00    -0.051 A 
ATOM     17  C   UNL A   1      39.416  19.228  25.461  1.00  0.00     0.004 A 
ATOM     18  C   UNL A   1      39.988  21.407  26.322  1.00  0.00     0.004 A 
ATOM     19  C   UNL A   1      38.170  19.716  25.054  1.00  0.00     0.012 A 
ATOM     20  C   UNL A   1      38.748  21.895  25.900  1.00  0.00     0.012 A 
ENDBRANCH   9  14
BRANCH  13  21
ATOM     21  N   UNL A   1      33.127  20.350  24.812  1.00  0.00    -0.339 N 
ATOM     22  H   UNL A   1      32.263  20.781  25.004  1.00  0.00     0.168 HD
BRANCH  21  23
ATOM     23  C   UNL A   1      33.110  18.950  24.721  1.00  0.00     0.040 A 
ATOM     24  C   UNL A   1      33.476  18.336  23.516  1.00  0.00     0.026 A 
ATOM     25  C   UNL A   1      32.843  18.139  25.830  1.00  0.00     0.026 A 
ATOM     26  C   UNL A   1      33.570  16.947  23.421  1.00  0.00     0.002 A 
ATOM     27  C   UNL A   1      32.913  16.749  25.732  1.00  0.00     0.002 A 
ATOM     28  C   UNL A   1      33.282  16.152  24.528  1.00  0.00     0.000 A 
ENDBRANCH  21  23
ENDBRANCH  13  21
ENDBRANCH   5   8
ENDBRANCH   3   4
ENDBRANCH   2   3
ENDBRANCH   1   2
BRANCH   1  29
ATOM     29  C   UNL A   1      33.276  27.967  26.562  1.00  0.00     0.002 C 
BRANCH  29  30
ATOM     30  C   UNL A   1      33.156  29.220  27.433  1.00  0.00     0.021 C 
BRANCH  30  31
ATOM     31  C   UNL A   1      33.846  30.441  26.844  1.00  0.00     0.116 C 
BRANCH  31  32
ATOM     32  N   UNL A   1      34.356  31.360  27.847  1.00  0.00    -0.352 N 
ATOM     33  C   UNL A   1      35.407  31.232  28.745  1.00  0.00     0.251 C 
ATOM     34  H   UNL A   1      33.875  32.218  27.900  1.00  0.00     0.163 HD
ATOM     35  O   UNL A   1      35.592  32.093  29.571  1.00  0.00    -0.269 OA
BRANCH  33  36
ATOM     36  C   UNL A   1      36.390  30.122  28.586  1.00  0.00     0.039 A 
ATOM     37  C   UNL A   1      36.618  29.313  29.708  1.00  0.00     0.014 A 
ATOM     38  C   UNL A   1      37.208  29.999  27.468  1.00  0.00     0.014 A 
ATOM     39  C   UNL A   1      37.804  28.592  29.807  1.00  0.00     0.010 A 
ATOM     40  C   UNL A   1      38.426  29.365  27.598  1.00  0.00     0.010 A 
ATOM     41  C   UNL A   1      38.751  28.728  28.796  1.00  0.00    -0.014 A 
BRANCH  41  42
ATOM     42  C   UNL A   1      40.144  28.341  28.943  1.00  0.00     0.031 A 
ATOM     43  C   UNL A   1      40.630  27.073  28.368  1.00  0.00     0.074 A 
ATOM     44  C   UNL A   1      41.004  29.171  29.572  1.00  0.00     0.049 A 
ATOM     45  N   UNL A   1      41.663  26.433  28.802  1.00  0.00    -0.248 NA
ATOM     46  C   UNL A   1      39.948  26.396  27.270  1.00  0.00     0.031 C 
ATOM     47  C   UNL A   1      42.463  29.094  29.593  1.00  0.00     0.029 A 
ATOM     48  N   UNL A   1      40.742  30.194  30.462  1.00  0.00    -0.354 N 
ATOM     49  C   UNL A   1      41.956  25.456  27.881  1.00  0.00     0.074 A 
ATOM     50  C   UNL A   1      40.814  25.414  26.995  1.00  0.00     0.031 C 
ATOM     51  C   UNL A   1      42.922  29.815  30.631  1.00  0.00     0.029 A 
ATOM     52  C   UNL A   1      41.768  30.248  31.401  1.00  0.00     0.049 A 
ATOM     53  H   UNL A   1      39.959  30.789  30.435  1.00  0.00     0.167 HD
ATOM     54  C   UNL A   1      43.195  24.893  27.873  1.00  0.00     0.031 A 
ATOM     55  C   UNL A   1      41.574  29.962  32.724  1.00  0.00     0.031 A 
ATOM     56  C   UNL A   1      44.033  25.403  28.955  1.00  0.00     0.049 A 
ATOM     57  C   UNL A   1      42.377  28.767  33.211  1.00  0.00     0.074 A 
ATOM     58  C   UNL A   1      45.024  26.370  29.003  1.00  0.00     0.029 A 
ATOM     59  N   UNL A   1      43.682  25.134  30.272  1.00  0.00    -0.354 N 
ATOM     60  N   UNL A   1      42.909  27.876  32.420  1.00  0.00    -0.248 NA
ATOM     61  C   UNL A   1      42.613  28.463  34.621  1.00  0.00     0.031 C 
ATOM     62  C   UNL A   1      45.223  26.729  30.361  1.00  0.00     0.029 A 
ATOM     63  C   UNL A   1      44.374  25.958  31.137  1.00  0.00     0.049 A 
ATOM     64  H   UNL A   1      43.030  24.451  30.550  1.00  0.00     0.167 HD
ATOM     65  C   UNL A   1      43.542  26.913  33.162  1.00  0.00     0.074 A 
ATOM     66  C   UNL A   1      43.337  27.331  34.536  1.00  0.00     0.031 C 
ATOM     67  C   UNL A   1      44.169  25.850  32.576  1.00  0.00     0.031 A 
BRANCH  54  68
ATOM     68  C   UNL A   1      43.731  24.111  26.700  1.00  0.00    -0.014 A 
ATOM     69  C   UNL A   1      43.626  22.708  26.692  1.00  0.00     0.009 A 
ATOM     70  C   UNL A   1      44.391  24.687  25.602  1.00  0.00     0.009 A 
ATOM     71  C   UNL A   1      44.234  21.923  25.705  1.00  0.00     0.001 A 
ATOM     72  C   UNL A   1      45.038  23.908  24.632  1.00  0.00     0.001 A 
ATOM     73  C   UNL A   1      44.968  22.523  24.691  1.00  0.00     0.000 A 
ENDBRANCH  54  68
BRANCH  55  74
ATOM     74  C   UNL A   1      40.224  30.331  33.232  1.00  0.00    -0.014 A 
ATOM     75  C   UNL A   1      39.922  31.698  33.383  1.00  0.00     0.009 A 
ATOM     76  C   UNL A   1      39.166  29.411  33.195  1.00  0.00     0.009 A 
ATOM     77  C   UNL A   1      38.597  32.145  33.368  1.00  0.00     0.001 A 
ATOM     78  C   UNL A   1      37.840  29.863  33.189  1.00  0.00     0.001 A 
ATOM     79  C   UNL A   1      37.558  31.228  33.237  1.00  0.00     0.000 A 
ENDBRANCH  55  74
BRANCH  67  80
ATOM     80  C   UNL A   1      44.710  24.623  33.272  1.00  0.00    -0.014 A 
ATOM     81  C   UNL A   1      46.049  24.441  33.640  1.00  0.00     0.009 A 
ATOM     82  C   UNL A   1      43.797  23.634  33.711  1.00  0.00     0.009 A 
ATOM     83  C   UNL A   1      46.457  23.317  34.375  1.00  0.00     0.001 A 
ATOM     84  C   UNL A   1      44.192  22.538  34.482  1.00  0.00     0.001 A 
ATOM     85  C   UNL A   1      45.529  22.373  34.805  1.00  0.00     0.000 A 
ENDBRANCH  67  80
ENDBRANCH  41  42
ENDBRANCH  33  36
ENDBRANCH  31  32
ENDBRANCH  30  31
ENDBRANCH  29  30
ENDBRANCH   1  29
TORSDOF 16
ENDMDL
