MODEL 1
REMARK VINA RESULT:     -11.2      0.000      0.000
REMARK SMILES C[C@H](C(=O)Nc1ccc(C(=O)NCCCCCCNC(=O)c2ccc(-c3c4nc(c(-c5ccccc5)c5ccc([nH]5)c(-c5ccccc5)c5nc(c(-c6ccccc6)c6ccc3[nH]6)C=C5)C=C4)cc2)cc1)N1C(=O)/C(=C\c2ccco2)SC1=S
REMARK SMILES IDX 14 1 13 2 12 3 10 4 11 5 9 7 6 8 7 9 71 10 8 11 70 12 5 13
REMARK SMILES IDX 3 14 4 15 2 17 1 18 72 19 73 20 83 21 74 22 75 23 82 24
REMARK SMILES IDX 84 25 76 26 77 27 78 28 81 29 79 30 80 31 15 32 16 33 17 34
REMARK SMILES IDX 18 35 19 36 20 37 21 39 22 40 23 41 69 42 24 43 68 44 25 45
REMARK SMILES IDX 26 46 27 47 62 48 28 49 67 50 61 51 63 52 29 53 66 54 60 55
REMARK SMILES IDX 59 56 30 58 52 59 37 60 51 61 38 62 41 63 50 64 64 65 39 66
REMARK SMILES IDX 40 67 49 69 65 70 42 71 31 72 32 73 36 74 33 75 35 76 34 77
REMARK SMILES IDX 53 78 54 79 58 80 55 81 57 82 56 83 43 84 44 85 48 86 45 87
REMARK SMILES IDX 47 88 46 89
REMARK H PARENT 12 6 5 16 19 38 63 57 41 68
REMARK Flexibility Score: inf
ROOT
ATOM      1  C   UNL A   1      34.818  32.755  29.332  1.00  0.00     0.021 C 
ENDROOT
BRANCH   1   2
ATOM      2  C   UNL A   1      34.606  31.864  28.106  1.00  0.00     0.116 C 
BRANCH   2   3
ATOM      3  N   UNL A   1      33.226  31.959  27.675  1.00  0.00    -0.352 N 
ATOM      4  C   UNL A   1      32.448  31.159  26.883  1.00  0.00     0.251 C 
ATOM      5  O   UNL A   1      31.307  31.541  26.627  1.00  0.00    -0.269 OA
ATOM      6  H   UNL A   1      32.757  32.754  28.019  1.00  0.00     0.163 HD
BRANCH   4   7
ATOM      7  C   UNL A   1      32.886  29.818  26.407  1.00  0.00     0.039 A 
ATOM      8  C   UNL A   1      33.455  27.335  25.234  1.00  0.00     0.041 A 
ATOM      9  C   UNL A   1      33.586  28.510  24.489  1.00  0.00     0.027 A 
ATOM     10  C   UNL A   1      33.183  27.412  26.595  1.00  0.00     0.027 A 
ATOM     11  C   UNL A   1      33.265  29.737  25.062  1.00  0.00     0.016 A 
ATOM     12  C   UNL A   1      32.940  28.659  27.188  1.00  0.00     0.016 A 
BRANCH   8  13
ATOM     13  N   UNL A   1      33.634  26.140  24.542  1.00  0.00    -0.324 N 
ATOM     14  C   UNL A   1      33.131  25.672  23.369  1.00  0.00     0.247 C 
ATOM     15  O   UNL A   1      33.446  24.505  23.084  1.00  0.00    -0.272 OA
ATOM     16  H   UNL A   1      34.245  25.512  24.990  1.00  0.00     0.170 HD
BRANCH  14  17
ATOM     17  C   UNL A   1      32.167  26.430  22.419  1.00  0.00     0.178 C 
ATOM     18  C   UNL A   1      32.391  25.772  21.043  1.00  0.00     0.042 C 
BRANCH  17  19
ATOM     19  N   UNL A   1      30.746  26.651  22.813  1.00  0.00    -0.280 N 
ATOM     20  C   UNL A   1      30.091  27.830  22.474  1.00  0.00     0.267 C 
ATOM     21  C   UNL A   1      30.122  25.964  23.840  1.00  0.00     0.149 C 
ATOM     22  O   UNL A   1      30.537  28.723  21.763  1.00  0.00    -0.268 OA
ATOM     23  C   UNL A   1      28.755  27.930  23.133  1.00  0.00     0.084 C 
ATOM     24  S   UNL A   1      28.419  26.417  23.892  1.00  0.00    -0.054 SA
ATOM     25  S   UNL A   1      30.765  24.896  24.947  1.00  0.00    -0.052 S 
ATOM     26  C   UNL A   1      27.957  28.990  23.329  1.00  0.00     0.068 C 
BRANCH  26  27
ATOM     27  C   UNL A   1      28.291  30.346  23.057  1.00  0.00     0.127 A 
ATOM     28  C   UNL A   1      28.075  31.179  21.967  1.00  0.00     0.050 A 
ATOM     29  O   UNL A   1      28.966  31.093  24.004  1.00  0.00    -0.465 OA
ATOM     30  C   UNL A   1      28.706  32.421  22.228  1.00  0.00     0.042 A 
ATOM     31  C   UNL A   1      29.232  32.315  23.487  1.00  0.00     0.195 A 
ENDBRANCH  26  27
ENDBRANCH  17  19
ENDBRANCH  14  17
ENDBRANCH   8  13
ENDBRANCH   4   7
ENDBRANCH   2   3
ENDBRANCH   1   2
BRANCH   1  32
ATOM     32  C   UNL A   1      35.577  34.048  29.004  1.00  0.00     0.002 C 
BRANCH  32  33
ATOM     33  C   UNL A   1      34.790  35.049  28.149  1.00  0.00     0.002 C 
BRANCH  33  34
ATOM     34  C   UNL A   1      33.824  35.947  28.927  1.00  0.00     0.021 C 
BRANCH  34  35
ATOM     35  C   UNL A   1      32.813  35.195  29.788  1.00  0.00     0.116 C 
BRANCH  35  36
ATOM     36  N   UNL A   1      32.373  35.987  30.924  1.00  0.00    -0.352 N 
ATOM     37  C   UNL A   1      32.807  35.955  32.225  1.00  0.00     0.251 C 
ATOM     38  H   UNL A   1      31.663  36.641  30.732  1.00  0.00     0.163 HD
ATOM     39  O   UNL A   1      32.187  36.553  33.098  1.00  0.00    -0.269 OA
BRANCH  37  40
ATOM     40  C   UNL A   1      34.019  35.187  32.579  1.00  0.00     0.039 A 
ATOM     41  C   UNL A   1      33.871  33.900  33.105  1.00  0.00     0.014 A 
ATOM     42  C   UNL A   1      35.293  35.740  32.421  1.00  0.00     0.014 A 
ATOM     43  C   UNL A   1      35.003  33.149  33.427  1.00  0.00     0.010 A 
ATOM     44  C   UNL A   1      36.422  34.970  32.688  1.00  0.00     0.010 A 
ATOM     45  C   UNL A   1      36.287  33.670  33.200  1.00  0.00    -0.014 A 
BRANCH  45  46
ATOM     46  C   UNL A   1      37.499  32.869  33.492  1.00  0.00     0.031 A 
ATOM     47  C   UNL A   1      38.276  33.101  34.757  1.00  0.00     0.074 A 
ATOM     48  C   UNL A   1      37.940  31.976  32.586  1.00  0.00     0.049 A 
ATOM     49  N   UNL A   1      39.381  32.530  35.163  1.00  0.00    -0.248 NA
ATOM     50  C   UNL A   1      37.759  34.131  35.672  1.00  0.00     0.031 C 
ATOM     51  C   UNL A   1      37.306  31.694  31.297  1.00  0.00     0.029 A 
ATOM     52  N   UNL A   1      39.034  31.149  32.610  1.00  0.00    -0.354 N 
ATOM     53  C   UNL A   1      39.704  33.146  36.366  1.00  0.00     0.074 A 
ATOM     54  C   UNL A   1      38.701  34.160  36.604  1.00  0.00     0.031 C 
ATOM     55  C   UNL A   1      38.013  30.746  30.661  1.00  0.00     0.029 A 
ATOM     56  C   UNL A   1      39.160  30.375  31.482  1.00  0.00     0.049 A 
ATOM     57  H   UNL A   1      39.668  31.114  33.362  1.00  0.00     0.167 HD
ATOM     58  C   UNL A   1      40.736  32.883  37.203  1.00  0.00     0.031 A 
ATOM     59  C   UNL A   1      40.096  29.469  31.146  1.00  0.00     0.031 A 
ATOM     60  C   UNL A   1      41.724  31.862  36.978  1.00  0.00     0.049 A 
ATOM     61  C   UNL A   1      41.215  29.173  32.103  1.00  0.00     0.074 A 
ATOM     62  C   UNL A   1      42.759  31.464  37.807  1.00  0.00     0.029 A 
ATOM     63  N   UNL A   1      41.800  31.078  35.838  1.00  0.00    -0.354 N 
ATOM     64  N   UNL A   1      41.461  29.707  33.274  1.00  0.00    -0.248 NA
ATOM     65  C   UNL A   1      42.177  28.140  31.695  1.00  0.00     0.031 C 
ATOM     66  C   UNL A   1      43.488  30.468  37.148  1.00  0.00     0.029 A 
ATOM     67  C   UNL A   1      42.880  30.217  35.928  1.00  0.00     0.049 A 
ATOM     68  H   UNL A   1      41.179  31.128  35.075  1.00  0.00     0.167 HD
ATOM     69  C   UNL A   1      42.594  29.064  33.752  1.00  0.00     0.074 A 
ATOM     70  C   UNL A   1      42.978  28.089  32.751  1.00  0.00     0.031 C 
ATOM     71  C   UNL A   1      43.256  29.262  34.918  1.00  0.00     0.031 A 
BRANCH  58  72
ATOM     72  C   UNL A   1      40.849  33.730  38.439  1.00  0.00    -0.014 A 
ATOM     73  C   UNL A   1      41.599  34.917  38.444  1.00  0.00     0.009 A 
ATOM     74  C   UNL A   1      40.183  33.342  39.613  1.00  0.00     0.009 A 
ATOM     75  C   UNL A   1      41.715  35.676  39.611  1.00  0.00     0.001 A 
ATOM     76  C   UNL A   1      40.280  34.116  40.770  1.00  0.00     0.001 A 
ATOM     77  C   UNL A   1      41.054  35.276  40.771  1.00  0.00     0.000 A 
ENDBRANCH  58  72
BRANCH  59  78
ATOM     78  C   UNL A   1      39.994  28.757  29.848  1.00  0.00    -0.014 A 
ATOM     79  C   UNL A   1      39.392  27.492  29.778  1.00  0.00     0.009 A 
ATOM     80  C   UNL A   1      40.473  29.351  28.670  1.00  0.00     0.009 A 
ATOM     81  C   UNL A   1      39.286  26.828  28.554  1.00  0.00     0.001 A 
ATOM     82  C   UNL A   1      40.345  28.694  27.445  1.00  0.00     0.001 A 
ATOM     83  C   UNL A   1      39.757  27.431  27.389  1.00  0.00     0.000 A 
ENDBRANCH  59  78
BRANCH  71  84
ATOM     84  C   UNL A   1      44.457  28.398  35.177  1.00  0.00    -0.014 A 
ATOM     85  C   UNL A   1      45.741  28.806  34.787  1.00  0.00     0.009 A 
ATOM     86  C   UNL A   1      44.303  27.176  35.851  1.00  0.00     0.009 A 
ATOM     87  C   UNL A   1      46.846  27.992  35.041  1.00  0.00     0.001 A 
ATOM     88  C   UNL A   1      45.413  26.376  36.124  1.00  0.00     0.001 A 
ATOM     89  C   UNL A   1      46.682  26.781  35.712  1.00  0.00     0.000 A 
ENDBRANCH  71  84
ENDBRANCH  45  46
ENDBRANCH  37  40
ENDBRANCH  35  36
ENDBRANCH  34  35
ENDBRANCH  33  34
ENDBRANCH  32  33
ENDBRANCH   1  32
TORSDOF 17
ENDMDL
MODEL 2
REMARK VINA RESULT:     -11.2      2.168      4.146
REMARK SMILES C[C@H](C(=O)Nc1ccc(C(=O)NCCCCCCNC(=O)c2ccc(-c3c4nc(c(-c5ccccc5)c5ccc([nH]5)c(-c5ccccc5)c5nc(c(-c6ccccc6)c6ccc3[nH]6)C=C5)C=C4)cc2)cc1)N1C(=O)/C(=C\c2ccco2)SC1=S
REMARK SMILES IDX 14 1 13 2 12 3 10 4 11 5 9 7 6 8 7 9 71 10 8 11 70 12 5 13
REMARK SMILES IDX 3 14 4 15 2 17 1 18 72 19 73 20 83 21 74 22 75 23 82 24
REMARK SMILES IDX 84 25 76 26 77 27 78 28 81 29 79 30 80 31 15 32 16 33 17 34
REMARK SMILES IDX 18 35 19 36 20 37 21 39 22 40 23 41 69 42 24 43 68 44 25 45
REMARK SMILES IDX 26 46 27 47 62 48 28 49 67 50 61 51 63 52 29 53 66 54 60 55
REMARK SMILES IDX 59 56 30 58 52 59 37 60 51 61 38 62 41 63 50 64 64 65 39 66
REMARK SMILES IDX 40 67 49 69 65 70 42 71 31 72 32 73 36 74 33 75 35 76 34 77
REMARK SMILES IDX 53 78 54 79 58 80 55 81 57 82 56 83 43 84 44 85 48 86 45 87
REMARK SMILES IDX 47 88 46 89
REMARK H PARENT 12 6 5 16 19 38 63 57 41 68
REMARK Flexibility Score: inf
ROOT
ATOM      1  C   UNL A   1      34.698  32.945  29.247  1.00  0.00     0.021 C 
ENDROOT
BRANCH   1   2
ATOM      2  C   UNL A   1      34.498  32.102  27.985  1.00  0.00     0.116 C 
BRANCH   2   3
ATOM      3  N   UNL A   1      35.501  31.057  27.940  1.00  0.00    -0.352 N 
ATOM      4  C   UNL A   1      35.447  29.740  27.572  1.00  0.00     0.251 C 
ATOM      5  O   UNL A   1      36.466  29.065  27.711  1.00  0.00    -0.269 OA
ATOM      6  H   UNL A   1      36.394  31.353  28.230  1.00  0.00     0.163 HD
BRANCH   4   7
ATOM      7  C   UNL A   1      34.253  29.126  26.929  1.00  0.00     0.039 A 
ATOM      8  C   UNL A   1      32.029  27.702  25.986  1.00  0.00     0.041 A 
ATOM      9  C   UNL A   1      32.048  28.187  27.296  1.00  0.00     0.027 A 
ATOM     10  C   UNL A   1      33.050  28.052  25.109  1.00  0.00     0.027 A 
ATOM     11  C   UNL A   1      33.169  28.859  27.774  1.00  0.00     0.016 A 
ATOM     12  C   UNL A   1      34.141  28.800  25.574  1.00  0.00     0.016 A 
BRANCH   8  13
ATOM     13  N   UNL A   1      30.945  26.900  25.638  1.00  0.00    -0.324 N 
ATOM     14  C   UNL A   1      30.782  25.552  25.573  1.00  0.00     0.247 C 
ATOM     15  O   UNL A   1      29.684  25.170  25.137  1.00  0.00    -0.272 OA
ATOM     16  H   UNL A   1      30.140  27.409  25.392  1.00  0.00     0.170 HD
BRANCH  14  17
ATOM     17  C   UNL A   1      31.850  24.483  25.921  1.00  0.00     0.178 C 
ATOM     18  C   UNL A   1      31.102  23.472  26.814  1.00  0.00     0.042 C 
BRANCH  17  19
ATOM     19  N   UNL A   1      32.704  23.897  24.849  1.00  0.00    -0.280 N 
ATOM     20  C   UNL A   1      33.930  23.316  25.155  1.00  0.00     0.267 C 
ATOM     21  C   UNL A   1      32.586  24.232  23.511  1.00  0.00     0.149 C 
ATOM     22  O   UNL A   1      34.376  23.127  26.280  1.00  0.00    -0.268 OA
ATOM     23  C   UNL A   1      34.705  22.978  23.925  1.00  0.00     0.084 C 
ATOM     24  S   UNL A   1      33.676  23.224  22.560  1.00  0.00    -0.054 SA
ATOM     25  S   UNL A   1      31.645  25.404  22.788  1.00  0.00    -0.052 S 
ATOM     26  C   UNL A   1      36.008  22.707  23.763  1.00  0.00     0.068 C 
BRANCH  26  27
ATOM     27  C   UNL A   1      37.013  22.821  24.763  1.00  0.00     0.127 A 
ATOM     28  C   UNL A   1      37.455  23.876  25.553  1.00  0.00     0.050 A 
ATOM     29  O   UNL A   1      37.768  21.718  25.111  1.00  0.00    -0.465 OA
ATOM     30  C   UNL A   1      38.551  23.419  26.326  1.00  0.00     0.042 A 
ATOM     31  C   UNL A   1      38.698  22.094  26.020  1.00  0.00     0.195 A 
ENDBRANCH  26  27
ENDBRANCH  17  19
ENDBRANCH  14  17
ENDBRANCH   8  13
ENDBRANCH   4   7
ENDBRANCH   2   3
ENDBRANCH   1   2
BRANCH   1  32
ATOM     32  C   UNL A   1      35.362  34.298  28.959  1.00  0.00     0.002 C 
BRANCH  32  33
ATOM     33  C   UNL A   1      34.499  35.270  28.145  1.00  0.00     0.002 C 
BRANCH  33  34
ATOM     34  C   UNL A   1      33.575  36.167  28.972  1.00  0.00     0.021 C 
BRANCH  34  35
ATOM     35  C   UNL A   1      32.636  35.414  29.911  1.00  0.00     0.116 C 
BRANCH  35  36
ATOM     36  N   UNL A   1      32.332  36.183  31.105  1.00  0.00    -0.352 N 
ATOM     37  C   UNL A   1      32.862  36.075  32.366  1.00  0.00     0.251 C 
ATOM     38  H   UNL A   1      31.648  36.883  30.993  1.00  0.00     0.163 HD
ATOM     39  O   UNL A   1      32.346  36.671  33.306  1.00  0.00    -0.269 OA
BRANCH  37  40
ATOM     40  C   UNL A   1      34.050  35.227  32.595  1.00  0.00     0.039 A 
ATOM     41  C   UNL A   1      35.316  35.755  32.328  1.00  0.00     0.014 A 
ATOM     42  C   UNL A   1      33.917  33.909  33.043  1.00  0.00     0.014 A 
ATOM     43  C   UNL A   1      36.453  34.978  32.557  1.00  0.00     0.010 A 
ATOM     44  C   UNL A   1      35.053  33.155  33.326  1.00  0.00     0.010 A 
ATOM     45  C   UNL A   1      36.331  33.681  33.079  1.00  0.00    -0.014 A 
BRANCH  45  46
ATOM     46  C   UNL A   1      37.530  32.860  33.372  1.00  0.00     0.031 A 
ATOM     47  C   UNL A   1      38.307  33.076  34.639  1.00  0.00     0.074 A 
ATOM     48  C   UNL A   1      37.959  31.963  32.464  1.00  0.00     0.049 A 
ATOM     49  N   UNL A   1      39.403  32.486  35.046  1.00  0.00    -0.248 NA
ATOM     50  C   UNL A   1      37.804  34.110  35.556  1.00  0.00     0.031 C 
ATOM     51  C   UNL A   1      37.324  31.695  31.173  1.00  0.00     0.029 A 
ATOM     52  N   UNL A   1      39.040  31.118  32.487  1.00  0.00    -0.354 N 
ATOM     53  C   UNL A   1      39.733  33.093  36.251  1.00  0.00     0.074 A 
ATOM     54  C   UNL A   1      38.744  34.122  36.490  1.00  0.00     0.031 C 
ATOM     55  C   UNL A   1      38.017  30.738  30.535  1.00  0.00     0.029 A 
ATOM     56  C   UNL A   1      39.156  30.346  31.358  1.00  0.00     0.049 A 
ATOM     57  H   UNL A   1      39.672  31.071  33.241  1.00  0.00     0.167 HD
ATOM     58  C   UNL A   1      40.758  32.811  37.090  1.00  0.00     0.031 A 
ATOM     59  C   UNL A   1      40.078  29.426  31.021  1.00  0.00     0.031 A 
ATOM     60  C   UNL A   1      41.730  31.775  36.864  1.00  0.00     0.049 A 
ATOM     61  C   UNL A   1      41.191  29.110  31.979  1.00  0.00     0.074 A 
ATOM     62  C   UNL A   1      42.757  31.359  37.694  1.00  0.00     0.029 A 
ATOM     63  N   UNL A   1      41.797  30.994  35.721  1.00  0.00    -0.354 N 
ATOM     64  N   UNL A   1      41.442  29.636  33.153  1.00  0.00    -0.248 NA
ATOM     65  C   UNL A   1      42.137  28.063  31.570  1.00  0.00     0.031 C 
ATOM     66  C   UNL A   1      43.472  30.354  37.033  1.00  0.00     0.029 A 
ATOM     67  C   UNL A   1      42.863  30.116  35.812  1.00  0.00     0.049 A 
ATOM     68  H   UNL A   1      41.179  31.056  34.957  1.00  0.00     0.167 HD
ATOM     69  C   UNL A   1      42.564  28.974  33.631  1.00  0.00     0.074 A 
ATOM     70  C   UNL A   1      42.935  27.996  32.627  1.00  0.00     0.031 C 
ATOM     71  C   UNL A   1      43.227  29.158  34.799  1.00  0.00     0.031 A 
BRANCH  58  72
ATOM     72  C   UNL A   1      40.881  33.653  38.329  1.00  0.00    -0.014 A 
ATOM     73  C   UNL A   1      40.252  33.282  39.528  1.00  0.00     0.009 A 
ATOM     74  C   UNL A   1      41.652  34.826  38.300  1.00  0.00     0.009 A 
ATOM     75  C   UNL A   1      40.355  34.093  40.661  1.00  0.00     0.001 A 
ATOM     76  C   UNL A   1      41.774  35.620  39.441  1.00  0.00     0.001 A 
ATOM     77  C   UNL A   1      41.118  35.259  40.616  1.00  0.00     0.000 A 
ENDBRANCH  58  72
BRANCH  59  78
ATOM     78  C   UNL A   1      39.968  28.720  29.720  1.00  0.00    -0.014 A 
ATOM     79  C   UNL A   1      40.492  29.297  28.553  1.00  0.00     0.009 A 
ATOM     80  C   UNL A   1      39.364  27.456  29.644  1.00  0.00     0.009 A 
ATOM     81  C   UNL A   1      40.399  28.627  27.332  1.00  0.00     0.001 A 
ATOM     82  C   UNL A   1      39.292  26.780  28.426  1.00  0.00     0.001 A 
ATOM     83  C   UNL A   1      39.804  27.367  27.270  1.00  0.00     0.000 A 
ENDBRANCH  59  78
BRANCH  71  84
ATOM     84  C   UNL A   1      44.413  28.275  35.058  1.00  0.00    -0.014 A 
ATOM     85  C   UNL A   1      45.706  28.669  34.683  1.00  0.00     0.009 A 
ATOM     86  C   UNL A   1      44.236  27.048  35.717  1.00  0.00     0.009 A 
ATOM     87  C   UNL A   1      46.797  27.837  34.937  1.00  0.00     0.001 A 
ATOM     88  C   UNL A   1      45.333  26.229  35.990  1.00  0.00     0.001 A 
ATOM     89  C   UNL A   1      46.611  26.621  35.593  1.00  0.00     0.000 A 
ENDBRANCH  71  84
ENDBRANCH  45  46
ENDBRANCH  37  40
ENDBRANCH  35  36
ENDBRANCH  34  35
ENDBRANCH  33  34
ENDBRANCH  32  33
ENDBRANCH   1  32
TORSDOF 17
ENDMDL
MODEL 3
REMARK VINA RESULT:     -10.8      6.316     12.540
REMARK SMILES C[C@H](C(=O)Nc1ccc(C(=O)NCCCCCCNC(=O)c2ccc(-c3c4nc(c(-c5ccccc5)c5ccc([nH]5)c(-c5ccccc5)c5nc(c(-c6ccccc6)c6ccc3[nH]6)C=C5)C=C4)cc2)cc1)N1C(=O)/C(=C\c2ccco2)SC1=S
REMARK SMILES IDX 14 1 13 2 12 3 10 4 11 5 9 7 6 8 7 9 71 10 8 11 70 12 5 13
REMARK SMILES IDX 3 14 4 15 2 17 1 18 72 19 73 20 83 21 74 22 75 23 82 24
REMARK SMILES IDX 84 25 76 26 77 27 78 28 81 29 79 30 80 31 15 32 16 33 17 34
REMARK SMILES IDX 18 35 19 36 20 37 21 39 22 40 23 41 69 42 24 43 68 44 25 45
REMARK SMILES IDX 26 46 27 47 62 48 28 49 67 50 61 51 63 52 29 53 66 54 60 55
REMARK SMILES IDX 59 56 30 58 52 59 37 60 51 61 38 62 41 63 50 64 64 65 39 66
REMARK SMILES IDX 40 67 49 69 65 70 42 71 31 72 32 73 36 74 33 75 35 76 34 77
REMARK SMILES IDX 53 78 54 79 58 80 55 81 57 82 56 83 43 84 44 85 48 86 45 87
REMARK SMILES IDX 47 88 46 89
REMARK H PARENT 12 6 5 16 19 38 63 57 41 68
REMARK Flexibility Score: inf
ROOT
ATOM      1  C   UNL A   1      44.939  24.196  27.689  1.00  0.00     0.021 C 
ENDROOT
BRANCH   1   2
ATOM      2  C   UNL A   1      44.181  24.586  26.418  1.00  0.00     0.116 C 
BRANCH   2   3
ATOM      3  N   UNL A   1      45.087  25.248  25.501  1.00  0.00    -0.352 N 
ATOM      4  C   UNL A   1      45.416  26.563  25.315  1.00  0.00     0.251 C 
ATOM      5  O   UNL A   1      46.179  26.837  24.390  1.00  0.00    -0.269 OA
ATOM      6  H   UNL A   1      45.556  24.630  24.894  1.00  0.00     0.163 HD
BRANCH   4   7
ATOM      7  C   UNL A   1      44.974  27.647  26.234  1.00  0.00     0.039 A 
ATOM      8  C   UNL A   1      44.080  29.895  27.653  1.00  0.00     0.041 A 
ATOM      9  C   UNL A   1      43.252  29.287  26.706  1.00  0.00     0.027 A 
ATOM     10  C   UNL A   1      45.288  29.297  27.993  1.00  0.00     0.027 A 
ATOM     11  C   UNL A   1      43.713  28.196  25.975  1.00  0.00     0.016 A 
ATOM     12  C   UNL A   1      45.714  28.149  27.310  1.00  0.00     0.016 A 
BRANCH   8  13
ATOM     13  N   UNL A   1      43.609  31.076  28.219  1.00  0.00    -0.324 N 
ATOM     14  C   UNL A   1      43.928  32.383  28.020  1.00  0.00     0.247 C 
ATOM     15  O   UNL A   1      43.357  33.190  28.771  1.00  0.00    -0.272 OA
ATOM     16  H   UNL A   1      42.908  30.939  28.896  1.00  0.00     0.170 HD
BRANCH  14  17
ATOM     17  C   UNL A   1      44.970  32.927  27.008  1.00  0.00     0.178 C 
ATOM     18  C   UNL A   1      44.368  34.259  26.518  1.00  0.00     0.042 C 
BRANCH  17  19
ATOM     19  N   UNL A   1      46.417  32.957  27.364  1.00  0.00    -0.280 N 
ATOM     20  C   UNL A   1      47.285  31.976  26.896  1.00  0.00     0.267 C 
ATOM     21  C   UNL A   1      46.921  33.646  28.454  1.00  0.00     0.149 C 
ATOM     22  O   UNL A   1      47.006  31.090  26.097  1.00  0.00    -0.268 OA
ATOM     23  C   UNL A   1      48.632  32.080  27.530  1.00  0.00     0.084 C 
ATOM     24  S   UNL A   1      48.681  33.544  28.444  1.00  0.00    -0.054 SA
ATOM     25  S   UNL A   1      46.111  34.443  29.674  1.00  0.00    -0.052 S 
ATOM     26  C   UNL A   1      49.632  31.188  27.606  1.00  0.00     0.068 C 
BRANCH  26  27
ATOM     27  C   UNL A   1      49.567  29.829  27.193  1.00  0.00     0.127 A 
ATOM     28  C   UNL A   1      49.239  28.649  27.850  1.00  0.00     0.050 A 
ATOM     29  O   UNL A   1      49.866  29.490  25.887  1.00  0.00    -0.465 OA
ATOM     30  C   UNL A   1      49.427  27.573  26.947  1.00  0.00     0.042 A 
ATOM     31  C   UNL A   1      49.807  28.143  25.762  1.00  0.00     0.195 A 
ENDBRANCH  26  27
ENDBRANCH  17  19
ENDBRANCH  14  17
ENDBRANCH   8  13
ENDBRANCH   4   7
ENDBRANCH   2   3
ENDBRANCH   1   2
BRANCH   1  32
ATOM     32  C   UNL A   1      44.179  23.173  28.544  1.00  0.00     0.002 C 
BRANCH  32  33
ATOM     33  C   UNL A   1      42.666  23.136  28.300  1.00  0.00     0.002 C 
BRANCH  33  34
ATOM     34  C   UNL A   1      42.180  21.994  27.404  1.00  0.00     0.021 C 
BRANCH  34  35
ATOM     35  C   UNL A   1      40.778  21.487  27.728  1.00  0.00     0.116 C 
BRANCH  35  36
ATOM     36  N   UNL A   1      39.858  21.693  26.622  1.00  0.00    -0.352 N 
ATOM     37  C   UNL A   1      39.158  22.820  26.274  1.00  0.00     0.251 C 
ATOM     38  H   UNL A   1      39.718  20.912  26.039  1.00  0.00     0.163 HD
ATOM     39  O   UNL A   1      38.272  22.760  25.428  1.00  0.00    -0.269 OA
BRANCH  37  40
ATOM     40  C   UNL A   1      39.463  24.109  26.929  1.00  0.00     0.039 A 
ATOM     41  C   UNL A   1      38.915  24.370  28.188  1.00  0.00     0.014 A 
ATOM     42  C   UNL A   1      40.261  25.066  26.296  1.00  0.00     0.014 A 
ATOM     43  C   UNL A   1      39.207  25.573  28.834  1.00  0.00     0.010 A 
ATOM     44  C   UNL A   1      40.598  26.240  26.965  1.00  0.00     0.010 A 
ATOM     45  C   UNL A   1      40.069  26.507  28.237  1.00  0.00    -0.014 A 
BRANCH  45  46
ATOM     46  C   UNL A   1      40.426  27.768  28.930  1.00  0.00     0.031 A 
ATOM     47  C   UNL A   1      41.747  27.899  29.634  1.00  0.00     0.074 A 
ATOM     48  C   UNL A   1      39.532  28.773  28.982  1.00  0.00     0.049 A 
ATOM     49  N   UNL A   1      42.215  28.906  30.328  1.00  0.00    -0.248 NA
ATOM     50  C   UNL A   1      42.647  26.737  29.575  1.00  0.00     0.031 C 
ATOM     51  C   UNL A   1      38.197  28.751  28.384  1.00  0.00     0.029 A 
ATOM     52  N   UNL A   1      39.613  30.007  29.577  1.00  0.00    -0.354 N 
ATOM     53  C   UNL A   1      43.451  28.490  30.807  1.00  0.00     0.074 A 
ATOM     54  C   UNL A   1      43.642  27.128  30.358  1.00  0.00     0.031 C 
ATOM     55  C   UNL A   1      37.589  29.924  28.628  1.00  0.00     0.029 A 
ATOM     56  C   UNL A   1      38.479  30.766  29.419  1.00  0.00     0.049 A 
ATOM     57  H   UNL A   1      40.406  30.318  30.070  1.00  0.00     0.167 HD
ATOM     58  C   UNL A   1      44.352  29.184  31.544  1.00  0.00     0.031 A 
ATOM     59  C   UNL A   1      38.188  32.002  29.864  1.00  0.00     0.031 A 
ATOM     60  C   UNL A   1      44.173  30.544  31.975  1.00  0.00     0.049 A 
ATOM     61  C   UNL A   1      39.213  32.763  30.655  1.00  0.00     0.074 A 
ATOM     62  C   UNL A   1      45.061  31.359  32.654  1.00  0.00     0.029 A 
ATOM     63  N   UNL A   1      43.022  31.290  31.770  1.00  0.00    -0.354 N 
ATOM     64  N   UNL A   1      40.411  32.386  31.031  1.00  0.00    -0.248 NA
ATOM     65  C   UNL A   1      38.849  34.125  31.071  1.00  0.00     0.031 C 
ATOM     66  C   UNL A   1      44.432  32.585  32.898  1.00  0.00     0.029 A 
ATOM     67  C   UNL A   1      43.168  32.546  32.332  1.00  0.00     0.049 A 
ATOM     68  H   UNL A   1      42.219  30.972  31.296  1.00  0.00     0.167 HD
ATOM     69  C   UNL A   1      40.951  33.468  31.712  1.00  0.00     0.074 A 
ATOM     70  C   UNL A   1      39.956  34.522  31.683  1.00  0.00     0.031 C 
ATOM     71  C   UNL A   1      42.164  33.579  32.306  1.00  0.00     0.031 A 
BRANCH  58  72
ATOM     72  C   UNL A   1      45.612  28.466  31.939  1.00  0.00    -0.014 A 
ATOM     73  C   UNL A   1      46.763  28.518  31.137  1.00  0.00     0.009 A 
ATOM     74  C   UNL A   1      45.652  27.740  33.140  1.00  0.00     0.009 A 
ATOM     75  C   UNL A   1      47.915  27.821  31.508  1.00  0.00     0.001 A 
ATOM     76  C   UNL A   1      46.813  27.066  33.521  1.00  0.00     0.001 A 
ATOM     77  C   UNL A   1      47.939  27.098  32.700  1.00  0.00     0.000 A 
ENDBRANCH  58  72
BRANCH  59  78
ATOM     78  C   UNL A   1      36.870  32.604  29.544  1.00  0.00    -0.014 A 
ATOM     79  C   UNL A   1      36.666  33.257  28.319  1.00  0.00     0.009 A 
ATOM     80  C   UNL A   1      35.803  32.505  30.451  1.00  0.00     0.009 A 
ATOM     81  C   UNL A   1      35.423  33.813  28.014  1.00  0.00     0.001 A 
ATOM     82  C   UNL A   1      34.555  33.043  30.133  1.00  0.00     0.001 A 
ATOM     83  C   UNL A   1      34.367  33.701  28.918  1.00  0.00     0.000 A 
ENDBRANCH  59  78
BRANCH  71  84
ATOM     84  C   UNL A   1      42.486  34.891  32.962  1.00  0.00    -0.014 A 
ATOM     85  C   UNL A   1      43.224  35.876  32.289  1.00  0.00     0.009 A 
ATOM     86  C   UNL A   1      42.016  35.155  34.258  1.00  0.00     0.009 A 
ATOM     87  C   UNL A   1      43.509  37.092  32.913  1.00  0.00     0.001 A 
ATOM     88  C   UNL A   1      42.282  36.380  34.870  1.00  0.00     0.001 A 
ATOM     89  C   UNL A   1      43.035  37.344  34.200  1.00  0.00     0.000 A 
ENDBRANCH  71  84
ENDBRANCH  45  46
ENDBRANCH  37  40
ENDBRANCH  35  36
ENDBRANCH  34  35
ENDBRANCH  33  34
ENDBRANCH  32  33
ENDBRANCH   1  32
TORSDOF 17
ENDMDL
