MODEL 1
REMARK VINA RESULT:      -9.0      0.000      0.000
REMARK SMILES CN(C(=O)N1CCC(C(=O)NCCCCCCNC(=O)c2ccc(-c3c4nc(c(-c5ccccc5)c5ccc([nH]5)c(-c5ccccc5)c5nc(c(-c6ccccc6)c6ccc3[nH]6)C=C5)C=C4)cc2)CC1)[C@H]1CCSC1
REMARK SMILES IDX 14 1 13 2 12 3 11 4 9 5 10 6 8 8 3 9 4 10 5 11 6 12 70 13
REMARK SMILES IDX 7 14 69 15 2 16 1 17 71 18 72 19 75 20 73 21 74 22 15 23
REMARK SMILES IDX 16 24 17 25 18 26 19 27 20 29 21 30 22 31 68 32 23 33 67 34
REMARK SMILES IDX 24 35 25 36 26 37 61 38 27 39 66 40 60 41 62 42 28 43 65 44
REMARK SMILES IDX 59 45 58 46 29 48 51 49 36 50 50 51 37 52 40 53 49 54 63 55
REMARK SMILES IDX 38 56 39 57 48 59 64 60 41 61 30 62 31 63 35 64 32 65 34 66
REMARK SMILES IDX 33 67 52 68 53 69 57 70 54 71 56 72 55 73 42 74 43 75 47 76
REMARK SMILES IDX 44 77 46 78 45 79
REMARK H PARENT 11 7 18 28 62 47 40 58
REMARK Flexibility Score: inf
ROOT
ATOM      1  C   UNL A   1      35.365  34.620  33.786  1.00  0.00     0.002 C 
ENDROOT
BRANCH   1   2
ATOM      2  C   UNL A   1      35.320  33.091  33.707  1.00  0.00     0.021 C 
BRANCH   2   3
ATOM      3  C   UNL A   1      36.693  32.426  33.654  1.00  0.00     0.116 C 
BRANCH   3   4
ATOM      4  N   UNL A   1      36.615  31.091  33.089  1.00  0.00    -0.356 N 
ATOM      5  C   UNL A   1      37.545  30.105  32.993  1.00  0.00     0.223 C 
ATOM      6  O   UNL A   1      37.212  29.055  32.436  1.00  0.00    -0.275 OA
ATOM      7  H   UNL A   1      35.735  30.860  32.710  1.00  0.00     0.163 HD
BRANCH   5   8
ATOM      8  C   UNL A   1      38.943  30.256  33.571  1.00  0.00     0.082 C 
ATOM      9  C   UNL A   1      41.679  28.203  35.851  1.00  0.00     0.320 C 
ATOM     10  O   UNL A   1      41.087  27.881  36.884  1.00  0.00    -0.248 OA
ATOM     11  N   UNL A   1      41.191  29.216  35.046  1.00  0.00    -0.325 N 
ATOM     12  C   UNL A   1      40.371  30.257  35.654  1.00  0.00     0.122 C 
ATOM     13  C   UNL A   1      41.288  29.267  33.592  1.00  0.00     0.122 C 
ATOM     14  C   UNL A   1      38.952  30.265  35.103  1.00  0.00     0.035 C 
ATOM     15  C   UNL A   1      39.914  29.254  32.935  1.00  0.00     0.035 C 
BRANCH   9  16
ATOM     16  N   UNL A   1      42.875  27.590  35.492  1.00  0.00    -0.324 N 
ATOM     17  C   UNL A   1      44.188  28.168  35.766  1.00  0.00     0.149 C 
BRANCH  16  18
ATOM     18  C   UNL A   1      42.823  26.147  35.177  1.00  0.00     0.097 C 
ATOM     19  C   UNL A   1      43.633  25.736  33.941  1.00  0.00     0.037 C 
ATOM     20  C   UNL A   1      43.312  25.281  36.350  1.00  0.00     0.094 C 
ATOM     21  C   UNL A   1      43.640  24.218  33.909  1.00  0.00     0.072 C 
ATOM     22  S   UNL A   1      43.903  23.720  35.629  1.00  0.00    -0.160 SA
ENDBRANCH  16  18
ENDBRANCH   9  16
ENDBRANCH   5   8
ENDBRANCH   3   4
ENDBRANCH   2   3
ENDBRANCH   1   2
BRANCH   1  23
ATOM     23  C   UNL A   1      35.067  35.352  32.473  1.00  0.00     0.002 C 
BRANCH  23  24
ATOM     24  C   UNL A   1      33.615  35.274  31.991  1.00  0.00     0.021 C 
BRANCH  24  25
ATOM     25  C   UNL A   1      33.298  36.114  30.759  1.00  0.00     0.116 C 
BRANCH  25  26
ATOM     26  N   UNL A   1      32.654  35.337  29.715  1.00  0.00    -0.352 N 
ATOM     27  C   UNL A   1      33.163  34.327  28.944  1.00  0.00     0.251 C 
ATOM     28  H   UNL A   1      31.715  35.571  29.535  1.00  0.00     0.163 HD
ATOM     29  O   UNL A   1      32.510  33.895  27.993  1.00  0.00    -0.269 OA
BRANCH  27  30
ATOM     30  C   UNL A   1      34.497  33.757  29.231  1.00  0.00     0.039 A 
ATOM     31  C   UNL A   1      35.622  34.381  28.684  1.00  0.00     0.014 A 
ATOM     32  C   UNL A   1      34.644  32.589  29.986  1.00  0.00     0.014 A 
ATOM     33  C   UNL A   1      36.893  33.852  28.915  1.00  0.00     0.010 A 
ATOM     34  C   UNL A   1      35.918  32.099  30.270  1.00  0.00     0.010 A 
ATOM     35  C   UNL A   1      37.052  32.713  29.719  1.00  0.00    -0.014 A 
BRANCH  35  36
ATOM     36  C   UNL A   1      38.397  32.130  29.949  1.00  0.00     0.031 A 
ATOM     37  C   UNL A   1      39.422  32.890  30.746  1.00  0.00     0.074 A 
ATOM     38  C   UNL A   1      38.708  30.932  29.418  1.00  0.00     0.049 A 
ATOM     39  N   UNL A   1      40.649  32.547  31.054  1.00  0.00    -0.248 NA
ATOM     40  C   UNL A   1      39.027  34.217  31.244  1.00  0.00     0.031 C 
ATOM     41  C   UNL A   1      37.819  30.110  28.595  1.00  0.00     0.029 A 
ATOM     42  N   UNL A   1      39.863  30.196  29.499  1.00  0.00    -0.354 N 
ATOM     43  C   UNL A   1      41.174  33.624  31.759  1.00  0.00     0.074 A 
ATOM     44  C   UNL A   1      40.152  34.646  31.797  1.00  0.00     0.031 C 
ATOM     45  C   UNL A   1      38.449  28.968  28.275  1.00  0.00     0.029 A 
ATOM     46  C   UNL A   1      39.792  28.989  28.847  1.00  0.00     0.049 A 
ATOM     47  H   UNL A   1      40.666  30.503  29.977  1.00  0.00     0.167 HD
ATOM     48  C   UNL A   1      42.393  33.747  32.338  1.00  0.00     0.031 A 
ATOM     49  C   UNL A   1      40.704  28.006  28.732  1.00  0.00     0.031 A 
ATOM     50  C   UNL A   1      43.402  32.723  32.326  1.00  0.00     0.049 A 
ATOM     51  C   UNL A   1      42.039  28.156  29.407  1.00  0.00     0.074 A 
ATOM     52  C   UNL A   1      44.645  32.728  32.936  1.00  0.00     0.029 A 
ATOM     53  N   UNL A   1      43.282  31.507  31.673  1.00  0.00    -0.354 N 
ATOM     54  N   UNL A   1      42.494  29.150  30.128  1.00  0.00    -0.248 NA
ATOM     55  C   UNL A   1      42.976  27.032  29.268  1.00  0.00     0.031 C 
ATOM     56  C   UNL A   1      45.291  31.527  32.623  1.00  0.00     0.029 A 
ATOM     57  C   UNL A   1      44.431  30.757  31.856  1.00  0.00     0.049 A 
ATOM     58  H   UNL A   1      42.495  31.218  31.156  1.00  0.00     0.167 HD
ATOM     59  C   UNL A   1      43.755  28.759  30.558  1.00  0.00     0.074 A 
ATOM     60  C   UNL A   1      43.987  27.432  30.027  1.00  0.00     0.031 C 
ATOM     61  C   UNL A   1      44.641  29.435  31.328  1.00  0.00     0.031 A 
BRANCH  48  62
ATOM     62  C   UNL A   1      42.698  35.043  33.034  1.00  0.00    -0.014 A 
ATOM     63  C   UNL A   1      42.322  35.259  34.370  1.00  0.00     0.009 A 
ATOM     64  C   UNL A   1      43.397  36.052  32.353  1.00  0.00     0.009 A 
ATOM     65  C   UNL A   1      42.608  36.473  34.997  1.00  0.00     0.001 A 
ATOM     66  C   UNL A   1      43.704  37.255  32.991  1.00  0.00     0.001 A 
ATOM     67  C   UNL A   1      43.302  37.468  34.309  1.00  0.00     0.000 A 
ENDBRANCH  48  62
BRANCH  49  68
ATOM     68  C   UNL A   1      40.375  26.764  27.986  1.00  0.00    -0.014 A 
ATOM     69  C   UNL A   1      40.827  26.592  26.668  1.00  0.00     0.009 A 
ATOM     70  C   UNL A   1      39.596  25.758  28.575  1.00  0.00     0.009 A 
ATOM     71  C   UNL A   1      40.475  25.451  25.943  1.00  0.00     0.001 A 
ATOM     72  C   UNL A   1      39.268  24.607  27.856  1.00  0.00     0.001 A 
ATOM     73  C   UNL A   1      39.698  24.459  26.538  1.00  0.00     0.000 A 
ENDBRANCH  49  68
BRANCH  61  74
ATOM     74  C   UNL A   1      45.917  28.727  31.683  1.00  0.00    -0.014 A 
ATOM     75  C   UNL A   1      47.046  28.795  30.853  1.00  0.00     0.009 A 
ATOM     76  C   UNL A   1      45.991  27.996  32.880  1.00  0.00     0.009 A 
ATOM     77  C   UNL A   1      48.213  28.109  31.197  1.00  0.00     0.001 A 
ATOM     78  C   UNL A   1      47.167  27.334  33.232  1.00  0.00     0.001 A 
ATOM     79  C   UNL A   1      48.273  27.382  32.385  1.00  0.00     0.000 A 
ENDBRANCH  61  74
ENDBRANCH  35  36
ENDBRANCH  27  30
ENDBRANCH  25  26
ENDBRANCH  24  25
ENDBRANCH  23  24
ENDBRANCH   1  23
TORSDOF 15
ENDMDL
MODEL 2
REMARK VINA RESULT:      -8.9      0.458      5.959
REMARK SMILES CN(C(=O)N1CCC(C(=O)NCCCCCCNC(=O)c2ccc(-c3c4nc(c(-c5ccccc5)c5ccc([nH]5)c(-c5ccccc5)c5nc(c(-c6ccccc6)c6ccc3[nH]6)C=C5)C=C4)cc2)CC1)[C@H]1CCSC1
REMARK SMILES IDX 14 1 13 2 12 3 11 4 9 5 10 6 8 8 3 9 4 10 5 11 6 12 70 13
REMARK SMILES IDX 7 14 69 15 2 16 1 17 71 18 72 19 75 20 73 21 74 22 15 23
REMARK SMILES IDX 16 24 17 25 18 26 19 27 20 29 21 30 22 31 68 32 23 33 67 34
REMARK SMILES IDX 24 35 25 36 26 37 61 38 27 39 66 40 60 41 62 42 28 43 65 44
REMARK SMILES IDX 59 45 58 46 29 48 51 49 36 50 50 51 37 52 40 53 49 54 63 55
REMARK SMILES IDX 38 56 39 57 48 59 64 60 41 61 30 62 31 63 35 64 32 65 34 66
REMARK SMILES IDX 33 67 52 68 53 69 57 70 54 71 56 72 55 73 42 74 43 75 47 76
REMARK SMILES IDX 44 77 46 78 45 79
REMARK H PARENT 11 7 18 28 62 47 40 58
REMARK Flexibility Score: inf
ROOT
ATOM      1  C   UNL A   1      35.264  34.703  33.582  1.00  0.00     0.002 C 
ENDROOT
BRANCH   1   2
ATOM      2  C   UNL A   1      35.186  33.175  33.684  1.00  0.00     0.021 C 
BRANCH   2   3
ATOM      3  C   UNL A   1      36.546  32.481  33.723  1.00  0.00     0.116 C 
BRANCH   3   4
ATOM      4  N   UNL A   1      36.473  31.141  33.170  1.00  0.00    -0.356 N 
ATOM      5  C   UNL A   1      37.411  30.164  33.067  1.00  0.00     0.223 C 
ATOM      6  O   UNL A   1      37.081  29.105  32.526  1.00  0.00    -0.275 OA
ATOM      7  H   UNL A   1      35.590  30.897  32.808  1.00  0.00     0.163 HD
BRANCH   5   8
ATOM      8  C   UNL A   1      38.817  30.335  33.621  1.00  0.00     0.082 C 
ATOM      9  C   UNL A   1      41.648  28.295  35.794  1.00  0.00     0.320 C 
ATOM     10  O   UNL A   1      41.086  27.934  36.830  1.00  0.00    -0.248 OA
ATOM     11  N   UNL A   1      41.120  29.315  35.024  1.00  0.00    -0.325 N 
ATOM     12  C   UNL A   1      40.288  30.320  35.674  1.00  0.00     0.122 C 
ATOM     13  C   UNL A   1      41.185  29.403  33.570  1.00  0.00     0.122 C 
ATOM     14  C   UNL A   1      38.858  30.307  35.152  1.00  0.00     0.035 C 
ATOM     15  C   UNL A   1      39.798  29.372  32.941  1.00  0.00     0.035 C 
BRANCH   9  16
ATOM     16  N   UNL A   1      42.851  27.721  35.396  1.00  0.00    -0.324 N 
ATOM     17  C   UNL A   1      44.153  28.153  35.897  1.00  0.00     0.149 C 
BRANCH  16  18
ATOM     18  C   UNL A   1      42.781  26.392  34.751  1.00  0.00     0.097 C 
ATOM     19  C   UNL A   1      44.028  26.010  33.946  1.00  0.00     0.037 C 
ATOM     20  C   UNL A   1      42.535  25.267  35.771  1.00  0.00     0.094 C 
ATOM     21  C   UNL A   1      43.864  24.552  33.554  1.00  0.00     0.072 C 
ATOM     22  S   UNL A   1      43.204  23.746  35.033  1.00  0.00    -0.160 SA
ENDBRANCH  16  18
ENDBRANCH   9  16
ENDBRANCH   5   8
ENDBRANCH   3   4
ENDBRANCH   2   3
ENDBRANCH   1   2
BRANCH   1  23
ATOM     23  C   UNL A   1      35.000  35.279  32.187  1.00  0.00     0.002 C 
BRANCH  23  24
ATOM     24  C   UNL A   1      33.537  35.260  31.733  1.00  0.00     0.021 C 
BRANCH  24  25
ATOM     25  C   UNL A   1      33.244  36.054  30.464  1.00  0.00     0.116 C 
BRANCH  25  26
ATOM     26  N   UNL A   1      32.685  35.223  29.412  1.00  0.00    -0.352 N 
ATOM     27  C   UNL A   1      33.263  34.198  28.716  1.00  0.00     0.251 C 
ATOM     28  H   UNL A   1      31.755  35.428  29.165  1.00  0.00     0.163 HD
ATOM     29  O   UNL A   1      32.682  33.715  27.742  1.00  0.00    -0.269 OA
BRANCH  27  30
ATOM     30  C   UNL A   1      34.588  33.670  29.108  1.00  0.00     0.039 A 
ATOM     31  C   UNL A   1      35.732  34.334  28.656  1.00  0.00     0.014 A 
ATOM     32  C   UNL A   1      34.712  32.503  29.870  1.00  0.00     0.014 A 
ATOM     33  C   UNL A   1      36.997  33.845  28.988  1.00  0.00     0.010 A 
ATOM     34  C   UNL A   1      35.974  32.054  30.255  1.00  0.00     0.010 A 
ATOM     35  C   UNL A   1      37.128  32.708  29.799  1.00  0.00    -0.014 A 
BRANCH  35  36
ATOM     36  C   UNL A   1      38.469  32.168  30.136  1.00  0.00     0.031 A 
ATOM     37  C   UNL A   1      38.917  30.850  29.562  1.00  0.00     0.074 A 
ATOM     38  C   UNL A   1      39.273  32.844  30.978  1.00  0.00     0.049 A 
ATOM     39  N   UNL A   1      40.050  30.216  29.737  1.00  0.00    -0.248 NA
ATOM     40  C   UNL A   1      37.960  30.143  28.696  1.00  0.00     0.031 C 
ATOM     41  C   UNL A   1      38.944  34.113  31.631  1.00  0.00     0.029 A 
ATOM     42  N   UNL A   1      40.538  32.558  31.424  1.00  0.00    -0.354 N 
ATOM     43  C   UNL A   1      39.930  29.029  29.024  1.00  0.00     0.074 A 
ATOM     44  C   UNL A   1      38.603  29.010  28.450  1.00  0.00     0.031 C 
ATOM     45  C   UNL A   1      39.994  34.512  32.368  1.00  0.00     0.029 A 
ATOM     46  C   UNL A   1      41.056  33.517  32.259  1.00  0.00     0.049 A 
ATOM     47  H   UNL A   1      41.027  31.742  31.170  1.00  0.00     0.167 HD
ATOM     48  C   UNL A   1      40.848  28.048  28.848  1.00  0.00     0.031 A 
ATOM     49  C   UNL A   1      42.258  33.590  32.861  1.00  0.00     0.031 A 
ATOM     50  C   UNL A   1      42.177  28.074  29.395  1.00  0.00     0.049 A 
ATOM     51  C   UNL A   1      43.268  32.501  32.628  1.00  0.00     0.074 A 
ATOM     52  C   UNL A   1      43.200  27.158  29.222  1.00  0.00     0.029 A 
ATOM     53  N   UNL A   1      42.670  29.075  30.218  1.00  0.00    -0.354 N 
ATOM     54  N   UNL A   1      43.164  31.420  31.895  1.00  0.00    -0.248 NA
ATOM     55  C   UNL A   1      44.570  32.659  33.290  1.00  0.00     0.031 C 
ATOM     56  C   UNL A   1      44.303  27.587  29.970  1.00  0.00     0.029 A 
ATOM     57  C   UNL A   1      43.979  28.793  30.570  1.00  0.00     0.049 A 
ATOM     58  H   UNL A   1      42.164  29.868  30.507  1.00  0.00     0.167 HD
ATOM     59  C   UNL A   1      44.397  30.787  31.978  1.00  0.00     0.074 A 
ATOM     60  C   UNL A   1      45.236  31.611  32.824  1.00  0.00     0.031 C 
ATOM     61  C   UNL A   1      44.802  29.629  31.404  1.00  0.00     0.031 A 
BRANCH  48  62
ATOM     62  C   UNL A   1      40.436  26.859  28.028  1.00  0.00    -0.014 A 
ATOM     63  C   UNL A   1      40.847  26.718  26.692  1.00  0.00     0.009 A 
ATOM     64  C   UNL A   1      39.650  25.849  28.607  1.00  0.00     0.009 A 
ATOM     65  C   UNL A   1      40.447  25.610  25.942  1.00  0.00     0.001 A 
ATOM     66  C   UNL A   1      39.275  24.729  27.863  1.00  0.00     0.001 A 
ATOM     67  C   UNL A   1      39.666  24.615  26.530  1.00  0.00     0.000 A 
ENDBRANCH  48  62
BRANCH  49  68
ATOM     68  C   UNL A   1      42.599  34.760  33.710  1.00  0.00    -0.014 A 
ATOM     69  C   UNL A   1      42.299  34.750  35.081  1.00  0.00     0.009 A 
ATOM     70  C   UNL A   1      43.205  35.897  33.155  1.00  0.00     0.009 A 
ATOM     71  C   UNL A   1      42.568  35.869  35.873  1.00  0.00     0.001 A 
ATOM     72  C   UNL A   1      43.497  37.004  33.954  1.00  0.00     0.001 A 
ATOM     73  C   UNL A   1      43.168  36.994  35.310  1.00  0.00     0.000 A 
ENDBRANCH  49  68
BRANCH  61  74
ATOM     74  C   UNL A   1      46.228  29.217  31.628  1.00  0.00    -0.014 A 
ATOM     75  C   UNL A   1      46.600  28.442  32.738  1.00  0.00     0.009 A 
ATOM     76  C   UNL A   1      47.211  29.597  30.701  1.00  0.00     0.009 A 
ATOM     77  C   UNL A   1      47.936  28.091  32.934  1.00  0.00     0.001 A 
ATOM     78  C   UNL A   1      48.541  29.222  30.887  1.00  0.00     0.001 A 
ATOM     79  C   UNL A   1      48.905  28.480  32.009  1.00  0.00     0.000 A 
ENDBRANCH  61  74
ENDBRANCH  35  36
ENDBRANCH  27  30
ENDBRANCH  25  26
ENDBRANCH  24  25
ENDBRANCH  23  24
ENDBRANCH   1  23
TORSDOF 15
ENDMDL
MODEL 3
REMARK VINA RESULT:      -8.9      5.301     11.258
REMARK SMILES CN(C(=O)N1CCC(C(=O)NCCCCCCNC(=O)c2ccc(-c3c4nc(c(-c5ccccc5)c5ccc([nH]5)c(-c5ccccc5)c5nc(c(-c6ccccc6)c6ccc3[nH]6)C=C5)C=C4)cc2)CC1)[C@H]1CCSC1
REMARK SMILES IDX 14 1 13 2 12 3 11 4 9 5 10 6 8 8 3 9 4 10 5 11 6 12 70 13
REMARK SMILES IDX 7 14 69 15 2 16 1 17 71 18 72 19 75 20 73 21 74 22 15 23
REMARK SMILES IDX 16 24 17 25 18 26 19 27 20 29 21 30 22 31 68 32 23 33 67 34
REMARK SMILES IDX 24 35 25 36 26 37 61 38 27 39 66 40 60 41 62 42 28 43 65 44
REMARK SMILES IDX 59 45 58 46 29 48 51 49 36 50 50 51 37 52 40 53 49 54 63 55
REMARK SMILES IDX 38 56 39 57 48 59 64 60 41 61 30 62 31 63 35 64 32 65 34 66
REMARK SMILES IDX 33 67 52 68 53 69 57 70 54 71 56 72 55 73 42 74 43 75 47 76
REMARK SMILES IDX 44 77 46 78 45 79
REMARK H PARENT 11 7 18 28 62 47 40 58
REMARK Flexibility Score: inf
ROOT
ATOM      1  C   UNL A   1      37.531  22.874  25.701  1.00  0.00     0.002 C 
ENDROOT
BRANCH   1   2
ATOM      2  C   UNL A   1      36.768  22.148  24.587  1.00  0.00     0.021 C 
BRANCH   2   3
ATOM      3  C   UNL A   1      35.787  21.090  25.087  1.00  0.00     0.116 C 
BRANCH   3   4
ATOM      4  N   UNL A   1      35.280  21.419  26.407  1.00  0.00    -0.356 N 
ATOM      5  C   UNL A   1      34.201  22.148  26.794  1.00  0.00     0.223 C 
ATOM      6  O   UNL A   1      34.008  22.290  28.004  1.00  0.00    -0.275 OA
ATOM      7  H   UNL A   1      35.809  21.049  27.150  1.00  0.00     0.163 HD
BRANCH   5   8
ATOM      8  C   UNL A   1      33.233  22.753  25.788  1.00  0.00     0.082 C 
ATOM      9  C   UNL A   1      30.411  25.726  25.483  1.00  0.00     0.320 C 
ATOM     10  O   UNL A   1      29.620  25.540  26.410  1.00  0.00    -0.248 OA
ATOM     11  N   UNL A   1      31.248  24.712  25.057  1.00  0.00    -0.325 N 
ATOM     12  C   UNL A   1      30.831  23.330  25.263  1.00  0.00     0.122 C 
ATOM     13  C   UNL A   1      32.604  24.886  24.550  1.00  0.00     0.122 C 
ATOM     14  C   UNL A   1      31.767  22.581  26.201  1.00  0.00     0.035 C 
ATOM     15  C   UNL A   1      33.630  24.191  25.436  1.00  0.00     0.035 C 
BRANCH   9  16
ATOM     16  N   UNL A   1      30.451  26.943  24.811  1.00  0.00    -0.324 N 
ATOM     17  C   UNL A   1      29.605  27.254  23.661  1.00  0.00     0.149 C 
BRANCH  16  18
ATOM     18  C   UNL A   1      31.082  28.079  25.514  1.00  0.00     0.097 C 
ATOM     19  C   UNL A   1      31.708  27.721  26.868  1.00  0.00     0.037 C 
ATOM     20  C   UNL A   1      32.179  28.747  24.668  1.00  0.00     0.094 C 
ATOM     21  C   UNL A   1      32.486  28.942  27.326  1.00  0.00     0.072 C 
ATOM     22  S   UNL A   1      33.320  29.544  25.837  1.00  0.00    -0.160 SA
ENDBRANCH  16  18
ENDBRANCH   9  16
ENDBRANCH   5   8
ENDBRANCH   3   4
ENDBRANCH   2   3
ENDBRANCH   1   2
BRANCH   1  23
ATOM     23  C   UNL A   1      38.853  22.221  26.120  1.00  0.00     0.002 C 
BRANCH  23  24
ATOM     24  C   UNL A   1      39.182  20.897  25.426  1.00  0.00     0.021 C 
BRANCH  24  25
ATOM     25  C   UNL A   1      39.672  19.787  26.350  1.00  0.00     0.116 C 
BRANCH  25  26
ATOM     26  N   UNL A   1      40.918  19.199  25.892  1.00  0.00    -0.352 N 
ATOM     27  C   UNL A   1      42.161  19.763  25.798  1.00  0.00     0.251 C 
ATOM     28  H   UNL A   1      40.859  18.259  25.607  1.00  0.00     0.163 HD
ATOM     29  O   UNL A   1      43.069  19.152  25.230  1.00  0.00    -0.269 OA
BRANCH  27  30
ATOM     30  C   UNL A   1      42.427  21.105  26.359  1.00  0.00     0.039 A 
ATOM     31  C   UNL A   1      42.344  21.280  27.743  1.00  0.00     0.014 A 
ATOM     32  C   UNL A   1      42.703  22.199  25.532  1.00  0.00     0.014 A 
ATOM     33  C   UNL A   1      42.564  22.540  28.301  1.00  0.00     0.010 A 
ATOM     34  C   UNL A   1      42.987  23.443  26.095  1.00  0.00     0.010 A 
ATOM     35  C   UNL A   1      42.898  23.630  27.481  1.00  0.00    -0.014 A 
BRANCH  35  36
ATOM     36  C   UNL A   1      43.108  24.978  28.063  1.00  0.00     0.031 A 
ATOM     37  C   UNL A   1      44.490  25.419  28.467  1.00  0.00     0.074 A 
ATOM     38  C   UNL A   1      42.057  25.797  28.258  1.00  0.00     0.049 A 
ATOM     39  N   UNL A   1      44.874  26.557  28.990  1.00  0.00    -0.248 NA
ATOM     40  C   UNL A   1      45.579  24.447  28.277  1.00  0.00     0.031 C 
ATOM     41  C   UNL A   1      40.662  25.477  27.945  1.00  0.00     0.029 A 
ATOM     42  N   UNL A   1      42.002  27.072  28.761  1.00  0.00    -0.354 N 
ATOM     43  C   UNL A   1      46.240  26.427  29.212  1.00  0.00     0.074 A 
ATOM     44  C   UNL A   1      46.610  25.089  28.807  1.00  0.00     0.031 C 
ATOM     45  C   UNL A   1      39.893  26.541  28.234  1.00  0.00     0.029 A 
ATOM     46  C   UNL A   1      40.736  27.604  28.773  1.00  0.00     0.049 A 
ATOM     47  H   UNL A   1      42.794  27.558  29.085  1.00  0.00     0.167 HD
ATOM     48  C   UNL A   1      47.113  27.343  29.693  1.00  0.00     0.031 A 
ATOM     49  C   UNL A   1      40.304  28.817  29.165  1.00  0.00     0.031 A 
ATOM     50  C   UNL A   1      46.755  28.683  30.072  1.00  0.00     0.049 A 
ATOM     51  C   UNL A   1      41.298  29.825  29.672  1.00  0.00     0.074 A 
ATOM     52  C   UNL A   1      47.578  29.705  30.513  1.00  0.00     0.029 A 
ATOM     53  N   UNL A   1      45.465  29.190  30.048  1.00  0.00    -0.354 N 
ATOM     54  N   UNL A   1      42.596  29.710  29.810  1.00  0.00    -0.248 NA
ATOM     55  C   UNL A   1      40.765  31.140  30.054  1.00  0.00     0.031 C 
ATOM     56  C   UNL A   1      46.779  30.822  30.789  1.00  0.00     0.029 A 
ATOM     57  C   UNL A   1      45.467  30.506  30.476  1.00  0.00     0.049 A 
ATOM     58  H   UNL A   1      44.666  28.687  29.766  1.00  0.00     0.167 HD
ATOM     59  C   UNL A   1      43.039  30.946  30.260  1.00  0.00     0.074 A 
ATOM     60  C   UNL A   1      41.873  31.800  30.361  1.00  0.00     0.031 C 
ATOM     61  C   UNL A   1      44.299  31.343  30.560  1.00  0.00     0.031 A 
BRANCH  48  62
ATOM     62  C   UNL A   1      48.547  26.919  29.840  1.00  0.00    -0.014 A 
ATOM     63  C   UNL A   1      49.028  26.380  31.044  1.00  0.00     0.009 A 
ATOM     64  C   UNL A   1      49.424  27.034  28.749  1.00  0.00     0.009 A 
ATOM     65  C   UNL A   1      50.366  26.000  31.164  1.00  0.00     0.001 A 
ATOM     66  C   UNL A   1      50.754  26.628  28.864  1.00  0.00     0.001 A 
ATOM     67  C   UNL A   1      51.226  26.120  30.074  1.00  0.00     0.000 A 
ENDBRANCH  48  62
BRANCH  49  68
ATOM     68  C   UNL A   1      38.866  29.171  29.054  1.00  0.00    -0.014 A 
ATOM     69  C   UNL A   1      38.005  28.983  30.147  1.00  0.00     0.009 A 
ATOM     70  C   UNL A   1      38.343  29.678  27.856  1.00  0.00     0.009 A 
ATOM     71  C   UNL A   1      36.642  29.263  30.030  1.00  0.00     0.001 A 
ATOM     72  C   UNL A   1      36.984  29.983  27.751  1.00  0.00     0.001 A 
ATOM     73  C   UNL A   1      36.133  29.765  28.834  1.00  0.00     0.000 A 
ENDBRANCH  49  68
BRANCH  61  74
ATOM     74  C   UNL A   1      44.485  32.775  30.973  1.00  0.00    -0.014 A 
ATOM     75  C   UNL A   1      44.248  33.192  32.292  1.00  0.00     0.009 A 
ATOM     76  C   UNL A   1      44.921  33.715  30.027  1.00  0.00     0.009 A 
ATOM     77  C   UNL A   1      44.408  34.534  32.644  1.00  0.00     0.001 A 
ATOM     78  C   UNL A   1      45.105  35.049  30.389  1.00  0.00     0.001 A 
ATOM     79  C   UNL A   1      44.837  35.460  31.694  1.00  0.00     0.000 A 
ENDBRANCH  61  74
ENDBRANCH  35  36
ENDBRANCH  27  30
ENDBRANCH  25  26
ENDBRANCH  24  25
ENDBRANCH  23  24
ENDBRANCH   1  23
TORSDOF 15
ENDMDL
