MODEL 1
REMARK VINA RESULT:     -10.5      0.000      0.000
REMARK SMILES CC[C@H]1CC[C@@](C(=O)NCCCCCCNC(=O)c2ccc(-c3c4nc(c(-c5ccccc5)c5ccc([nH]5)c(-c5ccccc5)c5nc(c(-c6ccccc6)c6ccc3[nH]6)C=C5)C=C4)cc2)(C2CCCC2)C1
REMARK SMILES IDX 13 1 12 2 11 3 10 4 9 5 7 6 8 7 6 9 3 10 4 11 72 12 5 13
REMARK SMILES IDX 2 14 1 15 67 16 68 17 71 18 69 19 70 20 14 21 15 22 16 23
REMARK SMILES IDX 17 24 18 26 19 27 20 28 66 29 21 30 65 31 22 32 23 33 24 34
REMARK SMILES IDX 59 35 25 36 64 37 58 38 60 39 26 40 63 41 57 42 56 43 27 45
REMARK SMILES IDX 49 46 34 47 48 48 35 49 38 50 47 51 61 52 36 53 37 54 46 56
REMARK SMILES IDX 62 57 39 58 28 59 29 60 33 61 30 62 32 63 31 64 50 65 51 66
REMARK SMILES IDX 55 67 52 68 54 69 53 70 40 71 41 72 45 73 42 74 44 75 43 76
REMARK H PARENT 9 8 16 25 60 44 38 55
REMARK Flexibility Score: inf
ROOT
ATOM      1  C   UNL A   1      36.248  20.538  24.619  1.00  0.00     0.002 C 
ENDROOT
BRANCH   1   2
ATOM      2  C   UNL A   1      35.704  21.357  25.796  1.00  0.00     0.002 C 
BRANCH   2   3
ATOM      3  C   UNL A   1      34.348  22.031  25.545  1.00  0.00     0.021 C 
BRANCH   3   4
ATOM      4  C   UNL A   1      34.068  23.210  26.475  1.00  0.00     0.116 C 
BRANCH   4   5
ATOM      5  N   UNL A   1      32.717  23.164  26.978  1.00  0.00    -0.356 N 
ATOM      6  C   UNL A   1      31.625  23.938  26.770  1.00  0.00     0.226 C 
ATOM      7  O   UNL A   1      30.616  23.548  27.370  1.00  0.00    -0.274 OA
ATOM      8  H   UNL A   1      32.555  22.417  27.598  1.00  0.00     0.163 HD
BRANCH   6   9
ATOM      9  C   UNL A   1      31.583  25.162  25.801  1.00  0.00     0.052 C 
ATOM     10  C   UNL A   1      29.822  25.882  24.165  1.00  0.00    -0.010 C 
ATOM     11  C   UNL A   1      30.891  25.098  23.399  1.00  0.00     0.005 C 
ATOM     12  C   UNL A   1      30.108  25.609  25.649  1.00  0.00     0.020 C 
ATOM     13  C   UNL A   1      32.057  24.857  24.362  1.00  0.00     0.017 C 
BRANCH  10  14
ATOM     14  C   UNL A   1      29.770  27.345  23.691  1.00  0.00     0.000 C 
ATOM     15  C   UNL A   1      31.096  27.964  23.282  1.00  0.00     0.004 C 
ENDBRANCH  10  14
BRANCH   9  16
ATOM     16  C   UNL A   1      32.457  26.286  26.478  1.00  0.00     0.004 C 
ATOM     17  C   UNL A   1      33.588  26.855  25.602  1.00  0.00     0.005 C 
ATOM     18  C   UNL A   1      31.735  27.555  26.945  1.00  0.00     0.005 C 
ATOM     19  C   UNL A   1      34.046  28.080  26.376  1.00  0.00     0.000 C 
ATOM     20  C   UNL A   1      32.767  28.682  26.934  1.00  0.00     0.000 C 
ENDBRANCH   9  16
ENDBRANCH   6   9
ENDBRANCH   4   5
ENDBRANCH   3   4
ENDBRANCH   2   3
ENDBRANCH   1   2
BRANCH   1  21
ATOM     21  C   UNL A   1      37.388  19.579  24.969  1.00  0.00     0.021 C 
BRANCH  21  22
ATOM     22  C   UNL A   1      38.605  20.246  25.599  1.00  0.00     0.116 C 
BRANCH  22  23
ATOM     23  N   UNL A   1      39.732  19.337  25.705  1.00  0.00    -0.352 N 
ATOM     24  C   UNL A   1      41.032  19.601  26.048  1.00  0.00     0.251 C 
ATOM     25  H   UNL A   1      39.533  18.394  25.500  1.00  0.00     0.163 HD
ATOM     26  O   UNL A   1      41.893  18.739  25.902  1.00  0.00    -0.269 OA
BRANCH  24  27
ATOM     27  C   UNL A   1      41.405  20.928  26.583  1.00  0.00     0.039 A 
ATOM     28  C   UNL A   1      41.234  21.171  27.949  1.00  0.00     0.014 A 
ATOM     29  C   UNL A   1      41.877  21.942  25.744  1.00  0.00     0.014 A 
ATOM     30  C   UNL A   1      41.558  22.423  28.475  1.00  0.00     0.010 A 
ATOM     31  C   UNL A   1      42.275  23.161  26.283  1.00  0.00     0.010 A 
ATOM     32  C   UNL A   1      42.093  23.425  27.648  1.00  0.00    -0.014 A 
BRANCH  32  33
ATOM     33  C   UNL A   1      42.412  24.768  28.190  1.00  0.00     0.031 A 
ATOM     34  C   UNL A   1      43.829  25.111  28.566  1.00  0.00     0.074 A 
ATOM     35  C   UNL A   1      41.428  25.668  28.373  1.00  0.00     0.049 A 
ATOM     36  N   UNL A   1      44.308  26.229  29.050  1.00  0.00    -0.248 NA
ATOM     37  C   UNL A   1      44.836  24.050  28.403  1.00  0.00     0.031 C 
ATOM     38  C   UNL A   1      40.011  25.448  28.080  1.00  0.00     0.029 A 
ATOM     39  N   UNL A   1      41.475  26.956  28.842  1.00  0.00    -0.354 N 
ATOM     40  C   UNL A   1      45.661  25.997  29.268  1.00  0.00     0.074 A 
ATOM     41  C   UNL A   1      45.915  24.617  28.918  1.00  0.00     0.031 C 
ATOM     42  C   UNL A   1      39.330  26.578  28.334  1.00  0.00     0.029 A 
ATOM     43  C   UNL A   1      40.255  27.587  28.840  1.00  0.00     0.049 A 
ATOM     44  H   UNL A   1      42.305  27.389  29.152  1.00  0.00     0.167 HD
ATOM     45  C   UNL A   1      46.613  26.858  29.702  1.00  0.00     0.031 A 
ATOM     46  C   UNL A   1      39.922  28.842  29.194  1.00  0.00     0.031 A 
ATOM     47  C   UNL A   1      46.363  28.235  30.031  1.00  0.00     0.049 A 
ATOM     48  C   UNL A   1      40.995  29.779  29.675  1.00  0.00     0.074 A 
ATOM     49  C   UNL A   1      47.269  29.209  30.414  1.00  0.00     0.029 A 
ATOM     50  N   UNL A   1      45.112  28.834  30.020  1.00  0.00    -0.354 N 
ATOM     51  N   UNL A   1      42.283  29.567  29.802  1.00  0.00    -0.248 NA
ATOM     52  C   UNL A   1      40.567  31.135  30.044  1.00  0.00     0.031 C 
ATOM     53  C   UNL A   1      46.558  30.382  30.688  1.00  0.00     0.029 A 
ATOM     54  C   UNL A   1      45.218  30.156  30.415  1.00  0.00     0.049 A 
ATOM     55  H   UNL A   1      44.273  28.384  29.769  1.00  0.00     0.167 HD
ATOM     56  C   UNL A   1      42.824  30.774  30.228  1.00  0.00     0.074 A 
ATOM     57  C   UNL A   1      41.726  31.714  30.327  1.00  0.00     0.031 C 
ATOM     58  C   UNL A   1      44.115  31.078  30.507  1.00  0.00     0.031 A 
BRANCH  45  59
ATOM     59  C   UNL A   1      48.010  26.322  29.858  1.00  0.00    -0.014 A 
ATOM     60  C   UNL A   1      48.459  25.786  31.076  1.00  0.00     0.009 A 
ATOM     61  C   UNL A   1      48.888  26.342  28.764  1.00  0.00     0.009 A 
ATOM     62  C   UNL A   1      49.772  25.327  31.208  1.00  0.00     0.001 A 
ATOM     63  C   UNL A   1      50.189  25.852  28.887  1.00  0.00     0.001 A 
ATOM     64  C   UNL A   1      50.634  25.356  30.112  1.00  0.00     0.000 A 
ENDBRANCH  45  59
BRANCH  46  65
ATOM     65  C   UNL A   1      38.516  29.305  29.066  1.00  0.00    -0.014 A 
ATOM     66  C   UNL A   1      38.046  29.806  27.841  1.00  0.00     0.009 A 
ATOM     67  C   UNL A   1      37.640  29.256  30.160  1.00  0.00     0.009 A 
ATOM     68  C   UNL A   1      36.736  30.275  27.724  1.00  0.00     0.001 A 
ATOM     69  C   UNL A   1      36.322  29.700  30.031  1.00  0.00     0.001 A 
ATOM     70  C   UNL A   1      35.873  30.217  28.817  1.00  0.00     0.000 A 
ENDBRANCH  46  65
BRANCH  58  71
ATOM     71  C   UNL A   1      44.416  32.499  30.897  1.00  0.00    -0.014 A 
ATOM     72  C   UNL A   1      44.706  33.480  29.937  1.00  0.00     0.009 A 
ATOM     73  C   UNL A   1      44.382  32.864  32.253  1.00  0.00     0.009 A 
ATOM     74  C   UNL A   1      44.995  34.789  30.330  1.00  0.00     0.001 A 
ATOM     75  C   UNL A   1      44.640  34.179  32.640  1.00  0.00     0.001 A 
ATOM     76  C   UNL A   1      44.958  35.137  31.679  1.00  0.00     0.000 A 
ENDBRANCH  58  71
ENDBRANCH  32  33
ENDBRANCH  24  27
ENDBRANCH  22  23
ENDBRANCH  21  22
ENDBRANCH   1  21
TORSDOF 15
ENDMDL
MODEL 2
REMARK VINA RESULT:     -10.5      3.431      8.458
REMARK SMILES CC[C@H]1CC[C@@](C(=O)NCCCCCCNC(=O)c2ccc(-c3c4nc(c(-c5ccccc5)c5ccc([nH]5)c(-c5ccccc5)c5nc(c(-c6ccccc6)c6ccc3[nH]6)C=C5)C=C4)cc2)(C2CCCC2)C1
REMARK SMILES IDX 13 1 12 2 11 3 10 4 9 5 7 6 8 7 6 9 3 10 4 11 72 12 5 13
REMARK SMILES IDX 2 14 1 15 67 16 68 17 71 18 69 19 70 20 14 21 15 22 16 23
REMARK SMILES IDX 17 24 18 26 19 27 20 28 66 29 21 30 65 31 22 32 23 33 24 34
REMARK SMILES IDX 59 35 25 36 64 37 58 38 60 39 26 40 63 41 57 42 56 43 27 45
REMARK SMILES IDX 49 46 34 47 48 48 35 49 38 50 47 51 61 52 36 53 37 54 46 56
REMARK SMILES IDX 62 57 39 58 28 59 29 60 33 61 30 62 32 63 31 64 50 65 51 66
REMARK SMILES IDX 55 67 52 68 54 69 53 70 40 71 41 72 45 73 42 74 44 75 43 76
REMARK H PARENT 9 8 16 25 60 44 38 55
REMARK Flexibility Score: inf
ROOT
ATOM      1  C   UNL A   1      31.562  29.869  25.369  1.00  0.00     0.002 C 
ENDROOT
BRANCH   1   2
ATOM      2  C   UNL A   1      30.639  29.556  24.186  1.00  0.00     0.002 C 
BRANCH   2   3
ATOM      3  C   UNL A   1      31.342  28.983  22.949  1.00  0.00     0.021 C 
BRANCH   3   4
ATOM      4  C   UNL A   1      30.796  27.628  22.506  1.00  0.00     0.116 C 
BRANCH   4   5
ATOM      5  N   UNL A   1      31.699  26.981  21.585  1.00  0.00    -0.356 N 
ATOM      6  C   UNL A   1      32.542  25.928  21.701  1.00  0.00     0.226 C 
ATOM      7  O   UNL A   1      33.137  25.647  20.654  1.00  0.00    -0.274 OA
ATOM      8  H   UNL A   1      31.702  27.388  20.689  1.00  0.00     0.163 HD
BRANCH   6   9
ATOM      9  C   UNL A   1      32.706  25.067  22.994  1.00  0.00     0.052 C 
ATOM     10  C   UNL A   1      33.966  22.931  23.377  1.00  0.00    -0.010 C 
ATOM     11  C   UNL A   1      32.497  22.579  23.127  1.00  0.00     0.005 C 
ATOM     12  C   UNL A   1      34.104  24.402  22.959  1.00  0.00     0.020 C 
ATOM     13  C   UNL A   1      31.709  23.893  23.113  1.00  0.00     0.017 C 
BRANCH  10  14
ATOM     14  C   UNL A   1      34.387  22.537  24.805  1.00  0.00     0.000 C 
ATOM     15  C   UNL A   1      35.529  23.335  25.411  1.00  0.00     0.004 C 
ENDBRANCH  10  14
BRANCH   9  16
ATOM     16  C   UNL A   1      32.576  26.068  24.206  1.00  0.00     0.004 C 
ATOM     17  C   UNL A   1      31.975  25.469  25.490  1.00  0.00     0.005 C 
ATOM     18  C   UNL A   1      33.863  26.723  24.720  1.00  0.00     0.005 C 
ATOM     19  C   UNL A   1      32.244  26.542  26.533  1.00  0.00     0.000 C 
ATOM     20  C   UNL A   1      33.624  27.076  26.187  1.00  0.00     0.000 C 
ENDBRANCH   9  16
ENDBRANCH   6   9
ENDBRANCH   4   5
ENDBRANCH   3   4
ENDBRANCH   2   3
ENDBRANCH   1   2
BRANCH   1  21
ATOM     21  C   UNL A   1      31.270  31.189  26.088  1.00  0.00     0.021 C 
BRANCH  21  22
ATOM     22  C   UNL A   1      32.416  31.708  26.949  1.00  0.00     0.116 C 
BRANCH  22  23
ATOM     23  N   UNL A   1      32.237  33.102  27.312  1.00  0.00    -0.352 N 
ATOM     24  C   UNL A   1      32.990  33.885  28.148  1.00  0.00     0.251 C 
ATOM     25  H   UNL A   1      31.463  33.549  26.899  1.00  0.00     0.163 HD
ATOM     26  O   UNL A   1      32.581  34.991  28.486  1.00  0.00    -0.269 OA
BRANCH  24  27
ATOM     27  C   UNL A   1      34.291  33.396  28.653  1.00  0.00     0.039 A 
ATOM     28  C   UNL A   1      35.442  33.667  27.910  1.00  0.00     0.014 A 
ATOM     29  C   UNL A   1      34.374  32.640  29.826  1.00  0.00     0.014 A 
ATOM     30  C   UNL A   1      36.680  33.198  28.354  1.00  0.00     0.010 A 
ATOM     31  C   UNL A   1      35.617  32.243  30.309  1.00  0.00     0.010 A 
ATOM     32  C   UNL A   1      36.779  32.492  29.565  1.00  0.00    -0.014 A 
BRANCH  32  33
ATOM     33  C   UNL A   1      38.083  31.963  30.032  1.00  0.00     0.031 A 
ATOM     34  C   UNL A   1      38.599  30.652  29.501  1.00  0.00     0.074 A 
ATOM     35  C   UNL A   1      38.791  32.644  30.954  1.00  0.00     0.049 A 
ATOM     36  N   UNL A   1      39.714  30.028  29.782  1.00  0.00    -0.248 NA
ATOM     37  C   UNL A   1      37.734  29.935  28.550  1.00  0.00     0.031 C 
ATOM     38  C   UNL A   1      38.386  33.907  31.572  1.00  0.00     0.029 A 
ATOM     39  N   UNL A   1      40.007  32.367  31.525  1.00  0.00    -0.354 N 
ATOM     40  C   UNL A   1      39.674  28.839  29.063  1.00  0.00     0.074 A 
ATOM     41  C   UNL A   1      38.401  28.804  28.377  1.00  0.00     0.031 C 
ATOM     42  C   UNL A   1      39.358  34.320  32.403  1.00  0.00     0.029 A 
ATOM     43  C   UNL A   1      40.434  33.334  32.403  1.00  0.00     0.049 A 
ATOM     44  H   UNL A   1      40.525  31.553  31.326  1.00  0.00     0.167 HD
ATOM     45  C   UNL A   1      40.617  27.872  28.964  1.00  0.00     0.031 A 
ATOM     46  C   UNL A   1      41.571  33.422  33.117  1.00  0.00     0.031 A 
ATOM     47  C   UNL A   1      41.890  27.918  29.630  1.00  0.00     0.049 A 
ATOM     48  C   UNL A   1      42.602  32.335  32.992  1.00  0.00     0.074 A 
ATOM     49  C   UNL A   1      42.942  27.023  29.542  1.00  0.00     0.029 A 
ATOM     50  N   UNL A   1      42.282  28.912  30.514  1.00  0.00    -0.354 N 
ATOM     51  N   UNL A   1      42.583  31.256  32.247  1.00  0.00    -0.248 NA
ATOM     52  C   UNL A   1      43.822  32.491  33.796  1.00  0.00     0.031 C 
ATOM     53  C   UNL A   1      43.950  27.448  30.414  1.00  0.00     0.029 A 
ATOM     54  C   UNL A   1      43.549  28.640  30.998  1.00  0.00     0.049 A 
ATOM     55  H   UNL A   1      41.738  29.695  30.759  1.00  0.00     0.167 HD
ATOM     56  C   UNL A   1      43.801  30.625  32.462  1.00  0.00     0.074 A 
ATOM     57  C   UNL A   1      44.539  31.448  33.399  1.00  0.00     0.031 C 
ATOM     58  C   UNL A   1      44.270  29.470  31.929  1.00  0.00     0.031 A 
BRANCH  45  59
ATOM     59  C   UNL A   1      40.292  26.676  28.111  1.00  0.00    -0.014 A 
ATOM     60  C   UNL A   1      39.509  25.617  28.599  1.00  0.00     0.009 A 
ATOM     61  C   UNL A   1      40.768  26.612  26.792  1.00  0.00     0.009 A 
ATOM     62  C   UNL A   1      39.250  24.500  27.801  1.00  0.00     0.001 A 
ATOM     63  C   UNL A   1      40.480  25.510  25.985  1.00  0.00     0.001 A 
ATOM     64  C   UNL A   1      39.732  24.449  26.494  1.00  0.00     0.000 A 
ENDBRANCH  45  59
BRANCH  46  65
ATOM     65  C   UNL A   1      41.820  34.604  33.982  1.00  0.00    -0.014 A 
ATOM     66  C   UNL A   1      41.416  34.594  35.327  1.00  0.00     0.009 A 
ATOM     67  C   UNL A   1      42.453  35.748  33.473  1.00  0.00     0.009 A 
ATOM     68  C   UNL A   1      41.616  35.714  36.135  1.00  0.00     0.001 A 
ATOM     69  C   UNL A   1      42.677  36.856  34.292  1.00  0.00     0.001 A 
ATOM     70  C   UNL A   1      42.250  36.843  35.619  1.00  0.00     0.000 A 
ENDBRANCH  46  65
BRANCH  58  71
ATOM     71  C   UNL A   1      45.665  29.057  32.307  1.00  0.00    -0.014 A 
ATOM     72  C   UNL A   1      46.787  29.528  31.609  1.00  0.00     0.009 A 
ATOM     73  C   UNL A   1      45.857  28.198  33.402  1.00  0.00     0.009 A 
ATOM     74  C   UNL A   1      48.071  29.115  31.974  1.00  0.00     0.001 A 
ATOM     75  C   UNL A   1      47.142  27.813  33.785  1.00  0.00     0.001 A 
ATOM     76  C   UNL A   1      48.246  28.262  33.064  1.00  0.00     0.000 A 
ENDBRANCH  58  71
ENDBRANCH  32  33
ENDBRANCH  24  27
ENDBRANCH  22  23
ENDBRANCH  21  22
ENDBRANCH   1  21
TORSDOF 15
ENDMDL
MODEL 3
REMARK VINA RESULT:     -10.5      0.889      6.200
REMARK SMILES CC[C@H]1CC[C@@](C(=O)NCCCCCCNC(=O)c2ccc(-c3c4nc(c(-c5ccccc5)c5ccc([nH]5)c(-c5ccccc5)c5nc(c(-c6ccccc6)c6ccc3[nH]6)C=C5)C=C4)cc2)(C2CCCC2)C1
REMARK SMILES IDX 13 1 12 2 11 3 10 4 9 5 7 6 8 7 6 9 3 10 4 11 72 12 5 13
REMARK SMILES IDX 2 14 1 15 67 16 68 17 71 18 69 19 70 20 14 21 15 22 16 23
REMARK SMILES IDX 17 24 18 26 19 27 20 28 66 29 21 30 65 31 22 32 23 33 24 34
REMARK SMILES IDX 59 35 25 36 64 37 58 38 60 39 26 40 63 41 57 42 56 43 27 45
REMARK SMILES IDX 49 46 34 47 48 48 35 49 38 50 47 51 61 52 36 53 37 54 46 56
REMARK SMILES IDX 62 57 39 58 28 59 29 60 33 61 30 62 32 63 31 64 50 65 51 66
REMARK SMILES IDX 55 67 52 68 54 69 53 70 40 71 41 72 45 73 42 74 44 75 43 76
REMARK H PARENT 9 8 16 25 60 44 38 55
REMARK Flexibility Score: inf
ROOT
ATOM      1  C   UNL A   1      36.176  20.639  25.029  1.00  0.00     0.002 C 
ENDROOT
BRANCH   1   2
ATOM      2  C   UNL A   1      34.856  19.904  24.769  1.00  0.00     0.002 C 
BRANCH   2   3
ATOM      3  C   UNL A   1      33.665  20.397  25.602  1.00  0.00     0.021 C 
BRANCH   3   4
ATOM      4  C   UNL A   1      34.049  21.404  26.685  1.00  0.00     0.116 C 
BRANCH   4   5
ATOM      5  N   UNL A   1      32.880  22.046  27.233  1.00  0.00    -0.356 N 
ATOM      6  C   UNL A   1      32.204  23.173  26.906  1.00  0.00     0.226 C 
ATOM      7  O   UNL A   1      31.207  23.379  27.609  1.00  0.00    -0.274 OA
ATOM      8  H   UNL A   1      32.493  21.567  28.001  1.00  0.00     0.163 HD
BRANCH   6   9
ATOM      9  C   UNL A   1      32.567  24.103  25.704  1.00  0.00     0.052 C 
ATOM     10  C   UNL A   1      33.233  23.535  23.353  1.00  0.00    -0.010 C 
ATOM     11  C   UNL A   1      34.509  23.796  24.159  1.00  0.00     0.005 C 
ATOM     12  C   UNL A   1      32.116  23.404  24.398  1.00  0.00     0.020 C 
ATOM     13  C   UNL A   1      34.081  24.351  25.521  1.00  0.00     0.017 C 
BRANCH  10  14
ATOM     14  C   UNL A   1      33.067  24.582  22.237  1.00  0.00     0.000 C 
ATOM     15  C   UNL A   1      33.684  25.945  22.499  1.00  0.00     0.004 C 
ENDBRANCH  10  14
BRANCH   9  16
ATOM     16  C   UNL A   1      31.780  25.449  25.938  1.00  0.00     0.004 C 
ATOM     17  C   UNL A   1      32.658  26.701  26.110  1.00  0.00     0.005 C 
ATOM     18  C   UNL A   1      30.793  25.886  24.849  1.00  0.00     0.005 C 
ATOM     19  C   UNL A   1      31.658  27.842  26.018  1.00  0.00     0.000 C 
ATOM     20  C   UNL A   1      30.675  27.407  24.944  1.00  0.00     0.000 C 
ENDBRANCH   9  16
ENDBRANCH   6   9
ENDBRANCH   4   5
ENDBRANCH   3   4
ENDBRANCH   2   3
ENDBRANCH   1   2
BRANCH   1  21
ATOM     21  C   UNL A   1      37.432  19.770  24.925  1.00  0.00     0.021 C 
BRANCH  21  22
ATOM     22  C   UNL A   1      38.677  20.380  25.557  1.00  0.00     0.116 C 
BRANCH  22  23
ATOM     23  N   UNL A   1      39.727  19.396  25.754  1.00  0.00    -0.352 N 
ATOM     24  C   UNL A   1      41.032  19.582  26.131  1.00  0.00     0.251 C 
ATOM     25  H   UNL A   1      39.464  18.461  25.592  1.00  0.00     0.163 HD
ATOM     26  O   UNL A   1      41.828  18.651  26.064  1.00  0.00    -0.269 OA
BRANCH  24  27
ATOM     27  C   UNL A   1      41.486  20.905  26.609  1.00  0.00     0.039 A 
ATOM     28  C   UNL A   1      41.409  21.186  27.976  1.00  0.00     0.014 A 
ATOM     29  C   UNL A   1      41.944  21.880  25.718  1.00  0.00     0.014 A 
ATOM     30  C   UNL A   1      41.812  22.435  28.450  1.00  0.00     0.010 A 
ATOM     31  C   UNL A   1      42.420  23.094  26.200  1.00  0.00     0.010 A 
ATOM     32  C   UNL A   1      42.333  23.396  27.567  1.00  0.00    -0.014 A 
BRANCH  32  33
ATOM     33  C   UNL A   1      42.736  24.738  28.054  1.00  0.00     0.031 A 
ATOM     34  C   UNL A   1      41.693  25.797  28.295  1.00  0.00     0.074 A 
ATOM     35  C   UNL A   1      44.039  25.015  28.252  1.00  0.00     0.049 A 
ATOM     36  N   UNL A   1      41.845  27.024  28.723  1.00  0.00    -0.248 NA
ATOM     37  C   UNL A   1      40.299  25.438  27.988  1.00  0.00     0.031 C 
ATOM     38  C   UNL A   1      45.148  24.088  28.023  1.00  0.00     0.029 A 
ATOM     39  N   UNL A   1      44.647  26.160  28.699  1.00  0.00    -0.354 N 
ATOM     40  C   UNL A   1      40.575  27.588  28.715  1.00  0.00     0.074 A 
ATOM     41  C   UNL A   1      39.673  26.588  28.187  1.00  0.00     0.031 C 
ATOM     42  C   UNL A   1      46.298  24.686  28.376  1.00  0.00     0.029 A 
ATOM     43  C   UNL A   1      46.011  26.046  28.819  1.00  0.00     0.049 A 
ATOM     44  H   UNL A   1      44.154  26.985  28.915  1.00  0.00     0.167 HD
ATOM     45  C   UNL A   1      40.187  28.818  29.127  1.00  0.00     0.031 A 
ATOM     46  C   UNL A   1      46.925  26.936  29.249  1.00  0.00     0.031 A 
ATOM     47  C   UNL A   1      41.081  29.804  29.670  1.00  0.00     0.049 A 
ATOM     48  C   UNL A   1      46.471  28.297  29.699  1.00  0.00     0.074 A 
ATOM     49  C   UNL A   1      40.779  31.055  30.180  1.00  0.00     0.029 A 
ATOM     50  N   UNL A   1      42.456  29.652  29.769  1.00  0.00    -0.354 N 
ATOM     51  N   UNL A   1      45.256  28.786  29.759  1.00  0.00    -0.248 NA
ATOM     52  C   UNL A   1      47.517  29.219  30.160  1.00  0.00     0.031 C 
ATOM     53  C   UNL A   1      41.978  31.681  30.537  1.00  0.00     0.029 A 
ATOM     54  C   UNL A   1      43.020  30.795  30.307  1.00  0.00     0.049 A 
ATOM     55  H   UNL A   1      42.956  28.849  29.497  1.00  0.00     0.167 HD
ATOM     56  C   UNL A   1      45.388  30.060  30.299  1.00  0.00     0.074 A 
ATOM     57  C   UNL A   1      46.799  30.260  30.559  1.00  0.00     0.031 C 
ATOM     58  C   UNL A   1      44.426  30.978  30.561  1.00  0.00     0.031 A 
BRANCH  45  59
ATOM     59  C   UNL A   1      38.730  29.165  28.989  1.00  0.00    -0.014 A 
ATOM     60  C   UNL A   1      38.207  29.677  27.789  1.00  0.00     0.009 A 
ATOM     61  C   UNL A   1      37.861  28.965  30.073  1.00  0.00     0.009 A 
ATOM     62  C   UNL A   1      36.857  30.026  27.695  1.00  0.00     0.001 A 
ATOM     63  C   UNL A   1      36.506  29.283  29.967  1.00  0.00     0.001 A 
ATOM     64  C   UNL A   1      36.008  29.825  28.783  1.00  0.00     0.000 A 
ENDBRANCH  45  59
BRANCH  46  65
ATOM     65  C   UNL A   1      48.360  26.556  29.320  1.00  0.00    -0.014 A 
ATOM     66  C   UNL A   1      48.868  25.924  30.466  1.00  0.00     0.009 A 
ATOM     67  C   UNL A   1      49.229  26.825  28.252  1.00  0.00     0.009 A 
ATOM     68  C   UNL A   1      50.223  25.596  30.552  1.00  0.00     0.001 A 
ATOM     69  C   UNL A   1      50.577  26.470  28.330  1.00  0.00     0.001 A 
ATOM     70  C   UNL A   1      51.075  25.865  29.483  1.00  0.00     0.000 A 
ENDBRANCH  46  65
BRANCH  58  71
ATOM     71  C   UNL A   1      44.864  32.264  31.207  1.00  0.00    -0.014 A 
ATOM     72  C   UNL A   1      45.222  33.385  30.443  1.00  0.00     0.009 A 
ATOM     73  C   UNL A   1      44.891  32.358  32.608  1.00  0.00     0.009 A 
ATOM     74  C   UNL A   1      45.639  34.562  31.070  1.00  0.00     0.001 A 
ATOM     75  C   UNL A   1      45.277  33.545  33.232  1.00  0.00     0.001 A 
ATOM     76  C   UNL A   1      45.661  34.641  32.462  1.00  0.00     0.000 A 
ENDBRANCH  58  71
ENDBRANCH  32  33
ENDBRANCH  24  27
ENDBRANCH  22  23
ENDBRANCH  21  22
ENDBRANCH   1  21
TORSDOF 15
ENDMDL
