MODEL 1
REMARK VINA RESULT:     -10.6      0.000      0.000
REMARK SMILES [NH3+][C@H](c1cc(F)c(F)cc1C(=O)NCCCCCCNC(=O)c1ccc(-c2c3nc(c(-c4ccccc4)c4ccc([nH]4)c(-c4ccccc4)c4nc(c(-c5ccccc5)c5ccc2[nH]5)C=C4)C=C3)cc1)C(F)(F)F
REMARK SMILES IDX 16 1 15 2 14 3 13 4 11 5 12 6 10 8 3 9 4 10 5 11 9 12 6 13
REMARK SMILES IDX 7 14 8 15 2 16 1 17 71 21 72 22 73 23 74 24 17 25 18 26
REMARK SMILES IDX 19 27 20 28 21 29 22 31 23 32 24 33 70 34 25 35 69 36 26 37
REMARK SMILES IDX 27 38 28 39 63 40 29 41 68 42 62 43 64 44 30 45 67 46 61 47
REMARK SMILES IDX 60 48 31 50 53 51 38 52 52 53 39 54 42 55 51 56 65 57 40 58
REMARK SMILES IDX 41 59 50 61 66 62 43 63 32 64 33 65 37 66 34 67 36 68 35 69
REMARK SMILES IDX 54 70 55 71 59 72 56 73 58 74 57 75 44 76 45 77 49 78 46 79
REMARK SMILES IDX 48 80 47 81
REMARK H PARENT 13 7 1 18 1 19 1 20 20 30 64 49 42 60
REMARK Flexibility Score: inf
ROOT
ATOM      1  C   UNL A   1      34.555  24.052  23.762  1.00  0.00     0.002 C 
ENDROOT
BRANCH   1   2
ATOM      2  C   UNL A   1      33.131  23.774  23.278  1.00  0.00     0.021 C 
BRANCH   2   3
ATOM      3  C   UNL A   1      32.273  25.032  23.053  1.00  0.00     0.116 C 
BRANCH   3   4
ATOM      4  N   UNL A   1      33.112  26.079  22.499  1.00  0.00    -0.352 N 
ATOM      5  C   UNL A   1      33.359  27.395  22.766  1.00  0.00     0.251 C 
ATOM      6  O   UNL A   1      34.054  27.977  21.926  1.00  0.00    -0.269 OA
ATOM      7  H   UNL A   1      33.639  25.757  21.734  1.00  0.00     0.163 HD
BRANCH   5   8
ATOM      8  C   UNL A   1      32.977  28.182  23.984  1.00  0.00     0.052 A 
ATOM      9  C   UNL A   1      31.879  29.053  24.203  1.00  0.00     0.034 A 
ATOM     10  C   UNL A   1      31.830  29.795  25.414  1.00  0.00     0.053 A 
ATOM     11  C   UNL A   1      32.850  29.723  26.354  1.00  0.00     0.159 A 
ATOM     12  C   UNL A   1      33.992  28.131  24.974  1.00  0.00     0.056 A 
ATOM     13  F   UNL A   1      32.780  30.474  27.460  1.00  0.00    -0.204 F 
ATOM     14  C   UNL A   1      33.930  28.897  26.132  1.00  0.00     0.159 A 
ATOM     15  F   UNL A   1      34.935  28.841  27.017  1.00  0.00    -0.204 F 
BRANCH   9  16
ATOM     16  C   UNL A   1      30.748  29.292  23.220  1.00  0.00     0.319 C 
BRANCH  16  17
ATOM     17  N   UNL A   1      31.306  29.818  21.940  1.00  0.00    -0.344 N 
ATOM     18  H   UNL A   1      32.027  29.184  21.597  1.00  0.00     0.345 HD
ATOM     19  H   UNL A   1      31.710  30.741  22.098  1.00  0.00     0.345 HD
ATOM     20  H   UNL A   1      30.559  29.888  21.247  1.00  0.00     0.345 HD
ENDBRANCH  16  17
BRANCH  16  21
ATOM     21  C   UNL A   1      29.761  28.089  23.066  1.00  0.00     0.445 C 
ATOM     22  F   UNL A   1      30.103  27.301  22.024  1.00  0.00    -0.165 F 
ATOM     23  F   UNL A   1      29.778  27.315  24.179  1.00  0.00    -0.165 F 
ATOM     24  F   UNL A   1      28.488  28.505  22.881  1.00  0.00    -0.165 F 
ENDBRANCH  16  21
ENDBRANCH   9  16
ENDBRANCH   5   8
ENDBRANCH   3   4
ENDBRANCH   2   3
ENDBRANCH   1   2
BRANCH   1  25
ATOM     25  C   UNL A   1      34.676  24.272  25.272  1.00  0.00     0.002 C 
BRANCH  25  26
ATOM     26  C   UNL A   1      35.943  23.703  25.923  1.00  0.00     0.021 C 
BRANCH  26  27
ATOM     27  C   UNL A   1      37.182  23.695  25.030  1.00  0.00     0.116 C 
BRANCH  27  28
ATOM     28  N   UNL A   1      38.147  22.694  25.456  1.00  0.00    -0.352 N 
ATOM     29  C   UNL A   1      39.330  22.851  26.133  1.00  0.00     0.251 C 
ATOM     30  H   UNL A   1      37.918  21.765  25.222  1.00  0.00     0.163 HD
ATOM     31  O   UNL A   1      40.137  21.929  26.186  1.00  0.00    -0.269 OA
BRANCH  29  32
ATOM     32  C   UNL A   1      39.639  24.134  26.800  1.00  0.00     0.039 A 
ATOM     33  C   UNL A   1      39.130  24.371  28.080  1.00  0.00     0.014 A 
ATOM     34  C   UNL A   1      40.386  25.119  26.147  1.00  0.00     0.014 A 
ATOM     35  C   UNL A   1      39.411  25.577  28.726  1.00  0.00     0.010 A 
ATOM     36  C   UNL A   1      40.717  26.295  26.816  1.00  0.00     0.010 A 
ATOM     37  C   UNL A   1      40.226  26.539  28.107  1.00  0.00    -0.014 A 
BRANCH  37  38
ATOM     38  C   UNL A   1      40.567  27.811  28.791  1.00  0.00     0.031 A 
ATOM     39  C   UNL A   1      41.910  27.982  29.444  1.00  0.00     0.074 A 
ATOM     40  C   UNL A   1      39.644  28.787  28.883  1.00  0.00     0.049 A 
ATOM     41  N   UNL A   1      42.369  28.995  30.137  1.00  0.00    -0.248 NA
ATOM     42  C   UNL A   1      42.853  26.859  29.323  1.00  0.00     0.031 C 
ATOM     43  C   UNL A   1      38.291  28.729  28.327  1.00  0.00     0.029 A 
ATOM     44  N   UNL A   1      39.703  30.017  29.488  1.00  0.00    -0.354 N 
ATOM     45  C   UNL A   1      43.641  28.622  30.551  1.00  0.00     0.074 A 
ATOM     46  C   UNL A   1      43.865  27.276  30.069  1.00  0.00     0.031 C 
ATOM     47  C   UNL A   1      37.656  29.880  28.599  1.00  0.00     0.029 A 
ATOM     48  C   UNL A   1      38.542  30.741  29.377  1.00  0.00     0.049 A 
ATOM     49  H   UNL A   1      40.503  30.349  29.957  1.00  0.00     0.167 HD
ATOM     50  C   UNL A   1      44.549  29.340  31.256  1.00  0.00     0.031 A 
ATOM     51  C   UNL A   1      38.223  31.959  29.852  1.00  0.00     0.031 A 
ATOM     52  C   UNL A   1      44.331  30.682  31.725  1.00  0.00     0.049 A 
ATOM     53  C   UNL A   1      39.244  32.736  30.633  1.00  0.00     0.074 A 
ATOM     54  C   UNL A   1      45.212  31.517  32.392  1.00  0.00     0.029 A 
ATOM     55  N   UNL A   1      43.145  31.384  31.581  1.00  0.00    -0.354 N 
ATOM     56  N   UNL A   1      40.468  32.398  30.957  1.00  0.00    -0.248 NA
ATOM     57  C   UNL A   1      38.842  34.069  31.102  1.00  0.00     0.031 C 
ATOM     58  C   UNL A   1      44.541  32.707  32.693  1.00  0.00     0.029 A 
ATOM     59  C   UNL A   1      43.261  32.634  32.168  1.00  0.00     0.049 A 
ATOM     60  H   UNL A   1      42.339  31.045  31.129  1.00  0.00     0.167 HD
ATOM     61  C   UNL A   1      40.991  33.483  31.647  1.00  0.00     0.074 A 
ATOM     62  C   UNL A   1      39.955  34.496  31.682  1.00  0.00     0.031 C 
ATOM     63  C   UNL A   1      42.220  33.628  32.201  1.00  0.00     0.031 A 
BRANCH  50  64
ATOM     64  C   UNL A   1      45.859  28.674  31.571  1.00  0.00    -0.014 A 
ATOM     65  C   UNL A   1      46.023  27.897  32.730  1.00  0.00     0.009 A 
ATOM     66  C   UNL A   1      46.941  28.808  30.687  1.00  0.00     0.009 A 
ATOM     67  C   UNL A   1      47.254  27.305  33.018  1.00  0.00     0.001 A 
ATOM     68  C   UNL A   1      48.164  28.191  30.963  1.00  0.00     0.001 A 
ATOM     69  C   UNL A   1      48.322  27.450  32.134  1.00  0.00     0.000 A 
ENDBRANCH  50  64
BRANCH  51  70
ATOM     70  C   UNL A   1      36.877  32.527  29.581  1.00  0.00    -0.014 A 
ATOM     71  C   UNL A   1      35.845  32.385  30.521  1.00  0.00     0.009 A 
ATOM     72  C   UNL A   1      36.622  33.224  28.390  1.00  0.00     0.009 A 
ATOM     73  C   UNL A   1      34.579  32.915  30.266  1.00  0.00     0.001 A 
ATOM     74  C   UNL A   1      35.361  33.774  28.148  1.00  0.00     0.001 A 
ATOM     75  C   UNL A   1      34.339  33.613  29.083  1.00  0.00     0.000 A 
ENDBRANCH  51  70
BRANCH  63  76
ATOM     76  C   UNL A   1      42.520  34.939  32.868  1.00  0.00    -0.014 A 
ATOM     77  C   UNL A   1      43.260  35.936  32.215  1.00  0.00     0.009 A 
ATOM     78  C   UNL A   1      42.018  35.195  34.154  1.00  0.00     0.009 A 
ATOM     79  C   UNL A   1      43.519  37.152  32.851  1.00  0.00     0.001 A 
ATOM     80  C   UNL A   1      42.256  36.420  34.776  1.00  0.00     0.001 A 
ATOM     81  C   UNL A   1      43.014  37.395  34.128  1.00  0.00     0.000 A 
ENDBRANCH  63  76
ENDBRANCH  37  38
ENDBRANCH  29  32
ENDBRANCH  27  28
ENDBRANCH  26  27
ENDBRANCH  25  26
ENDBRANCH   1  25
TORSDOF 16
ENDMDL
MODEL 2
REMARK VINA RESULT:     -10.6      3.263      8.099
REMARK SMILES [NH3+][C@H](c1cc(F)c(F)cc1C(=O)NCCCCCCNC(=O)c1ccc(-c2c3nc(c(-c4ccccc4)c4ccc([nH]4)c(-c4ccccc4)c4nc(c(-c5ccccc5)c5ccc2[nH]5)C=C4)C=C3)cc1)C(F)(F)F
REMARK SMILES IDX 16 1 15 2 14 3 13 4 11 5 12 6 10 8 3 9 4 10 5 11 9 12 6 13
REMARK SMILES IDX 7 14 8 15 2 16 1 17 71 21 72 22 73 23 74 24 17 25 18 26
REMARK SMILES IDX 19 27 20 28 21 29 22 31 23 32 24 33 70 34 25 35 69 36 26 37
REMARK SMILES IDX 27 38 28 39 63 40 29 41 68 42 62 43 64 44 30 45 67 46 61 47
REMARK SMILES IDX 60 48 31 50 53 51 38 52 52 53 39 54 42 55 51 56 65 57 40 58
REMARK SMILES IDX 41 59 50 61 66 62 43 63 32 64 33 65 37 66 34 67 36 68 35 69
REMARK SMILES IDX 54 70 55 71 59 72 56 73 58 74 57 75 44 76 45 77 49 78 46 79
REMARK SMILES IDX 48 80 47 81
REMARK H PARENT 13 7 1 18 1 19 1 20 20 30 64 49 42 60
REMARK Flexibility Score: inf
ROOT
ATOM      1  C   UNL A   1      33.375  25.987  25.819  1.00  0.00     0.002 C 
ENDROOT
BRANCH   1   2
ATOM      2  C   UNL A   1      32.025  25.270  25.773  1.00  0.00     0.021 C 
BRANCH   2   3
ATOM      3  C   UNL A   1      32.117  23.734  25.707  1.00  0.00     0.116 C 
BRANCH   3   4
ATOM      4  N   UNL A   1      32.438  23.342  24.347  1.00  0.00    -0.352 N 
ATOM      5  C   UNL A   1      33.538  22.883  23.681  1.00  0.00     0.251 C 
ATOM      6  O   UNL A   1      33.416  22.816  22.453  1.00  0.00    -0.269 OA
ATOM      7  H   UNL A   1      31.661  23.428  23.749  1.00  0.00     0.163 HD
BRANCH   5   8
ATOM      8  C   UNL A   1      34.823  22.367  24.259  1.00  0.00     0.052 A 
ATOM      9  C   UNL A   1      35.153  21.075  24.744  1.00  0.00     0.034 A 
ATOM     10  C   UNL A   1      36.411  20.889  25.379  1.00  0.00     0.053 A 
ATOM     11  C   UNL A   1      37.292  21.945  25.575  1.00  0.00     0.159 A 
ATOM     12  C   UNL A   1      35.755  23.415  24.470  1.00  0.00     0.056 A 
ATOM     13  F   UNL A   1      38.447  21.728  26.217  1.00  0.00    -0.204 F 
ATOM     14  C   UNL A   1      36.962  23.205  25.126  1.00  0.00     0.159 A 
ATOM     15  F   UNL A   1      37.790  24.238  25.335  1.00  0.00    -0.204 F 
BRANCH   9  16
ATOM     16  C   UNL A   1      34.246  19.861  24.675  1.00  0.00     0.319 C 
BRANCH  16  17
ATOM     17  N   UNL A   1      35.074  18.620  24.721  1.00  0.00    -0.344 N 
ATOM     18  H   UNL A   1      36.040  18.863  24.940  1.00  0.00     0.345 HD
ATOM     19  H   UNL A   1      35.037  18.152  23.816  1.00  0.00     0.345 HD
ATOM     20  H   UNL A   1      34.710  17.995  25.442  1.00  0.00     0.345 HD
ENDBRANCH  16  17
BRANCH  16  21
ATOM     21  C   UNL A   1      33.047  19.892  25.678  1.00  0.00     0.445 C 
ATOM     22  F   UNL A   1      31.909  20.294  25.073  1.00  0.00    -0.165 F 
ATOM     23  F   UNL A   1      32.819  18.655  26.185  1.00  0.00    -0.165 F 
ATOM     24  F   UNL A   1      33.286  20.718  26.720  1.00  0.00    -0.165 F 
ENDBRANCH  16  21
ENDBRANCH   9  16
ENDBRANCH   5   8
ENDBRANCH   3   4
ENDBRANCH   2   3
ENDBRANCH   1   2
BRANCH   1  25
ATOM     25  C   UNL A   1      33.485  27.184  24.870  1.00  0.00     0.002 C 
BRANCH  25  26
ATOM     26  C   UNL A   1      33.984  28.487  25.507  1.00  0.00     0.021 C 
BRANCH  26  27
ATOM     27  C   UNL A   1      33.868  28.551  27.029  1.00  0.00     0.116 C 
BRANCH  27  28
ATOM     28  N   UNL A   1      33.724  29.918  27.501  1.00  0.00    -0.352 N 
ATOM     29  C   UNL A   1      34.570  30.671  28.277  1.00  0.00     0.251 C 
ATOM     30  H   UNL A   1      32.894  30.372  27.225  1.00  0.00     0.163 HD
ATOM     31  O   UNL A   1      34.174  31.713  28.788  1.00  0.00    -0.269 OA
BRANCH  29  32
ATOM     32  C   UNL A   1      35.962  30.226  28.502  1.00  0.00     0.039 A 
ATOM     33  C   UNL A   1      36.308  29.692  29.748  1.00  0.00     0.014 A 
ATOM     34  C   UNL A   1      36.933  30.378  27.509  1.00  0.00     0.014 A 
ATOM     35  C   UNL A   1      37.618  29.266  29.979  1.00  0.00     0.010 A 
ATOM     36  C   UNL A   1      38.223  29.896  27.719  1.00  0.00     0.010 A 
ATOM     37  C   UNL A   1      38.580  29.345  28.959  1.00  0.00    -0.014 A 
BRANCH  37  38
ATOM     38  C   UNL A   1      39.967  28.863  29.172  1.00  0.00     0.031 A 
ATOM     39  C   UNL A   1      41.005  29.778  29.760  1.00  0.00     0.074 A 
ATOM     40  C   UNL A   1      40.309  27.622  28.776  1.00  0.00     0.049 A 
ATOM     41  N   UNL A   1      42.279  29.556  29.967  1.00  0.00    -0.248 NA
ATOM     42  C   UNL A   1      40.558  31.126  30.142  1.00  0.00     0.031 C 
ATOM     43  C   UNL A   1      39.406  26.651  28.155  1.00  0.00     0.029 A 
ATOM     44  N   UNL A   1      41.516  26.970  28.827  1.00  0.00    -0.354 N 
ATOM     45  C   UNL A   1      42.787  30.742  30.482  1.00  0.00     0.074 A 
ATOM     46  C   UNL A   1      41.696  31.692  30.515  1.00  0.00     0.031 C 
ATOM     47  C   UNL A   1      40.086  25.520  27.903  1.00  0.00     0.029 A 
ATOM     48  C   UNL A   1      41.476  25.699  28.310  1.00  0.00     0.049 A 
ATOM     49  H   UNL A   1      42.333  27.376  29.199  1.00  0.00     0.167 HD
ATOM     50  C   UNL A   1      44.047  31.013  30.904  1.00  0.00     0.031 A 
ATOM     51  C   UNL A   1      42.451  24.781  28.173  1.00  0.00     0.031 A 
ATOM     52  C   UNL A   1      45.129  30.066  30.882  1.00  0.00     0.049 A 
ATOM     53  C   UNL A   1      43.839  25.104  28.646  1.00  0.00     0.074 A 
ATOM     54  C   UNL A   1      46.423  30.225  31.347  1.00  0.00     0.029 A 
ATOM     55  N   UNL A   1      45.044  28.785  30.362  1.00  0.00    -0.354 N 
ATOM     56  N   UNL A   1      44.289  26.206  29.195  1.00  0.00    -0.248 NA
ATOM     57  C   UNL A   1      44.851  24.050  28.491  1.00  0.00     0.031 C 
ATOM     58  C   UNL A   1      47.135  29.053  31.063  1.00  0.00     0.029 A 
ATOM     59  C   UNL A   1      46.269  28.148  30.471  1.00  0.00     0.049 A 
ATOM     60  H   UNL A   1      44.233  28.386  29.973  1.00  0.00     0.167 HD
ATOM     61  C   UNL A   1      45.629  25.971  29.472  1.00  0.00     0.074 A 
ATOM     62  C   UNL A   1      45.915  24.617  29.044  1.00  0.00     0.031 C 
ATOM     63  C   UNL A   1      46.540  26.803  30.034  1.00  0.00     0.031 A 
BRANCH  50  64
ATOM     64  C   UNL A   1      44.318  32.401  31.415  1.00  0.00    -0.014 A 
ATOM     65  C   UNL A   1      44.120  32.733  32.765  1.00  0.00     0.009 A 
ATOM     66  C   UNL A   1      44.794  33.387  30.537  1.00  0.00     0.009 A 
ATOM     67  C   UNL A   1      44.354  34.034  33.216  1.00  0.00     0.001 A 
ATOM     68  C   UNL A   1      45.055  34.680  30.997  1.00  0.00     0.001 A 
ATOM     69  C   UNL A   1      44.824  35.005  32.333  1.00  0.00     0.000 A 
ENDBRANCH  50  64
BRANCH  51  70
ATOM     70  C   UNL A   1      42.137  23.456  27.578  1.00  0.00    -0.014 A 
ATOM     71  C   UNL A   1      42.363  23.220  26.213  1.00  0.00     0.009 A 
ATOM     72  C   UNL A   1      41.624  22.419  28.372  1.00  0.00     0.009 A 
ATOM     73  C   UNL A   1      42.065  21.977  25.652  1.00  0.00     0.001 A 
ATOM     74  C   UNL A   1      41.351  21.168  27.813  1.00  0.00     0.001 A 
ATOM     75  C   UNL A   1      41.564  20.951  26.452  1.00  0.00     0.000 A 
ENDBRANCH  51  70
BRANCH  63  76
ATOM     76  C   UNL A   1      47.926  26.261  30.241  1.00  0.00    -0.014 A 
ATOM     77  C   UNL A   1      48.322  25.730  31.478  1.00  0.00     0.009 A 
ATOM     78  C   UNL A   1      48.832  26.246  29.170  1.00  0.00     0.009 A 
ATOM     79  C   UNL A   1      49.612  25.223  31.645  1.00  0.00     0.001 A 
ATOM     80  C   UNL A   1      50.112  25.714  29.333  1.00  0.00     0.001 A 
ATOM     81  C   UNL A   1      50.504  25.211  30.573  1.00  0.00     0.000 A 
ENDBRANCH  63  76
ENDBRANCH  37  38
ENDBRANCH  29  32
ENDBRANCH  27  28
ENDBRANCH  26  27
ENDBRANCH  25  26
ENDBRANCH   1  25
TORSDOF 16
ENDMDL
MODEL 3
REMARK VINA RESULT:     -10.4      3.479      7.847
REMARK SMILES [NH3+][C@H](c1cc(F)c(F)cc1C(=O)NCCCCCCNC(=O)c1ccc(-c2c3nc(c(-c4ccccc4)c4ccc([nH]4)c(-c4ccccc4)c4nc(c(-c5ccccc5)c5ccc2[nH]5)C=C4)C=C3)cc1)C(F)(F)F
REMARK SMILES IDX 16 1 15 2 14 3 13 4 11 5 12 6 10 8 3 9 4 10 5 11 9 12 6 13
REMARK SMILES IDX 7 14 8 15 2 16 1 17 71 21 72 22 73 23 74 24 17 25 18 26
REMARK SMILES IDX 19 27 20 28 21 29 22 31 23 32 24 33 70 34 25 35 69 36 26 37
REMARK SMILES IDX 27 38 28 39 63 40 29 41 68 42 62 43 64 44 30 45 67 46 61 47
REMARK SMILES IDX 60 48 31 50 53 51 38 52 52 53 39 54 42 55 51 56 65 57 40 58
REMARK SMILES IDX 41 59 50 61 66 62 43 63 32 64 33 65 37 66 34 67 36 68 35 69
REMARK SMILES IDX 54 70 55 71 59 72 56 73 58 74 57 75 44 76 45 77 49 78 46 79
REMARK SMILES IDX 48 80 47 81
REMARK H PARENT 13 7 1 18 1 19 1 20 20 30 64 49 42 60
REMARK Flexibility Score: inf
ROOT
ATOM      1  C   UNL A   1      36.599  22.145  24.998  1.00  0.00     0.002 C 
ENDROOT
BRANCH   1   2
ATOM      2  C   UNL A   1      35.856  22.873  26.118  1.00  0.00     0.021 C 
BRANCH   2   3
ATOM      3  C   UNL A   1      34.907  23.988  25.641  1.00  0.00     0.116 C 
BRANCH   3   4
ATOM      4  N   UNL A   1      33.574  23.718  26.149  1.00  0.00    -0.352 N 
ATOM      5  C   UNL A   1      32.570  22.834  25.876  1.00  0.00     0.251 C 
ATOM      6  O   UNL A   1      31.505  23.056  26.462  1.00  0.00    -0.269 OA
ATOM      7  H   UNL A   1      33.331  24.331  26.879  1.00  0.00     0.163 HD
BRANCH   5   8
ATOM      8  C   UNL A   1      32.631  21.589  25.041  1.00  0.00     0.052 A 
ATOM      9  C   UNL A   1      32.368  21.402  23.659  1.00  0.00     0.034 A 
ATOM     10  C   UNL A   1      32.359  20.078  23.142  1.00  0.00     0.053 A 
ATOM     11  C   UNL A   1      32.549  18.974  23.963  1.00  0.00     0.159 A 
ATOM     12  C   UNL A   1      32.831  20.436  25.842  1.00  0.00     0.056 A 
ATOM     13  F   UNL A   1      32.488  17.745  23.437  1.00  0.00    -0.204 F 
ATOM     14  C   UNL A   1      32.779  19.153  25.310  1.00  0.00     0.159 A 
ATOM     15  F   UNL A   1      32.935  18.095  26.118  1.00  0.00    -0.204 F 
BRANCH   9  16
ATOM     16  C   UNL A   1      32.056  22.513  22.674  1.00  0.00     0.319 C 
BRANCH  16  17
ATOM     17  N   UNL A   1      30.899  23.311  23.176  1.00  0.00    -0.344 N 
ATOM     18  H   UNL A   1      30.939  24.252  22.784  1.00  0.00     0.345 HD
ATOM     19  H   UNL A   1      30.939  23.364  24.194  1.00  0.00     0.345 HD
ATOM     20  H   UNL A   1      30.028  22.862  22.892  1.00  0.00     0.345 HD
ENDBRANCH  16  17
BRANCH  16  21
ATOM     21  C   UNL A   1      33.298  23.355  22.233  1.00  0.00     0.445 C 
ATOM     22  F   UNL A   1      34.452  22.760  22.602  1.00  0.00    -0.165 F 
ATOM     23  F   UNL A   1      33.326  23.489  20.884  1.00  0.00    -0.165 F 
ATOM     24  F   UNL A   1      33.274  24.598  22.763  1.00  0.00    -0.165 F 
ENDBRANCH  16  21
ENDBRANCH   9  16
ENDBRANCH   5   8
ENDBRANCH   3   4
ENDBRANCH   2   3
ENDBRANCH   1   2
BRANCH   1  25
ATOM     25  C   UNL A   1      36.320  20.641  24.931  1.00  0.00     0.002 C 
BRANCH  25  26
ATOM     26  C   UNL A   1      37.560  19.739  24.961  1.00  0.00     0.021 C 
BRANCH  26  27
ATOM     27  C   UNL A   1      38.821  20.388  25.526  1.00  0.00     0.116 C 
BRANCH  27  28
ATOM     28  N   UNL A   1      39.877  19.413  25.748  1.00  0.00    -0.352 N 
ATOM     29  C   UNL A   1      41.184  19.607  26.118  1.00  0.00     0.251 C 
ATOM     30  H   UNL A   1      39.615  18.473  25.612  1.00  0.00     0.163 HD
ATOM     31  O   UNL A   1      41.996  18.695  26.012  1.00  0.00    -0.269 OA
BRANCH  29  32
ATOM     32  C   UNL A   1      41.620  20.920  26.642  1.00  0.00     0.039 A 
ATOM     33  C   UNL A   1      42.106  21.877  25.747  1.00  0.00     0.014 A 
ATOM     34  C   UNL A   1      41.595  21.188  28.013  1.00  0.00     0.014 A 
ATOM     35  C   UNL A   1      42.522  23.123  26.223  1.00  0.00     0.010 A 
ATOM     36  C   UNL A   1      41.952  22.451  28.480  1.00  0.00     0.010 A 
ATOM     37  C   UNL A   1      42.427  23.427  27.591  1.00  0.00    -0.014 A 
BRANCH  37  38
ATOM     38  C   UNL A   1      42.828  24.757  28.112  1.00  0.00     0.031 A 
ATOM     39  C   UNL A   1      41.792  25.818  28.356  1.00  0.00     0.074 A 
ATOM     40  C   UNL A   1      44.132  25.033  28.302  1.00  0.00     0.049 A 
ATOM     41  N   UNL A   1      41.955  27.056  28.753  1.00  0.00    -0.248 NA
ATOM     42  C   UNL A   1      40.391  25.448  28.099  1.00  0.00     0.031 C 
ATOM     43  C   UNL A   1      45.239  24.104  28.063  1.00  0.00     0.029 A 
ATOM     44  N   UNL A   1      44.748  26.182  28.730  1.00  0.00    -0.354 N 
ATOM     45  C   UNL A   1      40.683  27.615  28.771  1.00  0.00     0.074 A 
ATOM     46  C   UNL A   1      39.766  26.598  28.304  1.00  0.00     0.031 C 
ATOM     47  C   UNL A   1      46.395  24.713  28.369  1.00  0.00     0.029 A 
ATOM     48  C   UNL A   1      46.117  26.082  28.789  1.00  0.00     0.049 A 
ATOM     49  H   UNL A   1      44.256  26.999  28.972  1.00  0.00     0.167 HD
ATOM     50  C   UNL A   1      40.308  28.860  29.155  1.00  0.00     0.031 A 
ATOM     51  C   UNL A   1      47.044  26.993  29.138  1.00  0.00     0.031 A 
ATOM     52  C   UNL A   1      41.218  29.869  29.629  1.00  0.00     0.049 A 
ATOM     53  C   UNL A   1      46.606  28.367  29.557  1.00  0.00     0.074 A 
ATOM     54  C   UNL A   1      40.929  31.137  30.101  1.00  0.00     0.029 A 
ATOM     55  N   UNL A   1      42.595  29.724  29.685  1.00  0.00    -0.354 N 
ATOM     56  N   UNL A   1      45.394  28.859  29.636  1.00  0.00    -0.248 NA
ATOM     57  C   UNL A   1      47.666  29.307  29.950  1.00  0.00     0.031 C 
ATOM     58  C   UNL A   1      42.138  31.777  30.399  1.00  0.00     0.029 A 
ATOM     59  C   UNL A   1      43.174  30.889  30.161  1.00  0.00     0.049 A 
ATOM     60  H   UNL A   1      43.089  28.913  29.425  1.00  0.00     0.167 HD
ATOM     61  C   UNL A   1      45.542  30.157  30.107  1.00  0.00     0.074 A 
ATOM     62  C   UNL A   1      46.961  30.370  30.311  1.00  0.00     0.031 C 
ATOM     63  C   UNL A   1      44.587  31.088  30.351  1.00  0.00     0.031 A 
BRANCH  50  64
ATOM     64  C   UNL A   1      38.847  29.198  29.062  1.00  0.00    -0.014 A 
ATOM     65  C   UNL A   1      37.988  29.031  30.162  1.00  0.00     0.009 A 
ATOM     66  C   UNL A   1      38.322  29.709  27.865  1.00  0.00     0.009 A 
ATOM     67  C   UNL A   1      36.628  29.328  30.049  1.00  0.00     0.001 A 
ATOM     68  C   UNL A   1      36.967  30.032  27.764  1.00  0.00     0.001 A 
ATOM     69  C   UNL A   1      36.120  29.830  28.853  1.00  0.00     0.000 A 
ENDBRANCH  50  64
BRANCH  51  70
ATOM     70  C   UNL A   1      48.482  26.623  29.123  1.00  0.00    -0.014 A 
ATOM     71  C   UNL A   1      49.090  26.092  30.271  1.00  0.00     0.009 A 
ATOM     72  C   UNL A   1      49.251  26.786  27.959  1.00  0.00     0.009 A 
ATOM     73  C   UNL A   1      50.443  25.748  30.259  1.00  0.00     0.001 A 
ATOM     74  C   UNL A   1      50.598  26.417  27.943  1.00  0.00     0.001 A 
ATOM     75  C   UNL A   1      51.195  25.905  29.095  1.00  0.00     0.000 A 
ENDBRANCH  51  70
BRANCH  63  76
ATOM     76  C   UNL A   1      45.045  32.413  30.892  1.00  0.00    -0.014 A 
ATOM     77  C   UNL A   1      45.349  33.482  30.036  1.00  0.00     0.009 A 
ATOM     78  C   UNL A   1      45.133  32.603  32.280  1.00  0.00     0.009 A 
ATOM     79  C   UNL A   1      45.764  34.708  30.560  1.00  0.00     0.001 A 
ATOM     80  C   UNL A   1      45.523  33.837  32.801  1.00  0.00     0.001 A 
ATOM     81  C   UNL A   1      45.846  34.886  31.941  1.00  0.00     0.000 A 
ENDBRANCH  63  76
ENDBRANCH  37  38
ENDBRANCH  29  32
ENDBRANCH  27  28
ENDBRANCH  26  27
ENDBRANCH  25  26
ENDBRANCH   1  25
TORSDOF 16
ENDMDL
