MODEL 1
REMARK VINA RESULT:      -9.1      0.000      0.000
REMARK SMILES COCC[NH2+]CC(=O)N1C[C@H](OC)C[C@@H]1C(=O)NCCCCCCNC(=O)c1ccc(-c2c3nc(c(-c4ccccc4)c4ccc([nH]4)c(-c4ccccc4)c4nc(c(-c5ccccc5)c5ccc2[nH]5)C=C4)C=C3)cc1
REMARK SMILES IDX 19 1 18 2 16 3 17 4 15 6 9 7 10 8 11 9 14 10 7 11 8 12 6 13
REMARK SMILES IDX 5 14 4 17 3 18 2 19 1 20 12 21 13 22 20 23 21 24 22 25 23 26
REMARK SMILES IDX 24 27 25 28 26 29 27 31 28 32 29 33 75 34 30 35 74 36 31 37
REMARK SMILES IDX 32 38 33 39 68 40 34 41 73 42 67 43 69 44 35 45 72 46 66 47
REMARK SMILES IDX 65 48 36 50 58 51 43 52 57 53 44 54 47 55 56 56 70 57 45 58
REMARK SMILES IDX 46 59 55 61 71 62 48 63 37 64 38 65 42 66 39 67 41 68 40 69
REMARK SMILES IDX 59 70 60 71 64 72 61 73 63 74 62 75 49 76 50 77 54 78 51 79
REMARK SMILES IDX 53 80 52 81
REMARK H PARENT 18 5 5 15 5 16 25 30 69 49 47 60
REMARK Flexibility Score: inf
ROOT
ATOM      1  C   UNL A   1      33.907  30.097  27.366  1.00  0.00     0.116 C 
ENDROOT
BRANCH   1   2
ATOM      2  N   UNL A   1      32.788  29.242  27.653  1.00  0.00    -0.354 N 
ATOM      3  C   UNL A   1      32.452  28.070  27.037  1.00  0.00     0.242 C 
ATOM      4  O   UNL A   1      31.452  27.484  27.466  1.00  0.00    -0.273 OA
ATOM      5  H   UNL A   1      32.193  29.536  28.380  1.00  0.00     0.163 HD
BRANCH   3   6
ATOM      6  C   UNL A   1      33.189  27.538  25.779  1.00  0.00     0.177 C 
ATOM      7  N   UNL A   1      32.462  27.430  24.505  1.00  0.00    -0.323 N 
ATOM      8  C   UNL A   1      33.193  26.440  23.727  1.00  0.00     0.152 C 
ATOM      9  C   UNL A   1      33.448  25.322  24.725  1.00  0.00     0.139 C 
ATOM     10  C   UNL A   1      33.801  26.125  25.996  1.00  0.00     0.069 C 
BRANCH   7  11
ATOM     11  C   UNL A   1      32.069  28.577  23.827  1.00  0.00     0.278 C 
ATOM     12  O   UNL A   1      32.879  29.367  23.346  1.00  0.00    -0.268 OA
BRANCH  11  13
ATOM     13  C   UNL A   1      30.543  28.761  23.680  1.00  0.00     0.362 C 
BRANCH  13  14
ATOM     14  N   UNL A   1      30.177  30.104  23.178  1.00  0.00    -0.337 N 
ATOM     15  H   UNL A   1      29.956  30.702  23.974  1.00  0.00     0.346 HD
ATOM     16  H   UNL A   1      30.971  30.465  22.648  1.00  0.00     0.346 HD
BRANCH  14  17
ATOM     17  C   UNL A   1      29.022  30.070  22.282  1.00  0.00     0.289 C 
BRANCH  17  18
ATOM     18  C   UNL A   1      27.739  30.744  22.792  1.00  0.00     0.221 C 
BRANCH  18  19
ATOM     19  O   UNL A   1      27.749  32.162  22.613  1.00  0.00    -0.379 OA
ATOM     20  C   UNL A   1      28.032  32.561  21.275  1.00  0.00     0.195 C 
ENDBRANCH  18  19
ENDBRANCH  17  18
ENDBRANCH  14  17
ENDBRANCH  13  14
ENDBRANCH  11  13
ENDBRANCH   7  11
BRANCH   9  21
ATOM     21  O   UNL A   1      32.369  24.422  25.024  1.00  0.00    -0.380 OA
ATOM     22  C   UNL A   1      32.160  24.053  26.381  1.00  0.00     0.195 C 
ENDBRANCH   9  21
ENDBRANCH   3   6
ENDBRANCH   1   2
BRANCH   1  23
ATOM     23  C   UNL A   1      33.646  31.581  27.597  1.00  0.00     0.021 C 
BRANCH  23  24
ATOM     24  C   UNL A   1      34.702  32.297  28.437  1.00  0.00     0.002 C 
BRANCH  24  25
ATOM     25  C   UNL A   1      34.659  33.828  28.385  1.00  0.00     0.002 C 
BRANCH  25  26
ATOM     26  C   UNL A   1      33.295  34.471  28.657  1.00  0.00     0.021 C 
BRANCH  26  27
ATOM     27  C   UNL A   1      33.340  35.901  29.185  1.00  0.00     0.116 C 
BRANCH  27  28
ATOM     28  N   UNL A   1      32.568  36.070  30.405  1.00  0.00    -0.352 N 
ATOM     29  C   UNL A   1      32.748  35.523  31.652  1.00  0.00     0.251 C 
ATOM     30  H   UNL A   1      31.793  36.672  30.326  1.00  0.00     0.163 HD
ATOM     31  O   UNL A   1      31.885  35.661  32.511  1.00  0.00    -0.269 OA
BRANCH  29  32
ATOM     32  C   UNL A   1      33.974  34.755  31.958  1.00  0.00     0.039 A 
ATOM     33  C   UNL A   1      35.200  35.428  31.986  1.00  0.00     0.014 A 
ATOM     34  C   UNL A   1      33.924  33.378  32.185  1.00  0.00     0.014 A 
ATOM     35  C   UNL A   1      36.369  34.728  32.291  1.00  0.00     0.010 A 
ATOM     36  C   UNL A   1      35.076  32.697  32.563  1.00  0.00     0.010 A 
ATOM     37  C   UNL A   1      36.312  33.361  32.609  1.00  0.00    -0.014 A 
BRANCH  37  38
ATOM     38  C   UNL A   1      37.532  32.599  32.969  1.00  0.00     0.031 A 
ATOM     39  C   UNL A   1      38.215  32.853  34.284  1.00  0.00     0.074 A 
ATOM     40  C   UNL A   1      38.066  31.731  32.089  1.00  0.00     0.049 A 
ATOM     41  N   UNL A   1      39.332  32.351  34.748  1.00  0.00    -0.248 NA
ATOM     42  C   UNL A   1      37.572  33.823  35.185  1.00  0.00     0.031 C 
ATOM     43  C   UNL A   1      37.512  31.408  30.773  1.00  0.00     0.029 A 
ATOM     44  N   UNL A   1      39.200  30.964  32.171  1.00  0.00    -0.354 N 
ATOM     45  C   UNL A   1      39.534  32.959  35.981  1.00  0.00     0.074 A 
ATOM     46  C   UNL A   1      38.456  33.907  36.165  1.00  0.00     0.031 C 
ATOM     47  C   UNL A   1      38.290  30.485  30.186  1.00  0.00     0.029 A 
ATOM     48  C   UNL A   1      39.419  30.187  31.061  1.00  0.00     0.049 A 
ATOM     49  H   UNL A   1      39.800  30.970  32.952  1.00  0.00     0.167 HD
ATOM     50  C   UNL A   1      40.515  32.737  36.888  1.00  0.00     0.031 A 
ATOM     51  C   UNL A   1      40.421  29.333  30.777  1.00  0.00     0.031 A 
ATOM     52  C   UNL A   1      41.586  31.794  36.703  1.00  0.00     0.049 A 
ATOM     53  C   UNL A   1      41.522  29.131  31.778  1.00  0.00     0.074 A 
ATOM     54  C   UNL A   1      42.604  31.460  37.579  1.00  0.00     0.029 A 
ATOM     55  N   UNL A   1      41.780  31.038  35.556  1.00  0.00    -0.354 N 
ATOM     56  N   UNL A   1      41.672  29.673  32.962  1.00  0.00    -0.248 NA
ATOM     57  C   UNL A   1      42.589  28.191  31.405  1.00  0.00     0.031 C 
ATOM     58  C   UNL A   1      43.446  30.544  36.939  1.00  0.00     0.029 A 
ATOM     59  C   UNL A   1      42.916  30.258  35.691  1.00  0.00     0.049 A 
ATOM     60  H   UNL A   1      41.195  31.052  34.764  1.00  0.00     0.167 HD
ATOM     61  C   UNL A   1      42.829  29.114  33.492  1.00  0.00     0.074 A 
ATOM     62  C   UNL A   1      43.337  28.188  32.500  1.00  0.00     0.031 C 
ATOM     63  C   UNL A   1      43.412  29.342  34.694  1.00  0.00     0.031 A 
BRANCH  50  64
ATOM     64  C   UNL A   1      40.478  33.556  38.150  1.00  0.00    -0.014 A 
ATOM     65  C   UNL A   1      41.184  34.767  38.258  1.00  0.00     0.009 A 
ATOM     66  C   UNL A   1      39.734  33.108  39.252  1.00  0.00     0.009 A 
ATOM     67  C   UNL A   1      41.194  35.478  39.460  1.00  0.00     0.001 A 
ATOM     68  C   UNL A   1      39.715  33.840  40.442  1.00  0.00     0.001 A 
ATOM     69  C   UNL A   1      40.458  35.015  40.550  1.00  0.00     0.000 A 
ENDBRANCH  50  64
BRANCH  51  70
ATOM     70  C   UNL A   1      40.405  28.578  29.497  1.00  0.00    -0.014 A 
ATOM     71  C   UNL A   1      39.776  27.326  29.424  1.00  0.00     0.009 A 
ATOM     72  C   UNL A   1      41.000  29.107  28.341  1.00  0.00     0.009 A 
ATOM     73  C   UNL A   1      39.756  26.611  28.224  1.00  0.00     0.001 A 
ATOM     74  C   UNL A   1      40.954  28.402  27.135  1.00  0.00     0.001 A 
ATOM     75  C   UNL A   1      40.339  27.153  27.080  1.00  0.00     0.000 A 
ENDBRANCH  51  70
BRANCH  63  76
ATOM     76  C   UNL A   1      44.643  28.545  35.026  1.00  0.00    -0.014 A 
ATOM     77  C   UNL A   1      44.560  27.283  35.633  1.00  0.00     0.009 A 
ATOM     78  C   UNL A   1      45.907  29.050  34.679  1.00  0.00     0.009 A 
ATOM     79  C   UNL A   1      45.720  26.557  35.913  1.00  0.00     0.001 A 
ATOM     80  C   UNL A   1      47.062  28.310  34.932  1.00  0.00     0.001 A 
ATOM     81  C   UNL A   1      46.968  27.068  35.557  1.00  0.00     0.000 A 
ENDBRANCH  63  76
ENDBRANCH  37  38
ENDBRANCH  29  32
ENDBRANCH  27  28
ENDBRANCH  26  27
ENDBRANCH  25  26
ENDBRANCH  24  25
ENDBRANCH  23  24
ENDBRANCH   1  23
TORSDOF 20
ENDMDL
MODEL 2
REMARK VINA RESULT:      -8.9      1.726      2.563
REMARK SMILES COCC[NH2+]CC(=O)N1C[C@H](OC)C[C@@H]1C(=O)NCCCCCCNC(=O)c1ccc(-c2c3nc(c(-c4ccccc4)c4ccc([nH]4)c(-c4ccccc4)c4nc(c(-c5ccccc5)c5ccc2[nH]5)C=C4)C=C3)cc1
REMARK SMILES IDX 19 1 18 2 16 3 17 4 15 6 9 7 10 8 11 9 14 10 7 11 8 12 6 13
REMARK SMILES IDX 5 14 4 17 3 18 2 19 1 20 12 21 13 22 20 23 21 24 22 25 23 26
REMARK SMILES IDX 24 27 25 28 26 29 27 31 28 32 29 33 75 34 30 35 74 36 31 37
REMARK SMILES IDX 32 38 33 39 68 40 34 41 73 42 67 43 69 44 35 45 72 46 66 47
REMARK SMILES IDX 65 48 36 50 58 51 43 52 57 53 44 54 47 55 56 56 70 57 45 58
REMARK SMILES IDX 46 59 55 61 71 62 48 63 37 64 38 65 42 66 39 67 41 68 40 69
REMARK SMILES IDX 59 70 60 71 64 72 61 73 63 74 62 75 49 76 50 77 54 78 51 79
REMARK SMILES IDX 53 80 52 81
REMARK H PARENT 18 5 5 15 5 16 25 30 69 49 47 60
REMARK Flexibility Score: inf
ROOT
ATOM      1  C   UNL A   1      32.841  28.735  25.910  1.00  0.00     0.116 C 
ENDROOT
BRANCH   1   2
ATOM      2  N   UNL A   1      33.640  29.156  24.792  1.00  0.00    -0.354 N 
ATOM      3  C   UNL A   1      33.829  28.506  23.607  1.00  0.00     0.242 C 
ATOM      4  O   UNL A   1      34.545  29.068  22.772  1.00  0.00    -0.273 OA
ATOM      5  H   UNL A   1      34.108  30.017  24.894  1.00  0.00     0.163 HD
BRANCH   3   6
ATOM      6  C   UNL A   1      33.291  27.074  23.337  1.00  0.00     0.177 C 
ATOM      7  N   UNL A   1      31.850  26.808  23.456  1.00  0.00    -0.323 N 
ATOM      8  C   UNL A   1      31.741  25.375  23.692  1.00  0.00     0.152 C 
ATOM      9  C   UNL A   1      32.806  25.106  24.744  1.00  0.00     0.139 C 
ATOM     10  C   UNL A   1      33.960  26.002  24.243  1.00  0.00     0.069 C 
BRANCH   7  11
ATOM     11  C   UNL A   1      30.961  27.348  22.535  1.00  0.00     0.278 C 
ATOM     12  O   UNL A   1      30.889  26.945  21.376  1.00  0.00    -0.268 OA
BRANCH  11  13
ATOM     13  C   UNL A   1      30.040  28.458  23.086  1.00  0.00     0.362 C 
BRANCH  13  14
ATOM     14  N   UNL A   1      30.412  29.803  22.594  1.00  0.00    -0.337 N 
ATOM     15  H   UNL A   1      30.638  30.393  23.395  1.00  0.00     0.346 HD
ATOM     16  H   UNL A   1      31.213  29.696  21.971  1.00  0.00     0.346 HD
BRANCH  14  17
ATOM     17  C   UNL A   1      29.337  30.437  21.833  1.00  0.00     0.289 C 
BRANCH  17  18
ATOM     18  C   UNL A   1      28.039  30.736  22.600  1.00  0.00     0.221 C 
BRANCH  18  19
ATOM     19  O   UNL A   1      27.722  32.129  22.630  1.00  0.00    -0.379 OA
ATOM     20  C   UNL A   1      28.831  32.954  22.973  1.00  0.00     0.195 C 
ENDBRANCH  18  19
ENDBRANCH  17  18
ENDBRANCH  14  17
ENDBRANCH  13  14
ENDBRANCH  11  13
ENDBRANCH   7  11
BRANCH   9  21
ATOM     21  O   UNL A   1      32.510  25.445  26.109  1.00  0.00    -0.380 OA
ATOM     22  C   UNL A   1      31.150  25.440  26.522  1.00  0.00     0.195 C 
ENDBRANCH   9  21
ENDBRANCH   3   6
ENDBRANCH   1   2
BRANCH   1  23
ATOM     23  C   UNL A   1      33.086  29.518  27.195  1.00  0.00     0.021 C 
BRANCH  23  24
ATOM     24  C   UNL A   1      34.546  29.884  27.458  1.00  0.00     0.002 C 
BRANCH  24  25
ATOM     25  C   UNL A   1      34.805  31.354  27.806  1.00  0.00     0.002 C 
BRANCH  25  26
ATOM     26  C   UNL A   1      33.582  32.276  27.770  1.00  0.00     0.021 C 
BRANCH  26  27
ATOM     27  C   UNL A   1      33.890  33.771  27.786  1.00  0.00     0.116 C 
BRANCH  27  28
ATOM     28  N   UNL A   1      33.406  34.426  28.990  1.00  0.00    -0.352 N 
ATOM     29  C   UNL A   1      33.825  34.312  30.292  1.00  0.00     0.251 C 
ATOM     30  H   UNL A   1      32.659  35.052  28.849  1.00  0.00     0.163 HD
ATOM     31  O   UNL A   1      33.173  34.829  31.192  1.00  0.00    -0.269 OA
BRANCH  29  32
ATOM     32  C   UNL A   1      35.053  33.555  30.616  1.00  0.00     0.039 A 
ATOM     33  C   UNL A   1      34.950  32.429  31.439  1.00  0.00     0.014 A 
ATOM     34  C   UNL A   1      36.300  33.968  30.144  1.00  0.00     0.014 A 
ATOM     35  C   UNL A   1      36.094  31.687  31.744  1.00  0.00     0.010 A 
ATOM     36  C   UNL A   1      37.425  33.186  30.385  1.00  0.00     0.010 A 
ATOM     37  C   UNL A   1      37.336  32.045  31.197  1.00  0.00    -0.014 A 
BRANCH  37  38
ATOM     38  C   UNL A   1      38.561  31.257  31.478  1.00  0.00     0.031 A 
ATOM     39  C   UNL A   1      39.449  31.635  32.631  1.00  0.00     0.074 A 
ATOM     40  C   UNL A   1      38.913  30.248  30.659  1.00  0.00     0.049 A 
ATOM     41  N   UNL A   1      40.599  31.124  32.992  1.00  0.00    -0.248 NA
ATOM     42  C   UNL A   1      38.997  32.754  33.473  1.00  0.00     0.031 C 
ATOM     43  C   UNL A   1      38.149  29.794  29.496  1.00  0.00     0.029 A 
ATOM     44  N   UNL A   1      40.010  29.425  30.680  1.00  0.00    -0.354 N 
ATOM     45  C   UNL A   1      41.016  31.873  34.085  1.00  0.00     0.074 A 
ATOM     46  C   UNL A   1      40.024  32.907  34.292  1.00  0.00     0.031 C 
ATOM     47  C   UNL A   1      38.785  28.752  28.935  1.00  0.00     0.029 A 
ATOM     48  C   UNL A   1      40.020  28.497  29.668  1.00  0.00     0.049 A 
ATOM     49  H   UNL A   1      40.722  29.493  31.357  1.00  0.00     0.167 HD
ATOM     50  C   UNL A   1      42.114  31.707  34.862  1.00  0.00     0.031 A 
ATOM     51  C   UNL A   1      40.926  27.549  29.362  1.00  0.00     0.031 A 
ATOM     52  C   UNL A   1      43.099  30.679  34.655  1.00  0.00     0.049 A 
ATOM     53  C   UNL A   1      42.158  27.406  30.211  1.00  0.00     0.074 A 
ATOM     54  C   UNL A   1      44.223  30.395  35.411  1.00  0.00     0.029 A 
ATOM     55  N   UNL A   1      43.079  29.768  33.609  1.00  0.00    -0.354 N 
ATOM     56  N   UNL A   1      42.512  28.087  31.274  1.00  0.00    -0.248 NA
ATOM     57  C   UNL A   1      43.110  26.357  29.820  1.00  0.00     0.031 C 
ATOM     58  C   UNL A   1      44.914  29.350  34.789  1.00  0.00     0.029 A 
ATOM     59  C   UNL A   1      44.186  28.940  33.683  1.00  0.00     0.049 A 
ATOM     60  H   UNL A   1      42.381  29.718  32.916  1.00  0.00     0.167 HD
ATOM     61  C   UNL A   1      43.709  27.527  31.701  1.00  0.00     0.074 A 
ATOM     62  C   UNL A   1      44.016  26.447  30.784  1.00  0.00     0.031 C 
ATOM     63  C   UNL A   1      44.480  27.871  32.762  1.00  0.00     0.031 A 
BRANCH  50  64
ATOM     64  C   UNL A   1      42.309  32.685  35.990  1.00  0.00    -0.014 A 
ATOM     65  C   UNL A   1      43.074  33.852  35.822  1.00  0.00     0.009 A 
ATOM     66  C   UNL A   1      41.726  32.432  37.241  1.00  0.00     0.009 A 
ATOM     67  C   UNL A   1      43.301  34.711  36.900  1.00  0.00     0.001 A 
ATOM     68  C   UNL A   1      41.924  33.313  38.307  1.00  0.00     0.001 A 
ATOM     69  C   UNL A   1      42.725  34.442  38.141  1.00  0.00     0.000 A 
ENDBRANCH  50  64
BRANCH  51  70
ATOM     70  C   UNL A   1      40.679  26.636  28.216  1.00  0.00    -0.014 A 
ATOM     71  C   UNL A   1      39.911  25.475  28.392  1.00  0.00     0.009 A 
ATOM     72  C   UNL A   1      41.192  26.924  26.942  1.00  0.00     0.009 A 
ATOM     73  C   UNL A   1      39.673  24.613  27.318  1.00  0.00     0.001 A 
ATOM     74  C   UNL A   1      40.929  26.075  25.864  1.00  0.00     0.001 A 
ATOM     75  C   UNL A   1      40.177  24.918  26.055  1.00  0.00     0.000 A 
ENDBRANCH  51  70
BRANCH  63  76
ATOM     76  C   UNL A   1      45.710  27.044  33.018  1.00  0.00    -0.014 A 
ATOM     77  C   UNL A   1      45.663  25.879  33.797  1.00  0.00     0.009 A 
ATOM     78  C   UNL A   1      46.928  27.416  32.426  1.00  0.00     0.009 A 
ATOM     79  C   UNL A   1      46.817  25.120  34.004  1.00  0.00     0.001 A 
ATOM     80  C   UNL A   1      48.073  26.640  32.608  1.00  0.00     0.001 A 
ATOM     81  C   UNL A   1      48.019  25.498  33.404  1.00  0.00     0.000 A 
ENDBRANCH  63  76
ENDBRANCH  37  38
ENDBRANCH  29  32
ENDBRANCH  27  28
ENDBRANCH  26  27
ENDBRANCH  25  26
ENDBRANCH  24  25
ENDBRANCH  23  24
ENDBRANCH   1  23
TORSDOF 20
ENDMDL
MODEL 3
REMARK VINA RESULT:      -8.5      7.442     12.296
REMARK SMILES COCC[NH2+]CC(=O)N1C[C@H](OC)C[C@@H]1C(=O)NCCCCCCNC(=O)c1ccc(-c2c3nc(c(-c4ccccc4)c4ccc([nH]4)c(-c4ccccc4)c4nc(c(-c5ccccc5)c5ccc2[nH]5)C=C4)C=C3)cc1
REMARK SMILES IDX 19 1 18 2 16 3 17 4 15 6 9 7 10 8 11 9 14 10 7 11 8 12 6 13
REMARK SMILES IDX 5 14 4 17 3 18 2 19 1 20 12 21 13 22 20 23 21 24 22 25 23 26
REMARK SMILES IDX 24 27 25 28 26 29 27 31 28 32 29 33 75 34 30 35 74 36 31 37
REMARK SMILES IDX 32 38 33 39 68 40 34 41 73 42 67 43 69 44 35 45 72 46 66 47
REMARK SMILES IDX 65 48 36 50 58 51 43 52 57 53 44 54 47 55 56 56 70 57 45 58
REMARK SMILES IDX 46 59 55 61 71 62 48 63 37 64 38 65 42 66 39 67 41 68 40 69
REMARK SMILES IDX 59 70 60 71 64 72 61 73 63 74 62 75 49 76 50 77 54 78 51 79
REMARK SMILES IDX 53 80 52 81
REMARK H PARENT 18 5 5 15 5 16 25 30 69 49 47 60
REMARK Flexibility Score: inf
ROOT
ATOM      1  C   UNL A   1      39.475  30.163  29.240  1.00  0.00     0.116 C 
ENDROOT
BRANCH   1   2
ATOM      2  N   UNL A   1      38.429  29.610  30.055  1.00  0.00    -0.354 N 
ATOM      3  C   UNL A   1      37.090  29.866  29.984  1.00  0.00     0.242 C 
ATOM      4  O   UNL A   1      36.365  29.255  30.776  1.00  0.00    -0.273 OA
ATOM      5  H   UNL A   1      38.713  28.970  30.748  1.00  0.00     0.163 HD
BRANCH   3   6
ATOM      6  C   UNL A   1      36.488  30.955  29.057  1.00  0.00     0.177 C 
ATOM      7  N   UNL A   1      35.360  31.770  29.533  1.00  0.00    -0.323 N 
ATOM      8  C   UNL A   1      34.703  32.259  28.330  1.00  0.00     0.152 C 
ATOM      9  C   UNL A   1      34.623  31.027  27.442  1.00  0.00     0.139 C 
ATOM     10  C   UNL A   1      36.004  30.383  27.695  1.00  0.00     0.069 C 
BRANCH   7  11
ATOM     11  C   UNL A   1      35.549  32.697  30.551  1.00  0.00     0.278 C 
ATOM     12  O   UNL A   1      36.095  33.781  30.360  1.00  0.00    -0.268 OA
BRANCH  11  13
ATOM     13  C   UNL A   1      34.981  32.285  31.926  1.00  0.00     0.362 C 
BRANCH  13  14
ATOM     14  N   UNL A   1      34.013  33.269  32.460  1.00  0.00    -0.337 N 
ATOM     15  H   UNL A   1      33.665  33.838  31.688  1.00  0.00     0.346 HD
ATOM     16  H   UNL A   1      33.259  32.750  32.911  1.00  0.00     0.346 HD
BRANCH  14  17
ATOM     17  C   UNL A   1      34.608  34.151  33.463  1.00  0.00     0.289 C 
BRANCH  17  18
ATOM     18  C   UNL A   1      34.417  35.661  33.247  1.00  0.00     0.221 C 
BRANCH  18  19
ATOM     19  O   UNL A   1      33.789  35.967  32.000  1.00  0.00    -0.379 OA
ATOM     20  C   UNL A   1      33.445  37.342  31.863  1.00  0.00     0.195 C 
ENDBRANCH  18  19
ENDBRANCH  17  18
ENDBRANCH  14  17
ENDBRANCH  13  14
ENDBRANCH  11  13
ENDBRANCH   7  11
BRANCH   9  21
ATOM     21  O   UNL A   1      33.598  30.059  27.717  1.00  0.00    -0.380 OA
ATOM     22  C   UNL A   1      33.780  28.734  27.237  1.00  0.00     0.195 C 
ENDBRANCH   9  21
ENDBRANCH   3   6
ENDBRANCH   1   2
BRANCH   1  23
ATOM     23  C   UNL A   1      40.376  29.129  28.575  1.00  0.00     0.021 C 
BRANCH  23  24
ATOM     24  C   UNL A   1      39.653  28.135  27.667  1.00  0.00     0.002 C 
BRANCH  24  25
ATOM     25  C   UNL A   1      40.551  27.108  26.967  1.00  0.00     0.002 C 
BRANCH  25  26
ATOM     26  C   UNL A   1      40.008  25.677  26.900  1.00  0.00     0.021 C 
BRANCH  26  27
ATOM     27  C   UNL A   1      40.463  24.752  28.025  1.00  0.00     0.116 C 
BRANCH  27  28
ATOM     28  N   UNL A   1      41.157  23.574  27.531  1.00  0.00    -0.352 N 
ATOM     29  C   UNL A   1      42.365  23.460  26.891  1.00  0.00     0.251 C 
ATOM     30  H   UNL A   1      40.686  22.723  27.681  1.00  0.00     0.163 HD
ATOM     31  O   UNL A   1      42.700  22.386  26.404  1.00  0.00    -0.269 OA
BRANCH  29  32
ATOM     32  C   UNL A   1      43.260  24.630  26.771  1.00  0.00     0.039 A 
ATOM     33  C   UNL A   1      43.889  25.116  27.922  1.00  0.00     0.014 A 
ATOM     34  C   UNL A   1      43.453  25.268  25.544  1.00  0.00     0.014 A 
ATOM     35  C   UNL A   1      44.753  26.210  27.832  1.00  0.00     0.010 A 
ATOM     36  C   UNL A   1      44.371  26.308  25.442  1.00  0.00     0.010 A 
ATOM     37  C   UNL A   1      45.021  26.797  26.585  1.00  0.00    -0.014 A 
BRANCH  37  38
ATOM     38  C   UNL A   1      45.959  27.940  26.454  1.00  0.00     0.031 A 
ATOM     39  C   UNL A   1      47.428  27.685  26.261  1.00  0.00     0.074 A 
ATOM     40  C   UNL A   1      45.504  29.200  26.577  1.00  0.00     0.049 A 
ATOM     41  N   UNL A   1      48.417  28.543  26.205  1.00  0.00    -0.248 NA
ATOM     42  C   UNL A   1      47.845  26.279  26.144  1.00  0.00     0.031 C 
ATOM     43  C   UNL A   1      44.105  29.581  26.785  1.00  0.00     0.029 A 
ATOM     44  N   UNL A   1      46.174  30.396  26.548  1.00  0.00    -0.354 N 
ATOM     45  C   UNL A   1      49.569  27.779  26.069  1.00  0.00     0.074 A 
ATOM     46  C   UNL A   1      49.163  26.390  26.109  1.00  0.00     0.031 C 
ATOM     47  C   UNL A   1      44.019  30.920  26.832  1.00  0.00     0.029 A 
ATOM     48  C   UNL A   1      45.357  31.488  26.706  1.00  0.00     0.049 A 
ATOM     49  H   UNL A   1      47.149  30.465  26.427  1.00  0.00     0.167 HD
ATOM     50  C   UNL A   1      50.849  28.192  25.907  1.00  0.00     0.031 A 
ATOM     51  C   UNL A   1      45.653  32.801  26.747  1.00  0.00     0.031 A 
ATOM     52  C   UNL A   1      51.251  29.573  25.868  1.00  0.00     0.049 A 
ATOM     53  C   UNL A   1      47.083  33.238  26.606  1.00  0.00     0.074 A 
ATOM     54  C   UNL A   1      52.514  30.099  25.661  1.00  0.00     0.029 A 
ATOM     55  N   UNL A   1      50.393  30.649  26.046  1.00  0.00    -0.354 N 
ATOM     56  N   UNL A   1      48.157  32.508  26.425  1.00  0.00    -0.248 NA
ATOM     57  C   UNL A   1      47.341  34.684  26.668  1.00  0.00     0.031 C 
ATOM     58  C   UNL A   1      52.431  31.491  25.772  1.00  0.00     0.029 A 
ATOM     59  C   UNL A   1      51.104  31.835  25.982  1.00  0.00     0.049 A 
ATOM     60  H   UNL A   1      49.423  30.578  26.195  1.00  0.00     0.167 HD
ATOM     61  C   UNL A   1      49.212  33.404  26.315  1.00  0.00     0.074 A 
ATOM     62  C   UNL A   1      48.647  34.732  26.444  1.00  0.00     0.031 C 
ATOM     63  C   UNL A   1      50.529  33.150  26.116  1.00  0.00     0.031 A 
BRANCH  50  64
ATOM     64  C   UNL A   1      51.903  27.124  25.787  1.00  0.00    -0.014 A 
ATOM     65  C   UNL A   1      52.260  26.586  24.539  1.00  0.00     0.009 A 
ATOM     66  C   UNL A   1      52.544  26.642  26.939  1.00  0.00     0.009 A 
ATOM     67  C   UNL A   1      53.191  25.547  24.454  1.00  0.00     0.001 A 
ATOM     68  C   UNL A   1      53.501  25.629  26.847  1.00  0.00     0.001 A 
ATOM     69  C   UNL A   1      53.811  25.071  25.608  1.00  0.00     0.000 A 
ENDBRANCH  50  64
BRANCH  51  70
ATOM     70  C   UNL A   1      44.562  33.799  26.896  1.00  0.00    -0.014 A 
ATOM     71  C   UNL A   1      43.922  34.319  25.760  1.00  0.00     0.009 A 
ATOM     72  C   UNL A   1      44.142  34.223  28.166  1.00  0.00     0.009 A 
ATOM     73  C   UNL A   1      42.894  35.255  25.893  1.00  0.00     0.001 A 
ATOM     74  C   UNL A   1      43.094  35.139  28.296  1.00  0.00     0.001 A 
ATOM     75  C   UNL A   1      42.477  35.659  27.160  1.00  0.00     0.000 A 
ENDBRANCH  51  70
BRANCH  63  76
ATOM     76  C   UNL A   1      51.447  34.333  25.980  1.00  0.00    -0.014 A 
ATOM     77  C   UNL A   1      51.668  34.954  24.742  1.00  0.00     0.009 A 
ATOM     78  C   UNL A   1      52.063  34.863  27.125  1.00  0.00     0.009 A 
ATOM     79  C   UNL A   1      52.512  36.063  24.649  1.00  0.00     0.001 A 
ATOM     80  C   UNL A   1      52.881  35.990  27.035  1.00  0.00     0.001 A 
ATOM     81  C   UNL A   1      53.112  36.584  25.796  1.00  0.00     0.000 A 
ENDBRANCH  63  76
ENDBRANCH  37  38
ENDBRANCH  29  32
ENDBRANCH  27  28
ENDBRANCH  26  27
ENDBRANCH  25  26
ENDBRANCH  24  25
ENDBRANCH  23  24
ENDBRANCH   1  23
TORSDOF 20
ENDMDL
