MODEL 1
REMARK VINA RESULT:     -11.0      0.000      0.000
REMARK SMILES CC(C)(C)OC(=O)Nc1ccc(-c2cccc(Cl)c2C(=O)NCCCCCCNC(=O)c2ccc(-c3c4nc(c(-c5ccccc5)c5ccc([nH]5)c(-c5ccccc5)c5nc(c(-c6ccccc6)c6ccc3[nH]6)C=C5)C=C4)cc2)cc1
REMARK SMILES IDX 24 1 23 2 22 3 20 4 21 5 19 7 13 8 14 9 15 10 17 11 16 12
REMARK SMILES IDX 18 13 12 14 9 15 10 16 81 17 11 18 80 19 8 20 6 21 7 22 5 24
REMARK SMILES IDX 2 25 1 26 3 27 4 28 25 29 26 30 27 31 28 32 29 33 30 34
REMARK SMILES IDX 31 36 32 37 33 38 79 39 34 40 78 41 35 42 36 43 37 44 72 45
REMARK SMILES IDX 38 46 77 47 71 48 73 49 39 50 76 51 70 52 69 53 40 55 62 56
REMARK SMILES IDX 47 57 61 58 48 59 51 60 60 61 74 62 49 63 50 64 59 66 75 67
REMARK SMILES IDX 52 68 41 69 42 70 46 71 43 72 45 73 44 74 63 75 64 76 68 77
REMARK SMILES IDX 65 78 67 79 66 80 53 81 54 82 58 83 55 84 57 85 56 86
REMARK H PARENT 22 6 8 23 29 35 73 54 51 65
REMARK Flexibility Score: inf
ROOT
ATOM      1  C   UNL A   1      36.513  22.525  25.024  1.00  0.00     0.021 C 
ENDROOT
BRANCH   1   2
ATOM      2  C   UNL A   1      35.498  21.712  25.818  1.00  0.00     0.116 C 
BRANCH   2   3
ATOM      3  N   UNL A   1      34.247  22.320  26.180  1.00  0.00    -0.352 N 
ATOM      4  C   UNL A   1      32.965  21.905  25.858  1.00  0.00     0.253 C 
ATOM      5  O   UNL A   1      32.098  22.160  26.700  1.00  0.00    -0.269 OA
ATOM      6  H   UNL A   1      34.308  23.135  26.729  1.00  0.00     0.163 HD
BRANCH   4   7
ATOM      7  C   UNL A   1      32.517  21.245  24.574  1.00  0.00     0.066 A 
ATOM      8  C   UNL A   1      32.170  21.888  23.352  1.00  0.00    -0.004 A 
ATOM      9  C   UNL A   1      31.991  21.101  22.180  1.00  0.00     0.009 A 
ATOM     10  C   UNL A   1      32.139  19.723  22.178  1.00  0.00     0.002 A 
ATOM     11  C   UNL A   1      32.614  19.824  24.550  1.00  0.00     0.054 A 
ATOM     12  C   UNL A   1      32.439  19.084  23.366  1.00  0.00     0.021 A 
ATOM     13  Cl  UNL A   1      32.878  18.851  25.967  1.00  0.00    -0.083 Cl
BRANCH   8  14
ATOM     14  C   UNL A   1      31.923  23.319  23.149  1.00  0.00    -0.017 A 
ATOM     15  C   UNL A   1      31.421  26.099  22.962  1.00  0.00     0.044 A 
ATOM     16  C   UNL A   1      30.431  25.234  23.436  1.00  0.00     0.027 A 
ATOM     17  C   UNL A   1      32.621  25.550  22.500  1.00  0.00     0.027 A 
ATOM     18  C   UNL A   1      30.672  23.861  23.510  1.00  0.00     0.011 A 
ATOM     19  C   UNL A   1      32.873  24.173  22.592  1.00  0.00     0.011 A 
BRANCH  15  20
ATOM     20  N   UNL A   1      31.134  27.474  23.046  1.00  0.00    -0.291 N 
ATOM     21  C   UNL A   1      31.035  28.322  24.116  1.00  0.00     0.412 C 
ATOM     22  O   UNL A   1      30.686  29.484  23.938  1.00  0.00    -0.224 OA
ATOM     23  H   UNL A   1      30.977  27.905  22.175  1.00  0.00     0.173 HD
BRANCH  21  24
ATOM     24  O   UNL A   1      31.331  27.775  25.309  1.00  0.00    -0.444 OA
BRANCH  24  25
ATOM     25  C   UNL A   1      32.639  27.882  25.929  1.00  0.00     0.106 C 
ATOM     26  C   UNL A   1      33.049  26.420  26.149  1.00  0.00     0.056 C 
ATOM     27  C   UNL A   1      32.526  28.587  27.280  1.00  0.00     0.056 C 
ATOM     28  C   UNL A   1      33.686  28.563  25.044  1.00  0.00     0.056 C 
ENDBRANCH  24  25
ENDBRANCH  21  24
ENDBRANCH  15  20
ENDBRANCH   8  14
ENDBRANCH   4   7
ENDBRANCH   2   3
ENDBRANCH   1   2
BRANCH   1  29
ATOM     29  C   UNL A   1      37.721  23.126  25.746  1.00  0.00     0.002 C 
BRANCH  29  30
ATOM     30  C   UNL A   1      38.869  22.200  26.166  1.00  0.00     0.002 C 
BRANCH  30  31
ATOM     31  C   UNL A   1      39.071  20.900  25.384  1.00  0.00     0.021 C 
BRANCH  31  32
ATOM     32  C   UNL A   1      39.369  19.625  26.173  1.00  0.00     0.116 C 
BRANCH  32  33
ATOM     33  N   UNL A   1      40.676  19.070  25.872  1.00  0.00    -0.352 N 
ATOM     34  C   UNL A   1      41.930  19.635  25.865  1.00  0.00     0.251 C 
ATOM     35  H   UNL A   1      40.663  18.116  25.629  1.00  0.00     0.163 HD
ATOM     36  O   UNL A   1      42.858  18.972  25.398  1.00  0.00    -0.269 OA
BRANCH  34  37
ATOM     37  C   UNL A   1      42.224  21.001  26.384  1.00  0.00     0.039 A 
ATOM     38  C   UNL A   1      42.058  21.226  27.759  1.00  0.00     0.014 A 
ATOM     39  C   UNL A   1      42.545  22.085  25.564  1.00  0.00     0.014 A 
ATOM     40  C   UNL A   1      42.248  22.502  28.308  1.00  0.00     0.010 A 
ATOM     41  C   UNL A   1      42.796  23.351  26.123  1.00  0.00     0.010 A 
ATOM     42  C   UNL A   1      42.645  23.579  27.501  1.00  0.00    -0.014 A 
BRANCH  42  43
ATOM     43  C   UNL A   1      42.885  24.931  28.095  1.00  0.00     0.031 A 
ATOM     44  C   UNL A   1      44.263  25.349  28.546  1.00  0.00     0.074 A 
ATOM     45  C   UNL A   1      41.865  25.805  28.237  1.00  0.00     0.049 A 
ATOM     46  N   UNL A   1      44.649  26.480  29.088  1.00  0.00    -0.248 NA
ATOM     47  C   UNL A   1      45.345  24.368  28.379  1.00  0.00     0.031 C 
ATOM     48  C   UNL A   1      40.475  25.546  27.864  1.00  0.00     0.029 A 
ATOM     49  N   UNL A   1      41.837  27.090  28.730  1.00  0.00    -0.354 N 
ATOM     50  C   UNL A   1      46.012  26.343  29.329  1.00  0.00     0.074 A 
ATOM     51  C   UNL A   1      46.375  25.003  28.921  1.00  0.00     0.031 C 
ATOM     52  C   UNL A   1      39.738  26.641  28.108  1.00  0.00     0.029 A 
ATOM     53  C   UNL A   1      40.590  27.668  28.701  1.00  0.00     0.049 A 
ATOM     54  H   UNL A   1      42.637  27.552  29.071  1.00  0.00     0.167 HD
ATOM     55  C   UNL A   1      46.888  27.250  29.828  1.00  0.00     0.031 A 
ATOM     56  C   UNL A   1      40.168  28.879  29.116  1.00  0.00     0.031 A 
ATOM     57  C   UNL A   1      46.545  28.588  30.234  1.00  0.00     0.049 A 
ATOM     58  C   UNL A   1      41.155  29.848  29.714  1.00  0.00     0.074 A 
ATOM     59  C   UNL A   1      47.381  29.582  30.717  1.00  0.00     0.029 A 
ATOM     60  N   UNL A   1      45.266  29.122  30.210  1.00  0.00    -0.354 N 
ATOM     61  N   UNL A   1      42.447  29.715  29.882  1.00  0.00    -0.248 NA
ATOM     62  C   UNL A   1      40.620  31.141  30.171  1.00  0.00     0.031 C 
ATOM     63  C   UNL A   1      46.600  30.697  31.040  1.00  0.00     0.029 A 
ATOM     64  C   UNL A   1      45.289  30.421  30.695  1.00  0.00     0.049 A 
ATOM     65  H   UNL A   1      44.462  28.650  29.894  1.00  0.00     0.167 HD
ATOM     66  C   UNL A   1      42.882  30.916  30.431  1.00  0.00     0.074 A 
ATOM     67  C   UNL A   1      41.722  31.772  30.549  1.00  0.00     0.031 C 
ATOM     68  C   UNL A   1      44.134  31.274  30.805  1.00  0.00     0.031 A 
BRANCH  55  69
ATOM     69  C   UNL A   1      48.326  26.826  29.969  1.00  0.00    -0.014 A 
ATOM     70  C   UNL A   1      49.262  27.086  28.955  1.00  0.00     0.009 A 
ATOM     71  C   UNL A   1      48.764  26.225  31.159  1.00  0.00     0.009 A 
ATOM     72  C   UNL A   1      50.601  26.725  29.121  1.00  0.00     0.001 A 
ATOM     73  C   UNL A   1      50.110  25.892  31.333  1.00  0.00     0.001 A 
ATOM     74  C   UNL A   1      51.025  26.135  30.311  1.00  0.00     0.000 A 
ENDBRANCH  55  69
BRANCH  56  75
ATOM     75  C   UNL A   1      38.732  29.260  29.001  1.00  0.00    -0.014 A 
ATOM     76  C   UNL A   1      37.861  29.113  30.093  1.00  0.00     0.009 A 
ATOM     77  C   UNL A   1      38.214  29.722  27.781  1.00  0.00     0.009 A 
ATOM     78  C   UNL A   1      36.496  29.379  29.952  1.00  0.00     0.001 A 
ATOM     79  C   UNL A   1      36.856  30.022  27.653  1.00  0.00     0.001 A 
ATOM     80  C   UNL A   1      35.997  29.836  28.733  1.00  0.00     0.000 A 
ENDBRANCH  56  75
BRANCH  68  81
ATOM     81  C   UNL A   1      44.330  32.670  31.333  1.00  0.00    -0.014 A 
ATOM     82  C   UNL A   1      44.600  33.748  30.476  1.00  0.00     0.009 A 
ATOM     83  C   UNL A   1      44.208  32.914  32.711  1.00  0.00     0.009 A 
ATOM     84  C   UNL A   1      44.781  35.033  30.992  1.00  0.00     0.001 A 
ATOM     85  C   UNL A   1      44.357  34.205  33.220  1.00  0.00     0.001 A 
ATOM     86  C   UNL A   1      44.653  35.262  32.361  1.00  0.00     0.000 A 
ENDBRANCH  68  81
ENDBRANCH  42  43
ENDBRANCH  34  37
ENDBRANCH  32  33
ENDBRANCH  31  32
ENDBRANCH  30  31
ENDBRANCH  29  30
ENDBRANCH   1  29
TORSDOF 17
ENDMDL
MODEL 2
REMARK VINA RESULT:     -10.7      1.093      5.780
REMARK SMILES CC(C)(C)OC(=O)Nc1ccc(-c2cccc(Cl)c2C(=O)NCCCCCCNC(=O)c2ccc(-c3c4nc(c(-c5ccccc5)c5ccc([nH]5)c(-c5ccccc5)c5nc(c(-c6ccccc6)c6ccc3[nH]6)C=C5)C=C4)cc2)cc1
REMARK SMILES IDX 24 1 23 2 22 3 20 4 21 5 19 7 13 8 14 9 15 10 17 11 16 12
REMARK SMILES IDX 18 13 12 14 9 15 10 16 81 17 11 18 80 19 8 20 6 21 7 22 5 24
REMARK SMILES IDX 2 25 1 26 3 27 4 28 25 29 26 30 27 31 28 32 29 33 30 34
REMARK SMILES IDX 31 36 32 37 33 38 79 39 34 40 78 41 35 42 36 43 37 44 72 45
REMARK SMILES IDX 38 46 77 47 71 48 73 49 39 50 76 51 70 52 69 53 40 55 62 56
REMARK SMILES IDX 47 57 61 58 48 59 51 60 60 61 74 62 49 63 50 64 59 66 75 67
REMARK SMILES IDX 52 68 41 69 42 70 46 71 43 72 45 73 44 74 63 75 64 76 68 77
REMARK SMILES IDX 65 78 67 79 66 80 53 81 54 82 58 83 55 84 57 85 56 86
REMARK H PARENT 22 6 8 23 29 35 73 54 51 65
REMARK Flexibility Score: inf
ROOT
ATOM      1  C   UNL A   1      36.916  22.091  24.801  1.00  0.00     0.021 C 
ENDROOT
BRANCH   1   2
ATOM      2  C   UNL A   1      35.806  21.202  25.345  1.00  0.00     0.116 C 
BRANCH   2   3
ATOM      3  N   UNL A   1      34.592  21.812  25.818  1.00  0.00    -0.352 N 
ATOM      4  C   UNL A   1      33.288  21.384  25.635  1.00  0.00     0.253 C 
ATOM      5  O   UNL A   1      32.507  21.653  26.553  1.00  0.00    -0.269 OA
ATOM      6  H   UNL A   1      34.702  22.639  26.340  1.00  0.00     0.163 HD
BRANCH   4   7
ATOM      7  C   UNL A   1      32.719  20.693  24.416  1.00  0.00     0.066 A 
ATOM      8  C   UNL A   1      32.351  21.295  23.179  1.00  0.00    -0.004 A 
ATOM      9  C   UNL A   1      32.047  20.463  22.066  1.00  0.00     0.009 A 
ATOM     10  C   UNL A   1      32.091  19.079  22.136  1.00  0.00     0.002 A 
ATOM     11  C   UNL A   1      32.706  19.269  24.469  1.00  0.00     0.054 A 
ATOM     12  C   UNL A   1      32.409  18.483  23.341  1.00  0.00     0.021 A 
ATOM     13  Cl  UNL A   1      32.978  18.356  25.924  1.00  0.00    -0.083 Cl
BRANCH   8  14
ATOM     14  C   UNL A   1      32.201  22.728  22.907  1.00  0.00    -0.017 A 
ATOM     15  C   UNL A   1      31.916  25.526  22.587  1.00  0.00     0.044 A 
ATOM     16  C   UNL A   1      30.933  24.789  23.251  1.00  0.00     0.027 A 
ATOM     17  C   UNL A   1      32.989  24.840  22.010  1.00  0.00     0.027 A 
ATOM     18  C   UNL A   1      31.064  23.406  23.392  1.00  0.00     0.011 A 
ATOM     19  C   UNL A   1      33.134  23.453  22.167  1.00  0.00     0.011 A 
BRANCH  15  20
ATOM     20  N   UNL A   1      31.763  26.925  22.608  1.00  0.00    -0.291 N 
ATOM     21  C   UNL A   1      32.343  27.896  23.380  1.00  0.00     0.412 C 
ATOM     22  O   UNL A   1      31.978  29.061  23.265  1.00  0.00    -0.224 OA
ATOM     23  H   UNL A   1      31.121  27.269  21.946  1.00  0.00     0.173 HD
BRANCH  21  24
ATOM     24  O   UNL A   1      33.287  27.459  24.233  1.00  0.00    -0.444 OA
BRANCH  24  25
ATOM     25  C   UNL A   1      33.006  27.085  25.606  1.00  0.00     0.106 C 
ATOM     26  C   UNL A   1      33.839  28.079  26.426  1.00  0.00     0.056 C 
ATOM     27  C   UNL A   1      33.499  25.664  25.877  1.00  0.00     0.056 C 
ATOM     28  C   UNL A   1      31.532  27.234  25.996  1.00  0.00     0.056 C 
ENDBRANCH  24  25
ENDBRANCH  21  24
ENDBRANCH  15  20
ENDBRANCH   8  14
ENDBRANCH   4   7
ENDBRANCH   2   3
ENDBRANCH   1   2
BRANCH   1  29
ATOM     29  C   UNL A   1      37.779  22.895  25.777  1.00  0.00     0.002 C 
BRANCH  29  30
ATOM     30  C   UNL A   1      39.110  22.299  26.253  1.00  0.00     0.002 C 
BRANCH  30  31
ATOM     31  C   UNL A   1      39.509  20.917  25.730  1.00  0.00     0.021 C 
BRANCH  31  32
ATOM     32  C   UNL A   1      40.371  20.030  26.630  1.00  0.00     0.116 C 
BRANCH  32  33
ATOM     33  N   UNL A   1      41.638  19.671  26.018  1.00  0.00    -0.352 N 
ATOM     34  C   UNL A   1      42.757  20.415  25.727  1.00  0.00     0.251 C 
ATOM     35  H   UNL A   1      41.708  18.722  25.765  1.00  0.00     0.163 HD
ATOM     36  O   UNL A   1      43.636  19.890  25.041  1.00  0.00    -0.269 OA
BRANCH  34  37
ATOM     37  C   UNL A   1      42.960  21.817  26.191  1.00  0.00     0.039 A 
ATOM     38  C   UNL A   1      42.995  22.048  27.574  1.00  0.00     0.014 A 
ATOM     39  C   UNL A   1      43.005  22.915  25.329  1.00  0.00     0.014 A 
ATOM     40  C   UNL A   1      43.112  23.350  28.083  1.00  0.00     0.010 A 
ATOM     41  C   UNL A   1      43.186  24.213  25.838  1.00  0.00     0.010 A 
ATOM     42  C   UNL A   1      43.235  24.450  27.222  1.00  0.00    -0.014 A 
BRANCH  42  43
ATOM     43  C   UNL A   1      43.400  25.833  27.768  1.00  0.00     0.031 A 
ATOM     44  C   UNL A   1      42.200  26.698  28.070  1.00  0.00     0.074 A 
ATOM     45  C   UNL A   1      44.633  26.332  28.002  1.00  0.00     0.049 A 
ATOM     46  N   UNL A   1      42.160  27.922  28.542  1.00  0.00    -0.248 NA
ATOM     47  C   UNL A   1      40.876  26.120  27.797  1.00  0.00     0.031 C 
ATOM     48  C   UNL A   1      45.889  25.628  27.749  1.00  0.00     0.029 A 
ATOM     49  N   UNL A   1      45.035  27.546  28.510  1.00  0.00    -0.354 N 
ATOM     50  C   UNL A   1      40.813  28.259  28.616  1.00  0.00     0.074 A 
ATOM     51  C   UNL A   1      40.071  27.131  28.095  1.00  0.00     0.031 C 
ATOM     52  C   UNL A   1      46.918  26.403  28.129  1.00  0.00     0.029 A 
ATOM     53  C   UNL A   1      46.400  27.681  28.610  1.00  0.00     0.049 A 
ATOM     54  H   UNL A   1      44.404  28.254  28.776  1.00  0.00     0.167 HD
ATOM     55  C   UNL A   1      40.240  29.393  29.090  1.00  0.00     0.031 A 
ATOM     56  C   UNL A   1      47.158  28.715  29.025  1.00  0.00     0.031 A 
ATOM     57  C   UNL A   1      40.962  30.522  29.615  1.00  0.00     0.049 A 
ATOM     58  C   UNL A   1      46.494  29.983  29.497  1.00  0.00     0.074 A 
ATOM     59  C   UNL A   1      40.454  31.697  30.147  1.00  0.00     0.029 A 
ATOM     60  N   UNL A   1      42.342  30.624  29.674  1.00  0.00    -0.354 N 
ATOM     61  N   UNL A   1      45.218  30.258  29.608  1.00  0.00    -0.248 NA
ATOM     62  C   UNL A   1      47.383  31.082  29.910  1.00  0.00     0.031 C 
ATOM     63  C   UNL A   1      41.527  32.533  30.474  1.00  0.00     0.029 A 
ATOM     64  C   UNL A   1      42.702  31.852  30.209  1.00  0.00     0.049 A 
ATOM     65  H   UNL A   1      42.974  29.928  29.382  1.00  0.00     0.167 HD
ATOM     66  C   UNL A   1      45.153  31.543  30.134  1.00  0.00     0.074 A 
ATOM     67  C   UNL A   1      46.515  31.986  30.338  1.00  0.00     0.031 C 
ATOM     68  C   UNL A   1      44.058  32.289  30.419  1.00  0.00     0.031 A 
BRANCH  55  69
ATOM     69  C   UNL A   1      38.737  29.479  29.060  1.00  0.00    -0.014 A 
ATOM     70  C   UNL A   1      37.972  29.216  30.209  1.00  0.00     0.009 A 
ATOM     71  C   UNL A   1      38.083  29.898  27.891  1.00  0.00     0.009 A 
ATOM     72  C   UNL A   1      36.582  29.343  30.176  1.00  0.00     0.001 A 
ATOM     73  C   UNL A   1      36.695  30.053  27.871  1.00  0.00     0.001 A 
ATOM     74  C   UNL A   1      35.945  29.767  29.010  1.00  0.00     0.000 A 
ENDBRANCH  55  69
BRANCH  56  75
ATOM     75  C   UNL A   1      48.644  28.619  29.007  1.00  0.00    -0.014 A 
ATOM     76  C   UNL A   1      49.347  28.139  30.124  1.00  0.00     0.009 A 
ATOM     77  C   UNL A   1      49.371  29.059  27.890  1.00  0.00     0.009 A 
ATOM     78  C   UNL A   1      50.744  28.142  30.138  1.00  0.00     0.001 A 
ATOM     79  C   UNL A   1      50.768  29.027  27.893  1.00  0.00     0.001 A 
ATOM     80  C   UNL A   1      51.453  28.583  29.021  1.00  0.00     0.000 A 
ENDBRANCH  56  75
BRANCH  68  81
ATOM     81  C   UNL A   1      44.280  33.646  31.031  1.00  0.00    -0.014 A 
ATOM     82  C   UNL A   1      44.411  33.814  32.418  1.00  0.00     0.009 A 
ATOM     83  C   UNL A   1      44.396  34.771  30.198  1.00  0.00     0.009 A 
ATOM     84  C   UNL A   1      44.614  35.085  32.961  1.00  0.00     0.001 A 
ATOM     85  C   UNL A   1      44.632  36.036  30.741  1.00  0.00     0.001 A 
ATOM     86  C   UNL A   1      44.730  36.193  32.122  1.00  0.00     0.000 A 
ENDBRANCH  68  81
ENDBRANCH  42  43
ENDBRANCH  34  37
ENDBRANCH  32  33
ENDBRANCH  31  32
ENDBRANCH  30  31
ENDBRANCH  29  30
ENDBRANCH   1  29
TORSDOF 17
ENDMDL
MODEL 3
REMARK VINA RESULT:     -10.6      1.982      2.819
REMARK SMILES CC(C)(C)OC(=O)Nc1ccc(-c2cccc(Cl)c2C(=O)NCCCCCCNC(=O)c2ccc(-c3c4nc(c(-c5ccccc5)c5ccc([nH]5)c(-c5ccccc5)c5nc(c(-c6ccccc6)c6ccc3[nH]6)C=C5)C=C4)cc2)cc1
REMARK SMILES IDX 24 1 23 2 22 3 20 4 21 5 19 7 13 8 14 9 15 10 17 11 16 12
REMARK SMILES IDX 18 13 12 14 9 15 10 16 81 17 11 18 80 19 8 20 6 21 7 22 5 24
REMARK SMILES IDX 2 25 1 26 3 27 4 28 25 29 26 30 27 31 28 32 29 33 30 34
REMARK SMILES IDX 31 36 32 37 33 38 79 39 34 40 78 41 35 42 36 43 37 44 72 45
REMARK SMILES IDX 38 46 77 47 71 48 73 49 39 50 76 51 70 52 69 53 40 55 62 56
REMARK SMILES IDX 47 57 61 58 48 59 51 60 60 61 74 62 49 63 50 64 59 66 75 67
REMARK SMILES IDX 52 68 41 69 42 70 46 71 43 72 45 73 44 74 63 75 64 76 68 77
REMARK SMILES IDX 65 78 67 79 66 80 53 81 54 82 58 83 55 84 57 85 56 86
REMARK H PARENT 22 6 8 23 29 35 73 54 51 65
REMARK Flexibility Score: inf
ROOT
ATOM      1  C   UNL A   1      38.967  23.709  26.957  1.00  0.00     0.021 C 
ENDROOT
BRANCH   1   2
ATOM      2  C   UNL A   1      37.684  23.782  26.138  1.00  0.00     0.116 C 
BRANCH   2   3
ATOM      3  N   UNL A   1      37.668  23.220  24.815  1.00  0.00    -0.352 N 
ATOM      4  C   UNL A   1      36.578  22.779  24.082  1.00  0.00     0.253 C 
ATOM      5  O   UNL A   1      36.675  22.909  22.858  1.00  0.00    -0.269 OA
ATOM      6  H   UNL A   1      38.543  23.138  24.372  1.00  0.00     0.163 HD
BRANCH   4   7
ATOM      7  C   UNL A   1      35.335  22.104  24.615  1.00  0.00     0.066 A 
ATOM      8  C   UNL A   1      34.067  22.705  24.860  1.00  0.00    -0.004 A 
ATOM      9  C   UNL A   1      32.949  21.874  25.145  1.00  0.00     0.009 A 
ATOM     10  C   UNL A   1      33.042  20.492  25.199  1.00  0.00     0.002 A 
ATOM     11  C   UNL A   1      35.408  20.685  24.726  1.00  0.00     0.054 A 
ATOM     12  C   UNL A   1      34.274  19.899  25.002  1.00  0.00     0.021 A 
ATOM     13  Cl  UNL A   1      36.891  19.784  24.613  1.00  0.00    -0.083 Cl
BRANCH   8  14
ATOM     14  C   UNL A   1      33.765  24.140  24.895  1.00  0.00    -0.017 A 
ATOM     15  C   UNL A   1      33.330  26.929  25.105  1.00  0.00     0.044 A 
ATOM     16  C   UNL A   1      33.111  26.096  26.205  1.00  0.00     0.027 A 
ATOM     17  C   UNL A   1      33.676  26.343  23.884  1.00  0.00     0.027 A 
ATOM     18  C   UNL A   1      33.307  24.718  26.097  1.00  0.00     0.011 A 
ATOM     19  C   UNL A   1      33.893  24.961  23.776  1.00  0.00     0.011 A 
BRANCH  15  20
ATOM     20  N   UNL A   1      33.233  28.312  25.345  1.00  0.00    -0.291 N 
ATOM     21  C   UNL A   1      32.189  29.189  25.221  1.00  0.00     0.412 C 
ATOM     22  O   UNL A   1      32.376  30.386  25.414  1.00  0.00    -0.224 OA
ATOM     23  H   UNL A   1      34.069  28.724  25.661  1.00  0.00     0.173 HD
BRANCH  21  24
ATOM     24  O   UNL A   1      31.013  28.635  24.875  1.00  0.00    -0.444 OA
BRANCH  24  25
ATOM     25  C   UNL A   1      30.490  28.663  23.522  1.00  0.00     0.106 C 
ATOM     26  C   UNL A   1      29.495  29.830  23.549  1.00  0.00     0.056 C 
ATOM     27  C   UNL A   1      29.742  27.365  23.218  1.00  0.00     0.056 C 
ATOM     28  C   UNL A   1      31.553  28.943  22.456  1.00  0.00     0.056 C 
ENDBRANCH  24  25
ENDBRANCH  21  24
ENDBRANCH  15  20
ENDBRANCH   8  14
ENDBRANCH   4   7
ENDBRANCH   2   3
ENDBRANCH   1   2
BRANCH   1  29
ATOM     29  C   UNL A   1      40.027  22.666  26.597  1.00  0.00     0.002 C 
BRANCH  29  30
ATOM     30  C   UNL A   1      40.669  21.844  27.722  1.00  0.00     0.002 C 
BRANCH  30  31
ATOM     31  C   UNL A   1      41.221  20.458  27.378  1.00  0.00     0.021 C 
BRANCH  31  32
ATOM     32  C   UNL A   1      41.345  20.079  25.903  1.00  0.00     0.116 C 
BRANCH  32  33
ATOM     33  N   UNL A   1      42.721  19.874  25.488  1.00  0.00    -0.352 N 
ATOM     34  C   UNL A   1      43.804  20.720  25.459  1.00  0.00     0.251 C 
ATOM     35  H   UNL A   1      42.914  18.962  25.170  1.00  0.00     0.163 HD
ATOM     36  O   UNL A   1      44.826  20.330  24.891  1.00  0.00    -0.269 OA
BRANCH  34  37
ATOM     37  C   UNL A   1      43.807  22.080  26.069  1.00  0.00     0.039 A 
ATOM     38  C   UNL A   1      43.498  23.168  25.240  1.00  0.00     0.014 A 
ATOM     39  C   UNL A   1      44.204  22.334  27.384  1.00  0.00     0.014 A 
ATOM     40  C   UNL A   1      43.549  24.483  25.728  1.00  0.00     0.010 A 
ATOM     41  C   UNL A   1      44.194  23.646  27.890  1.00  0.00     0.010 A 
ATOM     42  C   UNL A   1      43.874  24.739  27.068  1.00  0.00    -0.014 A 
BRANCH  42  43
ATOM     43  C   UNL A   1      43.889  26.139  27.596  1.00  0.00     0.031 A 
ATOM     44  C   UNL A   1      45.183  26.902  27.740  1.00  0.00     0.074 A 
ATOM     45  C   UNL A   1      42.736  26.747  27.952  1.00  0.00     0.049 A 
ATOM     46  N   UNL A   1      45.380  28.121  28.184  1.00  0.00    -0.248 NA
ATOM     47  C   UNL A   1      46.415  26.205  27.345  1.00  0.00     0.031 C 
ATOM     48  C   UNL A   1      41.408  26.139  27.886  1.00  0.00     0.029 A 
ATOM     49  N   UNL A   1      42.493  28.011  28.437  1.00  0.00    -0.354 N 
ATOM     50  C   UNL A   1      46.753  28.331  28.128  1.00  0.00     0.074 A 
ATOM     51  C   UNL A   1      47.345  27.098  27.653  1.00  0.00     0.031 C 
ATOM     52  C   UNL A   1      40.489  27.034  28.282  1.00  0.00     0.029 A 
ATOM     53  C   UNL A   1      41.163  28.267  28.677  1.00  0.00     0.049 A 
ATOM     54  H   UNL A   1      43.206  28.671  28.599  1.00  0.00     0.167 HD
ATOM     55  C   UNL A   1      47.461  29.450  28.425  1.00  0.00     0.031 A 
ATOM     56  C   UNL A   1      40.550  29.361  29.171  1.00  0.00     0.031 A 
ATOM     57  C   UNL A   1      46.888  30.684  28.893  1.00  0.00     0.049 A 
ATOM     58  C   UNL A   1      41.367  30.571  29.542  1.00  0.00     0.074 A 
ATOM     59  C   UNL A   1      47.533  31.876  29.185  1.00  0.00     0.029 A 
ATOM     60  N   UNL A   1      45.541  30.890  29.145  1.00  0.00    -0.354 N 
ATOM     61  N   UNL A   1      42.658  30.765  29.429  1.00  0.00    -0.248 NA
ATOM     62  C   UNL A   1      40.636  31.719  30.102  1.00  0.00     0.031 C 
ATOM     63  C   UNL A   1      46.585  32.784  29.667  1.00  0.00     0.029 A 
ATOM     64  C   UNL A   1      45.341  32.181  29.612  1.00  0.00     0.049 A 
ATOM     65  H   UNL A   1      44.832  30.221  29.009  1.00  0.00     0.167 HD
ATOM     66  C   UNL A   1      42.886  32.064  29.870  1.00  0.00     0.074 A 
ATOM     67  C   UNL A   1      41.600  32.618  30.233  1.00  0.00     0.031 C 
ATOM     68  C   UNL A   1      44.059  32.734  29.966  1.00  0.00     0.031 A 
BRANCH  55  69
ATOM     69  C   UNL A   1      48.956  29.394  28.254  1.00  0.00    -0.014 A 
ATOM     70  C   UNL A   1      49.790  28.969  29.300  1.00  0.00     0.009 A 
ATOM     71  C   UNL A   1      49.530  29.701  27.010  1.00  0.00     0.009 A 
ATOM     72  C   UNL A   1      51.171  28.882  29.111  1.00  0.00     0.001 A 
ATOM     73  C   UNL A   1      50.908  29.584  26.816  1.00  0.00     0.001 A 
ATOM     74  C   UNL A   1      51.728  29.182  27.868  1.00  0.00     0.000 A 
ENDBRANCH  55  69
BRANCH  56  75
ATOM     75  C   UNL A   1      39.073  29.376  29.367  1.00  0.00    -0.014 A 
ATOM     76  C   UNL A   1      38.213  29.741  28.320  1.00  0.00     0.009 A 
ATOM     77  C   UNL A   1      38.520  29.076  30.622  1.00  0.00     0.009 A 
ATOM     78  C   UNL A   1      36.836  29.848  28.536  1.00  0.00     0.001 A 
ATOM     79  C   UNL A   1      37.140  29.148  30.826  1.00  0.00     0.001 A 
ATOM     80  C   UNL A   1      36.302  29.547  29.788  1.00  0.00     0.000 A 
ENDBRANCH  56  75
BRANCH  68  81
ATOM     81  C   UNL A   1      44.008  34.162  30.437  1.00  0.00    -0.014 A 
ATOM     82  C   UNL A   1      44.144  34.493  31.795  1.00  0.00     0.009 A 
ATOM     83  C   UNL A   1      43.856  35.197  29.500  1.00  0.00     0.009 A 
ATOM     84  C   UNL A   1      44.089  35.826  32.207  1.00  0.00     0.001 A 
ATOM     85  C   UNL A   1      43.835  36.531  29.911  1.00  0.00     0.001 A 
ATOM     86  C   UNL A   1      43.941  36.844  31.265  1.00  0.00     0.000 A 
ENDBRANCH  68  81
ENDBRANCH  42  43
ENDBRANCH  34  37
ENDBRANCH  32  33
ENDBRANCH  31  32
ENDBRANCH  30  31
ENDBRANCH  29  30
ENDBRANCH   1  29
TORSDOF 17
ENDMDL
