MODEL 1
REMARK VINA RESULT:     -11.4      0.000      0.000
REMARK SMILES Cc1c(CC(=O)NCCCCCCNC(=O)c2ccc(-c3c4nc(c(-c5ccccc5)c5ccc([nH]5)c(-c5ccccc5)c5nc(c(-c6ccccc6)c6ccc3[nH]6)C=C5)C=C4)cc2)c(O)oc2cc(=O)cc(O)c1-2
REMARK SMILES IDX 10 1 9 2 8 3 7 4 5 5 6 6 4 8 3 9 1 10 2 11 75 12 65 13 68 14
REMARK SMILES IDX 73 15 67 16 69 17 72 18 70 19 71 20 66 21 74 23 11 25 12 26
REMARK SMILES IDX 13 27 14 28 15 29 16 31 17 32 18 33 64 34 19 35 63 36 20 37
REMARK SMILES IDX 21 38 22 39 57 40 23 41 62 42 56 43 58 44 24 45 61 46 55 47
REMARK SMILES IDX 54 48 25 50 47 51 32 52 46 53 33 54 36 55 45 56 59 57 34 58
REMARK SMILES IDX 35 59 44 61 60 62 37 63 26 64 27 65 31 66 28 67 30 68 29 69
REMARK SMILES IDX 48 70 49 71 53 72 50 73 52 74 51 75 38 76 39 77 43 78 40 79
REMARK SMILES IDX 42 80 41 81
REMARK H PARENT 7 7 66 22 74 24 14 30 58 49 36 60
REMARK Flexibility Score: inf
ROOT
ATOM      1  C   UNL A   1      36.154  22.180  24.913  1.00  0.00     0.002 C 
ENDROOT
BRANCH   1   2
ATOM      2  C   UNL A   1      36.121  22.755  23.490  1.00  0.00     0.021 C 
BRANCH   2   3
ATOM      3  C   UNL A   1      34.823  23.485  23.142  1.00  0.00     0.116 C 
BRANCH   3   4
ATOM      4  N   UNL A   1      34.246  24.132  24.300  1.00  0.00    -0.356 N 
ATOM      5  C   UNL A   1      33.045  23.942  24.905  1.00  0.00     0.224 C 
ATOM      6  O   UNL A   1      32.798  24.618  25.909  1.00  0.00    -0.275 OA
ATOM      7  H   UNL A   1      34.814  24.821  24.715  1.00  0.00     0.163 HD
BRANCH   5   8
ATOM      8  C   UNL A   1      32.060  22.867  24.436  1.00  0.00     0.143 C 
BRANCH   8   9
ATOM      9  C   UNL A   1      32.395  21.405  24.701  1.00  0.00     0.046 A 
ATOM     10  C   UNL A   1      32.067  20.997  22.213  1.00  0.00     0.046 C 
ATOM     11  C   UNL A   1      32.410  20.422  23.574  1.00  0.00    -0.026 A 
ATOM     12  C   UNL A   1      32.709  19.110  23.814  1.00  0.00     0.063 A 
ATOM     13  C   UNL A   1      32.635  20.950  25.954  1.00  0.00     0.286 A 
ATOM     14  C   UNL A   1      33.083  18.723  25.189  1.00  0.00     0.146 A 
ATOM     15  C   UNL A   1      32.690  18.012  22.817  1.00  0.00     0.130 A 
ATOM     16  O   UNL A   1      32.990  19.647  26.207  1.00  0.00    -0.425 OA
ATOM     17  C   UNL A   1      33.522  17.496  25.495  1.00  0.00     0.100 A 
ATOM     18  C   UNL A   1      33.143  16.786  23.111  1.00  0.00     0.099 A 
ATOM     19  C   UNL A   1      33.636  16.459  24.462  1.00  0.00     0.186 A 
ATOM     20  O   UNL A   1      34.090  15.351  24.717  1.00  0.00    -0.290 OA
BRANCH  13  21
ATOM     21  O   UNL A   1      32.591  21.744  27.081  1.00  0.00    -0.480 OA
ATOM     22  H   UNL A   1      32.591  22.678  26.998  1.00  0.00     0.297 HD
ENDBRANCH  13  21
BRANCH  15  23
ATOM     23  O   UNL A   1      32.129  18.260  21.584  1.00  0.00    -0.507 OA
ATOM     24  H   UNL A   1      31.489  18.937  21.488  1.00  0.00     0.293 HD
ENDBRANCH  15  23
ENDBRANCH   8   9
ENDBRANCH   5   8
ENDBRANCH   3   4
ENDBRANCH   2   3
ENDBRANCH   1   2
BRANCH   1  25
ATOM     25  C   UNL A   1      36.210  20.650  25.001  1.00  0.00     0.002 C 
BRANCH  25  26
ATOM     26  C   UNL A   1      37.574  20.030  24.686  1.00  0.00     0.021 C 
BRANCH  26  27
ATOM     27  C   UNL A   1      38.685  20.426  25.651  1.00  0.00     0.116 C 
BRANCH  27  28
ATOM     28  N   UNL A   1      39.732  19.418  25.725  1.00  0.00    -0.352 N 
ATOM     29  C   UNL A   1      41.054  19.565  26.064  1.00  0.00     0.251 C 
ATOM     30  H   UNL A   1      39.453  18.501  25.499  1.00  0.00     0.163 HD
ATOM     31  O   UNL A   1      41.849  18.646  25.895  1.00  0.00    -0.269 OA
BRANCH  29  32
ATOM     32  C   UNL A   1      41.524  20.854  26.614  1.00  0.00     0.039 A 
ATOM     33  C   UNL A   1      42.085  21.795  25.748  1.00  0.00     0.014 A 
ATOM     34  C   UNL A   1      41.398  21.135  27.978  1.00  0.00     0.014 A 
ATOM     35  C   UNL A   1      42.458  23.047  26.239  1.00  0.00     0.010 A 
ATOM     36  C   UNL A   1      41.706  22.407  28.452  1.00  0.00     0.010 A 
ATOM     37  C   UNL A   1      42.237  23.375  27.587  1.00  0.00    -0.014 A 
BRANCH  37  38
ATOM     38  C   UNL A   1      42.554  24.729  28.105  1.00  0.00     0.031 A 
ATOM     39  C   UNL A   1      43.970  25.092  28.456  1.00  0.00     0.074 A 
ATOM     40  C   UNL A   1      41.561  25.621  28.289  1.00  0.00     0.049 A 
ATOM     41  N   UNL A   1      44.435  26.216  28.937  1.00  0.00    -0.248 NA
ATOM     42  C   UNL A   1      44.995  24.054  28.255  1.00  0.00     0.031 C 
ATOM     43  C   UNL A   1      40.144  25.381  28.007  1.00  0.00     0.029 A 
ATOM     44  N   UNL A   1      41.594  26.914  28.749  1.00  0.00    -0.354 N 
ATOM     45  C   UNL A   1      45.802  26.021  29.095  1.00  0.00     0.074 A 
ATOM     46  C   UNL A   1      46.085  24.655  28.713  1.00  0.00     0.031 C 
ATOM     47  C   UNL A   1      39.450  26.503  28.260  1.00  0.00     0.029 A 
ATOM     48  C   UNL A   1      40.363  27.527  28.758  1.00  0.00     0.049 A 
ATOM     49  H   UNL A   1      42.420  27.360  29.045  1.00  0.00     0.167 HD
ATOM     50  C   UNL A   1      46.742  26.909  29.494  1.00  0.00     0.031 A 
ATOM     51  C   UNL A   1      40.012  28.775  29.123  1.00  0.00     0.031 A 
ATOM     52  C   UNL A   1      46.464  28.269  29.868  1.00  0.00     0.049 A 
ATOM     53  C   UNL A   1      41.071  29.725  29.608  1.00  0.00     0.074 A 
ATOM     54  C   UNL A   1      47.357  29.250  30.263  1.00  0.00     0.029 A 
ATOM     55  N   UNL A   1      45.202  28.839  29.890  1.00  0.00    -0.354 N 
ATOM     56  N   UNL A   1      42.364  29.538  29.708  1.00  0.00    -0.248 NA
ATOM     57  C   UNL A   1      40.623  31.062  30.023  1.00  0.00     0.031 C 
ATOM     58  C   UNL A   1      46.628  30.404  30.566  1.00  0.00     0.029 A 
ATOM     59  C   UNL A   1      45.290  30.156  30.308  1.00  0.00     0.049 A 
ATOM     60  H   UNL A   1      44.368  28.377  29.645  1.00  0.00     0.167 HD
ATOM     61  C   UNL A   1      42.886  30.739  30.167  1.00  0.00     0.074 A 
ATOM     62  C   UNL A   1      41.774  31.654  30.317  1.00  0.00     0.031 C 
ATOM     63  C   UNL A   1      44.175  31.055  30.440  1.00  0.00     0.031 A 
BRANCH  50  64
ATOM     64  C   UNL A   1      48.170  26.445  29.530  1.00  0.00    -0.014 A 
ATOM     65  C   UNL A   1      48.695  25.830  30.677  1.00  0.00     0.009 A 
ATOM     66  C   UNL A   1      48.975  26.551  28.386  1.00  0.00     0.009 A 
ATOM     67  C   UNL A   1      50.004  25.346  30.684  1.00  0.00     0.001 A 
ATOM     68  C   UNL A   1      50.276  26.043  28.387  1.00  0.00     0.001 A 
ATOM     69  C   UNL A   1      50.790  25.445  29.537  1.00  0.00     0.000 A 
ENDBRANCH  50  64
BRANCH  51  70
ATOM     70  C   UNL A   1      38.595  29.212  29.014  1.00  0.00    -0.014 A 
ATOM     71  C   UNL A   1      38.113  29.755  27.812  1.00  0.00     0.009 A 
ATOM     72  C   UNL A   1      37.719  29.095  30.103  1.00  0.00     0.009 A 
ATOM     73  C   UNL A   1      36.790  30.191  27.711  1.00  0.00     0.001 A 
ATOM     74  C   UNL A   1      36.388  29.506  29.991  1.00  0.00     0.001 A 
ATOM     75  C   UNL A   1      35.927  30.062  28.798  1.00  0.00     0.000 A 
ENDBRANCH  51  70
BRANCH  63  76
ATOM     76  C   UNL A   1      44.469  32.456  30.896  1.00  0.00    -0.014 A 
ATOM     77  C   UNL A   1      44.708  33.484  29.972  1.00  0.00     0.009 A 
ATOM     78  C   UNL A   1      44.416  32.765  32.264  1.00  0.00     0.009 A 
ATOM     79  C   UNL A   1      44.904  34.794  30.414  1.00  0.00     0.001 A 
ATOM     80  C   UNL A   1      44.585  34.079  32.700  1.00  0.00     0.001 A 
ATOM     81  C   UNL A   1      44.834  35.091  31.774  1.00  0.00     0.000 A 
ENDBRANCH  63  76
ENDBRANCH  37  38
ENDBRANCH  29  32
ENDBRANCH  27  28
ENDBRANCH  26  27
ENDBRANCH  25  26
ENDBRANCH   1  25
TORSDOF 16
ENDMDL
MODEL 2
REMARK VINA RESULT:     -11.2      0.311      5.933
REMARK SMILES Cc1c(CC(=O)NCCCCCCNC(=O)c2ccc(-c3c4nc(c(-c5ccccc5)c5ccc([nH]5)c(-c5ccccc5)c5nc(c(-c6ccccc6)c6ccc3[nH]6)C=C5)C=C4)cc2)c(O)oc2cc(=O)cc(O)c1-2
REMARK SMILES IDX 10 1 9 2 8 3 7 4 5 5 6 6 4 8 3 9 1 10 2 11 75 12 65 13 68 14
REMARK SMILES IDX 73 15 67 16 69 17 72 18 70 19 71 20 66 21 74 23 11 25 12 26
REMARK SMILES IDX 13 27 14 28 15 29 16 31 17 32 18 33 64 34 19 35 63 36 20 37
REMARK SMILES IDX 21 38 22 39 57 40 23 41 62 42 56 43 58 44 24 45 61 46 55 47
REMARK SMILES IDX 54 48 25 50 47 51 32 52 46 53 33 54 36 55 45 56 59 57 34 58
REMARK SMILES IDX 35 59 44 61 60 62 37 63 26 64 27 65 31 66 28 67 30 68 29 69
REMARK SMILES IDX 48 70 49 71 53 72 50 73 52 74 51 75 38 76 39 77 43 78 40 79
REMARK SMILES IDX 42 80 41 81
REMARK H PARENT 7 7 66 22 74 24 14 30 58 49 36 60
REMARK Flexibility Score: inf
ROOT
ATOM      1  C   UNL A   1      36.052  22.315  25.088  1.00  0.00     0.002 C 
ENDROOT
BRANCH   1   2
ATOM      2  C   UNL A   1      36.071  22.952  23.691  1.00  0.00     0.021 C 
BRANCH   2   3
ATOM      3  C   UNL A   1      34.689  23.334  23.160  1.00  0.00     0.116 C 
BRANCH   3   4
ATOM      4  N   UNL A   1      33.963  24.155  24.104  1.00  0.00    -0.356 N 
ATOM      5  C   UNL A   1      32.689  24.045  24.565  1.00  0.00     0.224 C 
ATOM      6  O   UNL A   1      32.311  24.874  25.398  1.00  0.00    -0.275 OA
ATOM      7  H   UNL A   1      34.471  24.915  24.470  1.00  0.00     0.163 HD
BRANCH   5   8
ATOM      8  C   UNL A   1      31.774  22.888  24.156  1.00  0.00     0.143 C 
BRANCH   8   9
ATOM      9  C   UNL A   1      32.207  21.464  24.483  1.00  0.00     0.046 A 
ATOM     10  C   UNL A   1      31.921  20.931  22.014  1.00  0.00     0.046 C 
ATOM     11  C   UNL A   1      32.295  20.438  23.398  1.00  0.00    -0.026 A 
ATOM     12  C   UNL A   1      32.682  19.161  23.693  1.00  0.00     0.063 A 
ATOM     13  C   UNL A   1      32.472  21.080  25.754  1.00  0.00     0.286 A 
ATOM     14  C   UNL A   1      33.076  18.859  25.085  1.00  0.00     0.146 A 
ATOM     15  C   UNL A   1      32.743  18.024  22.743  1.00  0.00     0.130 A 
ATOM     16  O   UNL A   1      32.914  19.815  26.063  1.00  0.00    -0.425 OA
ATOM     17  C   UNL A   1      33.596  17.679  25.442  1.00  0.00     0.100 A 
ATOM     18  C   UNL A   1      33.279  16.845  23.089  1.00  0.00     0.099 A 
ATOM     19  C   UNL A   1      33.786  16.609  24.454  1.00  0.00     0.186 A 
ATOM     20  O   UNL A   1      34.314  15.547  24.756  1.00  0.00    -0.290 OA
BRANCH  13  21
ATOM     21  O   UNL A   1      32.369  21.915  26.847  1.00  0.00    -0.480 OA
ATOM     22  H   UNL A   1      32.304  22.842  26.724  1.00  0.00     0.297 HD
ENDBRANCH  13  21
BRANCH  15  23
ATOM     23  O   UNL A   1      32.173  18.181  21.500  1.00  0.00    -0.507 OA
ATOM     24  H   UNL A   1      31.489  18.807  21.375  1.00  0.00     0.293 HD
ENDBRANCH  15  23
ENDBRANCH   8   9
ENDBRANCH   5   8
ENDBRANCH   3   4
ENDBRANCH   2   3
ENDBRANCH   1   2
BRANCH   1  25
ATOM     25  C   UNL A   1      36.176  20.787  25.115  1.00  0.00     0.002 C 
BRANCH  25  26
ATOM     26  C   UNL A   1      37.548  20.239  24.717  1.00  0.00     0.021 C 
BRANCH  26  27
ATOM     27  C   UNL A   1      38.668  20.568  25.698  1.00  0.00     0.116 C 
BRANCH  27  28
ATOM     28  N   UNL A   1      39.686  19.529  25.736  1.00  0.00    -0.352 N 
ATOM     29  C   UNL A   1      41.020  19.634  26.043  1.00  0.00     0.251 C 
ATOM     30  H   UNL A   1      39.375  18.623  25.508  1.00  0.00     0.163 HD
ATOM     31  O   UNL A   1      41.783  18.694  25.845  1.00  0.00    -0.269 OA
BRANCH  29  32
ATOM     32  C   UNL A   1      41.542  20.903  26.592  1.00  0.00     0.039 A 
ATOM     33  C   UNL A   1      42.146  21.817  25.726  1.00  0.00     0.014 A 
ATOM     34  C   UNL A   1      41.421  21.192  27.955  1.00  0.00     0.014 A 
ATOM     35  C   UNL A   1      42.569  23.054  26.217  1.00  0.00     0.010 A 
ATOM     36  C   UNL A   1      41.780  22.451  28.428  1.00  0.00     0.010 A 
ATOM     37  C   UNL A   1      42.356  23.393  27.564  1.00  0.00    -0.014 A 
BRANCH  37  38
ATOM     38  C   UNL A   1      42.728  24.734  28.080  1.00  0.00     0.031 A 
ATOM     39  C   UNL A   1      41.676  25.793  28.260  1.00  0.00     0.074 A 
ATOM     40  C   UNL A   1      44.019  25.007  28.357  1.00  0.00     0.049 A 
ATOM     41  N   UNL A   1      41.813  27.024  28.681  1.00  0.00    -0.248 NA
ATOM     42  C   UNL A   1      40.294  25.428  27.909  1.00  0.00     0.031 C 
ATOM     43  C   UNL A   1      45.135  24.072  28.203  1.00  0.00     0.029 A 
ATOM     44  N   UNL A   1      44.608  26.151  28.836  1.00  0.00    -0.354 N 
ATOM     45  C   UNL A   1      40.539  27.578  28.646  1.00  0.00     0.074 A 
ATOM     46  C   UNL A   1      39.651  26.570  28.111  1.00  0.00     0.031 C 
ATOM     47  C   UNL A   1      46.265  24.665  28.619  1.00  0.00     0.029 A 
ATOM     48  C   UNL A   1      45.963  26.032  29.031  1.00  0.00     0.049 A 
ATOM     49  H   UNL A   1      44.108  26.979  29.021  1.00  0.00     0.167 HD
ATOM     50  C   UNL A   1      40.140  28.805  29.051  1.00  0.00     0.031 A 
ATOM     51  C   UNL A   1      46.861  26.922  29.494  1.00  0.00     0.031 A 
ATOM     52  C   UNL A   1      41.020  29.807  29.589  1.00  0.00     0.049 A 
ATOM     53  C   UNL A   1      46.396  28.295  29.892  1.00  0.00     0.074 A 
ATOM     54  C   UNL A   1      40.701  31.072  30.050  1.00  0.00     0.029 A 
ATOM     55  N   UNL A   1      42.388  29.655  29.743  1.00  0.00    -0.354 N 
ATOM     56  N   UNL A   1      45.181  28.787  29.894  1.00  0.00    -0.248 NA
ATOM     57  C   UNL A   1      47.426  29.236  30.359  1.00  0.00     0.031 C 
ATOM     58  C   UNL A   1      41.885  31.703  30.443  1.00  0.00     0.029 A 
ATOM     59  C   UNL A   1      42.931  30.810  30.277  1.00  0.00     0.049 A 
ATOM     60  H   UNL A   1      42.897  28.845  29.509  1.00  0.00     0.167 HD
ATOM     61  C   UNL A   1      45.295  30.079  30.389  1.00  0.00     0.074 A 
ATOM     62  C   UNL A   1      46.696  30.294  30.688  1.00  0.00     0.031 C 
ATOM     63  C   UNL A   1      44.324  31.004  30.579  1.00  0.00     0.031 A 
BRANCH  50  64
ATOM     64  C   UNL A   1      38.678  29.135  28.946  1.00  0.00    -0.014 A 
ATOM     65  C   UNL A   1      37.826  28.975  30.049  1.00  0.00     0.009 A 
ATOM     66  C   UNL A   1      38.163  29.682  27.762  1.00  0.00     0.009 A 
ATOM     67  C   UNL A   1      36.482  29.340  29.964  1.00  0.00     0.001 A 
ATOM     68  C   UNL A   1      36.824  30.071  27.686  1.00  0.00     0.001 A 
ATOM     69  C   UNL A   1      35.984  29.896  28.786  1.00  0.00     0.000 A 
ENDBRANCH  50  64
BRANCH  51  70
ATOM     70  C   UNL A   1      48.289  26.536  29.639  1.00  0.00    -0.014 A 
ATOM     71  C   UNL A   1      48.737  25.913  30.816  1.00  0.00     0.009 A 
ATOM     72  C   UNL A   1      49.211  26.786  28.612  1.00  0.00     0.009 A 
ATOM     73  C   UNL A   1      50.083  25.571  30.968  1.00  0.00     0.001 A 
ATOM     74  C   UNL A   1      50.551  26.416  28.756  1.00  0.00     0.001 A 
ATOM     75  C   UNL A   1      50.988  25.817  29.937  1.00  0.00     0.000 A 
ENDBRANCH  51  70
BRANCH  63  76
ATOM     76  C   UNL A   1      44.725  32.326  31.169  1.00  0.00    -0.014 A 
ATOM     77  C   UNL A   1      44.774  32.516  32.558  1.00  0.00     0.009 A 
ATOM     78  C   UNL A   1      45.145  33.363  30.322  1.00  0.00     0.009 A 
ATOM     79  C   UNL A   1      45.222  33.728  33.086  1.00  0.00     0.001 A 
ATOM     80  C   UNL A   1      45.618  34.563  30.854  1.00  0.00     0.001 A 
ATOM     81  C   UNL A   1      45.651  34.746  32.235  1.00  0.00     0.000 A 
ENDBRANCH  63  76
ENDBRANCH  37  38
ENDBRANCH  29  32
ENDBRANCH  27  28
ENDBRANCH  26  27
ENDBRANCH  25  26
ENDBRANCH   1  25
TORSDOF 16
ENDMDL
MODEL 3
REMARK VINA RESULT:     -11.1      4.541      9.691
REMARK SMILES Cc1c(CC(=O)NCCCCCCNC(=O)c2ccc(-c3c4nc(c(-c5ccccc5)c5ccc([nH]5)c(-c5ccccc5)c5nc(c(-c6ccccc6)c6ccc3[nH]6)C=C5)C=C4)cc2)c(O)oc2cc(=O)cc(O)c1-2
REMARK SMILES IDX 10 1 9 2 8 3 7 4 5 5 6 6 4 8 3 9 1 10 2 11 75 12 65 13 68 14
REMARK SMILES IDX 73 15 67 16 69 17 72 18 70 19 71 20 66 21 74 23 11 25 12 26
REMARK SMILES IDX 13 27 14 28 15 29 16 31 17 32 18 33 64 34 19 35 63 36 20 37
REMARK SMILES IDX 21 38 22 39 57 40 23 41 62 42 56 43 58 44 24 45 61 46 55 47
REMARK SMILES IDX 54 48 25 50 47 51 32 52 46 53 33 54 36 55 45 56 59 57 34 58
REMARK SMILES IDX 35 59 44 61 60 62 37 63 26 64 27 65 31 66 28 67 30 68 29 69
REMARK SMILES IDX 48 70 49 71 53 72 50 73 52 74 51 75 38 76 39 77 43 78 40 79
REMARK SMILES IDX 42 80 41 81
REMARK H PARENT 7 7 66 22 74 24 14 30 58 49 36 60
REMARK Flexibility Score: inf
ROOT
ATOM      1  C   UNL A   1      32.485  28.905  26.265  1.00  0.00     0.002 C 
ENDROOT
BRANCH   1   2
ATOM      2  C   UNL A   1      31.679  27.934  27.138  1.00  0.00     0.021 C 
BRANCH   2   3
ATOM      3  C   UNL A   1      31.316  26.622  26.442  1.00  0.00     0.116 C 
BRANCH   3   4
ATOM      4  N   UNL A   1      32.421  26.108  25.662  1.00  0.00    -0.356 N 
ATOM      5  C   UNL A   1      32.470  25.712  24.363  1.00  0.00     0.224 C 
ATOM      6  O   UNL A   1      33.558  25.328  23.924  1.00  0.00    -0.275 OA
ATOM      7  H   UNL A   1      33.273  26.032  26.150  1.00  0.00     0.163 HD
BRANCH   5   8
ATOM      8  C   UNL A   1      31.257  25.821  23.434  1.00  0.00     0.143 C 
BRANCH   8   9
ATOM      9  C   UNL A   1      30.757  27.208  23.047  1.00  0.00     0.046 A 
ATOM     10  C   UNL A   1      28.478  26.506  23.928  1.00  0.00     0.046 C 
ATOM     11  C   UNL A   1      29.331  27.587  23.294  1.00  0.00    -0.026 A 
ATOM     12  C   UNL A   1      28.884  28.831  22.945  1.00  0.00     0.063 A 
ATOM     13  C   UNL A   1      31.564  28.104  22.431  1.00  0.00     0.286 A 
ATOM     14  C   UNL A   1      29.862  29.792  22.395  1.00  0.00     0.146 A 
ATOM     15  C   UNL A   1      27.490  29.322  23.058  1.00  0.00     0.130 A 
ATOM     16  O   UNL A   1      31.147  29.376  22.121  1.00  0.00    -0.425 OA
ATOM     17  C   UNL A   1      29.552  31.070  22.150  1.00  0.00     0.100 A 
ATOM     18  C   UNL A   1      27.175  30.604  22.832  1.00  0.00     0.099 A 
ATOM     19  C   UNL A   1      28.198  31.578  22.408  1.00  0.00     0.186 A 
ATOM     20  O   UNL A   1      27.917  32.758  22.243  1.00  0.00    -0.290 OA
BRANCH  13  21
ATOM     21  O   UNL A   1      32.878  27.851  22.095  1.00  0.00    -0.480 OA
ATOM     22  H   UNL A   1      33.542  27.861  22.758  1.00  0.00     0.297 HD
ENDBRANCH  13  21
BRANCH  15  23
ATOM     23  O   UNL A   1      26.497  28.410  23.341  1.00  0.00    -0.507 OA
ATOM     24  H   UNL A   1      25.598  28.663  23.281  1.00  0.00     0.293 HD
ENDBRANCH  15  23
ENDBRANCH   8   9
ENDBRANCH   5   8
ENDBRANCH   3   4
ENDBRANCH   2   3
ENDBRANCH   1   2
BRANCH   1  25
ATOM     25  C   UNL A   1      31.674  30.038  25.623  1.00  0.00     0.002 C 
BRANCH  25  26
ATOM     26  C   UNL A   1      31.385  31.230  26.538  1.00  0.00     0.021 C 
BRANCH  26  27
ATOM     27  C   UNL A   1      32.627  31.937  27.066  1.00  0.00     0.116 C 
BRANCH  27  28
ATOM     28  N   UNL A   1      32.365  33.328  27.403  1.00  0.00    -0.352 N 
ATOM     29  C   UNL A   1      33.068  34.166  28.234  1.00  0.00     0.251 C 
ATOM     30  H   UNL A   1      31.571  33.724  26.977  1.00  0.00     0.163 HD
ATOM     31  O   UNL A   1      32.606  35.255  28.558  1.00  0.00    -0.269 OA
BRANCH  29  32
ATOM     32  C   UNL A   1      34.380  33.735  28.759  1.00  0.00     0.039 A 
ATOM     33  C   UNL A   1      34.467  33.290  30.080  1.00  0.00     0.014 A 
ATOM     34  C   UNL A   1      35.515  33.758  27.944  1.00  0.00     0.014 A 
ATOM     35  C   UNL A   1      35.682  32.804  30.564  1.00  0.00     0.010 A 
ATOM     36  C   UNL A   1      36.708  33.209  28.406  1.00  0.00     0.010 A 
ATOM     37  C   UNL A   1      36.802  32.726  29.720  1.00  0.00    -0.014 A 
BRANCH  37  38
ATOM     38  C   UNL A   1      38.078  32.137  30.197  1.00  0.00     0.031 A 
ATOM     39  C   UNL A   1      38.538  30.805  29.675  1.00  0.00     0.074 A 
ATOM     40  C   UNL A   1      38.807  32.788  31.126  1.00  0.00     0.049 A 
ATOM     41  N   UNL A   1      39.612  30.126  29.987  1.00  0.00    -0.248 NA
ATOM     42  C   UNL A   1      37.674  30.142  28.684  1.00  0.00     0.031 C 
ATOM     43  C   UNL A   1      38.455  34.077  31.728  1.00  0.00     0.029 A 
ATOM     44  N   UNL A   1      39.999  32.459  31.720  1.00  0.00    -0.354 N 
ATOM     45  C   UNL A   1      39.553  28.960  29.232  1.00  0.00     0.074 A 
ATOM     46  C   UNL A   1      38.312  28.996  28.490  1.00  0.00     0.031 C 
ATOM     47  C   UNL A   1      39.431  34.447  32.573  1.00  0.00     0.029 A 
ATOM     48  C   UNL A   1      40.455  33.408  32.604  1.00  0.00     0.049 A 
ATOM     49  H   UNL A   1      40.482  31.621  31.533  1.00  0.00     0.167 HD
ATOM     50  C   UNL A   1      40.463  27.964  29.144  1.00  0.00     0.031 A 
ATOM     51  C   UNL A   1      41.575  33.439  33.351  1.00  0.00     0.031 A 
ATOM     52  C   UNL A   1      41.700  27.929  29.876  1.00  0.00     0.049 A 
ATOM     53  C   UNL A   1      42.547  32.295  33.267  1.00  0.00     0.074 A 
ATOM     54  C   UNL A   1      42.698  26.971  29.832  1.00  0.00     0.029 A 
ATOM     55  N   UNL A   1      42.109  28.896  30.780  1.00  0.00    -0.354 N 
ATOM     56  N   UNL A   1      42.496  31.223  32.516  1.00  0.00    -0.248 NA
ATOM     57  C   UNL A   1      43.735  32.369  34.131  1.00  0.00     0.031 C 
ATOM     58  C   UNL A   1      43.693  27.337  30.742  1.00  0.00     0.029 A 
ATOM     59  C   UNL A   1      43.339  28.550  31.313  1.00  0.00     0.049 A 
ATOM     60  H   UNL A   1      41.602  29.708  31.008  1.00  0.00     0.167 HD
ATOM     61  C   UNL A   1      43.656  30.511  32.792  1.00  0.00     0.074 A 
ATOM     62  C   UNL A   1      44.398  31.277  33.772  1.00  0.00     0.031 C 
ATOM     63  C   UNL A   1      44.069  29.328  32.278  1.00  0.00     0.031 A 
BRANCH  50  64
ATOM     64  C   UNL A   1      40.168  26.829  28.205  1.00  0.00    -0.014 A 
ATOM     65  C   UNL A   1      40.651  26.844  26.887  1.00  0.00     0.009 A 
ATOM     66  C   UNL A   1      39.471  25.700  28.661  1.00  0.00     0.009 A 
ATOM     67  C   UNL A   1      40.425  25.760  26.039  1.00  0.00     0.001 A 
ATOM     68  C   UNL A   1      39.269  24.605  27.819  1.00  0.00     0.001 A 
ATOM     69  C   UNL A   1      39.743  24.638  26.507  1.00  0.00     0.000 A 
ENDBRANCH  50  64
BRANCH  51  70
ATOM     70  C   UNL A   1      41.859  34.610  34.222  1.00  0.00    -0.014 A 
ATOM     71  C   UNL A   1      41.401  34.631  35.549  1.00  0.00     0.009 A 
ATOM     72  C   UNL A   1      42.581  35.711  33.737  1.00  0.00     0.009 A 
ATOM     73  C   UNL A   1      41.642  35.739  36.364  1.00  0.00     0.001 A 
ATOM     74  C   UNL A   1      42.845  36.806  34.564  1.00  0.00     0.001 A 
ATOM     75  C   UNL A   1      42.368  36.823  35.874  1.00  0.00     0.000 A 
ENDBRANCH  51  70
BRANCH  63  76
ATOM     76  C   UNL A   1      45.398  28.795  32.731  1.00  0.00    -0.014 A 
ATOM     77  C   UNL A   1      45.489  27.881  33.791  1.00  0.00     0.009 A 
ATOM     78  C   UNL A   1      46.561  29.145  32.028  1.00  0.00     0.009 A 
ATOM     79  C   UNL A   1      46.725  27.339  34.148  1.00  0.00     0.001 A 
ATOM     80  C   UNL A   1      47.790  28.581  32.370  1.00  0.00     0.001 A 
ATOM     81  C   UNL A   1      47.872  27.683  33.432  1.00  0.00     0.000 A 
ENDBRANCH  63  76
ENDBRANCH  37  38
ENDBRANCH  29  32
ENDBRANCH  27  28
ENDBRANCH  26  27
ENDBRANCH  25  26
ENDBRANCH   1  25
TORSDOF 16
ENDMDL
