MODEL 1
REMARK VINA RESULT:      -8.2      0.000      0.000
REMARK SMILES CC(C)C[C@H](NC(=O)CNC(=O)[C@@H](NC(=O)OCc1ccccc1)C(C)C)C(=O)N[C@@H](C)C(=O)NCCCCCCNC(=O)c1ccc(-c2c3nc(c(-c4ccccc4)c4ccc([nH]4)c(-c4ccccc4)c4nc(c(-c5ccccc5)c5ccc2[nH]5)C=C4)C=C3)cc1
REMARK SMILES IDX 31 1 32 2 30 3 28 4 29 5 5 7 4 8 2 9 1 10 3 11 6 12 7 13
REMARK SMILES IDX 8 15 9 16 10 17 11 18 12 20 13 21 14 22 15 23 16 25 17 26
REMARK SMILES IDX 18 27 19 28 20 29 24 30 21 31 23 32 22 33 25 34 26 35 27 36
REMARK SMILES IDX 33 37 34 38 35 39 36 41 37 42 38 43 39 44 40 45 41 46 42 47
REMARK SMILES IDX 43 48 44 50 45 51 46 52 92 53 47 54 91 55 48 56 49 57 50 58
REMARK SMILES IDX 85 59 51 60 90 61 84 62 86 63 52 64 89 65 83 66 82 67 53 69
REMARK SMILES IDX 75 70 60 71 74 72 61 73 64 74 73 75 87 76 62 77 63 78 72 80
REMARK SMILES IDX 88 81 65 82 54 83 55 84 59 85 56 86 58 87 57 88 76 89 77 90
REMARK SMILES IDX 81 91 78 92 80 93 79 94 66 95 67 96 71 97 68 98 70 99 69 100
REMARK H PARENT 30 6 6 14 10 19 14 24 35 40 42 49 86 68 64 79
REMARK Flexibility Score: inf
ROOT
ATOM      1  C   UNL A   1      43.902  24.554  28.049  1.00  0.00     0.168 C 
ATOM      2  C   UNL A   1      44.234  23.419  29.008  1.00  0.00     0.041 C 
ENDROOT
BRANCH   1   3
ATOM      3  N   UNL A   1      44.059  24.124  26.655  1.00  0.00    -0.343 N 
ATOM      4  C   UNL A   1      43.183  23.470  25.837  1.00  0.00     0.243 C 
ATOM      5  O   UNL A   1      43.479  23.375  24.645  1.00  0.00    -0.273 OA
ATOM      6  H   UNL A   1      44.928  24.338  26.248  1.00  0.00     0.164 HD
BRANCH   4   7
ATOM      7  C   UNL A   1      41.851  22.919  26.387  1.00  0.00     0.171 C 
BRANCH   7   8
ATOM      8  C   UNL A   1      41.455  21.643  25.658  1.00  0.00     0.038 C 
BRANCH   8   9
ATOM      9  C   UNL A   1      41.736  20.285  26.328  1.00  0.00    -0.015 C 
ATOM     10  C   UNL A   1      43.043  19.651  25.848  1.00  0.00     0.007 C 
ATOM     11  C   UNL A   1      41.808  20.498  27.846  1.00  0.00     0.007 C 
ENDBRANCH   8   9
ENDBRANCH   7   8
BRANCH   7  12
ATOM     12  N   UNL A   1      40.912  24.063  26.341  1.00  0.00    -0.343 N 
ATOM     13  C   UNL A   1      39.608  24.359  26.498  1.00  0.00     0.240 C 
ATOM     14  H   UNL A   1      41.408  24.884  26.119  1.00  0.00     0.164 HD
ATOM     15  O   UNL A   1      39.363  25.576  26.505  1.00  0.00    -0.273 OA
BRANCH  13  16
ATOM     16  C   UNL A   1      38.444  23.398  26.770  1.00  0.00     0.216 C 
BRANCH  16  17
ATOM     17  N   UNL A   1      38.386  22.096  26.158  1.00  0.00    -0.345 N 
ATOM     18  C   UNL A   1      37.408  21.475  25.450  1.00  0.00     0.243 C 
ATOM     19  H   UNL A   1      39.204  21.558  26.275  1.00  0.00     0.164 HD
ATOM     20  O   UNL A   1      37.739  20.437  24.862  1.00  0.00    -0.273 OA
BRANCH  18  21
ATOM     21  C   UNL A   1      35.952  22.009  25.312  1.00  0.00     0.177 C 
BRANCH  21  22
ATOM     22  N   UNL A   1      35.269  22.170  26.606  1.00  0.00    -0.309 N 
ATOM     23  C   UNL A   1      33.977  22.063  26.999  1.00  0.00     0.408 C 
ATOM     24  H   UNL A   1      35.880  22.404  27.342  1.00  0.00     0.167 HD
ATOM     25  O   UNL A   1      33.620  22.548  28.065  1.00  0.00    -0.225 OA
BRANCH  23  26
ATOM     26  O   UNL A   1      33.197  21.362  26.153  1.00  0.00    -0.445 OA
BRANCH  26  27
ATOM     27  C   UNL A   1      33.463  19.953  26.087  1.00  0.00     0.270 C 
BRANCH  27  28
ATOM     28  C   UNL A   1      33.078  19.281  24.784  1.00  0.00    -0.011 A 
ATOM     29  C   UNL A   1      33.438  17.938  24.589  1.00  0.00     0.007 A 
ATOM     30  C   UNL A   1      32.411  19.944  23.741  1.00  0.00     0.007 A 
ATOM     31  C   UNL A   1      33.165  17.292  23.381  1.00  0.00     0.000 A 
ATOM     32  C   UNL A   1      32.151  19.303  22.530  1.00  0.00     0.000 A 
ATOM     33  C   UNL A   1      32.530  17.978  22.348  1.00  0.00     0.000 A 
ENDBRANCH  27  28
ENDBRANCH  26  27
ENDBRANCH  23  26
ENDBRANCH  21  22
BRANCH  21  34
ATOM     34  C   UNL A   1      35.822  23.147  24.277  1.00  0.00     0.015 C 
ATOM     35  C   UNL A   1      36.846  23.003  23.140  1.00  0.00     0.010 C 
ATOM     36  C   UNL A   1      34.427  23.152  23.635  1.00  0.00     0.010 C 
ENDBRANCH  21  34
ENDBRANCH  18  21
ENDBRANCH  16  17
ENDBRANCH  13  16
ENDBRANCH   7  12
ENDBRANCH   4   7
ENDBRANCH   1   3
BRANCH   1  37
ATOM     37  C   UNL A   1      44.689  25.827  28.424  1.00  0.00     0.242 C 
ATOM     38  O   UNL A   1      45.696  26.146  27.783  1.00  0.00    -0.273 OA
ATOM     39  N   UNL A   1      44.252  26.701  29.368  1.00  0.00    -0.354 N 
ATOM     40  H   UNL A   1      44.881  27.428  29.583  1.00  0.00     0.163 HD
BRANCH  39  41
ATOM     41  C   UNL A   1      43.013  26.734  30.109  1.00  0.00     0.116 C 
BRANCH  41  42
ATOM     42  C   UNL A   1      43.208  26.332  31.566  1.00  0.00     0.021 C 
BRANCH  42  43
ATOM     43  C   UNL A   1      42.932  27.454  32.574  1.00  0.00     0.002 C 
BRANCH  43  44
ATOM     44  C   UNL A   1      41.650  28.258  32.329  1.00  0.00     0.002 C 
BRANCH  44  45
ATOM     45  C   UNL A   1      40.466  27.902  33.232  1.00  0.00     0.021 C 
BRANCH  45  46
ATOM     46  C   UNL A   1      39.134  27.744  32.509  1.00  0.00     0.116 C 
BRANCH  46  47
ATOM     47  N   UNL A   1      38.217  28.827  32.815  1.00  0.00    -0.352 N 
ATOM     48  C   UNL A   1      38.410  30.181  32.712  1.00  0.00     0.251 C 
ATOM     49  H   UNL A   1      37.330  28.550  33.141  1.00  0.00     0.163 HD
ATOM     50  O   UNL A   1      37.595  30.960  33.197  1.00  0.00    -0.269 OA
BRANCH  48  51
ATOM     51  C   UNL A   1      39.615  30.704  32.033  1.00  0.00     0.039 A 
ATOM     52  C   UNL A   1      39.760  30.490  30.661  1.00  0.00     0.014 A 
ATOM     53  C   UNL A   1      40.601  31.393  32.746  1.00  0.00     0.014 A 
ATOM     54  C   UNL A   1      40.865  31.016  29.991  1.00  0.00     0.010 A 
ATOM     55  C   UNL A   1      41.670  31.973  32.066  1.00  0.00     0.010 A 
ATOM     56  C   UNL A   1      41.813  31.788  30.683  1.00  0.00    -0.014 A 
BRANCH  56  57
ATOM     57  C   UNL A   1      42.952  32.422  29.971  1.00  0.00     0.031 A 
ATOM     58  C   UNL A   1      44.254  31.686  29.813  1.00  0.00     0.074 A 
ATOM     59  C   UNL A   1      42.831  33.686  29.518  1.00  0.00     0.049 A 
ATOM     60  N   UNL A   1      45.372  32.098  29.270  1.00  0.00    -0.248 NA
ATOM     61  C   UNL A   1      44.318  30.320  30.356  1.00  0.00     0.031 C 
ATOM     62  C   UNL A   1      41.635  34.523  29.647  1.00  0.00     0.029 A 
ATOM     63  N   UNL A   1      43.732  34.492  28.868  1.00  0.00    -0.354 N 
ATOM     64  C   UNL A   1      46.273  31.053  29.423  1.00  0.00     0.074 A 
ATOM     65  C   UNL A   1      45.587  30.002  30.142  1.00  0.00     0.031 C 
ATOM     66  C   UNL A   1      41.871  35.716  29.077  1.00  0.00     0.029 A 
ATOM     67  C   UNL A   1      43.241  35.742  28.578  1.00  0.00     0.049 A 
ATOM     68  H   UNL A   1      44.641  34.201  28.632  1.00  0.00     0.167 HD
ATOM     69  C   UNL A   1      47.554  30.970  28.990  1.00  0.00     0.031 A 
ATOM     70  C   UNL A   1      43.833  36.797  27.985  1.00  0.00     0.031 A 
ATOM     71  C   UNL A   1      48.231  32.004  28.254  1.00  0.00     0.049 A 
ATOM     72  C   UNL A   1      45.254  36.674  27.513  1.00  0.00     0.074 A 
ATOM     73  C   UNL A   1      49.503  31.980  27.709  1.00  0.00     0.029 A 
ATOM     74  N   UNL A   1      47.693  33.247  27.964  1.00  0.00    -0.354 N 
ATOM     75  N   UNL A   1      46.065  35.646  27.592  1.00  0.00    -0.248 NA
ATOM     76  C   UNL A   1      45.840  37.854  26.860  1.00  0.00     0.031 C 
ATOM     77  C   UNL A   1      49.755  33.228  27.132  1.00  0.00     0.029 A 
ATOM     78  C   UNL A   1      48.618  34.009  27.271  1.00  0.00     0.049 A 
ATOM     79  H   UNL A   1      46.788  33.544  28.212  1.00  0.00     0.167 HD
ATOM     80  C   UNL A   1      47.244  36.047  26.977  1.00  0.00     0.074 A 
ATOM     81  C   UNL A   1      47.036  37.402  26.513  1.00  0.00     0.031 C 
ATOM     82  C   UNL A   1      48.396  35.354  26.813  1.00  0.00     0.031 A 
BRANCH  69  83
ATOM     83  C   UNL A   1      48.318  29.713  29.298  1.00  0.00    -0.014 A 
ATOM     84  C   UNL A   1      49.034  29.573  30.497  1.00  0.00     0.009 A 
ATOM     85  C   UNL A   1      48.261  28.627  28.409  1.00  0.00     0.009 A 
ATOM     86  C   UNL A   1      49.696  28.379  30.789  1.00  0.00     0.001 A 
ATOM     87  C   UNL A   1      48.903  27.427  28.715  1.00  0.00     0.001 A 
ATOM     88  C   UNL A   1      49.625  27.305  29.902  1.00  0.00     0.000 A 
ENDBRANCH  69  83
BRANCH  70  89
ATOM     89  C   UNL A   1      43.086  38.069  27.799  1.00  0.00    -0.014 A 
ATOM     90  C   UNL A   1      42.270  38.260  26.674  1.00  0.00     0.009 A 
ATOM     91  C   UNL A   1      43.212  39.110  28.731  1.00  0.00     0.009 A 
ATOM     92  C   UNL A   1      41.623  39.482  26.468  1.00  0.00     0.001 A 
ATOM     93  C   UNL A   1      42.540  40.320  28.538  1.00  0.00     0.001 A 
ATOM     94  C   UNL A   1      41.757  40.508  27.401  1.00  0.00     0.000 A 
ENDBRANCH  70  89
BRANCH  82  95
ATOM     95  C   UNL A   1      49.509  36.039  26.074  1.00  0.00    -0.014 A 
ATOM     96  C   UNL A   1      50.437  36.851  26.744  1.00  0.00     0.009 A 
ATOM     97  C   UNL A   1      49.651  35.838  24.692  1.00  0.00     0.009 A 
ATOM     98  C   UNL A   1      51.467  37.475  26.038  1.00  0.00     0.001 A 
ATOM     99  C   UNL A   1      50.699  36.440  23.994  1.00  0.00     0.001 A 
ATOM    100  C   UNL A   1      51.600  37.266  24.665  1.00  0.00     0.000 A 
ENDBRANCH  82  95
ENDBRANCH  56  57
ENDBRANCH  48  51
ENDBRANCH  46  47
ENDBRANCH  45  46
ENDBRANCH  44  45
ENDBRANCH  43  44
ENDBRANCH  42  43
ENDBRANCH  41  42
ENDBRANCH  39  41
ENDBRANCH   1  37
TORSDOF 26
ENDMDL
MODEL 2
REMARK VINA RESULT:      -8.2      4.761     10.887
REMARK SMILES CC(C)C[C@H](NC(=O)CNC(=O)[C@@H](NC(=O)OCc1ccccc1)C(C)C)C(=O)N[C@@H](C)C(=O)NCCCCCCNC(=O)c1ccc(-c2c3nc(c(-c4ccccc4)c4ccc([nH]4)c(-c4ccccc4)c4nc(c(-c5ccccc5)c5ccc2[nH]5)C=C4)C=C3)cc1
REMARK SMILES IDX 31 1 32 2 30 3 28 4 29 5 5 7 4 8 2 9 1 10 3 11 6 12 7 13
REMARK SMILES IDX 8 15 9 16 10 17 11 18 12 20 13 21 14 22 15 23 16 25 17 26
REMARK SMILES IDX 18 27 19 28 20 29 24 30 21 31 23 32 22 33 25 34 26 35 27 36
REMARK SMILES IDX 33 37 34 38 35 39 36 41 37 42 38 43 39 44 40 45 41 46 42 47
REMARK SMILES IDX 43 48 44 50 45 51 46 52 92 53 47 54 91 55 48 56 49 57 50 58
REMARK SMILES IDX 85 59 51 60 90 61 84 62 86 63 52 64 89 65 83 66 82 67 53 69
REMARK SMILES IDX 75 70 60 71 74 72 61 73 64 74 73 75 87 76 62 77 63 78 72 80
REMARK SMILES IDX 88 81 65 82 54 83 55 84 59 85 56 86 58 87 57 88 76 89 77 90
REMARK SMILES IDX 81 91 78 92 80 93 79 94 66 95 67 96 71 97 68 98 70 99 69 100
REMARK H PARENT 30 6 6 14 10 19 14 24 35 40 42 49 86 68 64 79
REMARK Flexibility Score: inf
ROOT
ATOM      1  C   UNL A   1      43.691  29.177  27.670  1.00  0.00     0.168 C 
ATOM      2  C   UNL A   1      45.014  28.574  28.123  1.00  0.00     0.041 C 
ENDROOT
BRANCH   1   3
ATOM      3  N   UNL A   1      43.438  28.879  26.256  1.00  0.00    -0.343 N 
ATOM      4  C   UNL A   1      42.646  27.922  25.691  1.00  0.00     0.243 C 
ATOM      5  O   UNL A   1      42.456  27.983  24.475  1.00  0.00    -0.273 OA
ATOM      6  H   UNL A   1      43.911  29.458  25.617  1.00  0.00     0.164 HD
BRANCH   4   7
ATOM      7  C   UNL A   1      41.980  26.836  26.561  1.00  0.00     0.171 C 
BRANCH   7   8
ATOM      8  C   UNL A   1      41.156  27.469  27.674  1.00  0.00     0.038 C 
BRANCH   8   9
ATOM      9  C   UNL A   1      39.710  26.990  27.894  1.00  0.00    -0.015 C 
ATOM     10  C   UNL A   1      39.615  25.476  28.092  1.00  0.00     0.007 C 
ATOM     11  C   UNL A   1      39.147  27.695  29.136  1.00  0.00     0.007 C 
ENDBRANCH   8   9
ENDBRANCH   7   8
BRANCH   7  12
ATOM     12  N   UNL A   1      43.080  25.923  26.949  1.00  0.00    -0.343 N 
ATOM     13  C   UNL A   1      44.262  25.455  26.507  1.00  0.00     0.240 C 
ATOM     14  H   UNL A   1      42.878  25.522  27.825  1.00  0.00     0.164 HD
ATOM     15  O   UNL A   1      44.889  24.791  27.347  1.00  0.00    -0.273 OA
BRANCH  13  16
ATOM     16  C   UNL A   1      44.949  25.732  25.164  1.00  0.00     0.216 C 
BRANCH  16  17
ATOM     17  N   UNL A   1      45.400  27.053  24.809  1.00  0.00    -0.345 N 
ATOM     18  C   UNL A   1      46.642  27.597  24.756  1.00  0.00     0.243 C 
ATOM     19  H   UNL A   1      44.676  27.673  24.559  1.00  0.00     0.164 HD
ATOM     20  O   UNL A   1      46.729  28.699  24.198  1.00  0.00    -0.273 OA
BRANCH  18  21
ATOM     21  C   UNL A   1      47.926  26.908  25.305  1.00  0.00     0.177 C 
BRANCH  21  22
ATOM     22  N   UNL A   1      49.167  27.586  24.895  1.00  0.00    -0.309 N 
ATOM     23  C   UNL A   1      49.977  27.480  23.815  1.00  0.00     0.408 C 
ATOM     24  H   UNL A   1      49.474  28.261  25.545  1.00  0.00     0.167 HD
ATOM     25  O   UNL A   1      51.114  27.932  23.855  1.00  0.00    -0.225 OA
BRANCH  23  26
ATOM     26  O   UNL A   1      49.398  26.897  22.746  1.00  0.00    -0.445 OA
BRANCH  26  27
ATOM     27  C   UNL A   1      48.922  27.795  21.733  1.00  0.00     0.270 C 
BRANCH  27  28
ATOM     28  C   UNL A   1      49.960  28.241  20.722  1.00  0.00    -0.011 A 
ATOM     29  C   UNL A   1      50.358  27.335  19.725  1.00  0.00     0.007 A 
ATOM     30  C   UNL A   1      50.576  29.502  20.753  1.00  0.00     0.007 A 
ATOM     31  C   UNL A   1      51.358  27.673  18.811  1.00  0.00     0.000 A 
ATOM     32  C   UNL A   1      51.585  29.833  19.848  1.00  0.00     0.000 A 
ATOM     33  C   UNL A   1      51.978  28.919  18.879  1.00  0.00     0.000 A 
ENDBRANCH  27  28
ENDBRANCH  26  27
ENDBRANCH  23  26
ENDBRANCH  21  22
BRANCH  21  34
ATOM     34  C   UNL A   1      47.793  26.468  26.778  1.00  0.00     0.015 C 
ATOM     35  C   UNL A   1      48.366  25.061  27.006  1.00  0.00     0.010 C 
ATOM     36  C   UNL A   1      48.551  27.424  27.711  1.00  0.00     0.010 C 
ENDBRANCH  21  34
ENDBRANCH  18  21
ENDBRANCH  16  17
ENDBRANCH  13  16
ENDBRANCH   7  12
ENDBRANCH   4   7
ENDBRANCH   1   3
BRANCH   1  37
ATOM     37  C   UNL A   1      43.625  30.674  28.037  1.00  0.00     0.242 C 
ATOM     38  O   UNL A   1      42.860  31.064  28.925  1.00  0.00    -0.273 OA
ATOM     39  N   UNL A   1      44.474  31.592  27.502  1.00  0.00    -0.354 N 
ATOM     40  H   UNL A   1      44.279  32.526  27.743  1.00  0.00     0.163 HD
BRANCH  39  41
ATOM     41  C   UNL A   1      45.616  31.415  26.636  1.00  0.00     0.116 C 
BRANCH  41  42
ATOM     42  C   UNL A   1      46.673  32.491  26.859  1.00  0.00     0.021 C 
BRANCH  42  43
ATOM     43  C   UNL A   1      48.116  31.973  26.850  1.00  0.00     0.002 C 
BRANCH  43  44
ATOM     44  C   UNL A   1      49.176  32.969  27.334  1.00  0.00     0.002 C 
BRANCH  44  45
ATOM     45  C   UNL A   1      50.586  32.398  27.507  1.00  0.00     0.021 C 
BRANCH  45  46
ATOM     46  C   UNL A   1      51.360  32.955  28.696  1.00  0.00     0.116 C 
BRANCH  46  47
ATOM     47  N   UNL A   1      51.963  31.902  29.493  1.00  0.00    -0.352 N 
ATOM     48  C   UNL A   1      51.417  31.170  30.517  1.00  0.00     0.251 C 
ATOM     49  H   UNL A   1      52.896  31.682  29.267  1.00  0.00     0.163 HD
ATOM     50  O   UNL A   1      52.130  30.453  31.213  1.00  0.00    -0.269 OA
BRANCH  48  51
ATOM     51  C   UNL A   1      49.968  31.261  30.797  1.00  0.00     0.039 A 
ATOM     52  C   UNL A   1      49.528  32.154  31.777  1.00  0.00     0.014 A 
ATOM     53  C   UNL A   1      49.050  30.466  30.105  1.00  0.00     0.014 A 
ATOM     54  C   UNL A   1      48.161  32.291  32.024  1.00  0.00     0.010 A 
ATOM     55  C   UNL A   1      47.684  30.650  30.307  1.00  0.00     0.010 A 
ATOM     56  C   UNL A   1      47.226  31.563  31.269  1.00  0.00    -0.014 A 
BRANCH  56  57
ATOM     57  C   UNL A   1      45.767  31.756  31.464  1.00  0.00     0.031 A 
ATOM     58  C   UNL A   1      44.982  30.805  32.325  1.00  0.00     0.074 A 
ATOM     59  C   UNL A   1      45.138  32.757  30.816  1.00  0.00     0.049 A 
ATOM     60  N   UNL A   1      43.696  30.784  32.568  1.00  0.00    -0.248 NA
ATOM     61  C   UNL A   1      45.735  29.722  32.979  1.00  0.00     0.031 C 
ATOM     62  C   UNL A   1      45.778  33.721  29.917  1.00  0.00     0.029 A 
ATOM     63  N   UNL A   1      43.814  33.120  30.804  1.00  0.00    -0.354 N 
ATOM     64  C   UNL A   1      43.484  29.680  33.384  1.00  0.00     0.074 A 
ATOM     65  C   UNL A   1      44.766  29.034  33.565  1.00  0.00     0.031 C 
ATOM     66  C   UNL A   1      44.850  34.576  29.458  1.00  0.00     0.029 A 
ATOM     67  C   UNL A   1      43.548  34.200  29.997  1.00  0.00     0.049 A 
ATOM     68  H   UNL A   1      43.123  32.652  31.325  1.00  0.00     0.167 HD
ATOM     69  C   UNL A   1      42.328  29.252  33.944  1.00  0.00     0.031 A 
ATOM     70  C   UNL A   1      42.382  34.812  29.714  1.00  0.00     0.031 A 
ATOM     71  C   UNL A   1      41.057  29.906  33.784  1.00  0.00     0.049 A 
ATOM     72  C   UNL A   1      41.116  34.315  30.352  1.00  0.00     0.074 A 
ATOM     73  C   UNL A   1      39.846  29.588  34.373  1.00  0.00     0.029 A 
ATOM     74  N   UNL A   1      40.833  31.007  32.974  1.00  0.00    -0.354 N 
ATOM     75  N   UNL A   1      40.948  33.319  31.189  1.00  0.00    -0.248 NA
ATOM     76  C   UNL A   1      39.878  35.034  30.016  1.00  0.00     0.031 C 
ATOM     77  C   UNL A   1      38.876  30.467  33.881  1.00  0.00     0.029 A 
ATOM     78  C   UNL A   1      39.497  31.365  33.027  1.00  0.00     0.049 A 
ATOM     79  H   UNL A   1      41.521  31.467  32.442  1.00  0.00     0.167 HD
ATOM     80  C   UNL A   1      39.594  33.310  31.497  1.00  0.00     0.074 A 
ATOM     81  C   UNL A   1      38.990  34.409  30.775  1.00  0.00     0.031 C 
ATOM     82  C   UNL A   1      38.911  32.463  32.306  1.00  0.00     0.031 A 
BRANCH  69  83
ATOM     83  C   UNL A   1      42.377  28.010  34.789  1.00  0.00    -0.014 A 
ATOM     84  C   UNL A   1      42.354  26.733  34.207  1.00  0.00     0.009 A 
ATOM     85  C   UNL A   1      42.520  28.121  36.182  1.00  0.00     0.009 A 
ATOM     86  C   UNL A   1      42.451  25.592  35.006  1.00  0.00     0.001 A 
ATOM     87  C   UNL A   1      42.641  26.979  36.975  1.00  0.00     0.001 A 
ATOM     88  C   UNL A   1      42.601  25.715  36.387  1.00  0.00     0.000 A 
ENDBRANCH  69  83
BRANCH  70  89
ATOM     89  C   UNL A   1      42.350  35.967  28.779  1.00  0.00    -0.014 A 
ATOM     90  C   UNL A   1      42.104  35.772  27.411  1.00  0.00     0.009 A 
ATOM     91  C   UNL A   1      42.597  37.267  29.244  1.00  0.00     0.009 A 
ATOM     92  C   UNL A   1      42.141  36.852  26.524  1.00  0.00     0.001 A 
ATOM     93  C   UNL A   1      42.605  38.349  28.360  1.00  0.00     0.001 A 
ATOM     94  C   UNL A   1      42.389  38.137  27.001  1.00  0.00     0.000 A 
ENDBRANCH  70  89
BRANCH  82  95
ATOM     95  C   UNL A   1      37.441  32.714  32.477  1.00  0.00    -0.014 A 
ATOM     96  C   UNL A   1      36.497  32.127  31.620  1.00  0.00     0.009 A 
ATOM     97  C   UNL A   1      36.993  33.522  33.535  1.00  0.00     0.009 A 
ATOM     98  C   UNL A   1      35.134  32.370  31.800  1.00  0.00     0.001 A 
ATOM     99  C   UNL A   1      35.629  33.740  33.728  1.00  0.00     0.001 A 
ATOM    100  C   UNL A   1      34.702  33.172  32.856  1.00  0.00     0.000 A 
ENDBRANCH  82  95
ENDBRANCH  56  57
ENDBRANCH  48  51
ENDBRANCH  46  47
ENDBRANCH  45  46
ENDBRANCH  44  45
ENDBRANCH  43  44
ENDBRANCH  42  43
ENDBRANCH  41  42
ENDBRANCH  39  41
ENDBRANCH   1  37
TORSDOF 26
ENDMDL
MODEL 3
REMARK VINA RESULT:      -8.1      5.124      9.181
REMARK SMILES CC(C)C[C@H](NC(=O)CNC(=O)[C@@H](NC(=O)OCc1ccccc1)C(C)C)C(=O)N[C@@H](C)C(=O)NCCCCCCNC(=O)c1ccc(-c2c3nc(c(-c4ccccc4)c4ccc([nH]4)c(-c4ccccc4)c4nc(c(-c5ccccc5)c5ccc2[nH]5)C=C4)C=C3)cc1
REMARK SMILES IDX 31 1 32 2 30 3 28 4 29 5 5 7 4 8 2 9 1 10 3 11 6 12 7 13
REMARK SMILES IDX 8 15 9 16 10 17 11 18 12 20 13 21 14 22 15 23 16 25 17 26
REMARK SMILES IDX 18 27 19 28 20 29 24 30 21 31 23 32 22 33 25 34 26 35 27 36
REMARK SMILES IDX 33 37 34 38 35 39 36 41 37 42 38 43 39 44 40 45 41 46 42 47
REMARK SMILES IDX 43 48 44 50 45 51 46 52 92 53 47 54 91 55 48 56 49 57 50 58
REMARK SMILES IDX 85 59 51 60 90 61 84 62 86 63 52 64 89 65 83 66 82 67 53 69
REMARK SMILES IDX 75 70 60 71 74 72 61 73 64 74 73 75 87 76 62 77 63 78 72 80
REMARK SMILES IDX 88 81 65 82 54 83 55 84 59 85 56 86 58 87 57 88 76 89 77 90
REMARK SMILES IDX 81 91 78 92 80 93 79 94 66 95 67 96 71 97 68 98 70 99 69 100
REMARK H PARENT 30 6 6 14 10 19 14 24 35 40 42 49 86 68 64 79
REMARK Flexibility Score: inf
ROOT
ATOM      1  C   UNL A   1      42.500  26.368  36.373  1.00  0.00     0.168 C 
ATOM      2  C   UNL A   1      41.298  25.814  37.126  1.00  0.00     0.041 C 
ENDROOT
BRANCH   1   3
ATOM      3  N   UNL A   1      42.170  26.607  34.963  1.00  0.00    -0.343 N 
ATOM      4  C   UNL A   1      42.200  27.764  34.241  1.00  0.00     0.243 C 
ATOM      5  O   UNL A   1      42.048  27.679  33.021  1.00  0.00    -0.273 OA
ATOM      6  H   UNL A   1      41.881  25.810  34.462  1.00  0.00     0.164 HD
BRANCH   4   7
ATOM      7  C   UNL A   1      42.465  29.118  34.932  1.00  0.00     0.171 C 
BRANCH   7   8
ATOM      8  C   UNL A   1      43.766  29.072  35.721  1.00  0.00     0.038 C 
BRANCH   8   9
ATOM      9  C   UNL A   1      45.049  29.625  35.074  1.00  0.00    -0.015 C 
ATOM     10  C   UNL A   1      45.161  29.267  33.590  1.00  0.00     0.007 C 
ATOM     11  C   UNL A   1      45.052  31.152  35.225  1.00  0.00     0.007 C 
ENDBRANCH   8   9
ENDBRANCH   7   8
BRANCH   7  12
ATOM     12  N   UNL A   1      41.218  29.425  35.669  1.00  0.00    -0.343 N 
ATOM     13  C   UNL A   1      39.972  29.896  35.477  1.00  0.00     0.240 C 
ATOM     14  H   UNL A   1      41.344  29.215  36.623  1.00  0.00     0.164 HD
ATOM     15  O   UNL A   1      39.235  29.795  36.470  1.00  0.00    -0.273 OA
BRANCH  13  16
ATOM     16  C   UNL A   1      39.349  30.425  34.180  1.00  0.00     0.216 C 
BRANCH  16  17
ATOM     17  N   UNL A   1      38.157  29.838  33.625  1.00  0.00    -0.345 N 
ATOM     18  C   UNL A   1      37.263  30.301  32.714  1.00  0.00     0.243 C 
ATOM     19  H   UNL A   1      37.953  28.937  33.968  1.00  0.00     0.164 HD
ATOM     20  O   UNL A   1      36.459  29.472  32.271  1.00  0.00    -0.273 OA
BRANCH  18  21
ATOM     21  C   UNL A   1      37.230  31.766  32.185  1.00  0.00     0.177 C 
BRANCH  21  22
ATOM     22  N   UNL A   1      38.372  32.093  31.315  1.00  0.00    -0.309 N 
ATOM     23  C   UNL A   1      39.016  31.424  30.329  1.00  0.00     0.408 C 
ATOM     24  H   UNL A   1      38.747  32.988  31.487  1.00  0.00     0.167 HD
ATOM     25  O   UNL A   1      40.130  31.786  29.972  1.00  0.00    -0.225 OA
BRANCH  23  26
ATOM     26  O   UNL A   1      38.308  30.411  29.794  1.00  0.00    -0.445 OA
BRANCH  26  27
ATOM     27  C   UNL A   1      38.509  30.188  28.390  1.00  0.00     0.270 C 
BRANCH  27  28
ATOM     28  C   UNL A   1      39.244  28.910  28.036  1.00  0.00    -0.011 A 
ATOM     29  C   UNL A   1      39.179  27.829  28.930  1.00  0.00     0.007 A 
ATOM     30  C   UNL A   1      40.021  28.762  26.876  1.00  0.00     0.007 A 
ATOM     31  C   UNL A   1      39.892  26.653  28.682  1.00  0.00     0.000 A 
ATOM     32  C   UNL A   1      40.744  27.594  26.636  1.00  0.00     0.000 A 
ATOM     33  C   UNL A   1      40.681  26.540  27.540  1.00  0.00     0.000 A 
ENDBRANCH  27  28
ENDBRANCH  26  27
ENDBRANCH  23  26
ENDBRANCH  21  22
BRANCH  21  34
ATOM     34  C   UNL A   1      35.823  32.213  31.734  1.00  0.00     0.015 C 
ATOM     35  C   UNL A   1      35.006  32.785  32.903  1.00  0.00     0.010 C 
ATOM     36  C   UNL A   1      35.910  33.309  30.661  1.00  0.00     0.010 C 
ENDBRANCH  21  34
ENDBRANCH  18  21
ENDBRANCH  16  17
ENDBRANCH  13  16
ENDBRANCH   7  12
ENDBRANCH   4   7
ENDBRANCH   1   3
BRANCH   1  37
ATOM     37  C   UNL A   1      43.740  25.479  36.604  1.00  0.00     0.242 C 
ATOM     38  O   UNL A   1      44.580  25.792  37.455  1.00  0.00    -0.273 OA
ATOM     39  N   UNL A   1      43.899  24.278  35.988  1.00  0.00    -0.354 N 
ATOM     40  H   UNL A   1      44.769  23.844  36.144  1.00  0.00     0.163 HD
BRANCH  39  41
ATOM     41  C   UNL A   1      42.996  23.537  35.139  1.00  0.00     0.116 C 
BRANCH  41  42
ATOM     42  C   UNL A   1      43.526  23.410  33.715  1.00  0.00     0.021 C 
BRANCH  42  43
ATOM     43  C   UNL A   1      44.825  24.180  33.452  1.00  0.00     0.002 C 
BRANCH  43  44
ATOM     44  C   UNL A   1      44.692  25.401  32.534  1.00  0.00     0.002 C 
BRANCH  44  45
ATOM     45  C   UNL A   1      44.848  25.120  31.037  1.00  0.00     0.021 C 
BRANCH  45  46
ATOM     46  C   UNL A   1      43.792  25.770  30.151  1.00  0.00     0.116 C 
BRANCH  46  47
ATOM     47  N   UNL A   1      44.234  25.886  28.773  1.00  0.00    -0.352 N 
ATOM     48  C   UNL A   1      44.412  27.013  28.012  1.00  0.00     0.251 C 
ATOM     49  H   UNL A   1      44.436  25.035  28.321  1.00  0.00     0.163 HD
ATOM     50  O   UNL A   1      44.604  26.919  26.803  1.00  0.00    -0.269 OA
BRANCH  48  51
ATOM     51  C   UNL A   1      44.349  28.348  28.646  1.00  0.00     0.039 A 
ATOM     52  C   UNL A   1      45.433  28.779  29.414  1.00  0.00     0.014 A 
ATOM     53  C   UNL A   1      43.226  29.166  28.492  1.00  0.00     0.014 A 
ATOM     54  C   UNL A   1      45.415  30.054  29.981  1.00  0.00     0.010 A 
ATOM     55  C   UNL A   1      43.237  30.461  29.004  1.00  0.00     0.010 A 
ATOM     56  C   UNL A   1      44.330  30.917  29.755  1.00  0.00    -0.014 A 
BRANCH  56  57
ATOM     57  C   UNL A   1      44.332  32.304  30.284  1.00  0.00     0.031 A 
ATOM     58  C   UNL A   1      43.548  32.647  31.522  1.00  0.00     0.074 A 
ATOM     59  C   UNL A   1      44.992  33.270  29.615  1.00  0.00     0.049 A 
ATOM     60  N   UNL A   1      43.389  33.811  32.100  1.00  0.00    -0.248 NA
ATOM     61  C   UNL A   1      42.831  31.544  32.184  1.00  0.00     0.031 C 
ATOM     62  C   UNL A   1      45.754  33.076  28.378  1.00  0.00     0.029 A 
ATOM     63  N   UNL A   1      45.118  34.611  29.875  1.00  0.00    -0.354 N 
ATOM     64  C   UNL A   1      42.542  33.584  33.177  1.00  0.00     0.074 A 
ATOM     65  C   UNL A   1      42.190  32.181  33.152  1.00  0.00     0.031 C 
ATOM     66  C   UNL A   1      46.283  34.251  27.998  1.00  0.00     0.029 A 
ATOM     67  C   UNL A   1      45.867  35.285  28.940  1.00  0.00     0.049 A 
ATOM     68  H   UNL A   1      44.711  35.049  30.656  1.00  0.00     0.167 HD
ATOM     69  C   UNL A   1      42.107  34.463  34.111  1.00  0.00     0.031 A 
ATOM     70  C   UNL A   1      46.178  36.592  28.846  1.00  0.00     0.031 A 
ATOM     71  C   UNL A   1      42.475  35.853  34.150  1.00  0.00     0.049 A 
ATOM     72  C   UNL A   1      45.683  37.543  29.899  1.00  0.00     0.074 A 
ATOM     73  C   UNL A   1      42.144  36.804  35.101  1.00  0.00     0.029 A 
ATOM     74  N   UNL A   1      43.251  36.492  33.197  1.00  0.00    -0.354 N 
ATOM     75  N   UNL A   1      44.951  37.295  30.958  1.00  0.00    -0.248 NA
ATOM     76  C   UNL A   1      46.067  38.954  29.750  1.00  0.00     0.031 C 
ATOM     77  C   UNL A   1      42.679  38.031  34.697  1.00  0.00     0.029 A 
ATOM     78  C   UNL A   1      43.387  37.830  33.522  1.00  0.00     0.049 A 
ATOM     79  H   UNL A   1      43.647  36.059  32.407  1.00  0.00     0.167 HD
ATOM     80  C   UNL A   1      44.809  38.512  31.613  1.00  0.00     0.074 A 
ATOM     81  C   UNL A   1      45.547  39.491  30.844  1.00  0.00     0.031 C 
ATOM     82  C   UNL A   1      44.127  38.792  32.750  1.00  0.00     0.031 A 
BRANCH  69  83
ATOM     83  C   UNL A   1      41.181  33.951  35.177  1.00  0.00    -0.014 A 
ATOM     84  C   UNL A   1      41.677  33.396  36.367  1.00  0.00     0.009 A 
ATOM     85  C   UNL A   1      39.793  34.092  35.020  1.00  0.00     0.009 A 
ATOM     86  C   UNL A   1      40.801  32.971  37.367  1.00  0.00     0.001 A 
ATOM     87  C   UNL A   1      38.920  33.690  36.032  1.00  0.00     0.001 A 
ATOM     88  C   UNL A   1      39.424  33.125  37.202  1.00  0.00     0.000 A 
ENDBRANCH  69  83
BRANCH  70  89
ATOM     89  C   UNL A   1      47.001  37.088  27.711  1.00  0.00    -0.014 A 
ATOM     90  C   UNL A   1      46.390  37.565  26.542  1.00  0.00     0.009 A 
ATOM     91  C   UNL A   1      48.401  37.055  27.780  1.00  0.00     0.009 A 
ATOM     92  C   UNL A   1      47.166  37.967  25.451  1.00  0.00     0.001 A 
ATOM     93  C   UNL A   1      49.175  37.485  26.700  1.00  0.00     0.001 A 
ATOM     94  C   UNL A   1      48.557  37.928  25.533  1.00  0.00     0.000 A 
ENDBRANCH  70  89
BRANCH  82  95
ATOM     95  C   UNL A   1      44.175  40.208  33.246  1.00  0.00    -0.014 A 
ATOM     96  C   UNL A   1      43.190  41.140  32.884  1.00  0.00     0.009 A 
ATOM     97  C   UNL A   1      45.201  40.603  34.119  1.00  0.00     0.009 A 
ATOM     98  C   UNL A   1      43.251  42.451  33.362  1.00  0.00     0.001 A 
ATOM     99  C   UNL A   1      45.243  41.907  34.616  1.00  0.00     0.001 A 
ATOM    100  C   UNL A   1      44.274  42.831  34.229  1.00  0.00     0.000 A 
ENDBRANCH  82  95
ENDBRANCH  56  57
ENDBRANCH  48  51
ENDBRANCH  46  47
ENDBRANCH  45  46
ENDBRANCH  44  45
ENDBRANCH  43  44
ENDBRANCH  42  43
ENDBRANCH  41  42
ENDBRANCH  39  41
ENDBRANCH   1  37
TORSDOF 26
ENDMDL
