MODEL 1
REMARK VINA RESULT:     -10.1      0.000      0.000
REMARK SMILES COc1cc([N+](=O)[O-])cc([C@H]2[NH2+][C@H](C(=O)NCCCCCCNC(=O)c3ccc(-c4c5nc(c(-c6ccccc6)c6ccc([nH]6)c(-c6ccccc6)c6nc(c(-c7ccccc7)c7ccc4[nH]7)C=C6)C=C5)cc3)CS2)c1O
REMARK SMILES IDX 19 1 18 2 17 3 16 4 14 5 15 6 13 8 11 9 12 10 75 11 74 14
REMARK SMILES IDX 10 15 3 16 4 17 76 18 5 19 9 20 2 21 1 22 77 23 6 25 7 26
REMARK SMILES IDX 8 27 20 28 21 29 22 30 23 31 24 32 25 34 26 35 27 36 73 37
REMARK SMILES IDX 28 38 72 39 29 40 30 41 31 42 66 43 32 44 71 45 65 46 67 47
REMARK SMILES IDX 33 48 70 49 64 50 63 51 34 53 56 54 41 55 55 56 42 57 45 58
REMARK SMILES IDX 54 59 68 60 43 61 44 62 53 64 69 65 46 66 35 67 36 68 40 69
REMARK SMILES IDX 37 70 39 71 38 72 57 73 58 74 62 75 59 76 61 77 60 78 47 79
REMARK SMILES IDX 48 80 52 81 49 82 51 83 50 84
REMARK H PARENT 16 7 12 12 12 13 77 24 23 33 67 52 45 63
REMARK Flexibility Score: inf
ROOT
ATOM      1  C   UNL A   1      44.284  23.727  31.771  1.00  0.00     0.002 C 
ENDROOT
BRANCH   1   2
ATOM      2  C   UNL A   1      44.284  24.288  30.345  1.00  0.00     0.021 C 
BRANCH   2   3
ATOM      3  C   UNL A   1      45.455  25.241  30.097  1.00  0.00     0.116 C 
BRANCH   3   4
ATOM      4  N   UNL A   1      45.170  26.119  28.983  1.00  0.00    -0.351 N 
ATOM      5  C   UNL A   1      45.502  26.054  27.666  1.00  0.00     0.279 C 
ATOM      6  O   UNL A   1      45.201  27.038  26.980  1.00  0.00    -0.268 OA
ATOM      7  H   UNL A   1      44.639  26.910  29.224  1.00  0.00     0.163 HD
BRANCH   5   8
ATOM      8  C   UNL A   1      46.143  24.824  26.994  1.00  0.00     0.283 C 
ATOM      9  C   UNL A   1      44.859  23.307  25.650  1.00  0.00     0.278 C 
ATOM     10  N   UNL A   1      45.270  23.604  27.015  1.00  0.00    -0.320 N 
ATOM     11  S   UNL A   1      46.217  23.773  24.567  1.00  0.00    -0.087 SA
ATOM     12  H   UNL A   1      45.792  22.815  27.397  1.00  0.00     0.348 HD
ATOM     13  H   UNL A   1      44.450  23.771  27.598  1.00  0.00     0.348 HD
ATOM     14  C   UNL A   1      46.723  25.143  25.619  1.00  0.00     0.151 C 
BRANCH   9  15
ATOM     15  C   UNL A   1      44.177  21.964  25.432  1.00  0.00     0.073 A 
ATOM     16  C   UNL A   1      42.593  20.220  26.107  1.00  0.00     0.167 A 
ATOM     17  C   UNL A   1      43.433  19.238  25.572  1.00  0.00     0.136 A 
ATOM     18  C   UNL A   1      42.938  21.578  25.984  1.00  0.00     0.168 A 
ATOM     19  C   UNL A   1      44.604  19.609  24.914  1.00  0.00     0.273 A 
ATOM     20  C   UNL A   1      44.971  20.959  24.831  1.00  0.00     0.100 A 
BRANCH  16  21
ATOM     21  O   UNL A   1      41.501  19.694  26.751  1.00  0.00    -0.493 OA
ATOM     22  C   UNL A   1      40.222  19.873  26.150  1.00  0.00     0.278 C 
ENDBRANCH  16  21
BRANCH  18  23
ATOM     23  O   UNL A   1      42.032  22.512  26.404  1.00  0.00    -0.504 OA
ATOM     24  H   UNL A   1      42.312  23.229  26.939  1.00  0.00     0.293 HD
ENDBRANCH  18  23
BRANCH  19  25
ATOM     25  N   UNL A   1      45.512  18.575  24.401  1.00  0.00     0.062 N 
ATOM     26  O   UNL A   1      46.025  17.796  25.217  1.00  0.00    -0.258 OA
ATOM     27  O   UNL A   1      45.739  18.562  23.182  1.00  0.00    -0.258 OA
ENDBRANCH  19  25
ENDBRANCH   9  15
ENDBRANCH   5   8
ENDBRANCH   3   4
ENDBRANCH   2   3
ENDBRANCH   1   2
BRANCH   1  28
ATOM     28  C   UNL A   1      44.993  24.622  32.797  1.00  0.00     0.002 C 
BRANCH  28  29
ATOM     29  C   UNL A   1      45.778  23.867  33.875  1.00  0.00     0.021 C 
BRANCH  29  30
ATOM     30  C   UNL A   1      46.965  24.643  34.434  1.00  0.00     0.116 C 
BRANCH  30  31
ATOM     31  N   UNL A   1      46.854  24.812  35.875  1.00  0.00    -0.352 N 
ATOM     32  C   UNL A   1      46.154  25.758  36.580  1.00  0.00     0.251 C 
ATOM     33  H   UNL A   1      47.349  24.156  36.418  1.00  0.00     0.163 HD
ATOM     34  O   UNL A   1      46.365  25.930  37.774  1.00  0.00    -0.269 OA
BRANCH  32  35
ATOM     35  C   UNL A   1      45.145  26.575  35.878  1.00  0.00     0.039 A 
ATOM     36  C   UNL A   1      45.549  27.731  35.205  1.00  0.00     0.014 A 
ATOM     37  C   UNL A   1      43.801  26.190  35.889  1.00  0.00     0.014 A 
ATOM     38  C   UNL A   1      44.607  28.474  34.492  1.00  0.00     0.010 A 
ATOM     39  C   UNL A   1      42.881  26.890  35.120  1.00  0.00     0.010 A 
ATOM     40  C   UNL A   1      43.273  28.041  34.419  1.00  0.00    -0.014 A 
BRANCH  40  41
ATOM     41  C   UNL A   1      42.253  28.782  33.638  1.00  0.00     0.031 A 
ATOM     42  C   UNL A   1      41.403  29.817  34.322  1.00  0.00     0.074 A 
ATOM     43  C   UNL A   1      42.039  28.470  32.345  1.00  0.00     0.049 A 
ATOM     44  N   UNL A   1      40.371  30.474  33.860  1.00  0.00    -0.248 NA
ATOM     45  C   UNL A   1      41.747  30.140  35.718  1.00  0.00     0.031 C 
ATOM     46  C   UNL A   1      42.789  27.477  31.573  1.00  0.00     0.029 A 
ATOM     47  N   UNL A   1      41.110  28.950  31.455  1.00  0.00    -0.354 N 
ATOM     48  C   UNL A   1      39.936  31.275  34.909  1.00  0.00     0.074 A 
ATOM     49  C   UNL A   1      40.783  30.988  36.045  1.00  0.00     0.031 C 
ATOM     50  C   UNL A   1      42.301  27.434  30.322  1.00  0.00     0.029 A 
ATOM     51  C   UNL A   1      41.173  28.354  30.219  1.00  0.00     0.049 A 
ATOM     52  H   UNL A   1      40.462  29.654  31.681  1.00  0.00     0.167 HD
ATOM     53  C   UNL A   1      38.933  32.183  34.919  1.00  0.00     0.031 A 
ATOM     54  C   UNL A   1      40.394  28.516  29.132  1.00  0.00     0.031 A 
ATOM     55  C   UNL A   1      38.094  32.471  33.788  1.00  0.00     0.049 A 
ATOM     56  C   UNL A   1      39.250  29.493  29.191  1.00  0.00     0.074 A 
ATOM     57  C   UNL A   1      37.062  33.388  33.692  1.00  0.00     0.029 A 
ATOM     58  N   UNL A   1      38.196  31.848  32.554  1.00  0.00    -0.354 N 
ATOM     59  N   UNL A   1      38.876  30.269  30.178  1.00  0.00    -0.248 NA
ATOM     60  C   UNL A   1      38.426  29.621  27.980  1.00  0.00     0.031 C 
ATOM     61  C   UNL A   1      36.511  33.290  32.412  1.00  0.00     0.029 A 
ATOM     62  C   UNL A   1      37.240  32.356  31.694  1.00  0.00     0.049 A 
ATOM     63  H   UNL A   1      38.851  31.149  32.325  1.00  0.00     0.167 HD
ATOM     64  C   UNL A   1      37.806  31.011  29.692  1.00  0.00     0.074 A 
ATOM     65  C   UNL A   1      37.593  30.595  28.322  1.00  0.00     0.031 C 
ATOM     66  C   UNL A   1      37.067  31.955  30.323  1.00  0.00     0.031 A 
BRANCH  53  67
ATOM     67  C   UNL A   1      38.690  32.941  36.194  1.00  0.00    -0.014 A 
ATOM     68  C   UNL A   1      37.895  32.399  37.216  1.00  0.00     0.009 A 
ATOM     69  C   UNL A   1      39.312  34.182  36.403  1.00  0.00     0.009 A 
ATOM     70  C   UNL A   1      37.708  33.094  38.411  1.00  0.00     0.001 A 
ATOM     71  C   UNL A   1      39.147  34.862  37.610  1.00  0.00     0.001 A 
ATOM     72  C   UNL A   1      38.340  34.321  38.611  1.00  0.00     0.000 A 
ENDBRANCH  53  67
BRANCH  54  73
ATOM     73  C   UNL A   1      40.654  27.738  27.891  1.00  0.00    -0.014 A 
ATOM     74  C   UNL A   1      40.056  26.482  27.701  1.00  0.00     0.009 A 
ATOM     75  C   UNL A   1      41.537  28.222  26.913  1.00  0.00     0.009 A 
ATOM     76  C   UNL A   1      40.372  25.709  26.581  1.00  0.00     0.001 A 
ATOM     77  C   UNL A   1      41.822  27.461  25.776  1.00  0.00     0.001 A 
ATOM     78  C   UNL A   1      41.253  26.200  25.619  1.00  0.00     0.000 A 
ENDBRANCH  54  73
BRANCH  66  79
ATOM     79  C   UNL A   1      36.015  32.666  29.522  1.00  0.00    -0.014 A 
ATOM     80  C   UNL A   1      34.741  32.112  29.326  1.00  0.00     0.009 A 
ATOM     81  C   UNL A   1      36.288  33.949  29.020  1.00  0.00     0.009 A 
ATOM     82  C   UNL A   1      33.767  32.823  28.621  1.00  0.00     0.001 A 
ATOM     83  C   UNL A   1      35.303  34.669  28.342  1.00  0.00     0.001 A 
ATOM     84  C   UNL A   1      34.046  34.102  28.138  1.00  0.00     0.000 A 
ENDBRANCH  66  79
ENDBRANCH  40  41
ENDBRANCH  32  35
ENDBRANCH  30  31
ENDBRANCH  29  30
ENDBRANCH  28  29
ENDBRANCH   1  28
TORSDOF 17
ENDMDL
MODEL 2
REMARK VINA RESULT:     -10.1      5.916     11.019
REMARK SMILES COc1cc([N+](=O)[O-])cc([C@H]2[NH2+][C@H](C(=O)NCCCCCCNC(=O)c3ccc(-c4c5nc(c(-c6ccccc6)c6ccc([nH]6)c(-c6ccccc6)c6nc(c(-c7ccccc7)c7ccc4[nH]7)C=C6)C=C5)cc3)CS2)c1O
REMARK SMILES IDX 19 1 18 2 17 3 16 4 14 5 15 6 13 8 11 9 12 10 75 11 74 14
REMARK SMILES IDX 10 15 3 16 4 17 76 18 5 19 9 20 2 21 1 22 77 23 6 25 7 26
REMARK SMILES IDX 8 27 20 28 21 29 22 30 23 31 24 32 25 34 26 35 27 36 73 37
REMARK SMILES IDX 28 38 72 39 29 40 30 41 31 42 66 43 32 44 71 45 65 46 67 47
REMARK SMILES IDX 33 48 70 49 64 50 63 51 34 53 56 54 41 55 55 56 42 57 45 58
REMARK SMILES IDX 54 59 68 60 43 61 44 62 53 64 69 65 46 66 35 67 36 68 40 69
REMARK SMILES IDX 37 70 39 71 38 72 57 73 58 74 62 75 59 76 61 77 60 78 47 79
REMARK SMILES IDX 48 80 52 81 49 82 51 83 50 84
REMARK H PARENT 16 7 12 12 12 13 77 24 23 33 67 52 45 63
REMARK Flexibility Score: inf
ROOT
ATOM      1  C   UNL A   1      37.016  22.667  25.284  1.00  0.00     0.002 C 
ENDROOT
BRANCH   1   2
ATOM      2  C   UNL A   1      35.777  23.568  25.323  1.00  0.00     0.021 C 
BRANCH   2   3
ATOM      3  C   UNL A   1      34.476  22.767  25.241  1.00  0.00     0.116 C 
BRANCH   3   4
ATOM      4  N   UNL A   1      34.007  22.420  26.564  1.00  0.00    -0.351 N 
ATOM      5  C   UNL A   1      32.870  22.739  27.240  1.00  0.00     0.279 C 
ATOM      6  O   UNL A   1      32.819  22.376  28.421  1.00  0.00    -0.268 OA
ATOM      7  H   UNL A   1      34.625  21.848  27.071  1.00  0.00     0.163 HD
BRANCH   5   8
ATOM      8  C   UNL A   1      31.654  23.441  26.605  1.00  0.00     0.283 C 
ATOM      9  C   UNL A   1      31.910  25.179  24.971  1.00  0.00     0.278 C 
ATOM     10  N   UNL A   1      31.848  24.915  26.401  1.00  0.00    -0.320 N 
ATOM     11  S   UNL A   1      30.815  24.006  24.159  1.00  0.00    -0.087 SA
ATOM     12  H   UNL A   1      31.065  25.424  26.812  1.00  0.00     0.348 HD
ATOM     13  H   UNL A   1      32.712  25.219  26.851  1.00  0.00     0.348 HD
ATOM     14  C   UNL A   1      31.136  22.711  25.368  1.00  0.00     0.151 C 
BRANCH   9  15
ATOM     15  C   UNL A   1      31.852  26.642  24.556  1.00  0.00     0.073 A 
ATOM     16  C   UNL A   1      32.173  29.026  25.024  1.00  0.00     0.167 A 
ATOM     17  C   UNL A   1      31.079  29.342  24.211  1.00  0.00     0.136 A 
ATOM     18  C   UNL A   1      32.590  27.688  25.146  1.00  0.00     0.168 A 
ATOM     19  C   UNL A   1      30.411  28.331  23.521  1.00  0.00     0.273 A 
ATOM     20  C   UNL A   1      30.798  26.994  23.679  1.00  0.00     0.100 A 
BRANCH  16  21
ATOM     21  O   UNL A   1      32.699  30.124  25.659  1.00  0.00    -0.493 OA
ATOM     22  C   UNL A   1      32.165  30.477  26.931  1.00  0.00     0.278 C 
ENDBRANCH  16  21
BRANCH  18  23
ATOM     23  O   UNL A   1      33.738  27.434  25.844  1.00  0.00    -0.504 OA
ATOM     24  H   UNL A   1      34.454  28.038  25.804  1.00  0.00     0.293 HD
ENDBRANCH  18  23
BRANCH  19  25
ATOM     25  N   UNL A   1      29.229  28.657  22.713  1.00  0.00     0.062 N 
ATOM     26  O   UNL A   1      28.130  28.229  23.092  1.00  0.00    -0.258 OA
ATOM     27  O   UNL A   1      29.406  29.316  21.677  1.00  0.00    -0.258 OA
ENDBRANCH  19  25
ENDBRANCH   9  15
ENDBRANCH   5   8
ENDBRANCH   3   4
ENDBRANCH   2   3
ENDBRANCH   1   2
BRANCH   1  28
ATOM     28  C   UNL A   1      36.864  21.428  24.390  1.00  0.00     0.002 C 
BRANCH  28  29
ATOM     29  C   UNL A   1      37.695  20.217  24.823  1.00  0.00     0.021 C 
BRANCH  29  30
ATOM     30  C   UNL A   1      38.768  20.541  25.857  1.00  0.00     0.116 C 
BRANCH  30  31
ATOM     31  N   UNL A   1      39.840  19.558  25.832  1.00  0.00    -0.352 N 
ATOM     32  C   UNL A   1      41.187  19.747  26.009  1.00  0.00     0.251 C 
ATOM     33  H   UNL A   1      39.560  18.628  25.665  1.00  0.00     0.163 HD
ATOM     34  O   UNL A   1      41.987  18.872  25.704  1.00  0.00    -0.269 OA
BRANCH  32  35
ATOM     35  C   UNL A   1      41.664  21.028  26.567  1.00  0.00     0.039 A 
ATOM     36  C   UNL A   1      42.080  22.040  25.698  1.00  0.00     0.014 A 
ATOM     37  C   UNL A   1      41.695  21.222  27.951  1.00  0.00     0.014 A 
ATOM     38  C   UNL A   1      42.477  23.273  26.220  1.00  0.00     0.010 A 
ATOM     39  C   UNL A   1      42.020  22.471  28.463  1.00  0.00     0.010 A 
ATOM     40  C   UNL A   1      42.420  23.506  27.603  1.00  0.00    -0.014 A 
BRANCH  40  41
ATOM     41  C   UNL A   1      42.794  24.815  28.191  1.00  0.00     0.031 A 
ATOM     42  C   UNL A   1      41.738  25.869  28.388  1.00  0.00     0.074 A 
ATOM     43  C   UNL A   1      44.084  25.082  28.472  1.00  0.00     0.049 A 
ATOM     44  N   UNL A   1      41.876  27.116  28.754  1.00  0.00    -0.248 NA
ATOM     45  C   UNL A   1      40.346  25.471  28.115  1.00  0.00     0.031 C 
ATOM     46  C   UNL A   1      45.201  24.148  28.315  1.00  0.00     0.029 A 
ATOM     47  N   UNL A   1      44.675  26.231  28.936  1.00  0.00    -0.354 N 
ATOM     48  C   UNL A   1      40.595  27.654  28.742  1.00  0.00     0.074 A 
ATOM     49  C   UNL A   1      39.699  26.614  28.286  1.00  0.00     0.031 C 
ATOM     50  C   UNL A   1      46.339  24.757  28.690  1.00  0.00     0.029 A 
ATOM     51  C   UNL A   1      46.040  26.135  29.064  1.00  0.00     0.049 A 
ATOM     52  H   UNL A   1      44.169  27.045  29.156  1.00  0.00     0.167 HD
ATOM     53  C   UNL A   1      40.197  28.897  29.098  1.00  0.00     0.031 A 
ATOM     54  C   UNL A   1      46.950  27.063  29.420  1.00  0.00     0.031 A 
ATOM     55  C   UNL A   1      41.087  29.929  29.555  1.00  0.00     0.049 A 
ATOM     56  C   UNL A   1      46.483  28.454  29.756  1.00  0.00     0.074 A 
ATOM     57  C   UNL A   1      40.779  31.217  29.957  1.00  0.00     0.029 A 
ATOM     58  N   UNL A   1      42.460  29.787  29.674  1.00  0.00    -0.354 N 
ATOM     59  N   UNL A   1      45.264  28.935  29.776  1.00  0.00    -0.248 NA
ATOM     60  C   UNL A   1      47.520  29.428  30.128  1.00  0.00     0.031 C 
ATOM     61  C   UNL A   1      41.971  31.869  30.279  1.00  0.00     0.029 A 
ATOM     62  C   UNL A   1      43.013  30.967  30.136  1.00  0.00     0.049 A 
ATOM     63  H   UNL A   1      42.965  28.970  29.461  1.00  0.00     0.167 HD
ATOM     64  C   UNL A   1      45.384  30.250  30.208  1.00  0.00     0.074 A 
ATOM     65  C   UNL A   1      46.792  30.491  30.442  1.00  0.00     0.031 C 
ATOM     66  C   UNL A   1      44.413  31.176  30.397  1.00  0.00     0.031 A 
BRANCH  53  67
ATOM     67  C   UNL A   1      38.729  29.211  29.016  1.00  0.00    -0.014 A 
ATOM     68  C   UNL A   1      37.904  29.103  30.147  1.00  0.00     0.009 A 
ATOM     69  C   UNL A   1      38.176  29.678  27.814  1.00  0.00     0.009 A 
ATOM     70  C   UNL A   1      36.551  29.434  30.070  1.00  0.00     0.001 A 
ATOM     71  C   UNL A   1      36.829  30.036  27.747  1.00  0.00     0.001 A 
ATOM     72  C   UNL A   1      36.016  29.908  28.873  1.00  0.00     0.000 A 
ENDBRANCH  53  67
BRANCH  54  73
ATOM     73  C   UNL A   1      48.397  26.721  29.476  1.00  0.00    -0.014 A 
ATOM     74  C   UNL A   1      49.226  26.953  28.367  1.00  0.00     0.009 A 
ATOM     75  C   UNL A   1      48.948  26.119  30.618  1.00  0.00     0.009 A 
ATOM     76  C   UNL A   1      50.563  26.548  28.384  1.00  0.00     0.001 A 
ATOM     77  C   UNL A   1      50.294  25.748  30.645  1.00  0.00     0.001 A 
ATOM     78  C   UNL A   1      51.096  25.947  29.523  1.00  0.00     0.000 A 
ENDBRANCH  54  73
BRANCH  66  79
ATOM     79  C   UNL A   1      44.821  32.507  30.959  1.00  0.00    -0.014 A 
ATOM     80  C   UNL A   1      45.148  33.588  30.126  1.00  0.00     0.009 A 
ATOM     81  C   UNL A   1      44.802  32.697  32.350  1.00  0.00     0.009 A 
ATOM     82  C   UNL A   1      45.471  34.828  30.680  1.00  0.00     0.001 A 
ATOM     83  C   UNL A   1      45.096  33.946  32.899  1.00  0.00     0.001 A 
ATOM     84  C   UNL A   1      45.437  35.008  32.063  1.00  0.00     0.000 A 
ENDBRANCH  66  79
ENDBRANCH  40  41
ENDBRANCH  32  35
ENDBRANCH  30  31
ENDBRANCH  29  30
ENDBRANCH  28  29
ENDBRANCH   1  28
TORSDOF 17
ENDMDL
MODEL 3
REMARK VINA RESULT:     -10.0      5.257     10.555
REMARK SMILES COc1cc([N+](=O)[O-])cc([C@H]2[NH2+][C@H](C(=O)NCCCCCCNC(=O)c3ccc(-c4c5nc(c(-c6ccccc6)c6ccc([nH]6)c(-c6ccccc6)c6nc(c(-c7ccccc7)c7ccc4[nH]7)C=C6)C=C5)cc3)CS2)c1O
REMARK SMILES IDX 19 1 18 2 17 3 16 4 14 5 15 6 13 8 11 9 12 10 75 11 74 14
REMARK SMILES IDX 10 15 3 16 4 17 76 18 5 19 9 20 2 21 1 22 77 23 6 25 7 26
REMARK SMILES IDX 8 27 20 28 21 29 22 30 23 31 24 32 25 34 26 35 27 36 73 37
REMARK SMILES IDX 28 38 72 39 29 40 30 41 31 42 66 43 32 44 71 45 65 46 67 47
REMARK SMILES IDX 33 48 70 49 64 50 63 51 34 53 56 54 41 55 55 56 42 57 45 58
REMARK SMILES IDX 54 59 68 60 43 61 44 62 53 64 69 65 46 66 35 67 36 68 40 69
REMARK SMILES IDX 37 70 39 71 38 72 57 73 58 74 62 75 59 76 61 77 60 78 47 79
REMARK SMILES IDX 48 80 52 81 49 82 51 83 50 84
REMARK H PARENT 16 7 12 12 12 13 77 24 23 33 67 52 45 63
REMARK Flexibility Score: inf
ROOT
ATOM      1  C   UNL A   1      30.880  29.602  24.530  1.00  0.00     0.002 C 
ENDROOT
BRANCH   1   2
ATOM      2  C   UNL A   1      31.635  29.113  23.289  1.00  0.00     0.021 C 
BRANCH   2   3
ATOM      3  C   UNL A   1      30.839  28.071  22.500  1.00  0.00     0.116 C 
BRANCH   3   4
ATOM      4  N   UNL A   1      31.718  27.285  21.664  1.00  0.00    -0.351 N 
ATOM      5  C   UNL A   1      32.538  26.235  21.939  1.00  0.00     0.279 C 
ATOM      6  O   UNL A   1      33.260  25.851  21.012  1.00  0.00    -0.268 OA
ATOM      7  H   UNL A   1      31.725  27.561  20.720  1.00  0.00     0.163 HD
BRANCH   5   8
ATOM      8  C   UNL A   1      32.553  25.478  23.281  1.00  0.00     0.283 C 
ATOM      9  C   UNL A   1      34.202  23.805  23.768  1.00  0.00     0.278 C 
ATOM     10  N   UNL A   1      32.902  24.025  23.149  1.00  0.00    -0.320 N 
ATOM     11  S   UNL A   1      34.330  24.931  25.165  1.00  0.00    -0.087 SA
ATOM     12  H   UNL A   1      32.196  23.458  23.619  1.00  0.00     0.348 HD
ATOM     13  H   UNL A   1      32.935  23.762  22.165  1.00  0.00     0.348 HD
ATOM     14  C   UNL A   1      33.353  26.209  24.357  1.00  0.00     0.151 C 
BRANCH   9  15
ATOM     15  C   UNL A   1      34.616  22.353  23.959  1.00  0.00     0.073 A 
ATOM     16  C   UNL A   1      34.174  20.075  24.749  1.00  0.00     0.167 A 
ATOM     17  C   UNL A   1      35.530  19.907  25.049  1.00  0.00     0.136 A 
ATOM     18  C   UNL A   1      33.733  21.271  24.154  1.00  0.00     0.168 A 
ATOM     19  C   UNL A   1      36.439  20.920  24.750  1.00  0.00     0.273 A 
ATOM     20  C   UNL A   1      35.992  22.129  24.199  1.00  0.00     0.100 A 
BRANCH  16  21
ATOM     21  O   UNL A   1      33.407  19.004  25.134  1.00  0.00    -0.493 OA
ATOM     22  C   UNL A   1      33.800  17.708  24.691  1.00  0.00     0.278 C 
ENDBRANCH  16  21
BRANCH  18  23
ATOM     23  O   UNL A   1      32.426  21.347  23.759  1.00  0.00    -0.504 OA
ATOM     24  H   UNL A   1      31.753  21.501  24.392  1.00  0.00     0.293 HD
ENDBRANCH  18  23
BRANCH  19  25
ATOM     25  N   UNL A   1      37.853  20.765  25.115  1.00  0.00     0.062 N 
ATOM     26  O   UNL A   1      38.476  21.776  25.468  1.00  0.00    -0.258 OA
ATOM     27  O   UNL A   1      38.350  19.633  25.017  1.00  0.00    -0.258 OA
ENDBRANCH  19  25
ENDBRANCH   9  15
ENDBRANCH   5   8
ENDBRANCH   3   4
ENDBRANCH   2   3
ENDBRANCH   1   2
BRANCH   1  28
ATOM     28  C   UNL A   1      31.766  29.791  25.770  1.00  0.00     0.002 C 
BRANCH  28  29
ATOM     29  C   UNL A   1      32.922  28.793  25.892  1.00  0.00     0.021 C 
BRANCH  29  30
ATOM     30  C   UNL A   1      33.719  28.925  27.185  1.00  0.00     0.116 C 
BRANCH  30  31
ATOM     31  N   UNL A   1      33.698  30.293  27.681  1.00  0.00    -0.352 N 
ATOM     32  C   UNL A   1      34.628  30.944  28.451  1.00  0.00     0.251 C 
ATOM     33  H   UNL A   1      32.908  30.824  27.428  1.00  0.00     0.163 HD
ATOM     34  O   UNL A   1      34.352  32.001  29.003  1.00  0.00    -0.269 OA
BRANCH  32  35
ATOM     35  C   UNL A   1      35.968  30.348  28.614  1.00  0.00     0.039 A 
ATOM     36  C   UNL A   1      36.885  30.429  27.563  1.00  0.00     0.014 A 
ATOM     37  C   UNL A   1      36.312  29.712  29.810  1.00  0.00     0.014 A 
ATOM     38  C   UNL A   1      38.173  29.918  27.734  1.00  0.00     0.010 A 
ATOM     39  C   UNL A   1      37.615  29.270  30.003  1.00  0.00     0.010 A 
ATOM     40  C   UNL A   1      38.555  29.363  28.966  1.00  0.00    -0.014 A 
BRANCH  40  41
ATOM     41  C   UNL A   1      39.925  28.848  29.198  1.00  0.00     0.031 A 
ATOM     42  C   UNL A   1      40.974  29.761  29.772  1.00  0.00     0.074 A 
ATOM     43  C   UNL A   1      40.245  27.593  28.825  1.00  0.00     0.049 A 
ATOM     44  N   UNL A   1      42.256  29.552  29.924  1.00  0.00    -0.248 NA
ATOM     45  C   UNL A   1      40.524  31.093  30.211  1.00  0.00     0.031 C 
ATOM     46  C   UNL A   1      39.320  26.615  28.248  1.00  0.00     0.029 A 
ATOM     47  N   UNL A   1      41.447  26.931  28.861  1.00  0.00    -0.354 N 
ATOM     48  C   UNL A   1      42.766  30.727  30.462  1.00  0.00     0.074 A 
ATOM     49  C   UNL A   1      41.667  31.662  30.565  1.00  0.00     0.031 C 
ATOM     50  C   UNL A   1      39.986  25.474  27.999  1.00  0.00     0.029 A 
ATOM     51  C   UNL A   1      41.390  25.657  28.349  1.00  0.00     0.049 A 
ATOM     52  H   UNL A   1      42.271  27.331  29.221  1.00  0.00     0.167 HD
ATOM     53  C   UNL A   1      44.032  30.998  30.855  1.00  0.00     0.031 A 
ATOM     54  C   UNL A   1      42.367  24.749  28.162  1.00  0.00     0.031 A 
ATOM     55  C   UNL A   1      45.123  30.067  30.756  1.00  0.00     0.049 A 
ATOM     56  C   UNL A   1      43.777  25.098  28.556  1.00  0.00     0.074 A 
ATOM     57  C   UNL A   1      46.441  30.239  31.144  1.00  0.00     0.029 A 
ATOM     58  N   UNL A   1      45.020  28.787  30.236  1.00  0.00    -0.354 N 
ATOM     59  N   UNL A   1      44.235  26.200  29.098  1.00  0.00    -0.248 NA
ATOM     60  C   UNL A   1      44.804  24.073  28.319  1.00  0.00     0.031 C 
ATOM     61  C   UNL A   1      47.145  29.078  30.820  1.00  0.00     0.029 A 
ATOM     62  C   UNL A   1      46.252  28.162  30.286  1.00  0.00     0.049 A 
ATOM     63  H   UNL A   1      44.194  28.383  29.884  1.00  0.00     0.167 HD
ATOM     64  C   UNL A   1      45.590  25.982  29.311  1.00  0.00     0.074 A 
ATOM     65  C   UNL A   1      45.881  24.643  28.844  1.00  0.00     0.031 C 
ATOM     66  C   UNL A   1      46.513  26.815  29.849  1.00  0.00     0.031 A 
BRANCH  53  67
ATOM     67  C   UNL A   1      44.308  32.355  31.437  1.00  0.00    -0.014 A 
ATOM     68  C   UNL A   1      44.652  33.438  30.613  1.00  0.00     0.009 A 
ATOM     69  C   UNL A   1      44.163  32.571  32.816  1.00  0.00     0.009 A 
ATOM     70  C   UNL A   1      44.868  34.704  31.159  1.00  0.00     0.001 A 
ATOM     71  C   UNL A   1      44.351  33.844  33.357  1.00  0.00     0.001 A 
ATOM     72  C   UNL A   1      44.709  34.908  32.530  1.00  0.00     0.000 A 
ENDBRANCH  53  67
BRANCH  54  73
ATOM     73  C   UNL A   1      42.060  23.419  27.569  1.00  0.00    -0.014 A 
ATOM     74  C   UNL A   1      41.577  22.376  28.375  1.00  0.00     0.009 A 
ATOM     75  C   UNL A   1      42.293  23.170  26.208  1.00  0.00     0.009 A 
ATOM     76  C   UNL A   1      41.377  21.101  27.840  1.00  0.00     0.001 A 
ATOM     77  C   UNL A   1      42.058  21.903  25.668  1.00  0.00     0.001 A 
ATOM     78  C   UNL A   1      41.616  20.866  26.487  1.00  0.00     0.000 A 
ENDBRANCH  54  73
BRANCH  66  79
ATOM     79  C   UNL A   1      47.904  26.283  30.042  1.00  0.00    -0.014 A 
ATOM     80  C   UNL A   1      48.336  25.786  31.280  1.00  0.00     0.009 A 
ATOM     81  C   UNL A   1      48.769  26.214  28.937  1.00  0.00     0.009 A 
ATOM     82  C   UNL A   1      49.619  25.249  31.412  1.00  0.00     0.001 A 
ATOM     83  C   UNL A   1      50.038  25.649  29.066  1.00  0.00     0.001 A 
ATOM     84  C   UNL A   1      50.464  25.174  30.305  1.00  0.00     0.000 A 
ENDBRANCH  66  79
ENDBRANCH  40  41
ENDBRANCH  32  35
ENDBRANCH  30  31
ENDBRANCH  29  30
ENDBRANCH  28  29
ENDBRANCH   1  28
TORSDOF 17
ENDMDL
