MODEL 1
REMARK VINA RESULT:     -10.0      0.000      0.000
REMARK SMILES CC(C)OCCS(=O)(=O)N1CCC[C@H](C(=O)NCCCCCCNC(=O)c2ccc(-c3c4nc(c(-c5ccccc5)c5ccc([nH]5)c(-c5ccccc5)c5nc(c(-c6ccccc6)c6ccc3[nH]6)C=C5)C=C4)cc2)C1
REMARK SMILES IDX 19 1 18 2 17 3 15 4 16 5 14 7 10 8 11 9 75 10 12 11 13 12
REMARK SMILES IDX 7 13 8 14 9 15 6 16 5 17 4 18 2 19 1 20 3 21 20 22 21 23
REMARK SMILES IDX 22 24 23 25 24 26 25 27 26 29 27 30 28 31 74 32 29 33 73 34
REMARK SMILES IDX 30 35 31 36 32 37 67 38 33 39 72 40 66 41 68 42 34 43 71 44
REMARK SMILES IDX 65 45 64 46 35 48 57 49 42 50 56 51 43 52 46 53 55 54 69 55
REMARK SMILES IDX 44 56 45 57 54 59 70 60 47 61 36 62 37 63 41 64 38 65 40 66
REMARK SMILES IDX 39 67 58 68 59 69 63 70 60 71 62 72 61 73 48 74 49 75 53 76
REMARK SMILES IDX 50 77 52 78 51 79
REMARK H PARENT 17 6 24 28 68 47 46 58
REMARK Flexibility Score: inf
ROOT
ATOM      1  C   UNL A   1      37.771  22.949  25.260  1.00  0.00     0.021 C 
ENDROOT
BRANCH   1   2
ATOM      2  C   UNL A   1      36.757  23.896  25.878  1.00  0.00     0.116 C 
BRANCH   2   3
ATOM      3  N   UNL A   1      35.932  23.197  26.824  1.00  0.00    -0.356 N 
ATOM      4  C   UNL A   1      34.603  22.954  26.770  1.00  0.00     0.224 C 
ATOM      5  O   UNL A   1      34.082  22.451  27.769  1.00  0.00    -0.275 OA
ATOM      6  H   UNL A   1      36.397  22.849  27.618  1.00  0.00     0.163 HD
BRANCH   4   7
ATOM      7  C   UNL A   1      33.751  23.273  25.535  1.00  0.00     0.093 C 
ATOM      8  N   UNL A   1      31.354  24.214  25.773  1.00  0.00    -0.201 NA
ATOM      9  C   UNL A   1      30.849  23.163  24.872  1.00  0.00     0.102 C 
ATOM     10  C   UNL A   1      32.820  24.472  25.679  1.00  0.00     0.115 C 
ATOM     11  C   UNL A   1      31.664  21.880  25.028  1.00  0.00     0.018 C 
ATOM     12  C   UNL A   1      33.155  22.081  24.803  1.00  0.00     0.016 C 
BRANCH   8  13
ATOM     13  S   UNL A   1      30.288  25.524  26.128  1.00  0.00     0.216 S 
ATOM     14  O   UNL A   1      31.062  26.588  26.719  1.00  0.00    -0.212 OA
ATOM     15  O   UNL A   1      29.201  24.943  26.903  1.00  0.00    -0.212 OA
BRANCH  13  16
ATOM     16  C   UNL A   1      29.578  26.053  24.535  1.00  0.00     0.182 C 
BRANCH  16  17
ATOM     17  C   UNL A   1      30.357  27.085  23.692  1.00  0.00     0.178 C 
BRANCH  17  18
ATOM     18  O   UNL A   1      29.601  28.259  23.329  1.00  0.00    -0.378 OA
BRANCH  18  19
ATOM     19  C   UNL A   1      30.185  29.562  23.476  1.00  0.00     0.112 C 
ATOM     20  C   UNL A   1      29.173  30.694  23.559  1.00  0.00     0.038 C 
ATOM     21  C   UNL A   1      31.081  29.706  24.671  1.00  0.00     0.038 C 
ENDBRANCH  18  19
ENDBRANCH  17  18
ENDBRANCH  16  17
ENDBRANCH  13  16
ENDBRANCH   8  13
ENDBRANCH   4   7
ENDBRANCH   2   3
ENDBRANCH   1   2
BRANCH   1  22
ATOM     22  C   UNL A   1      37.136  21.958  24.290  1.00  0.00     0.002 C 
BRANCH  22  23
ATOM     23  C   UNL A   1      36.946  20.546  24.860  1.00  0.00     0.002 C 
BRANCH  23  24
ATOM     24  C   UNL A   1      38.202  19.669  24.853  1.00  0.00     0.021 C 
BRANCH  24  25
ATOM     25  C   UNL A   1      39.188  19.974  25.974  1.00  0.00     0.116 C 
BRANCH  25  26
ATOM     26  N   UNL A   1      40.334  19.083  25.936  1.00  0.00    -0.352 N 
ATOM     27  C   UNL A   1      41.662  19.379  26.036  1.00  0.00     0.251 C 
ATOM     28  H   UNL A   1      40.122  18.128  25.824  1.00  0.00     0.163 HD
ATOM     29  O   UNL A   1      42.509  18.537  25.760  1.00  0.00    -0.269 OA
BRANCH  27  30
ATOM     30  C   UNL A   1      42.065  20.724  26.478  1.00  0.00     0.039 A 
ATOM     31  C   UNL A   1      42.095  20.994  27.845  1.00  0.00     0.014 A 
ATOM     32  C   UNL A   1      42.379  21.715  25.543  1.00  0.00     0.014 A 
ATOM     33  C   UNL A   1      42.448  22.267  28.277  1.00  0.00     0.010 A 
ATOM     34  C   UNL A   1      42.817  22.957  25.979  1.00  0.00     0.010 A 
ATOM     35  C   UNL A   1      42.818  23.255  27.348  1.00  0.00    -0.014 A 
BRANCH  35  36
ATOM     36  C   UNL A   1      43.139  24.627  27.800  1.00  0.00     0.031 A 
ATOM     37  C   UNL A   1      44.576  25.056  27.912  1.00  0.00     0.074 A 
ATOM     38  C   UNL A   1      42.141  25.474  28.109  1.00  0.00     0.049 A 
ATOM     39  N   UNL A   1      45.065  26.210  28.285  1.00  0.00    -0.248 NA
ATOM     40  C   UNL A   1      45.602  24.050  27.584  1.00  0.00     0.031 C 
ATOM     41  C   UNL A   1      40.712  25.154  28.072  1.00  0.00     0.029 A 
ATOM     42  N   UNL A   1      42.179  26.784  28.507  1.00  0.00    -0.354 N 
ATOM     43  C   UNL A   1      46.446  26.068  28.235  1.00  0.00     0.074 A 
ATOM     44  C   UNL A   1      46.720  24.697  27.871  1.00  0.00     0.031 C 
ATOM     45  C   UNL A   1      40.009  26.250  28.400  1.00  0.00     0.029 A 
ATOM     46  C   UNL A   1      40.936  27.334  28.706  1.00  0.00     0.049 A 
ATOM     47  H   UNL A   1      43.017  27.284  28.639  1.00  0.00     0.167 HD
ATOM     48  C   UNL A   1      47.401  27.004  28.438  1.00  0.00     0.031 A 
ATOM     49  C   UNL A   1      40.588  28.575  29.091  1.00  0.00     0.031 A 
ATOM     50  C   UNL A   1      47.125  28.368  28.798  1.00  0.00     0.049 A 
ATOM     51  C   UNL A   1      41.674  29.588  29.334  1.00  0.00     0.074 A 
ATOM     52  C   UNL A   1      48.016  29.402  29.017  1.00  0.00     0.029 A 
ATOM     53  N   UNL A   1      45.852  28.887  28.984  1.00  0.00    -0.354 N 
ATOM     54  N   UNL A   1      42.975  29.451  29.235  1.00  0.00    -0.248 NA
ATOM     55  C   UNL A   1      41.238  30.937  29.715  1.00  0.00     0.031 C 
ATOM     56  C   UNL A   1      47.285  30.539  29.377  1.00  0.00     0.029 A 
ATOM     57  C   UNL A   1      45.936  30.228  29.319  1.00  0.00     0.049 A 
ATOM     58  H   UNL A   1      45.014  28.378  28.891  1.00  0.00     0.167 HD
ATOM     59  C   UNL A   1      43.508  30.705  29.501  1.00  0.00     0.074 A 
ATOM     60  C   UNL A   1      42.389  31.592  29.743  1.00  0.00     0.031 C 
ATOM     61  C   UNL A   1      44.807  31.093  29.543  1.00  0.00     0.031 A 
BRANCH  48  62
ATOM     62  C   UNL A   1      48.833  26.581  28.260  1.00  0.00    -0.014 A 
ATOM     63  C   UNL A   1      49.460  26.659  27.004  1.00  0.00     0.009 A 
ATOM     64  C   UNL A   1      49.579  26.132  29.360  1.00  0.00     0.009 A 
ATOM     65  C   UNL A   1      50.790  26.266  26.849  1.00  0.00     0.001 A 
ATOM     66  C   UNL A   1      50.919  25.769  29.208  1.00  0.00     0.001 A 
ATOM     67  C   UNL A   1      51.520  25.829  27.952  1.00  0.00     0.000 A 
ENDBRANCH  48  62
BRANCH  49  68
ATOM     68  C   UNL A   1      39.158  28.938  29.266  1.00  0.00    -0.014 A 
ATOM     69  C   UNL A   1      38.533  28.821  30.518  1.00  0.00     0.009 A 
ATOM     70  C   UNL A   1      38.396  29.369  28.168  1.00  0.00     0.009 A 
ATOM     71  C   UNL A   1      37.166  29.073  30.654  1.00  0.00     0.001 A 
ATOM     72  C   UNL A   1      37.038  29.656  28.316  1.00  0.00     0.001 A 
ATOM     73  C   UNL A   1      36.420  29.491  29.554  1.00  0.00     0.000 A 
ENDBRANCH  49  68
BRANCH  61  74
ATOM     74  C   UNL A   1      45.076  32.551  29.793  1.00  0.00    -0.014 A 
ATOM     75  C   UNL A   1      45.272  33.055  31.088  1.00  0.00     0.009 A 
ATOM     76  C   UNL A   1      45.142  33.434  28.703  1.00  0.00     0.009 A 
ATOM     77  C   UNL A   1      45.472  34.421  31.290  1.00  0.00     0.001 A 
ATOM     78  C   UNL A   1      45.381  34.793  28.904  1.00  0.00     0.001 A 
ATOM     79  C   UNL A   1      45.530  35.288  30.198  1.00  0.00     0.000 A 
ENDBRANCH  61  74
ENDBRANCH  35  36
ENDBRANCH  27  30
ENDBRANCH  25  26
ENDBRANCH  24  25
ENDBRANCH  23  24
ENDBRANCH  22  23
ENDBRANCH   1  22
TORSDOF 18
ENDMDL
MODEL 2
REMARK VINA RESULT:      -9.9      1.525      6.193
REMARK SMILES CC(C)OCCS(=O)(=O)N1CCC[C@H](C(=O)NCCCCCCNC(=O)c2ccc(-c3c4nc(c(-c5ccccc5)c5ccc([nH]5)c(-c5ccccc5)c5nc(c(-c6ccccc6)c6ccc3[nH]6)C=C5)C=C4)cc2)C1
REMARK SMILES IDX 19 1 18 2 17 3 15 4 16 5 14 7 10 8 11 9 75 10 12 11 13 12
REMARK SMILES IDX 7 13 8 14 9 15 6 16 5 17 4 18 2 19 1 20 3 21 20 22 21 23
REMARK SMILES IDX 22 24 23 25 24 26 25 27 26 29 27 30 28 31 74 32 29 33 73 34
REMARK SMILES IDX 30 35 31 36 32 37 67 38 33 39 72 40 66 41 68 42 34 43 71 44
REMARK SMILES IDX 65 45 64 46 35 48 57 49 42 50 56 51 43 52 46 53 55 54 69 55
REMARK SMILES IDX 44 56 45 57 54 59 70 60 47 61 36 62 37 63 41 64 38 65 40 66
REMARK SMILES IDX 39 67 58 68 59 69 63 70 60 71 62 72 61 73 48 74 49 75 53 76
REMARK SMILES IDX 50 77 52 78 51 79
REMARK H PARENT 17 6 24 28 68 47 46 58
REMARK Flexibility Score: inf
ROOT
ATOM      1  C   UNL A   1      33.658  20.438  26.039  1.00  0.00     0.021 C 
ENDROOT
BRANCH   1   2
ATOM      2  C   UNL A   1      33.960  21.543  27.037  1.00  0.00     0.116 C 
BRANCH   2   3
ATOM      3  N   UNL A   1      32.761  22.263  27.365  1.00  0.00    -0.356 N 
ATOM      4  C   UNL A   1      32.157  23.260  26.680  1.00  0.00     0.224 C 
ATOM      5  O   UNL A   1      31.205  23.823  27.227  1.00  0.00    -0.275 OA
ATOM      6  H   UNL A   1      32.319  21.993  28.202  1.00  0.00     0.163 HD
BRANCH   4   7
ATOM      7  C   UNL A   1      32.607  23.694  25.279  1.00  0.00     0.093 C 
ATOM      8  N   UNL A   1      31.661  25.832  24.175  1.00  0.00    -0.201 NA
ATOM      9  C   UNL A   1      31.323  25.060  22.965  1.00  0.00     0.102 C 
ATOM     10  C   UNL A   1      32.684  25.200  25.057  1.00  0.00     0.115 C 
ATOM     11  C   UNL A   1      30.953  23.623  23.326  1.00  0.00     0.018 C 
ATOM     12  C   UNL A   1      32.036  22.901  24.114  1.00  0.00     0.016 C 
BRANCH   8  13
ATOM     13  S   UNL A   1      31.598  27.552  24.053  1.00  0.00     0.216 S 
ATOM     14  O   UNL A   1      32.899  28.025  23.649  1.00  0.00    -0.212 OA
ATOM     15  O   UNL A   1      31.055  28.013  25.324  1.00  0.00    -0.212 OA
BRANCH  13  16
ATOM     16  C   UNL A   1      30.351  27.930  22.778  1.00  0.00     0.182 C 
BRANCH  16  17
ATOM     17  C   UNL A   1      29.746  29.350  22.743  1.00  0.00     0.178 C 
BRANCH  17  18
ATOM     18  O   UNL A   1      28.624  29.504  21.850  1.00  0.00    -0.378 OA
BRANCH  18  19
ATOM     19  C   UNL A   1      27.820  30.691  21.907  1.00  0.00     0.112 C 
ATOM     20  C   UNL A   1      27.734  31.322  23.288  1.00  0.00     0.038 C 
ATOM     21  C   UNL A   1      28.258  31.779  20.971  1.00  0.00     0.038 C 
ENDBRANCH  18  19
ENDBRANCH  17  18
ENDBRANCH  16  17
ENDBRANCH  13  16
ENDBRANCH   8  13
ENDBRANCH   4   7
ENDBRANCH   2   3
ENDBRANCH   1   2
BRANCH   1  22
ATOM     22  C   UNL A   1      34.701  20.345  24.931  1.00  0.00     0.002 C 
BRANCH  22  23
ATOM     23  C   UNL A   1      36.045  21.005  25.267  1.00  0.00     0.002 C 
BRANCH  23  24
ATOM     24  C   UNL A   1      37.283  20.172  24.917  1.00  0.00     0.021 C 
BRANCH  24  25
ATOM     25  C   UNL A   1      38.592  20.738  25.451  1.00  0.00     0.116 C 
BRANCH  25  26
ATOM     26  N   UNL A   1      39.584  19.697  25.650  1.00  0.00    -0.352 N 
ATOM     27  C   UNL A   1      40.886  19.807  26.043  1.00  0.00     0.251 C 
ATOM     28  H   UNL A   1      39.272  18.779  25.479  1.00  0.00     0.163 HD
ATOM     29  O   UNL A   1      41.648  18.851  25.946  1.00  0.00    -0.269 OA
BRANCH  27  30
ATOM     30  C   UNL A   1      41.365  21.089  26.584  1.00  0.00     0.039 A 
ATOM     31  C   UNL A   1      41.165  21.356  27.938  1.00  0.00     0.014 A 
ATOM     32  C   UNL A   1      41.978  22.029  25.749  1.00  0.00     0.014 A 
ATOM     33  C   UNL A   1      41.588  22.574  28.458  1.00  0.00     0.010 A 
ATOM     34  C   UNL A   1      42.479  23.205  26.289  1.00  0.00     0.010 A 
ATOM     35  C   UNL A   1      42.253  23.503  27.640  1.00  0.00    -0.014 A 
BRANCH  35  36
ATOM     36  C   UNL A   1      42.654  24.823  28.176  1.00  0.00     0.031 A 
ATOM     37  C   UNL A   1      41.622  25.908  28.327  1.00  0.00     0.074 A 
ATOM     38  C   UNL A   1      43.936  25.039  28.519  1.00  0.00     0.049 A 
ATOM     39  N   UNL A   1      41.769  27.127  28.777  1.00  0.00    -0.248 NA
ATOM     40  C   UNL A   1      40.250  25.591  27.895  1.00  0.00     0.031 C 
ATOM     41  C   UNL A   1      45.027  24.071  28.382  1.00  0.00     0.029 A 
ATOM     42  N   UNL A   1      44.536  26.143  29.064  1.00  0.00    -0.354 N 
ATOM     43  C   UNL A   1      40.514  27.716  28.683  1.00  0.00     0.074 A 
ATOM     44  C   UNL A   1      39.636  26.751  28.063  1.00  0.00     0.031 C 
ATOM     45  C   UNL A   1      46.157  24.614  28.863  1.00  0.00     0.029 A 
ATOM     46  C   UNL A   1      45.878  25.975  29.305  1.00  0.00     0.049 A 
ATOM     47  H   UNL A   1      44.052  26.977  29.263  1.00  0.00     0.167 HD
ATOM     48  C   UNL A   1      40.119  28.938  29.108  1.00  0.00     0.031 A 
ATOM     49  C   UNL A   1      46.778  26.828  29.827  1.00  0.00     0.031 A 
ATOM     50  C   UNL A   1      40.996  29.895  29.725  1.00  0.00     0.049 A 
ATOM     51  C   UNL A   1      46.314  28.190  30.267  1.00  0.00     0.074 A 
ATOM     52  C   UNL A   1      40.698  31.159  30.203  1.00  0.00     0.029 A 
ATOM     53  N   UNL A   1      42.347  29.686  29.957  1.00  0.00    -0.354 N 
ATOM     54  N   UNL A   1      45.113  28.715  30.215  1.00  0.00    -0.248 NA
ATOM     55  C   UNL A   1      47.329  29.067  30.864  1.00  0.00     0.031 C 
ATOM     56  C   UNL A   1      41.879  31.731  30.686  1.00  0.00     0.029 A 
ATOM     57  C   UNL A   1      42.897  30.799  30.569  1.00  0.00     0.049 A 
ATOM     58  H   UNL A   1      42.841  28.867  29.723  1.00  0.00     0.167 HD
ATOM     59  C   UNL A   1      45.221  29.965  30.810  1.00  0.00     0.074 A 
ATOM     60  C   UNL A   1      46.599  30.108  31.233  1.00  0.00     0.031 C 
ATOM     61  C   UNL A   1      44.269  30.913  30.992  1.00  0.00     0.031 A 
BRANCH  48  62
ATOM     62  C   UNL A   1      38.670  29.298  28.927  1.00  0.00    -0.014 A 
ATOM     63  C   UNL A   1      38.206  29.844  27.717  1.00  0.00     0.009 A 
ATOM     64  C   UNL A   1      37.749  29.059  29.958  1.00  0.00     0.009 A 
ATOM     65  C   UNL A   1      36.860  30.173  27.558  1.00  0.00     0.001 A 
ATOM     66  C   UNL A   1      36.397  29.360  29.783  1.00  0.00     0.001 A 
ATOM     67  C   UNL A   1      35.955  29.924  28.588  1.00  0.00     0.000 A 
ENDBRANCH  48  62
BRANCH  49  68
ATOM     68  C   UNL A   1      48.202  26.428  29.971  1.00  0.00    -0.014 A 
ATOM     69  C   UNL A   1      48.727  26.074  31.224  1.00  0.00     0.009 A 
ATOM     70  C   UNL A   1      49.058  26.436  28.857  1.00  0.00     0.009 A 
ATOM     71  C   UNL A   1      50.088  25.792  31.368  1.00  0.00     0.001 A 
ATOM     72  C   UNL A   1      50.410  26.117  28.998  1.00  0.00     0.001 A 
ATOM     73  C   UNL A   1      50.927  25.813  30.256  1.00  0.00     0.000 A 
ENDBRANCH  49  68
BRANCH  61  74
ATOM     74  C   UNL A   1      44.675  32.154  31.739  1.00  0.00    -0.014 A 
ATOM     75  C   UNL A   1      45.163  33.290  31.075  1.00  0.00     0.009 A 
ATOM     76  C   UNL A   1      44.555  32.182  33.138  1.00  0.00     0.009 A 
ATOM     77  C   UNL A   1      45.576  34.407  31.801  1.00  0.00     0.001 A 
ATOM     78  C   UNL A   1      44.931  33.316  33.858  1.00  0.00     0.001 A 
ATOM     79  C   UNL A   1      45.457  34.421  33.192  1.00  0.00     0.000 A 
ENDBRANCH  61  74
ENDBRANCH  35  36
ENDBRANCH  27  30
ENDBRANCH  25  26
ENDBRANCH  24  25
ENDBRANCH  23  24
ENDBRANCH  22  23
ENDBRANCH   1  22
TORSDOF 18
ENDMDL
MODEL 3
REMARK VINA RESULT:      -9.6      5.849     10.778
REMARK SMILES CC(C)OCCS(=O)(=O)N1CCC[C@H](C(=O)NCCCCCCNC(=O)c2ccc(-c3c4nc(c(-c5ccccc5)c5ccc([nH]5)c(-c5ccccc5)c5nc(c(-c6ccccc6)c6ccc3[nH]6)C=C5)C=C4)cc2)C1
REMARK SMILES IDX 19 1 18 2 17 3 15 4 16 5 14 7 10 8 11 9 75 10 12 11 13 12
REMARK SMILES IDX 7 13 8 14 9 15 6 16 5 17 4 18 2 19 1 20 3 21 20 22 21 23
REMARK SMILES IDX 22 24 23 25 24 26 25 27 26 29 27 30 28 31 74 32 29 33 73 34
REMARK SMILES IDX 30 35 31 36 32 37 67 38 33 39 72 40 66 41 68 42 34 43 71 44
REMARK SMILES IDX 65 45 64 46 35 48 57 49 42 50 56 51 43 52 46 53 55 54 69 55
REMARK SMILES IDX 44 56 45 57 54 59 70 60 47 61 36 62 37 63 41 64 38 65 40 66
REMARK SMILES IDX 39 67 58 68 59 69 63 70 60 71 62 72 61 73 48 74 49 75 53 76
REMARK SMILES IDX 50 77 52 78 51 79
REMARK H PARENT 17 6 24 28 68 47 46 58
REMARK Flexibility Score: inf
ROOT
ATOM      1  C   UNL A   1      35.866  32.147  28.086  1.00  0.00     0.021 C 
ENDROOT
BRANCH   1   2
ATOM      2  C   UNL A   1      35.034  30.902  27.828  1.00  0.00     0.116 C 
BRANCH   2   3
ATOM      3  N   UNL A   1      33.674  31.261  27.537  1.00  0.00    -0.356 N 
ATOM      4  C   UNL A   1      32.774  30.613  26.763  1.00  0.00     0.224 C 
ATOM      5  O   UNL A   1      31.702  31.185  26.548  1.00  0.00    -0.275 OA
ATOM      6  H   UNL A   1      33.354  32.091  27.958  1.00  0.00     0.163 HD
BRANCH   4   7
ATOM      7  C   UNL A   1      33.041  29.226  26.166  1.00  0.00     0.093 C 
ATOM      8  N   UNL A   1      31.381  28.146  24.504  1.00  0.00    -0.201 NA
ATOM      9  C   UNL A   1      31.357  26.919  25.321  1.00  0.00     0.102 C 
ATOM     10  C   UNL A   1      32.560  29.030  24.733  1.00  0.00     0.115 C 
ATOM     11  C   UNL A   1      31.539  27.252  26.801  1.00  0.00     0.018 C 
ATOM     12  C   UNL A   1      32.807  28.041  27.090  1.00  0.00     0.016 C 
BRANCH   8  13
ATOM     13  S   UNL A   1      30.691  28.052  22.925  1.00  0.00     0.216 S 
ATOM     14  O   UNL A   1      30.907  29.314  22.262  1.00  0.00    -0.212 OA
ATOM     15  O   UNL A   1      29.322  27.598  23.124  1.00  0.00    -0.212 OA
BRANCH  13  16
ATOM     16  C   UNL A   1      31.571  26.711  22.059  1.00  0.00     0.182 C 
BRANCH  16  17
ATOM     17  C   UNL A   1      33.095  26.578  22.271  1.00  0.00     0.178 C 
BRANCH  17  18
ATOM     18  O   UNL A   1      33.623  25.258  22.027  1.00  0.00    -0.378 OA
BRANCH  18  19
ATOM     19  C   UNL A   1      34.028  24.434  23.129  1.00  0.00     0.112 C 
ATOM     20  C   UNL A   1      34.352  25.203  24.400  1.00  0.00     0.038 C 
ATOM     21  C   UNL A   1      33.030  23.381  23.514  1.00  0.00     0.038 C 
ENDBRANCH  18  19
ENDBRANCH  17  18
ENDBRANCH  16  17
ENDBRANCH  13  16
ENDBRANCH   8  13
ENDBRANCH   4   7
ENDBRANCH   2   3
ENDBRANCH   1   2
BRANCH   1  22
ATOM     22  C   UNL A   1      35.110  33.434  27.775  1.00  0.00     0.002 C 
BRANCH  22  23
ATOM     23  C   UNL A   1      35.311  34.553  28.806  1.00  0.00     0.002 C 
BRANCH  23  24
ATOM     24  C   UNL A   1      34.128  35.515  28.958  1.00  0.00     0.021 C 
BRANCH  24  25
ATOM     25  C   UNL A   1      32.904  34.904  29.628  1.00  0.00     0.116 C 
BRANCH  25  26
ATOM     26  N   UNL A   1      32.432  35.723  30.731  1.00  0.00    -0.352 N 
ATOM     27  C   UNL A   1      32.821  35.719  32.039  1.00  0.00     0.251 C 
ATOM     28  H   UNL A   1      31.731  36.375  30.501  1.00  0.00     0.163 HD
ATOM     29  O   UNL A   1      32.165  36.317  32.884  1.00  0.00    -0.269 OA
BRANCH  27  30
ATOM     30  C   UNL A   1      34.038  34.985  32.421  1.00  0.00     0.039 A 
ATOM     31  C   UNL A   1      35.265  35.641  32.333  1.00  0.00     0.014 A 
ATOM     32  C   UNL A   1      33.965  33.651  32.834  1.00  0.00     0.014 A 
ATOM     33  C   UNL A   1      36.427  34.953  32.666  1.00  0.00     0.010 A 
ATOM     34  C   UNL A   1      35.115  32.996  33.251  1.00  0.00     0.010 A 
ATOM     35  C   UNL A   1      36.359  33.630  33.133  1.00  0.00    -0.014 A 
BRANCH  35  36
ATOM     36  C   UNL A   1      37.597  32.877  33.434  1.00  0.00     0.031 A 
ATOM     37  C   UNL A   1      38.344  33.152  34.710  1.00  0.00     0.074 A 
ATOM     38  C   UNL A   1      38.041  31.956  32.560  1.00  0.00     0.049 A 
ATOM     39  N   UNL A   1      39.442  32.601  35.157  1.00  0.00    -0.248 NA
ATOM     40  C   UNL A   1      37.800  34.202  35.590  1.00  0.00     0.031 C 
ATOM     41  C   UNL A   1      37.417  31.631  31.276  1.00  0.00     0.029 A 
ATOM     42  N   UNL A   1      39.121  31.115  32.628  1.00  0.00    -0.354 N 
ATOM     43  C   UNL A   1      39.716  33.233  36.364  1.00  0.00     0.074 A 
ATOM     44  C   UNL A   1      38.716  34.261  36.543  1.00  0.00     0.031 C 
ATOM     45  C   UNL A   1      38.106  30.637  30.692  1.00  0.00     0.029 A 
ATOM     46  C   UNL A   1      39.237  30.283  31.542  1.00  0.00     0.049 A 
ATOM     47  H   UNL A   1      39.753  31.108  33.383  1.00  0.00     0.167 HD
ATOM     48  C   UNL A   1      40.691  32.959  37.261  1.00  0.00     0.031 A 
ATOM     49  C   UNL A   1      40.157  29.340  31.267  1.00  0.00     0.031 A 
ATOM     50  C   UNL A   1      41.683  31.935  37.080  1.00  0.00     0.049 A 
ATOM     51  C   UNL A   1      41.245  29.074  32.273  1.00  0.00     0.074 A 
ATOM     52  C   UNL A   1      42.710  31.566  37.930  1.00  0.00     0.029 A 
ATOM     53  N   UNL A   1      41.764  31.109  35.969  1.00  0.00    -0.354 N 
ATOM     54  N   UNL A   1      41.462  29.648  33.432  1.00  0.00    -0.248 NA
ATOM     55  C   UNL A   1      42.198  28.009  31.940  1.00  0.00     0.031 C 
ATOM     56  C   UNL A   1      43.439  30.544  37.314  1.00  0.00     0.029 A 
ATOM     57  C   UNL A   1      42.827  30.233  36.110  1.00  0.00     0.049 A 
ATOM     58  H   UNL A   1      41.156  31.141  35.195  1.00  0.00     0.167 HD
ATOM     59  C   UNL A   1      42.550  28.986  33.984  1.00  0.00     0.074 A 
ATOM     60  C   UNL A   1      42.932  27.954  33.041  1.00  0.00     0.031 C 
ATOM     61  C   UNL A   1      43.180  29.207  35.164  1.00  0.00     0.031 A 
BRANCH  48  62
ATOM     62  C   UNL A   1      40.718  33.775  38.524  1.00  0.00    -0.014 A 
ATOM     63  C   UNL A   1      40.087  33.318  39.694  1.00  0.00     0.009 A 
ATOM     64  C   UNL A   1      41.408  34.996  38.561  1.00  0.00     0.009 A 
ATOM     65  C   UNL A   1      40.119  34.081  40.862  1.00  0.00     0.001 A 
ATOM     66  C   UNL A   1      41.465  35.742  39.740  1.00  0.00     0.001 A 
ATOM     67  C   UNL A   1      40.814  35.288  40.886  1.00  0.00     0.000 A 
ENDBRANCH  48  62
BRANCH  49  68
ATOM     68  C   UNL A   1      40.093  28.570  29.997  1.00  0.00    -0.014 A 
ATOM     69  C   UNL A   1      40.697  29.060  28.828  1.00  0.00     0.009 A 
ATOM     70  C   UNL A   1      39.391  27.356  29.937  1.00  0.00     0.009 A 
ATOM     71  C   UNL A   1      40.552  28.379  27.616  1.00  0.00     0.001 A 
ATOM     72  C   UNL A   1      39.279  26.658  28.733  1.00  0.00     0.001 A 
ATOM     73  C   UNL A   1      39.844  27.180  27.571  1.00  0.00     0.000 A 
ENDBRANCH  49  68
BRANCH  61  74
ATOM     74  C   UNL A   1      44.300  28.271  35.525  1.00  0.00    -0.014 A 
ATOM     75  C   UNL A   1      44.070  27.079  36.228  1.00  0.00     0.009 A 
ATOM     76  C   UNL A   1      45.613  28.592  35.143  1.00  0.00     0.009 A 
ATOM     77  C   UNL A   1      45.137  26.256  36.590  1.00  0.00     0.001 A 
ATOM     78  C   UNL A   1      46.673  27.748  35.471  1.00  0.00     0.001 A 
ATOM     79  C   UNL A   1      46.438  26.590  36.208  1.00  0.00     0.000 A 
ENDBRANCH  61  74
ENDBRANCH  35  36
ENDBRANCH  27  30
ENDBRANCH  25  26
ENDBRANCH  24  25
ENDBRANCH  23  24
ENDBRANCH  22  23
ENDBRANCH   1  22
TORSDOF 18
ENDMDL
