MODEL 1
REMARK VINA RESULT:     -11.7      0.000      0.000
REMARK SMILES Cc1ccc(/N=N/c2ccc(NC(=O)CCC(=O)NCCCCCCNC(=O)c3ccc(-c4c5nc(c(-c6ccccc6)c6ccc([nH]6)c(-c6ccccc6)c6nc(c(-c7ccccc7)c7ccc4[nH]7)C=C6)C=C5)cc3)cc2)cc1
REMARK SMILES IDX 21 1 20 2 19 3 17 4 18 5 16 7 15 8 13 9 12 10 14 12 11 13
REMARK SMILES IDX 8 14 9 15 78 16 10 17 77 18 7 19 6 20 5 21 1 22 2 23 3 24
REMARK SMILES IDX 80 25 4 26 79 27 22 28 23 29 24 30 25 31 26 32 27 33 28 35
REMARK SMILES IDX 29 36 30 37 76 38 31 39 75 40 32 41 33 42 34 43 69 44 35 45
REMARK SMILES IDX 74 46 68 47 70 48 36 49 73 50 67 51 66 52 37 54 59 55 44 56
REMARK SMILES IDX 58 57 45 58 48 59 57 60 71 61 46 62 47 63 56 65 72 66 49 67
REMARK SMILES IDX 38 68 39 69 43 70 40 71 42 72 41 73 60 74 61 75 65 76 62 77
REMARK SMILES IDX 64 78 63 79 50 80 51 81 55 82 52 83 54 84 53 85
REMARK H PARENT 19 6 12 11 26 34 70 53 48 64
REMARK Flexibility Score: inf
ROOT
ATOM      1  C   UNL A   1      33.365  27.499  26.669  1.00  0.00     0.021 C 
ENDROOT
BRANCH   1   2
ATOM      2  C   UNL A   1      33.225  26.173  25.923  1.00  0.00     0.116 C 
BRANCH   2   3
ATOM      3  N   UNL A   1      32.127  25.359  26.406  1.00  0.00    -0.356 N 
ATOM      4  C   UNL A   1      32.130  24.067  26.836  1.00  0.00     0.220 C 
ATOM      5  O   UNL A   1      31.105  23.604  27.339  1.00  0.00    -0.275 OA
ATOM      6  H   UNL A   1      31.251  25.805  26.426  1.00  0.00     0.163 HD
BRANCH   4   7
ATOM      7  C   UNL A   1      33.371  23.217  26.686  1.00  0.00     0.110 C 
BRANCH   7   8
ATOM      8  C   UNL A   1      33.087  21.766  26.316  1.00  0.00     0.110 C 
BRANCH   8   9
ATOM      9  C   UNL A   1      33.830  21.272  25.091  1.00  0.00     0.224 C 
ATOM     10  N   UNL A   1      33.659  21.805  23.847  1.00  0.00    -0.326 N 
ATOM     11  H   UNL A   1      34.179  21.358  23.139  1.00  0.00     0.169 HD
ATOM     12  O   UNL A   1      34.711  20.413  25.224  1.00  0.00    -0.275 OA
BRANCH  10  13
ATOM     13  C   UNL A   1      32.874  22.875  23.398  1.00  0.00     0.041 A 
ATOM     14  C   UNL A   1      31.472  25.229  22.765  1.00  0.00     0.086 A 
ATOM     15  C   UNL A   1      30.793  24.072  23.157  1.00  0.00     0.032 A 
ATOM     16  C   UNL A   1      32.861  25.175  22.624  1.00  0.00     0.032 A 
ATOM     17  C   UNL A   1      31.486  22.898  23.456  1.00  0.00     0.028 A 
ATOM     18  C   UNL A   1      33.554  23.993  22.902  1.00  0.00     0.028 A 
BRANCH  14  19
ATOM     19  N   UNL A   1      30.713  26.389  22.549  1.00  0.00    -0.151 NA
ATOM     20  N   UNL A   1      30.272  26.859  23.614  1.00  0.00    -0.151 NA
BRANCH  20  21
ATOM     21  C   UNL A   1      29.736  28.156  23.464  1.00  0.00     0.086 A 
ATOM     22  C   UNL A   1      27.706  31.965  23.222  1.00  0.00     0.044 C 
ATOM     23  C   UNL A   1      28.431  30.654  23.273  1.00  0.00    -0.051 A 
ATOM     24  C   UNL A   1      27.786  29.483  22.864  1.00  0.00     0.006 A 
ATOM     25  C   UNL A   1      29.743  30.577  23.749  1.00  0.00     0.006 A 
ATOM     26  C   UNL A   1      28.435  28.250  22.959  1.00  0.00     0.030 A 
ATOM     27  C   UNL A   1      30.388  29.340  23.840  1.00  0.00     0.030 A 
ENDBRANCH  20  21
ENDBRANCH  14  19
ENDBRANCH  10  13
ENDBRANCH   8   9
ENDBRANCH   7   8
ENDBRANCH   4   7
ENDBRANCH   2   3
ENDBRANCH   1   2
BRANCH   1  28
ATOM     28  C   UNL A   1      32.054  28.232  26.977  1.00  0.00     0.002 C 
BRANCH  28  29
ATOM     29  C   UNL A   1      32.154  29.754  27.144  1.00  0.00     0.002 C 
BRANCH  29  30
ATOM     30  C   UNL A   1      33.452  30.398  26.657  1.00  0.00     0.021 C 
BRANCH  30  31
ATOM     31  C   UNL A   1      34.241  31.108  27.745  1.00  0.00     0.116 C 
BRANCH  31  32
ATOM     32  N   UNL A   1      33.691  32.393  28.132  1.00  0.00    -0.352 N 
ATOM     33  C   UNL A   1      34.080  33.265  29.127  1.00  0.00     0.251 C 
ATOM     34  H   UNL A   1      32.917  32.689  27.601  1.00  0.00     0.163 HD
ATOM     35  O   UNL A   1      33.348  34.218  29.390  1.00  0.00    -0.269 OA
BRANCH  33  36
ATOM     36  C   UNL A   1      35.425  33.177  29.760  1.00  0.00     0.039 A 
ATOM     37  C   UNL A   1      36.476  33.843  29.110  1.00  0.00     0.014 A 
ATOM     38  C   UNL A   1      35.718  32.305  30.804  1.00  0.00     0.014 A 
ATOM     39  C   UNL A   1      37.790  33.434  29.316  1.00  0.00     0.010 A 
ATOM     40  C   UNL A   1      37.001  31.825  30.944  1.00  0.00     0.010 A 
ATOM     41  C   UNL A   1      38.019  32.343  30.147  1.00  0.00    -0.014 A 
BRANCH  41  42
ATOM     42  C   UNL A   1      39.282  31.635  30.215  1.00  0.00     0.031 A 
ATOM     43  C   UNL A   1      39.437  30.365  29.497  1.00  0.00     0.074 A 
ATOM     44  C   UNL A   1      40.310  32.178  30.899  1.00  0.00     0.049 A 
ATOM     45  N   UNL A   1      40.248  29.430  29.853  1.00  0.00    -0.248 NA
ATOM     46  C   UNL A   1      38.632  30.024  28.328  1.00  0.00     0.031 C 
ATOM     47  C   UNL A   1      41.706  31.755  30.911  1.00  0.00     0.029 A 
ATOM     48  N   UNL A   1      40.232  33.120  31.913  1.00  0.00    -0.354 N 
ATOM     49  C   UNL A   1      40.300  28.527  28.820  1.00  0.00     0.074 A 
ATOM     50  C   UNL A   1      39.210  28.884  27.942  1.00  0.00     0.031 C 
ATOM     51  C   UNL A   1      42.294  32.237  32.020  1.00  0.00     0.029 A 
ATOM     52  C   UNL A   1      41.259  32.863  32.828  1.00  0.00     0.049 A 
ATOM     53  H   UNL A   1      39.569  33.844  31.978  1.00  0.00     0.167 HD
ATOM     54  C   UNL A   1      41.359  27.675  28.733  1.00  0.00     0.031 A 
ATOM     55  C   UNL A   1      40.956  32.508  34.113  1.00  0.00     0.031 A 
ATOM     56  C   UNL A   1      42.275  27.842  29.859  1.00  0.00     0.049 A 
ATOM     57  C   UNL A   1      41.387  31.096  34.459  1.00  0.00     0.074 A 
ATOM     58  C   UNL A   1      43.467  28.534  30.003  1.00  0.00     0.029 A 
ATOM     59  N   UNL A   1      41.834  27.544  31.143  1.00  0.00    -0.354 N 
ATOM     60  N   UNL A   1      41.667  30.180  33.572  1.00  0.00    -0.248 NA
ATOM     61  C   UNL A   1      41.528  30.604  35.826  1.00  0.00     0.031 C 
ATOM     62  C   UNL A   1      43.702  28.716  31.391  1.00  0.00     0.029 A 
ATOM     63  C   UNL A   1      42.673  28.105  32.086  1.00  0.00     0.049 A 
ATOM     64  H   UNL A   1      41.035  27.008  31.352  1.00  0.00     0.167 HD
ATOM     65  C   UNL A   1      42.044  29.023  34.204  1.00  0.00     0.074 A 
ATOM     66  C   UNL A   1      41.938  29.339  35.617  1.00  0.00     0.031 C 
ATOM     67  C   UNL A   1      42.417  27.908  33.507  1.00  0.00     0.031 A 
BRANCH  54  68
ATOM     68  C   UNL A   1      41.706  26.941  27.464  1.00  0.00    -0.014 A 
ATOM     69  C   UNL A   1      41.527  25.547  27.397  1.00  0.00     0.009 A 
ATOM     70  C   UNL A   1      42.262  27.550  26.327  1.00  0.00     0.009 A 
ATOM     71  C   UNL A   1      41.972  24.795  26.304  1.00  0.00     0.001 A 
ATOM     72  C   UNL A   1      42.749  26.800  25.247  1.00  0.00     0.001 A 
ATOM     73  C   UNL A   1      42.613  25.419  25.241  1.00  0.00     0.000 A 
ENDBRANCH  54  68
BRANCH  55  74
ATOM     74  C   UNL A   1      39.737  33.194  34.633  1.00  0.00    -0.014 A 
ATOM     75  C   UNL A   1      38.542  32.446  34.701  1.00  0.00     0.009 A 
ATOM     76  C   UNL A   1      39.836  34.358  35.407  1.00  0.00     0.009 A 
ATOM     77  C   UNL A   1      37.537  32.775  35.616  1.00  0.00     0.001 A 
ATOM     78  C   UNL A   1      38.819  34.693  36.313  1.00  0.00     0.001 A 
ATOM     79  C   UNL A   1      37.693  33.880  36.447  1.00  0.00     0.000 A 
ENDBRANCH  55  74
BRANCH  67  80
ATOM     80  C   UNL A   1      42.654  26.525  34.068  1.00  0.00    -0.014 A 
ATOM     81  C   UNL A   1      43.819  25.775  33.877  1.00  0.00     0.009 A 
ATOM     82  C   UNL A   1      41.698  25.983  34.963  1.00  0.00     0.009 A 
ATOM     83  C   UNL A   1      44.004  24.539  34.518  1.00  0.00     0.001 A 
ATOM     84  C   UNL A   1      41.899  24.780  35.641  1.00  0.00     0.001 A 
ATOM     85  C   UNL A   1      43.053  24.051  35.409  1.00  0.00     0.000 A 
ENDBRANCH  67  80
ENDBRANCH  41  42
ENDBRANCH  33  36
ENDBRANCH  31  32
ENDBRANCH  30  31
ENDBRANCH  29  30
ENDBRANCH  28  29
ENDBRANCH   1  28
TORSDOF 18
ENDMDL
MODEL 2
REMARK VINA RESULT:     -11.5      1.828      5.419
REMARK SMILES Cc1ccc(/N=N/c2ccc(NC(=O)CCC(=O)NCCCCCCNC(=O)c3ccc(-c4c5nc(c(-c6ccccc6)c6ccc([nH]6)c(-c6ccccc6)c6nc(c(-c7ccccc7)c7ccc4[nH]7)C=C6)C=C5)cc3)cc2)cc1
REMARK SMILES IDX 21 1 20 2 19 3 17 4 18 5 16 7 15 8 13 9 12 10 14 12 11 13
REMARK SMILES IDX 8 14 9 15 78 16 10 17 77 18 7 19 6 20 5 21 1 22 2 23 3 24
REMARK SMILES IDX 80 25 4 26 79 27 22 28 23 29 24 30 25 31 26 32 27 33 28 35
REMARK SMILES IDX 29 36 30 37 76 38 31 39 75 40 32 41 33 42 34 43 69 44 35 45
REMARK SMILES IDX 74 46 68 47 70 48 36 49 73 50 67 51 66 52 37 54 59 55 44 56
REMARK SMILES IDX 58 57 45 58 48 59 57 60 71 61 46 62 47 63 56 65 72 66 49 67
REMARK SMILES IDX 38 68 39 69 43 70 40 71 42 72 41 73 60 74 61 75 65 76 62 77
REMARK SMILES IDX 64 78 63 79 50 80 51 81 55 82 52 83 54 84 53 85
REMARK H PARENT 19 6 12 11 26 34 70 53 48 64
REMARK Flexibility Score: inf
ROOT
ATOM      1  C   UNL A   1      32.105  28.195  26.652  1.00  0.00     0.021 C 
ENDROOT
BRANCH   1   2
ATOM      2  C   UNL A   1      31.331  26.878  26.639  1.00  0.00     0.116 C 
BRANCH   2   3
ATOM      3  N   UNL A   1      30.708  26.594  25.361  1.00  0.00    -0.356 N 
ATOM      4  C   UNL A   1      31.151  25.814  24.336  1.00  0.00     0.220 C 
ATOM      5  O   UNL A   1      30.397  25.595  23.387  1.00  0.00    -0.275 OA
ATOM      6  H   UNL A   1      29.838  27.028  25.212  1.00  0.00     0.163 HD
BRANCH   4   7
ATOM      7  C   UNL A   1      32.548  25.239  24.364  1.00  0.00     0.110 C 
BRANCH   7   8
ATOM      8  C   UNL A   1      32.632  23.846  24.978  1.00  0.00     0.110 C 
BRANCH   8   9
ATOM      9  C   UNL A   1      32.795  22.724  23.973  1.00  0.00     0.224 C 
ATOM     10  N   UNL A   1      33.993  22.126  23.706  1.00  0.00    -0.326 N 
ATOM     11  H   UNL A   1      33.955  21.438  23.003  1.00  0.00     0.169 HD
ATOM     12  O   UNL A   1      31.790  22.245  23.434  1.00  0.00    -0.275 OA
BRANCH  10  13
ATOM     13  C   UNL A   1      35.267  22.320  24.257  1.00  0.00     0.041 A 
ATOM     14  C   UNL A   1      37.674  22.585  25.686  1.00  0.00     0.086 A 
ATOM     15  C   UNL A   1      37.083  23.688  25.065  1.00  0.00     0.032 A 
ATOM     16  C   UNL A   1      37.083  21.329  25.525  1.00  0.00     0.032 A 
ATOM     17  C   UNL A   1      35.897  23.556  24.341  1.00  0.00     0.028 A 
ATOM     18  C   UNL A   1      35.907  21.191  24.782  1.00  0.00     0.028 A 
BRANCH  14  19
ATOM     19  N   UNL A   1      38.826  22.809  26.454  1.00  0.00    -0.151 NA
ATOM     20  N   UNL A   1      39.649  21.881  26.337  1.00  0.00    -0.151 NA
BRANCH  20  21
ATOM     21  C   UNL A   1      40.914  22.195  26.879  1.00  0.00     0.086 A 
ATOM     22  C   UNL A   1      44.899  23.330  28.112  1.00  0.00     0.044 C 
ATOM     23  C   UNL A   1      43.517  22.908  27.712  1.00  0.00    -0.051 A 
ATOM     24  C   UNL A   1      43.323  22.178  26.535  1.00  0.00     0.006 A 
ATOM     25  C   UNL A   1      42.408  23.253  28.489  1.00  0.00     0.006 A 
ATOM     26  C   UNL A   1      42.034  21.827  26.126  1.00  0.00     0.030 A 
ATOM     27  C   UNL A   1      41.120  22.896  28.076  1.00  0.00     0.030 A 
ENDBRANCH  20  21
ENDBRANCH  14  19
ENDBRANCH  10  13
ENDBRANCH   8   9
ENDBRANCH   7   8
ENDBRANCH   4   7
ENDBRANCH   2   3
ENDBRANCH   1   2
BRANCH   1  28
ATOM     28  C   UNL A   1      33.626  28.075  26.512  1.00  0.00     0.002 C 
BRANCH  28  29
ATOM     29  C   UNL A   1      34.453  29.215  27.122  1.00  0.00     0.002 C 
BRANCH  29  30
ATOM     30  C   UNL A   1      33.697  30.512  27.409  1.00  0.00     0.021 C 
BRANCH  30  31
ATOM     31  C   UNL A   1      34.593  31.719  27.627  1.00  0.00     0.116 C 
BRANCH  31  32
ATOM     32  N   UNL A   1      33.934  32.837  28.275  1.00  0.00    -0.352 N 
ATOM     33  C   UNL A   1      34.233  33.485  29.454  1.00  0.00     0.251 C 
ATOM     34  H   UNL A   1      33.149  33.188  27.797  1.00  0.00     0.163 HD
ATOM     35  O   UNL A   1      33.421  34.296  29.900  1.00  0.00    -0.269 OA
BRANCH  33  36
ATOM     36  C   UNL A   1      35.568  33.355  30.100  1.00  0.00     0.039 A 
ATOM     37  C   UNL A   1      36.637  34.027  29.486  1.00  0.00     0.014 A 
ATOM     38  C   UNL A   1      35.835  32.443  31.116  1.00  0.00     0.014 A 
ATOM     39  C   UNL A   1      37.942  33.591  29.693  1.00  0.00     0.010 A 
ATOM     40  C   UNL A   1      37.110  31.939  31.255  1.00  0.00     0.010 A 
ATOM     41  C   UNL A   1      38.145  32.469  30.488  1.00  0.00    -0.014 A 
BRANCH  41  42
ATOM     42  C   UNL A   1      39.396  31.740  30.546  1.00  0.00     0.031 A 
ATOM     43  C   UNL A   1      39.540  30.492  29.788  1.00  0.00     0.074 A 
ATOM     44  C   UNL A   1      40.424  32.245  31.259  1.00  0.00     0.049 A 
ATOM     45  N   UNL A   1      40.334  29.534  30.122  1.00  0.00    -0.248 NA
ATOM     46  C   UNL A   1      38.744  30.202  28.601  1.00  0.00     0.031 C 
ATOM     47  C   UNL A   1      41.814  31.801  31.272  1.00  0.00     0.029 A 
ATOM     48  N   UNL A   1      40.349  33.154  32.303  1.00  0.00    -0.354 N 
ATOM     49  C   UNL A   1      40.384  28.665  29.061  1.00  0.00     0.074 A 
ATOM     50  C   UNL A   1      39.309  29.067  28.183  1.00  0.00     0.031 C 
ATOM     51  C   UNL A   1      42.396  32.237  32.402  1.00  0.00     0.029 A 
ATOM     52  C   UNL A   1      41.361  32.852  33.220  1.00  0.00     0.049 A 
ATOM     53  H   UNL A   1      39.696  33.886  32.384  1.00  0.00     0.167 HD
ATOM     54  C   UNL A   1      41.431  27.800  28.958  1.00  0.00     0.031 A 
ATOM     55  C   UNL A   1      41.039  32.460  34.489  1.00  0.00     0.031 A 
ATOM     56  C   UNL A   1      42.337  27.916  30.098  1.00  0.00     0.049 A 
ATOM     57  C   UNL A   1      41.445  31.031  34.793  1.00  0.00     0.074 A 
ATOM     58  C   UNL A   1      43.537  28.586  30.277  1.00  0.00     0.029 A 
ATOM     59  N   UNL A   1      41.878  27.583  31.366  1.00  0.00    -0.354 N 
ATOM     60  N   UNL A   1      41.722  30.140  33.879  1.00  0.00    -0.248 NA
ATOM     61  C   UNL A   1      41.564  30.492  36.144  1.00  0.00     0.031 C 
ATOM     62  C   UNL A   1      43.759  28.718  31.673  1.00  0.00     0.029 A 
ATOM     63  C   UNL A   1      42.714  28.101  32.337  1.00  0.00     0.049 A 
ATOM     64  H   UNL A   1      41.068  27.053  31.549  1.00  0.00     0.167 HD
ATOM     65  C   UNL A   1      42.075  28.958  34.477  1.00  0.00     0.074 A 
ATOM     66  C   UNL A   1      41.958  29.228  35.898  1.00  0.00     0.031 C 
ATOM     67  C   UNL A   1      42.439  27.861  33.747  1.00  0.00     0.031 A 
BRANCH  54  68
ATOM     68  C   UNL A   1      41.781  27.103  27.668  1.00  0.00    -0.014 A 
ATOM     69  C   UNL A   1      40.765  26.491  26.912  1.00  0.00     0.009 A 
ATOM     70  C   UNL A   1      43.090  26.965  27.176  1.00  0.00     0.009 A 
ATOM     71  C   UNL A   1      41.049  25.702  25.791  1.00  0.00     0.001 A 
ATOM     72  C   UNL A   1      43.386  26.142  26.080  1.00  0.00     0.001 A 
ATOM     73  C   UNL A   1      42.364  25.502  25.393  1.00  0.00     0.000 A 
ENDBRANCH  54  68
BRANCH  55  74
ATOM     74  C   UNL A   1      39.825  33.147  35.018  1.00  0.00    -0.014 A 
ATOM     75  C   UNL A   1      38.614  32.422  35.027  1.00  0.00     0.009 A 
ATOM     76  C   UNL A   1      39.933  34.271  35.848  1.00  0.00     0.009 A 
ATOM     77  C   UNL A   1      37.598  32.729  35.939  1.00  0.00     0.001 A 
ATOM     78  C   UNL A   1      38.905  34.584  36.750  1.00  0.00     0.001 A 
ATOM     79  C   UNL A   1      37.760  33.791  36.824  1.00  0.00     0.000 A 
ENDBRANCH  55  74
BRANCH  67  80
ATOM     80  C   UNL A   1      42.649  26.456  34.265  1.00  0.00    -0.014 A 
ATOM     81  C   UNL A   1      41.776  25.783  35.126  1.00  0.00     0.009 A 
ATOM     82  C   UNL A   1      43.731  25.699  33.750  1.00  0.00     0.009 A 
ATOM     83  C   UNL A   1      41.989  24.441  35.479  1.00  0.00     0.001 A 
ATOM     84  C   UNL A   1      43.919  24.351  34.057  1.00  0.00     0.001 A 
ATOM     85  C   UNL A   1      43.049  23.723  34.934  1.00  0.00     0.000 A 
ENDBRANCH  67  80
ENDBRANCH  41  42
ENDBRANCH  33  36
ENDBRANCH  31  32
ENDBRANCH  30  31
ENDBRANCH  29  30
ENDBRANCH  28  29
ENDBRANCH   1  28
TORSDOF 18
ENDMDL
MODEL 3
REMARK VINA RESULT:     -11.2      2.105      4.781
REMARK SMILES Cc1ccc(/N=N/c2ccc(NC(=O)CCC(=O)NCCCCCCNC(=O)c3ccc(-c4c5nc(c(-c6ccccc6)c6ccc([nH]6)c(-c6ccccc6)c6nc(c(-c7ccccc7)c7ccc4[nH]7)C=C6)C=C5)cc3)cc2)cc1
REMARK SMILES IDX 21 1 20 2 19 3 17 4 18 5 16 7 15 8 13 9 12 10 14 12 11 13
REMARK SMILES IDX 8 14 9 15 78 16 10 17 77 18 7 19 6 20 5 21 1 22 2 23 3 24
REMARK SMILES IDX 80 25 4 26 79 27 22 28 23 29 24 30 25 31 26 32 27 33 28 35
REMARK SMILES IDX 29 36 30 37 76 38 31 39 75 40 32 41 33 42 34 43 69 44 35 45
REMARK SMILES IDX 74 46 68 47 70 48 36 49 73 50 67 51 66 52 37 54 59 55 44 56
REMARK SMILES IDX 58 57 45 58 48 59 57 60 71 61 46 62 47 63 56 65 72 66 49 67
REMARK SMILES IDX 38 68 39 69 43 70 40 71 42 72 41 73 60 74 61 75 65 76 62 77
REMARK SMILES IDX 64 78 63 79 50 80 51 81 55 82 52 83 54 84 53 85
REMARK H PARENT 19 6 12 11 26 34 70 53 48 64
REMARK Flexibility Score: inf
ROOT
ATOM      1  C   UNL A   1      35.013  29.671  27.682  1.00  0.00     0.021 C 
ENDROOT
BRANCH   1   2
ATOM      2  C   UNL A   1      34.327  29.233  26.388  1.00  0.00     0.116 C 
BRANCH   2   3
ATOM      3  N   UNL A   1      33.239  28.302  26.606  1.00  0.00    -0.356 N 
ATOM      4  C   UNL A   1      32.082  28.142  25.905  1.00  0.00     0.220 C 
ATOM      5  O   UNL A   1      31.348  27.191  26.177  1.00  0.00    -0.275 OA
ATOM      6  H   UNL A   1      33.351  27.696  27.373  1.00  0.00     0.163 HD
BRANCH   4   7
ATOM      7  C   UNL A   1      31.707  29.125  24.820  1.00  0.00     0.110 C 
BRANCH   7   8
ATOM      8  C   UNL A   1      30.472  28.724  24.021  1.00  0.00     0.110 C 
BRANCH   8   9
ATOM      9  C   UNL A   1      30.700  28.600  22.528  1.00  0.00     0.224 C 
ATOM     10  N   UNL A   1      31.283  27.511  21.948  1.00  0.00    -0.326 N 
ATOM     11  H   UNL A   1      31.402  27.586  20.973  1.00  0.00     0.169 HD
ATOM     12  O   UNL A   1      30.252  29.472  21.774  1.00  0.00    -0.275 OA
BRANCH  10  13
ATOM     13  C   UNL A   1      31.743  26.306  22.495  1.00  0.00     0.041 A 
ATOM     14  C   UNL A   1      32.878  23.857  23.281  1.00  0.00     0.086 A 
ATOM     15  C   UNL A   1      31.496  23.990  23.125  1.00  0.00     0.032 A 
ATOM     16  C   UNL A   1      33.684  24.985  23.109  1.00  0.00     0.032 A 
ATOM     17  C   UNL A   1      30.929  25.209  22.750  1.00  0.00     0.028 A 
ATOM     18  C   UNL A   1      33.115  26.212  22.755  1.00  0.00     0.028 A 
BRANCH  14  19
ATOM     19  N   UNL A   1      33.380  22.583  23.590  1.00  0.00    -0.151 NA
ATOM     20  N   UNL A   1      32.480  21.806  23.959  1.00  0.00    -0.151 NA
BRANCH  20  21
ATOM     21  C   UNL A   1      32.903  20.462  24.021  1.00  0.00     0.086 A 
ATOM     22  C   UNL A   1      34.154  16.333  23.740  1.00  0.00     0.044 C 
ATOM     23  C   UNL A   1      33.708  17.758  23.875  1.00  0.00    -0.051 A 
ATOM     24  C   UNL A   1      32.542  18.187  23.232  1.00  0.00     0.006 A 
ATOM     25  C   UNL A   1      34.454  18.677  24.618  1.00  0.00     0.006 A 
ATOM     26  C   UNL A   1      32.147  19.526  23.308  1.00  0.00     0.030 A 
ATOM     27  C   UNL A   1      34.052  20.014  24.691  1.00  0.00     0.030 A 
ENDBRANCH  20  21
ENDBRANCH  14  19
ENDBRANCH  10  13
ENDBRANCH   8   9
ENDBRANCH   7   8
ENDBRANCH   4   7
ENDBRANCH   2   3
ENDBRANCH   1   2
BRANCH   1  28
ATOM     28  C   UNL A   1      35.499  31.124  27.720  1.00  0.00     0.002 C 
BRANCH  28  29
ATOM     29  C   UNL A   1      34.410  32.197  27.851  1.00  0.00     0.002 C 
BRANCH  29  30
ATOM     30  C   UNL A   1      34.165  32.735  29.260  1.00  0.00     0.021 C 
BRANCH  30  31
ATOM     31  C   UNL A   1      34.149  34.252  29.354  1.00  0.00     0.116 C 
BRANCH  31  32
ATOM     32  N   UNL A   1      33.400  34.768  30.484  1.00  0.00    -0.352 N 
ATOM     33  C   UNL A   1      33.585  34.576  31.836  1.00  0.00     0.251 C 
ATOM     34  H   UNL A   1      32.640  35.346  30.248  1.00  0.00     0.163 HD
ATOM     35  O   UNL A   1      32.713  34.970  32.609  1.00  0.00    -0.269 OA
BRANCH  33  36
ATOM     36  C   UNL A   1      34.873  34.067  32.384  1.00  0.00     0.039 A 
ATOM     37  C   UNL A   1      36.008  34.869  32.183  1.00  0.00     0.014 A 
ATOM     38  C   UNL A   1      35.035  32.772  32.866  1.00  0.00     0.014 A 
ATOM     39  C   UNL A   1      37.275  34.295  32.199  1.00  0.00     0.010 A 
ATOM     40  C   UNL A   1      36.273  32.172  32.789  1.00  0.00     0.010 A 
ATOM     41  C   UNL A   1      37.375  32.921  32.387  1.00  0.00    -0.014 A 
BRANCH  41  42
ATOM     42  C   UNL A   1      38.583  32.160  32.133  1.00  0.00     0.031 A 
ATOM     43  C   UNL A   1      38.489  30.858  31.464  1.00  0.00     0.074 A 
ATOM     44  C   UNL A   1      39.779  32.683  32.474  1.00  0.00     0.049 A 
ATOM     45  N   UNL A   1      39.338  29.903  31.624  1.00  0.00    -0.248 NA
ATOM     46  C   UNL A   1      37.378  30.509  30.585  1.00  0.00     0.031 C 
ATOM     47  C   UNL A   1      41.108  32.199  32.116  1.00  0.00     0.029 A 
ATOM     48  N   UNL A   1      40.020  33.665  33.422  1.00  0.00    -0.354 N 
ATOM     49  C   UNL A   1      39.068  28.959  30.664  1.00  0.00     0.074 A 
ATOM     50  C   UNL A   1      37.786  29.331  30.109  1.00  0.00     0.031 C 
ATOM     51  C   UNL A   1      41.999  32.696  32.991  1.00  0.00     0.029 A 
ATOM     52  C   UNL A   1      41.254  33.399  34.025  1.00  0.00     0.049 A 
ATOM     53  H   UNL A   1      39.425  34.421  33.635  1.00  0.00     0.167 HD
ATOM     54  C   UNL A   1      40.032  28.058  30.326  1.00  0.00     0.031 A 
ATOM     55  C   UNL A   1      41.314  33.106  35.359  1.00  0.00     0.031 A 
ATOM     56  C   UNL A   1      41.232  28.228  31.141  1.00  0.00     0.049 A 
ATOM     57  C   UNL A   1      41.779  31.692  35.639  1.00  0.00     0.074 A 
ATOM     58  C   UNL A   1      42.438  28.872  30.911  1.00  0.00     0.029 A 
ATOM     59  N   UNL A   1      41.162  27.999  32.509  1.00  0.00    -0.354 N 
ATOM     60  N   UNL A   1      41.770  30.730  34.756  1.00  0.00    -0.248 NA
ATOM     61  C   UNL A   1      42.284  31.246  36.935  1.00  0.00     0.031 C 
ATOM     62  C   UNL A   1      43.060  29.096  32.167  1.00  0.00     0.029 A 
ATOM     63  C   UNL A   1      42.250  28.558  33.152  1.00  0.00     0.049 A 
ATOM     64  H   UNL A   1      40.437  27.507  32.960  1.00  0.00     0.167 HD
ATOM     65  C   UNL A   1      42.272  29.583  35.313  1.00  0.00     0.074 A 
ATOM     66  C   UNL A   1      42.578  29.957  36.682  1.00  0.00     0.031 C 
ATOM     67  C   UNL A   1      42.398  28.427  34.595  1.00  0.00     0.031 A 
BRANCH  54  68
ATOM     68  C   UNL A   1      39.984  27.262  29.048  1.00  0.00    -0.014 A 
ATOM     69  C   UNL A   1      39.301  26.032  29.022  1.00  0.00     0.009 A 
ATOM     70  C   UNL A   1      40.633  27.636  27.860  1.00  0.00     0.009 A 
ATOM     71  C   UNL A   1      39.351  25.181  27.912  1.00  0.00     0.001 A 
ATOM     72  C   UNL A   1      40.724  26.771  26.760  1.00  0.00     0.001 A 
ATOM     73  C   UNL A   1      40.090  25.536  26.791  1.00  0.00     0.000 A 
ENDBRANCH  54  68
BRANCH  55  74
ATOM     74  C   UNL A   1      40.313  33.866  36.165  1.00  0.00    -0.014 A 
ATOM     75  C   UNL A   1      39.225  33.147  36.705  1.00  0.00     0.009 A 
ATOM     76  C   UNL A   1      40.629  35.111  36.724  1.00  0.00     0.009 A 
ATOM     77  C   UNL A   1      38.564  33.594  37.853  1.00  0.00     0.001 A 
ATOM     78  C   UNL A   1      39.953  35.564  37.867  1.00  0.00     0.001 A 
ATOM     79  C   UNL A   1      38.953  34.788  38.454  1.00  0.00     0.000 A 
ENDBRANCH  55  74
BRANCH  67  80
ATOM     80  C   UNL A   1      42.739  27.056  35.135  1.00  0.00    -0.014 A 
ATOM     81  C   UNL A   1      41.877  25.955  35.118  1.00  0.00     0.009 A 
ATOM     82  C   UNL A   1      44.064  26.810  35.571  1.00  0.00     0.009 A 
ATOM     83  C   UNL A   1      42.306  24.687  35.544  1.00  0.00     0.001 A 
ATOM     84  C   UNL A   1      44.509  25.542  35.947  1.00  0.00     0.001 A 
ATOM     85  C   UNL A   1      43.622  24.479  35.943  1.00  0.00     0.000 A 
ENDBRANCH  67  80
ENDBRANCH  41  42
ENDBRANCH  33  36
ENDBRANCH  31  32
ENDBRANCH  30  31
ENDBRANCH  29  30
ENDBRANCH  28  29
ENDBRANCH   1  28
TORSDOF 18
ENDMDL
