MODEL 1
REMARK VINA RESULT:     -11.8      0.000      0.000
REMARK SMILES COc1ccc([C@H]2CC(c3ccc(S(C)(=O)=O)cc3)=NN2c2ccc(C(=O)NCCCCCCNC(=O)c3ccc(-c4c5nc(c(-c6ccccc6)c6ccc([nH]6)c(-c6ccccc6)c6nc(c(-c7ccccc7)c7ccc4[nH]7)C=C6)C=C5)cc3)cc2)cc1
REMARK SMILES IDX 31 1 30 2 29 3 28 4 26 5 27 6 25 8 22 9 23 10 87 11 24 12
REMARK SMILES IDX 86 13 21 14 7 15 8 16 9 17 20 18 6 19 3 20 4 21 89 22 5 23
REMARK SMILES IDX 88 24 2 25 1 26 10 27 11 28 19 29 12 30 18 31 13 32 14 33
REMARK SMILES IDX 15 34 16 35 17 36 32 37 33 38 34 39 35 40 36 41 37 43 38 44
REMARK SMILES IDX 39 45 85 46 40 47 84 48 41 49 42 50 43 51 78 52 44 53 83 54
REMARK SMILES IDX 77 55 79 56 45 57 82 58 76 59 75 60 46 62 68 63 53 64 67 65
REMARK SMILES IDX 54 66 57 67 66 68 80 69 55 70 56 71 65 73 81 74 58 75 47 76
REMARK SMILES IDX 48 77 52 78 49 79 51 80 50 81 69 82 70 83 74 84 71 85 73 86
REMARK SMILES IDX 72 87 59 88 60 89 64 90 61 91 63 92 62 93
REMARK H PARENT 28 7 35 42 79 61 57 72
REMARK Flexibility Score: inf
ROOT
ATOM      1  C   UNL A   1      38.246  28.785  27.594  1.00  0.00     0.002 C 
ENDROOT
BRANCH   1   2
ATOM      2  C   UNL A   1      37.597  29.838  28.503  1.00  0.00     0.021 C 
BRANCH   2   3
ATOM      3  C   UNL A   1      36.172  29.471  28.923  1.00  0.00     0.116 C 
BRANCH   3   4
ATOM      4  N   UNL A   1      35.266  30.538  28.557  1.00  0.00    -0.352 N 
ATOM      5  C   UNL A   1      34.140  30.576  27.780  1.00  0.00     0.251 C 
ATOM      6  O   UNL A   1      33.600  31.672  27.619  1.00  0.00    -0.269 OA
ATOM      7  H   UNL A   1      35.507  31.411  28.944  1.00  0.00     0.163 HD
BRANCH   5   8
ATOM      8  C   UNL A   1      33.508  29.363  27.190  1.00  0.00     0.039 A 
ATOM      9  C   UNL A   1      32.415  27.132  25.838  1.00  0.00     0.060 A 
ATOM     10  C   UNL A   1      33.664  27.645  25.479  1.00  0.00     0.029 A 
ATOM     11  C   UNL A   1      31.753  27.702  26.928  1.00  0.00     0.029 A 
ATOM     12  C   UNL A   1      34.196  28.760  26.128  1.00  0.00     0.016 A 
ATOM     13  C   UNL A   1      32.315  28.780  27.626  1.00  0.00     0.016 A 
BRANCH   9  14
ATOM     14  N   UNL A   1      31.884  26.079  25.116  1.00  0.00    -0.257 N 
ATOM     15  C   UNL A   1      30.507  26.011  24.622  1.00  0.00     0.144 C 
ATOM     16  C   UNL A   1      30.476  24.632  23.947  1.00  0.00     0.091 C 
ATOM     17  C   UNL A   1      31.737  24.051  24.524  1.00  0.00     0.071 C 
ATOM     18  N   UNL A   1      32.512  24.878  25.150  1.00  0.00    -0.176 NA
BRANCH  15  19
ATOM     19  C   UNL A   1      30.185  27.159  23.682  1.00  0.00    -0.023 A 
ATOM     20  C   UNL A   1      29.583  29.362  22.019  1.00  0.00     0.118 A 
ATOM     21  C   UNL A   1      28.578  28.727  22.750  1.00  0.00     0.047 A 
ATOM     22  C   UNL A   1      30.894  28.902  22.124  1.00  0.00     0.047 A 
ATOM     23  C   UNL A   1      28.870  27.631  23.570  1.00  0.00     0.010 A 
ATOM     24  C   UNL A   1      31.191  27.810  22.948  1.00  0.00     0.010 A 
BRANCH  20  25
ATOM     25  O   UNL A   1      29.165  30.429  21.272  1.00  0.00    -0.497 OA
ATOM     26  C   UNL A   1      28.030  31.136  21.756  1.00  0.00     0.278 C 
ENDBRANCH  20  25
ENDBRANCH  15  19
BRANCH  17  27
ATOM     27  C   UNL A   1      32.063  22.628  24.396  1.00  0.00    -0.002 A 
ATOM     28  C   UNL A   1      31.985  22.045  23.128  1.00  0.00     0.011 A 
ATOM     29  C   UNL A   1      32.381  21.867  25.523  1.00  0.00     0.011 A 
ATOM     30  C   UNL A   1      32.237  20.683  22.977  1.00  0.00     0.021 A 
ATOM     31  C   UNL A   1      32.606  20.496  25.377  1.00  0.00     0.021 A 
ATOM     32  C   UNL A   1      32.527  19.911  24.107  1.00  0.00     0.067 A 
BRANCH  32  33
ATOM     33  S   UNL A   1      32.800  18.167  23.910  1.00  0.00     0.175 S 
ATOM     34  C   UNL A   1      34.529  17.957  24.251  1.00  0.00     0.163 C 
ATOM     35  O   UNL A   1      32.041  17.506  24.952  1.00  0.00    -0.224 OA
ATOM     36  O   UNL A   1      32.589  17.845  22.510  1.00  0.00    -0.224 OA
ENDBRANCH  32  33
ENDBRANCH  17  27
ENDBRANCH   9  14
ENDBRANCH   5   8
ENDBRANCH   3   4
ENDBRANCH   2   3
ENDBRANCH   1   2
BRANCH   1  37
ATOM     37  C   UNL A   1      39.445  28.054  28.212  1.00  0.00     0.002 C 
BRANCH  37  38
ATOM     38  C   UNL A   1      39.703  26.653  27.654  1.00  0.00     0.021 C 
BRANCH  38  39
ATOM     39  C   UNL A   1      40.336  25.687  28.651  1.00  0.00     0.116 C 
BRANCH  39  40
ATOM     40  N   UNL A   1      40.809  24.475  28.001  1.00  0.00    -0.352 N 
ATOM     41  C   UNL A   1      41.879  24.308  27.159  1.00  0.00     0.251 C 
ATOM     42  H   UNL A   1      40.289  23.661  28.190  1.00  0.00     0.163 HD
ATOM     43  O   UNL A   1      42.016  23.268  26.525  1.00  0.00    -0.269 OA
BRANCH  41  44
ATOM     44  C   UNL A   1      42.868  25.396  27.010  1.00  0.00     0.039 A 
ATOM     45  C   UNL A   1      43.622  25.784  28.120  1.00  0.00     0.014 A 
ATOM     46  C   UNL A   1      43.034  26.042  25.782  1.00  0.00     0.014 A 
ATOM     47  C   UNL A   1      44.578  26.792  27.988  1.00  0.00     0.010 A 
ATOM     48  C   UNL A   1      44.032  27.001  25.636  1.00  0.00     0.010 A 
ATOM     49  C   UNL A   1      44.806  27.391  26.738  1.00  0.00    -0.014 A 
BRANCH  49  50
ATOM     50  C   UNL A   1      45.836  28.443  26.566  1.00  0.00     0.031 A 
ATOM     51  C   UNL A   1      47.275  28.062  26.362  1.00  0.00     0.074 A 
ATOM     52  C   UNL A   1      45.487  29.740  26.655  1.00  0.00     0.049 A 
ATOM     53  N   UNL A   1      48.326  28.833  26.249  1.00  0.00    -0.248 NA
ATOM     54  C   UNL A   1      47.574  26.622  26.306  1.00  0.00     0.031 C 
ATOM     55  C   UNL A   1      44.129  30.241  26.878  1.00  0.00     0.029 A 
ATOM     56  N   UNL A   1      46.252  30.875  26.571  1.00  0.00    -0.354 N 
ATOM     57  C   UNL A   1      49.411  27.974  26.131  1.00  0.00     0.074 A 
ATOM     58  C   UNL A   1      48.896  26.625  26.233  1.00  0.00     0.031 C 
ATOM     59  C   UNL A   1      44.153  31.583  26.879  1.00  0.00     0.029 A 
ATOM     60  C   UNL A   1      45.528  32.035  26.695  1.00  0.00     0.049 A 
ATOM     61  H   UNL A   1      47.227  30.860  26.434  1.00  0.00     0.167 HD
ATOM     62  C   UNL A   1      50.717  28.277  25.936  1.00  0.00     0.031 A 
ATOM     63  C   UNL A   1      45.929  33.320  26.664  1.00  0.00     0.031 A 
ATOM     64  C   UNL A   1      51.228  29.617  25.824  1.00  0.00     0.049 A 
ATOM     65  C   UNL A   1      47.384  33.633  26.467  1.00  0.00     0.074 A 
ATOM     66  C   UNL A   1      52.524  30.028  25.567  1.00  0.00     0.029 A 
ATOM     67  N   UNL A   1      50.463  30.765  25.967  1.00  0.00    -0.354 N 
ATOM     68  N   UNL A   1      48.390  32.812  26.297  1.00  0.00    -0.248 NA
ATOM     69  C   UNL A   1      47.755  35.055  26.449  1.00  0.00     0.031 C 
ATOM     70  C   UNL A   1      52.551  31.427  25.600  1.00  0.00     0.029 A 
ATOM     71  C   UNL A   1      51.264  31.886  25.828  1.00  0.00     0.049 A 
ATOM     72  H   UNL A   1      49.495  30.780  26.141  1.00  0.00     0.167 HD
ATOM     73  C   UNL A   1      49.511  33.614  26.126  1.00  0.00     0.074 A 
ATOM     74  C   UNL A   1      49.056  34.989  26.203  1.00  0.00     0.031 C 
ATOM     75  C   UNL A   1      50.798  33.246  25.917  1.00  0.00     0.031 A 
BRANCH  62  76
ATOM     76  C   UNL A   1      51.680  27.125  25.853  1.00  0.00    -0.014 A 
ATOM     77  C   UNL A   1      51.952  26.490  24.630  1.00  0.00     0.009 A 
ATOM     78  C   UNL A   1      52.320  26.665  27.013  1.00  0.00     0.009 A 
ATOM     79  C   UNL A   1      52.806  25.385  24.580  1.00  0.00     0.001 A 
ATOM     80  C   UNL A   1      53.196  25.580  26.955  1.00  0.00     0.001 A 
ATOM     81  C   UNL A   1      53.428  24.933  25.743  1.00  0.00     0.000 A 
ENDBRANCH  62  76
BRANCH  63  82
ATOM     82  C   UNL A   1      44.924  34.406  26.784  1.00  0.00    -0.014 A 
ATOM     83  C   UNL A   1      43.982  34.608  25.765  1.00  0.00     0.009 A 
ATOM     84  C   UNL A   1      44.887  35.229  27.921  1.00  0.00     0.009 A 
ATOM     85  C   UNL A   1      43.028  35.621  25.875  1.00  0.00     0.001 A 
ATOM     86  C   UNL A   1      43.917  36.227  28.036  1.00  0.00     0.001 A 
ATOM     87  C   UNL A   1      42.993  36.427  27.012  1.00  0.00     0.000 A 
ENDBRANCH  63  82
BRANCH  75  88
ATOM     88  C   UNL A   1      51.802  34.347  25.729  1.00  0.00    -0.014 A 
ATOM     89  C   UNL A   1      52.036  34.911  24.466  1.00  0.00     0.009 A 
ATOM     90  C   UNL A   1      52.496  34.850  26.842  1.00  0.00     0.009 A 
ATOM     91  C   UNL A   1      52.969  35.940  24.317  1.00  0.00     0.001 A 
ATOM     92  C   UNL A   1      53.408  35.895  26.691  1.00  0.00     0.001 A 
ATOM     93  C   UNL A   1      53.650  36.433  25.429  1.00  0.00     0.000 A 
ENDBRANCH  75  88
ENDBRANCH  49  50
ENDBRANCH  41  44
ENDBRANCH  39  40
ENDBRANCH  38  39
ENDBRANCH  37  38
ENDBRANCH   1  37
TORSDOF 18
ENDMDL
MODEL 2
REMARK VINA RESULT:     -11.5      3.406      6.140
REMARK SMILES COc1ccc([C@H]2CC(c3ccc(S(C)(=O)=O)cc3)=NN2c2ccc(C(=O)NCCCCCCNC(=O)c3ccc(-c4c5nc(c(-c6ccccc6)c6ccc([nH]6)c(-c6ccccc6)c6nc(c(-c7ccccc7)c7ccc4[nH]7)C=C6)C=C5)cc3)cc2)cc1
REMARK SMILES IDX 31 1 30 2 29 3 28 4 26 5 27 6 25 8 22 9 23 10 87 11 24 12
REMARK SMILES IDX 86 13 21 14 7 15 8 16 9 17 20 18 6 19 3 20 4 21 89 22 5 23
REMARK SMILES IDX 88 24 2 25 1 26 10 27 11 28 19 29 12 30 18 31 13 32 14 33
REMARK SMILES IDX 15 34 16 35 17 36 32 37 33 38 34 39 35 40 36 41 37 43 38 44
REMARK SMILES IDX 39 45 85 46 40 47 84 48 41 49 42 50 43 51 78 52 44 53 83 54
REMARK SMILES IDX 77 55 79 56 45 57 82 58 76 59 75 60 46 62 68 63 53 64 67 65
REMARK SMILES IDX 54 66 57 67 66 68 80 69 55 70 56 71 65 73 81 74 58 75 47 76
REMARK SMILES IDX 48 77 52 78 49 79 51 80 50 81 69 82 70 83 74 84 71 85 73 86
REMARK SMILES IDX 72 87 59 88 60 89 64 90 61 91 63 92 62 93
REMARK H PARENT 28 7 35 42 79 61 57 72
REMARK Flexibility Score: inf
ROOT
ATOM      1  C   UNL A   1      38.174  28.485  28.076  1.00  0.00     0.002 C 
ENDROOT
BRANCH   1   2
ATOM      2  C   UNL A   1      37.731  29.492  29.147  1.00  0.00     0.021 C 
BRANCH   2   3
ATOM      3  C   UNL A   1      36.226  29.453  29.419  1.00  0.00     0.116 C 
BRANCH   3   4
ATOM      4  N   UNL A   1      35.584  30.576  28.769  1.00  0.00    -0.352 N 
ATOM      5  C   UNL A   1      34.621  30.664  27.800  1.00  0.00     0.251 C 
ATOM      6  O   UNL A   1      34.308  31.791  27.415  1.00  0.00    -0.269 OA
ATOM      7  H   UNL A   1      35.904  31.452  29.086  1.00  0.00     0.163 HD
BRANCH   5   8
ATOM      8  C   UNL A   1      33.895  29.483  27.255  1.00  0.00     0.039 A 
ATOM      9  C   UNL A   1      32.665  27.267  26.000  1.00  0.00     0.060 A 
ATOM     10  C   UNL A   1      34.014  27.555  25.781  1.00  0.00     0.029 A 
ATOM     11  C   UNL A   1      31.958  28.057  26.909  1.00  0.00     0.029 A 
ATOM     12  C   UNL A   1      34.619  28.661  26.380  1.00  0.00     0.016 A 
ATOM     13  C   UNL A   1      32.580  29.128  27.565  1.00  0.00     0.016 A 
BRANCH   9  14
ATOM     14  N   UNL A   1      32.080  26.213  25.322  1.00  0.00    -0.257 N 
ATOM     15  C   UNL A   1      30.677  26.156  24.911  1.00  0.00     0.144 C 
ATOM     16  C   UNL A   1      30.590  24.770  24.255  1.00  0.00     0.091 C 
ATOM     17  C   UNL A   1      31.877  24.180  24.763  1.00  0.00     0.071 C 
ATOM     18  N   UNL A   1      32.696  25.005  25.332  1.00  0.00    -0.176 NA
BRANCH  15  19
ATOM     19  C   UNL A   1      30.312  27.297  23.979  1.00  0.00    -0.023 A 
ATOM     20  C   UNL A   1      29.646  29.354  22.159  1.00  0.00     0.118 A 
ATOM     21  C   UNL A   1      30.978  28.991  22.366  1.00  0.00     0.047 A 
ATOM     22  C   UNL A   1      28.642  28.684  22.856  1.00  0.00     0.047 A 
ATOM     23  C   UNL A   1      31.312  27.978  23.271  1.00  0.00     0.010 A 
ATOM     24  C   UNL A   1      28.974  27.665  23.758  1.00  0.00     0.010 A 
BRANCH  20  25
ATOM     25  O   UNL A   1      29.455  30.345  21.237  1.00  0.00    -0.497 OA
ATOM     26  C   UNL A   1      28.171  30.957  21.220  1.00  0.00     0.278 C 
ENDBRANCH  20  25
ENDBRANCH  15  19
BRANCH  17  27
ATOM     27  C   UNL A   1      32.179  22.753  24.632  1.00  0.00    -0.002 A 
ATOM     28  C   UNL A   1      32.288  22.217  23.345  1.00  0.00     0.011 A 
ATOM     29  C   UNL A   1      32.292  21.942  25.763  1.00  0.00     0.011 A 
ATOM     30  C   UNL A   1      32.523  20.852  23.182  1.00  0.00     0.021 A 
ATOM     31  C   UNL A   1      32.500  20.571  25.601  1.00  0.00     0.021 A 
ATOM     32  C   UNL A   1      32.607  20.033  24.312  1.00  0.00     0.067 A 
BRANCH  32  33
ATOM     33  S   UNL A   1      32.860  18.288  24.092  1.00  0.00     0.175 S 
ATOM     34  C   UNL A   1      32.334  17.980  22.425  1.00  0.00     0.163 C 
ATOM     35  O   UNL A   1      34.289  18.061  24.174  1.00  0.00    -0.224 OA
ATOM     36  O   UNL A   1      31.939  17.597  24.975  1.00  0.00    -0.224 OA
ENDBRANCH  32  33
ENDBRANCH  17  27
ENDBRANCH   9  14
ENDBRANCH   5   8
ENDBRANCH   3   4
ENDBRANCH   2   3
ENDBRANCH   1   2
BRANCH   1  37
ATOM     37  C   UNL A   1      39.012  27.313  28.604  1.00  0.00     0.002 C 
BRANCH  37  38
ATOM     38  C   UNL A   1      39.106  26.112  27.660  1.00  0.00     0.021 C 
BRANCH  38  39
ATOM     39  C   UNL A   1      40.315  25.214  27.907  1.00  0.00     0.116 C 
BRANCH  39  40
ATOM     40  N   UNL A   1      41.113  25.044  26.703  1.00  0.00    -0.352 N 
ATOM     41  C   UNL A   1      41.912  25.955  26.060  1.00  0.00     0.251 C 
ATOM     42  H   UNL A   1      41.075  24.150  26.292  1.00  0.00     0.163 HD
ATOM     43  O   UNL A   1      42.347  25.719  24.938  1.00  0.00    -0.269 OA
BRANCH  41  44
ATOM     44  C   UNL A   1      42.241  27.234  26.723  1.00  0.00     0.039 A 
ATOM     45  C   UNL A   1      41.630  28.407  26.274  1.00  0.00     0.014 A 
ATOM     46  C   UNL A   1      43.165  27.275  27.771  1.00  0.00     0.014 A 
ATOM     47  C   UNL A   1      41.910  29.619  26.908  1.00  0.00     0.010 A 
ATOM     48  C   UNL A   1      43.393  28.471  28.443  1.00  0.00     0.010 A 
ATOM     49  C   UNL A   1      42.776  29.655  28.013  1.00  0.00    -0.014 A 
BRANCH  49  50
ATOM     50  C   UNL A   1      43.067  30.924  28.720  1.00  0.00     0.031 A 
ATOM     51  C   UNL A   1      44.232  31.773  28.295  1.00  0.00     0.074 A 
ATOM     52  C   UNL A   1      42.324  31.282  29.784  1.00  0.00     0.049 A 
ATOM     53  N   UNL A   1      44.681  32.883  28.822  1.00  0.00    -0.248 NA
ATOM     54  C   UNL A   1      45.010  31.295  27.141  1.00  0.00     0.031 C 
ATOM     55  C   UNL A   1      41.185  30.530  30.314  1.00  0.00     0.029 A 
ATOM     56  N   UNL A   1      42.421  32.370  30.612  1.00  0.00    -0.354 N 
ATOM     57  C   UNL A   1      45.804  33.225  28.079  1.00  0.00     0.074 A 
ATOM     58  C   UNL A   1      45.994  32.180  27.096  1.00  0.00     0.031 C 
ATOM     59  C   UNL A   1      40.668  31.198  31.358  1.00  0.00     0.029 A 
ATOM     60  C   UNL A   1      41.460  32.401  31.592  1.00  0.00     0.049 A 
ATOM     61  H   UNL A   1      43.114  33.063  30.513  1.00  0.00     0.167 HD
ATOM     62  C   UNL A   1      46.596  34.317  28.191  1.00  0.00     0.031 A 
ATOM     63  C   UNL A   1      41.242  33.300  32.570  1.00  0.00     0.031 A 
ATOM     64  C   UNL A   1      46.402  35.362  29.161  1.00  0.00     0.049 A 
ATOM     65  C   UNL A   1      42.144  34.495  32.688  1.00  0.00     0.074 A 
ATOM     66  C   UNL A   1      47.112  36.539  29.317  1.00  0.00     0.029 A 
ATOM     67  N   UNL A   1      45.423  35.350  30.143  1.00  0.00    -0.354 N 
ATOM     68  N   UNL A   1      43.166  34.834  31.943  1.00  0.00    -0.248 NA
ATOM     69  C   UNL A   1      41.854  35.433  33.781  1.00  0.00     0.031 C 
ATOM     70  C   UNL A   1      46.591  37.218  30.425  1.00  0.00     0.029 A 
ATOM     71  C   UNL A   1      45.526  36.488  30.926  1.00  0.00     0.049 A 
ATOM     72  H   UNL A   1      44.754  34.639  30.265  1.00  0.00     0.167 HD
ATOM     73  C   UNL A   1      43.628  36.038  32.457  1.00  0.00     0.074 A 
ATOM     74  C   UNL A   1      42.766  36.374  33.574  1.00  0.00     0.031 C 
ATOM     75  C   UNL A   1      44.667  36.801  32.039  1.00  0.00     0.031 A 
BRANCH  62  76
ATOM     76  C   UNL A   1      47.759  34.417  27.244  1.00  0.00    -0.014 A 
ATOM     77  C   UNL A   1      47.627  35.038  25.990  1.00  0.00     0.009 A 
ATOM     78  C   UNL A   1      49.003  33.879  27.605  1.00  0.00     0.009 A 
ATOM     79  C   UNL A   1      48.702  35.071  25.099  1.00  0.00     0.001 A 
ATOM     80  C   UNL A   1      50.085  33.941  26.725  1.00  0.00     0.001 A 
ATOM     81  C   UNL A   1      49.930  34.524  25.468  1.00  0.00     0.000 A 
ENDBRANCH  62  76
BRANCH  63  82
ATOM     82  C   UNL A   1      40.091  33.120  33.491  1.00  0.00    -0.014 A 
ATOM     83  C   UNL A   1      40.231  32.339  34.647  1.00  0.00     0.009 A 
ATOM     84  C   UNL A   1      38.860  33.743  33.233  1.00  0.00     0.009 A 
ATOM     85  C   UNL A   1      39.156  32.172  35.522  1.00  0.00     0.001 A 
ATOM     86  C   UNL A   1      37.794  33.592  34.122  1.00  0.00     0.001 A 
ATOM     87  C   UNL A   1      37.940  32.803  35.262  1.00  0.00     0.000 A 
ENDBRANCH  63  82
BRANCH  75  88
ATOM     88  C   UNL A   1      44.911  38.087  32.775  1.00  0.00    -0.014 A 
ATOM     89  C   UNL A   1      45.783  38.143  33.873  1.00  0.00     0.009 A 
ATOM     90  C   UNL A   1      44.286  39.266  32.338  1.00  0.00     0.009 A 
ATOM     91  C   UNL A   1      46.002  39.352  34.537  1.00  0.00     0.001 A 
ATOM     92  C   UNL A   1      44.527  40.476  32.990  1.00  0.00     0.001 A 
ATOM     93  C   UNL A   1      45.377  40.517  34.093  1.00  0.00     0.000 A 
ENDBRANCH  75  88
ENDBRANCH  49  50
ENDBRANCH  41  44
ENDBRANCH  39  40
ENDBRANCH  38  39
ENDBRANCH  37  38
ENDBRANCH   1  37
TORSDOF 18
ENDMDL
MODEL 3
REMARK VINA RESULT:     -11.5      3.682      7.407
REMARK SMILES COc1ccc([C@H]2CC(c3ccc(S(C)(=O)=O)cc3)=NN2c2ccc(C(=O)NCCCCCCNC(=O)c3ccc(-c4c5nc(c(-c6ccccc6)c6ccc([nH]6)c(-c6ccccc6)c6nc(c(-c7ccccc7)c7ccc4[nH]7)C=C6)C=C5)cc3)cc2)cc1
REMARK SMILES IDX 31 1 30 2 29 3 28 4 26 5 27 6 25 8 22 9 23 10 87 11 24 12
REMARK SMILES IDX 86 13 21 14 7 15 8 16 9 17 20 18 6 19 3 20 4 21 89 22 5 23
REMARK SMILES IDX 88 24 2 25 1 26 10 27 11 28 19 29 12 30 18 31 13 32 14 33
REMARK SMILES IDX 15 34 16 35 17 36 32 37 33 38 34 39 35 40 36 41 37 43 38 44
REMARK SMILES IDX 39 45 85 46 40 47 84 48 41 49 42 50 43 51 78 52 44 53 83 54
REMARK SMILES IDX 77 55 79 56 45 57 82 58 76 59 75 60 46 62 68 63 53 64 67 65
REMARK SMILES IDX 54 66 57 67 66 68 80 69 55 70 56 71 65 73 81 74 58 75 47 76
REMARK SMILES IDX 48 77 52 78 49 79 51 80 50 81 69 82 70 83 74 84 71 85 73 86
REMARK SMILES IDX 72 87 59 88 60 89 64 90 61 91 63 92 62 93
REMARK H PARENT 28 7 35 42 79 61 57 72
REMARK Flexibility Score: inf
ROOT
ATOM      1  C   UNL A   1      38.176  28.418  28.112  1.00  0.00     0.002 C 
ENDROOT
BRANCH   1   2
ATOM      2  C   UNL A   1      37.714  29.314  29.269  1.00  0.00     0.021 C 
BRANCH   2   3
ATOM      3  C   UNL A   1      36.205  29.247  29.513  1.00  0.00     0.116 C 
BRANCH   3   4
ATOM      4  N   UNL A   1      35.553  30.349  28.837  1.00  0.00    -0.352 N 
ATOM      5  C   UNL A   1      34.621  30.405  27.836  1.00  0.00     0.251 C 
ATOM      6  O   UNL A   1      34.288  31.522  27.436  1.00  0.00    -0.269 OA
ATOM      7  H   UNL A   1      35.836  31.234  29.162  1.00  0.00     0.163 HD
BRANCH   5   8
ATOM      8  C   UNL A   1      33.950  29.202  27.270  1.00  0.00     0.039 A 
ATOM      9  C   UNL A   1      32.799  26.971  25.967  1.00  0.00     0.060 A 
ATOM     10  C   UNL A   1      34.096  27.391  25.657  1.00  0.00     0.029 A 
ATOM     11  C   UNL A   1      32.114  27.635  26.986  1.00  0.00     0.029 A 
ATOM     12  C   UNL A   1      34.658  28.505  26.282  1.00  0.00     0.016 A 
ATOM     13  C   UNL A   1      32.701  28.713  27.663  1.00  0.00     0.016 A 
BRANCH   9  14
ATOM     14  N   UNL A   1      32.246  25.914  25.267  1.00  0.00    -0.257 N 
ATOM     15  C   UNL A   1      30.841  25.817  24.869  1.00  0.00     0.144 C 
ATOM     16  C   UNL A   1      30.797  24.447  24.176  1.00  0.00     0.091 C 
ATOM     17  C   UNL A   1      32.110  23.891  24.655  1.00  0.00     0.071 C 
ATOM     18  N   UNL A   1      32.905  24.730  25.239  1.00  0.00    -0.176 NA
BRANCH  15  19
ATOM     19  C   UNL A   1      30.425  26.969  23.971  1.00  0.00    -0.023 A 
ATOM     20  C   UNL A   1      29.661  29.047  22.215  1.00  0.00     0.118 A 
ATOM     21  C   UNL A   1      31.005  28.697  22.362  1.00  0.00     0.047 A 
ATOM     22  C   UNL A   1      28.695  28.352  22.941  1.00  0.00     0.047 A 
ATOM     23  C   UNL A   1      31.388  27.674  23.236  1.00  0.00     0.010 A 
ATOM     24  C   UNL A   1      29.075  27.323  23.811  1.00  0.00     0.010 A 
BRANCH  20  25
ATOM     25  O   UNL A   1      29.422  30.050  21.318  1.00  0.00    -0.497 OA
ATOM     26  C   UNL A   1      28.131  30.645  21.362  1.00  0.00     0.278 C 
ENDBRANCH  20  25
ENDBRANCH  15  19
BRANCH  17  27
ATOM     27  C   UNL A   1      32.462  22.480  24.483  1.00  0.00    -0.002 A 
ATOM     28  C   UNL A   1      32.113  21.854  23.282  1.00  0.00     0.011 A 
ATOM     29  C   UNL A   1      33.073  21.767  25.517  1.00  0.00     0.011 A 
ATOM     30  C   UNL A   1      32.385  20.499  23.105  1.00  0.00     0.021 A 
ATOM     31  C   UNL A   1      33.321  20.403  25.351  1.00  0.00     0.021 A 
ATOM     32  C   UNL A   1      32.970  19.776  24.148  1.00  0.00     0.067 A 
BRANCH  32  33
ATOM     33  S   UNL A   1      33.270  18.038  23.928  1.00  0.00     0.175 S 
ATOM     34  C   UNL A   1      32.404  17.274  25.276  1.00  0.00     0.163 C 
ATOM     35  O   UNL A   1      32.621  17.657  22.690  1.00  0.00    -0.224 OA
ATOM     36  O   UNL A   1      34.688  17.809  24.133  1.00  0.00    -0.224 OA
ENDBRANCH  32  33
ENDBRANCH  17  27
ENDBRANCH   9  14
ENDBRANCH   5   8
ENDBRANCH   3   4
ENDBRANCH   2   3
ENDBRANCH   1   2
BRANCH   1  37
ATOM     37  C   UNL A   1      39.316  27.452  28.463  1.00  0.00     0.002 C 
BRANCH  37  38
ATOM     38  C   UNL A   1      39.450  26.247  27.528  1.00  0.00     0.021 C 
BRANCH  38  39
ATOM     39  C   UNL A   1      40.705  25.411  27.760  1.00  0.00     0.116 C 
BRANCH  39  40
ATOM     40  N   UNL A   1      41.535  25.347  26.568  1.00  0.00    -0.352 N 
ATOM     41  C   UNL A   1      42.305  26.329  25.997  1.00  0.00     0.251 C 
ATOM     42  H   UNL A   1      41.548  24.478  26.105  1.00  0.00     0.163 HD
ATOM     43  O   UNL A   1      42.775  26.179  24.875  1.00  0.00    -0.269 OA
BRANCH  41  44
ATOM     44  C   UNL A   1      42.560  27.581  26.740  1.00  0.00     0.039 A 
ATOM     45  C   UNL A   1      41.905  28.749  26.344  1.00  0.00     0.014 A 
ATOM     46  C   UNL A   1      43.458  27.602  27.810  1.00  0.00     0.014 A 
ATOM     47  C   UNL A   1      42.115  29.933  27.053  1.00  0.00     0.010 A 
ATOM     48  C   UNL A   1      43.617  28.767  28.556  1.00  0.00     0.010 A 
ATOM     49  C   UNL A   1      42.955  29.944  28.179  1.00  0.00    -0.014 A 
BRANCH  49  50
ATOM     50  C   UNL A   1      43.172  31.182  28.965  1.00  0.00     0.031 A 
ATOM     51  C   UNL A   1      42.358  31.441  30.201  1.00  0.00     0.074 A 
ATOM     52  C   UNL A   1      44.055  32.101  28.534  1.00  0.00     0.049 A 
ATOM     53  N   UNL A   1      42.360  32.486  30.988  1.00  0.00    -0.248 NA
ATOM     54  C   UNL A   1      41.395  30.397  30.586  1.00  0.00     0.031 C 
ATOM     55  C   UNL A   1      44.887  31.982  27.334  1.00  0.00     0.029 A 
ATOM     56  N   UNL A   1      44.397  33.321  29.058  1.00  0.00    -0.354 N 
ATOM     57  C   UNL A   1      41.387  32.236  31.947  1.00  0.00     0.074 A 
ATOM     58  C   UNL A   1      40.783  30.964  31.616  1.00  0.00     0.031 C 
ATOM     59  C   UNL A   1      45.667  33.070  27.233  1.00  0.00     0.029 A 
ATOM     60  C   UNL A   1      45.364  33.977  28.336  1.00  0.00     0.049 A 
ATOM     61  H   UNL A   1      43.988  33.692  29.873  1.00  0.00     0.167 HD
ATOM     62  C   UNL A   1      41.038  32.988  33.019  1.00  0.00     0.031 A 
ATOM     63  C   UNL A   1      45.942  35.175  28.542  1.00  0.00     0.031 A 
ATOM     64  C   UNL A   1      41.645  34.248  33.355  1.00  0.00     0.049 A 
ATOM     65  C   UNL A   1      45.527  36.001  29.725  1.00  0.00     0.074 A 
ATOM     66  C   UNL A   1      41.405  35.057  34.451  1.00  0.00     0.029 A 
ATOM     67  N   UNL A   1      42.615  34.882  32.592  1.00  0.00    -0.354 N 
ATOM     68  N   UNL A   1      44.647  35.726  30.655  1.00  0.00    -0.248 NA
ATOM     69  C   UNL A   1      46.193  37.300  29.887  1.00  0.00     0.031 C 
ATOM     70  C   UNL A   1      42.197  36.205  34.327  1.00  0.00     0.029 A 
ATOM     71  C   UNL A   1      42.965  36.086  33.181  1.00  0.00     0.049 A 
ATOM     72  H   UNL A   1      42.996  34.529  31.757  1.00  0.00     0.167 HD
ATOM     73  C   UNL A   1      44.671  36.804  31.530  1.00  0.00     0.074 A 
ATOM     74  C   UNL A   1      45.660  37.734  31.021  1.00  0.00     0.031 C 
ATOM     75  C   UNL A   1      43.944  37.003  32.656  1.00  0.00     0.031 A 
BRANCH  62  76
ATOM     76  C   UNL A   1      39.931  32.463  33.889  1.00  0.00    -0.014 A 
ATOM     77  C   UNL A   1      38.590  32.806  33.648  1.00  0.00     0.009 A 
ATOM     78  C   UNL A   1      40.231  31.618  34.968  1.00  0.00     0.009 A 
ATOM     79  C   UNL A   1      37.579  32.355  34.501  1.00  0.00     0.001 A 
ATOM     80  C   UNL A   1      39.215  31.144  35.801  1.00  0.00     0.001 A 
ATOM     81  C   UNL A   1      37.893  31.524  35.575  1.00  0.00     0.000 A 
ENDBRANCH  62  76
BRANCH  63  82
ATOM     82  C   UNL A   1      47.009  35.644  27.621  1.00  0.00    -0.014 A 
ATOM     83  C   UNL A   1      48.344  35.272  27.844  1.00  0.00     0.009 A 
ATOM     84  C   UNL A   1      46.700  36.441  26.508  1.00  0.00     0.009 A 
ATOM     85  C   UNL A   1      49.351  35.701  26.979  1.00  0.00     0.001 A 
ATOM     86  C   UNL A   1      47.708  36.850  25.632  1.00  0.00     0.001 A 
ATOM     87  C   UNL A   1      49.032  36.485  25.870  1.00  0.00     0.000 A 
ENDBRANCH  63  82
BRANCH  75  88
ATOM     88  C   UNL A   1      44.212  38.263  33.429  1.00  0.00    -0.014 A 
ATOM     89  C   UNL A   1      43.440  39.417  33.231  1.00  0.00     0.009 A 
ATOM     90  C   UNL A   1      45.230  38.279  34.397  1.00  0.00     0.009 A 
ATOM     91  C   UNL A   1      43.702  40.574  33.967  1.00  0.00     0.001 A 
ATOM     92  C   UNL A   1      45.472  39.430  35.148  1.00  0.00     0.001 A 
ATOM     93  C   UNL A   1      44.713  40.579  34.927  1.00  0.00     0.000 A 
ENDBRANCH  75  88
ENDBRANCH  49  50
ENDBRANCH  41  44
ENDBRANCH  39  40
ENDBRANCH  38  39
ENDBRANCH  37  38
ENDBRANCH   1  37
TORSDOF 18
ENDMDL
