MODEL 1
REMARK VINA RESULT:     -11.0      0.000      0.000
REMARK SMILES O=C(CNc1nc(-c2ccccc2)c(-c2ccccc2)s1)NCCCCCCNC(=O)c1ccc(-c2c3nc(c(-c4ccccc4)c4ccc([nH]4)c(-c4ccccc4)c4nc(c(-c5ccccc5)c5ccc2[nH]5)C=C4)C=C3)cc1
REMARK SMILES IDX 25 1 24 2 23 3 22 4 1 5 2 6 3 8 4 9 5 11 6 12 21 13 7 14
REMARK SMILES IDX 14 15 8 16 9 17 13 18 10 19 12 20 11 21 15 22 16 23 20 24
REMARK SMILES IDX 17 25 19 26 18 27 26 28 27 29 28 30 29 31 30 32 31 34 32 35
REMARK SMILES IDX 33 36 79 37 34 38 78 39 35 40 36 41 37 42 72 43 38 44 77 45
REMARK SMILES IDX 71 46 73 47 39 48 76 49 70 50 69 51 40 53 62 54 47 55 61 56
REMARK SMILES IDX 48 57 51 58 60 59 74 60 49 61 50 62 59 64 75 65 52 66 41 67
REMARK SMILES IDX 42 68 46 69 43 70 45 71 44 72 63 73 64 74 68 75 65 76 67 77
REMARK SMILES IDX 66 78 53 79 54 80 58 81 55 82 57 83 56 84
REMARK H PARENT 22 7 4 10 29 33 73 52 51 63
REMARK Flexibility Score: inf
ROOT
ATOM      1  C   UNL A   1      34.132  21.465  26.549  1.00  0.00     0.002 C 
ENDROOT
BRANCH   1   2
ATOM      2  C   UNL A   1      33.557  20.313  25.713  1.00  0.00     0.021 C 
BRANCH   2   3
ATOM      3  C   UNL A   1      32.459  20.717  24.729  1.00  0.00     0.116 C 
BRANCH   3   4
ATOM      4  N   UNL A   1      32.885  21.790  23.859  1.00  0.00    -0.355 N 
ATOM      5  O   UNL A   1      31.841  21.064  21.940  1.00  0.00    -0.273 OA
ATOM      6  C   UNL A   1      32.533  21.889  22.525  1.00  0.00     0.239 C 
ATOM      7  H   UNL A   1      33.460  22.493  24.239  1.00  0.00     0.163 HD
BRANCH   6   8
ATOM      8  C   UNL A   1      33.136  23.124  21.831  1.00  0.00     0.215 C 
BRANCH   8   9
ATOM      9  N   UNL A   1      33.660  24.039  22.838  1.00  0.00    -0.352 N 
ATOM     10  H   UNL A   1      34.507  23.819  23.290  1.00  0.00     0.163 HD
BRANCH   9  11
ATOM     11  C   UNL A   1      33.021  25.173  23.169  1.00  0.00     0.184 A 
ATOM     12  N   UNL A   1      33.235  25.888  24.247  1.00  0.00    -0.220 NA
ATOM     13  S   UNL A   1      31.774  25.758  22.139  1.00  0.00    -0.096 S 
ATOM     14  C   UNL A   1      32.354  26.957  24.292  1.00  0.00     0.091 A 
ATOM     15  C   UNL A   1      31.440  27.021  23.251  1.00  0.00     0.064 A 
BRANCH  14  16
ATOM     16  C   UNL A   1      32.421  27.943  25.360  1.00  0.00     0.002 A 
ATOM     17  C   UNL A   1      31.657  27.797  26.525  1.00  0.00     0.010 A 
ATOM     18  C   UNL A   1      33.213  29.085  25.194  1.00  0.00     0.010 A 
ATOM     19  C   UNL A   1      31.661  28.800  27.497  1.00  0.00     0.001 A 
ATOM     20  C   UNL A   1      33.210  30.089  26.165  1.00  0.00     0.001 A 
ATOM     21  C   UNL A   1      32.430  29.948  27.312  1.00  0.00     0.000 A 
ENDBRANCH  14  16
BRANCH  15  22
ATOM     22  C   UNL A   1      30.353  27.960  22.979  1.00  0.00    -0.006 A 
ATOM     23  C   UNL A   1      30.610  29.169  22.315  1.00  0.00     0.009 A 
ATOM     24  C   UNL A   1      29.033  27.645  23.331  1.00  0.00     0.009 A 
ATOM     25  C   UNL A   1      29.567  30.045  22.010  1.00  0.00     0.001 A 
ATOM     26  C   UNL A   1      27.992  28.523  23.024  1.00  0.00     0.001 A 
ATOM     27  C   UNL A   1      28.259  29.721  22.364  1.00  0.00     0.000 A 
ENDBRANCH  15  22
ENDBRANCH   9  11
ENDBRANCH   8   9
ENDBRANCH   6   8
ENDBRANCH   3   4
ENDBRANCH   2   3
ENDBRANCH   1   2
BRANCH   1  28
ATOM     28  C   UNL A   1      35.576  21.863  26.229  1.00  0.00     0.002 C 
BRANCH  28  29
ATOM     29  C   UNL A   1      35.779  23.315  25.790  1.00  0.00     0.021 C 
BRANCH  29  30
ATOM     30  C   UNL A   1      37.077  23.594  25.038  1.00  0.00     0.116 C 
BRANCH  30  31
ATOM     31  N   UNL A   1      38.137  22.658  25.378  1.00  0.00    -0.352 N 
ATOM     32  C   UNL A   1      39.300  22.868  26.075  1.00  0.00     0.251 C 
ATOM     33  H   UNL A   1      38.000  21.737  25.060  1.00  0.00     0.163 HD
ATOM     34  O   UNL A   1      40.150  21.977  26.133  1.00  0.00    -0.269 OA
BRANCH  32  35
ATOM     35  C   UNL A   1      39.558  24.164  26.739  1.00  0.00     0.039 A 
ATOM     36  C   UNL A   1      39.049  24.376  28.024  1.00  0.00     0.014 A 
ATOM     37  C   UNL A   1      40.278  25.177  26.099  1.00  0.00     0.014 A 
ATOM     38  C   UNL A   1      39.313  25.577  28.688  1.00  0.00     0.010 A 
ATOM     39  C   UNL A   1      40.598  26.346  26.788  1.00  0.00     0.010 A 
ATOM     40  C   UNL A   1      40.116  26.560  28.089  1.00  0.00    -0.014 A 
BRANCH  40  41
ATOM     41  C   UNL A   1      40.460  27.815  28.807  1.00  0.00     0.031 A 
ATOM     42  C   UNL A   1      41.796  27.962  29.484  1.00  0.00     0.074 A 
ATOM     43  C   UNL A   1      39.550  28.804  28.898  1.00  0.00     0.049 A 
ATOM     44  N   UNL A   1      42.255  28.959  30.198  1.00  0.00    -0.248 NA
ATOM     45  C   UNL A   1      42.730  26.832  29.361  1.00  0.00     0.031 C 
ATOM     46  C   UNL A   1      38.204  28.777  28.320  1.00  0.00     0.029 A 
ATOM     47  N   UNL A   1      39.619  30.027  29.519  1.00  0.00    -0.354 N 
ATOM     48  C   UNL A   1      43.522  28.572  30.616  1.00  0.00     0.074 A 
ATOM     49  C   UNL A   1      43.739  27.231  30.122  1.00  0.00     0.031 C 
ATOM     50  C   UNL A   1      37.586  29.937  28.592  1.00  0.00     0.029 A 
ATOM     51  C   UNL A   1      38.473  30.774  29.393  1.00  0.00     0.049 A 
ATOM     52  H   UNL A   1      40.414  30.338  30.008  1.00  0.00     0.167 HD
ATOM     53  C   UNL A   1      44.433  29.277  31.330  1.00  0.00     0.031 A 
ATOM     54  C   UNL A   1      38.167  31.995  29.874  1.00  0.00     0.031 A 
ATOM     55  C   UNL A   1      44.225  30.613  31.821  1.00  0.00     0.049 A 
ATOM     56  C   UNL A   1      39.190  32.748  30.678  1.00  0.00     0.074 A 
ATOM     57  C   UNL A   1      45.105  31.423  32.519  1.00  0.00     0.029 A 
ATOM     58  N   UNL A   1      43.054  31.336  31.664  1.00  0.00    -0.354 N 
ATOM     59  N   UNL A   1      40.405  32.390  31.014  1.00  0.00    -0.248 NA
ATOM     60  C   UNL A   1      38.800  34.082  31.158  1.00  0.00     0.031 C 
ATOM     61  C   UNL A   1      44.449  32.621  32.823  1.00  0.00     0.029 A 
ATOM     62  C   UNL A   1      43.181  32.578  32.267  1.00  0.00     0.049 A 
ATOM     63  H   UNL A   1      42.250  31.016  31.193  1.00  0.00     0.167 HD
ATOM     64  C   UNL A   1      40.936  33.465  31.714  1.00  0.00     0.074 A 
ATOM     65  C   UNL A   1      39.916  34.493  31.743  1.00  0.00     0.031 C 
ATOM     66  C   UNL A   1      42.160  33.591  32.284  1.00  0.00     0.031 A 
BRANCH  53  67
ATOM     67  C   UNL A   1      45.746  28.604  31.626  1.00  0.00    -0.014 A 
ATOM     68  C   UNL A   1      45.915  27.820  32.779  1.00  0.00     0.009 A 
ATOM     69  C   UNL A   1      46.816  28.728  30.728  1.00  0.00     0.009 A 
ATOM     70  C   UNL A   1      47.141  27.207  33.045  1.00  0.00     0.001 A 
ATOM     71  C   UNL A   1      48.032  28.089  30.981  1.00  0.00     0.001 A 
ATOM     72  C   UNL A   1      48.196  27.338  32.144  1.00  0.00     0.000 A 
ENDBRANCH  53  67
BRANCH  54  73
ATOM     73  C   UNL A   1      36.837  32.594  29.595  1.00  0.00    -0.014 A 
ATOM     74  C   UNL A   1      35.776  32.426  30.499  1.00  0.00     0.009 A 
ATOM     75  C   UNL A   1      36.613  33.319  28.415  1.00  0.00     0.009 A 
ATOM     76  C   UNL A   1      34.511  32.944  30.211  1.00  0.00     0.001 A 
ATOM     77  C   UNL A   1      35.354  33.862  28.143  1.00  0.00     0.001 A 
ATOM     78  C   UNL A   1      34.302  33.665  29.036  1.00  0.00     0.000 A 
ENDBRANCH  54  73
BRANCH  66  79
ATOM     79  C   UNL A   1      42.477  34.903  32.946  1.00  0.00    -0.014 A 
ATOM     80  C   UNL A   1      43.166  35.917  32.264  1.00  0.00     0.009 A 
ATOM     81  C   UNL A   1      42.051  35.135  34.263  1.00  0.00     0.009 A 
ATOM     82  C   UNL A   1      43.455  37.125  32.903  1.00  0.00     0.001 A 
ATOM     83  C   UNL A   1      42.315  36.353  34.888  1.00  0.00     0.001 A 
ATOM     84  C   UNL A   1      43.026  37.343  34.212  1.00  0.00     0.000 A 
ENDBRANCH  66  79
ENDBRANCH  40  41
ENDBRANCH  32  35
ENDBRANCH  30  31
ENDBRANCH  29  30
ENDBRANCH  28  29
ENDBRANCH   1  28
TORSDOF 17
ENDMDL
MODEL 2
REMARK VINA RESULT:     -10.9      0.666      5.798
REMARK SMILES O=C(CNc1nc(-c2ccccc2)c(-c2ccccc2)s1)NCCCCCCNC(=O)c1ccc(-c2c3nc(c(-c4ccccc4)c4ccc([nH]4)c(-c4ccccc4)c4nc(c(-c5ccccc5)c5ccc2[nH]5)C=C4)C=C3)cc1
REMARK SMILES IDX 25 1 24 2 23 3 22 4 1 5 2 6 3 8 4 9 5 11 6 12 21 13 7 14
REMARK SMILES IDX 14 15 8 16 9 17 13 18 10 19 12 20 11 21 15 22 16 23 20 24
REMARK SMILES IDX 17 25 19 26 18 27 26 28 27 29 28 30 29 31 30 32 31 34 32 35
REMARK SMILES IDX 33 36 79 37 34 38 78 39 35 40 36 41 37 42 72 43 38 44 77 45
REMARK SMILES IDX 71 46 73 47 39 48 76 49 70 50 69 51 40 53 62 54 47 55 61 56
REMARK SMILES IDX 48 57 51 58 60 59 74 60 49 61 50 62 59 64 75 65 52 66 41 67
REMARK SMILES IDX 42 68 46 69 43 70 45 71 44 72 63 73 64 74 68 75 65 76 67 77
REMARK SMILES IDX 66 78 53 79 54 80 58 81 55 82 57 83 56 84
REMARK H PARENT 22 7 4 10 29 33 73 52 51 63
REMARK Flexibility Score: inf
ROOT
ATOM      1  C   UNL A   1      33.805  22.595  26.396  1.00  0.00     0.002 C 
ENDROOT
BRANCH   1   2
ATOM      2  C   UNL A   1      33.369  21.135  26.210  1.00  0.00     0.021 C 
BRANCH   2   3
ATOM      3  C   UNL A   1      33.566  20.579  24.800  1.00  0.00     0.116 C 
BRANCH   3   4
ATOM      4  N   UNL A   1      33.766  21.632  23.829  1.00  0.00    -0.355 N 
ATOM      5  O   UNL A   1      31.772  21.397  22.704  1.00  0.00    -0.273 OA
ATOM      6  C   UNL A   1      32.844  21.971  22.855  1.00  0.00     0.239 C 
ATOM      7  H   UNL A   1      34.610  22.139  23.864  1.00  0.00     0.163 HD
BRANCH   6   8
ATOM      8  C   UNL A   1      33.319  23.120  21.948  1.00  0.00     0.215 C 
BRANCH   8   9
ATOM      9  N   UNL A   1      33.926  24.164  22.764  1.00  0.00    -0.352 N 
ATOM     10  H   UNL A   1      34.860  24.058  23.060  1.00  0.00     0.163 HD
BRANCH   9  11
ATOM     11  C   UNL A   1      33.249  25.267  23.127  1.00  0.00     0.184 A 
ATOM     12  N   UNL A   1      33.456  25.971  24.213  1.00  0.00    -0.220 NA
ATOM     13  S   UNL A   1      31.961  25.818  22.130  1.00  0.00    -0.096 S 
ATOM     14  C   UNL A   1      32.534  27.004  24.292  1.00  0.00     0.091 A 
ATOM     15  C   UNL A   1      31.598  27.049  23.270  1.00  0.00     0.064 A 
BRANCH  14  16
ATOM     16  C   UNL A   1      32.583  27.974  25.376  1.00  0.00     0.002 A 
ATOM     17  C   UNL A   1      31.654  27.933  26.423  1.00  0.00     0.010 A 
ATOM     18  C   UNL A   1      33.534  29.001  25.338  1.00  0.00     0.010 A 
ATOM     19  C   UNL A   1      31.657  28.928  27.403  1.00  0.00     0.001 A 
ATOM     20  C   UNL A   1      33.530  29.997  26.316  1.00  0.00     0.001 A 
ATOM     21  C   UNL A   1      32.588  29.963  27.344  1.00  0.00     0.000 A 
ENDBRANCH  14  16
BRANCH  15  22
ATOM     22  C   UNL A   1      30.470  27.947  23.034  1.00  0.00    -0.006 A 
ATOM     23  C   UNL A   1      30.671  29.189  22.412  1.00  0.00     0.009 A 
ATOM     24  C   UNL A   1      29.167  27.563  23.380  1.00  0.00     0.009 A 
ATOM     25  C   UNL A   1      29.589  30.028  22.141  1.00  0.00     0.001 A 
ATOM     26  C   UNL A   1      28.088  28.405  23.107  1.00  0.00     0.001 A 
ATOM     27  C   UNL A   1      28.299  29.636  22.489  1.00  0.00     0.000 A 
ENDBRANCH  15  22
ENDBRANCH   9  11
ENDBRANCH   8   9
ENDBRANCH   6   8
ENDBRANCH   3   4
ENDBRANCH   2   3
ENDBRANCH   1   2
BRANCH   1  28
ATOM     28  C   UNL A   1      35.301  22.816  26.639  1.00  0.00     0.002 C 
BRANCH  28  29
ATOM     29  C   UNL A   1      35.927  23.988  25.881  1.00  0.00     0.021 C 
BRANCH  29  30
ATOM     30  C   UNL A   1      37.019  23.613  24.883  1.00  0.00     0.116 C 
BRANCH  30  31
ATOM     31  N   UNL A   1      37.930  22.602  25.399  1.00  0.00    -0.352 N 
ATOM     32  C   UNL A   1      39.043  22.748  26.187  1.00  0.00     0.251 C 
ATOM     33  H   UNL A   1      37.714  21.676  25.146  1.00  0.00     0.163 HD
ATOM     34  O   UNL A   1      39.775  21.779  26.399  1.00  0.00    -0.269 OA
BRANCH  32  35
ATOM     35  C   UNL A   1      39.391  24.063  26.766  1.00  0.00     0.039 A 
ATOM     36  C   UNL A   1      38.945  24.372  28.055  1.00  0.00     0.014 A 
ATOM     37  C   UNL A   1      40.135  25.001  26.043  1.00  0.00     0.014 A 
ATOM     38  C   UNL A   1      39.295  25.593  28.639  1.00  0.00     0.010 A 
ATOM     39  C   UNL A   1      40.540  26.188  26.652  1.00  0.00     0.010 A 
ATOM     40  C   UNL A   1      40.121  26.498  27.955  1.00  0.00    -0.014 A 
BRANCH  40  41
ATOM     41  C   UNL A   1      40.555  27.771  28.587  1.00  0.00     0.031 A 
ATOM     42  C   UNL A   1      39.580  28.906  28.757  1.00  0.00     0.074 A 
ATOM     43  C   UNL A   1      41.839  27.930  28.960  1.00  0.00     0.049 A 
ATOM     44  N   UNL A   1      39.785  30.106  29.240  1.00  0.00    -0.248 NA
ATOM     45  C   UNL A   1      38.199  28.668  28.306  1.00  0.00     0.031 C 
ATOM     46  C   UNL A   1      42.895  26.925  28.819  1.00  0.00     0.029 A 
ATOM     47  N   UNL A   1      42.478  29.003  29.531  1.00  0.00    -0.354 N 
ATOM     48  C   UNL A   1      38.568  30.766  29.140  1.00  0.00     0.074 A 
ATOM     49  C   UNL A   1      37.643  29.854  28.504  1.00  0.00     0.031 C 
ATOM     50  C   UNL A   1      44.042  27.420  29.312  1.00  0.00     0.029 A 
ATOM     51  C   UNL A   1      43.813  28.787  29.771  1.00  0.00     0.049 A 
ATOM     52  H   UNL A   1      42.021  29.847  29.749  1.00  0.00     0.167 HD
ATOM     53  C   UNL A   1      38.240  32.013  29.558  1.00  0.00     0.031 A 
ATOM     54  C   UNL A   1      44.751  29.599  30.294  1.00  0.00     0.031 A 
ATOM     55  C   UNL A   1      39.153  32.923  30.195  1.00  0.00     0.049 A 
ATOM     56  C   UNL A   1      44.365  30.983  30.734  1.00  0.00     0.074 A 
ATOM     57  C   UNL A   1      38.903  34.192  30.691  1.00  0.00     0.029 A 
ATOM     58  N   UNL A   1      40.494  32.661  30.426  1.00  0.00    -0.354 N 
ATOM     59  N   UNL A   1      43.195  31.570  30.687  1.00  0.00    -0.248 NA
ATOM     60  C   UNL A   1      45.432  31.813  31.315  1.00  0.00     0.031 C 
ATOM     61  C   UNL A   1      40.105  34.714  31.181  1.00  0.00     0.029 A 
ATOM     62  C   UNL A   1      41.090  33.750  31.042  1.00  0.00     0.049 A 
ATOM     63  H   UNL A   1      40.956  31.824  30.189  1.00  0.00     0.167 HD
ATOM     64  C   UNL A   1      43.375  32.822  31.259  1.00  0.00     0.074 A 
ATOM     65  C   UNL A   1      44.765  32.905  31.659  1.00  0.00     0.031 C 
ATOM     66  C   UNL A   1      42.471  33.817  31.437  1.00  0.00     0.031 A 
BRANCH  53  67
ATOM     67  C   UNL A   1      36.823  32.465  29.333  1.00  0.00    -0.014 A 
ATOM     68  C   UNL A   1      36.443  33.088  28.133  1.00  0.00     0.009 A 
ATOM     69  C   UNL A   1      35.848  32.238  30.317  1.00  0.00     0.009 A 
ATOM     70  C   UNL A   1      35.125  33.509  27.940  1.00  0.00     0.001 A 
ATOM     71  C   UNL A   1      34.526  32.632  30.109  1.00  0.00     0.001 A 
ATOM     72  C   UNL A   1      34.167  33.277  28.925  1.00  0.00     0.000 A 
ENDBRANCH  53  67
BRANCH  54  73
ATOM     73  C   UNL A   1      46.149  29.120  30.450  1.00  0.00    -0.014 A 
ATOM     74  C   UNL A   1      47.098  29.352  29.441  1.00  0.00     0.009 A 
ATOM     75  C   UNL A   1      46.539  28.411  31.596  1.00  0.00     0.009 A 
ATOM     76  C   UNL A   1      48.397  28.856  29.563  1.00  0.00     0.001 A 
ATOM     77  C   UNL A   1      47.848  27.942  31.729  1.00  0.00     0.001 A 
ATOM     78  C   UNL A   1      48.773  28.155  30.709  1.00  0.00     0.000 A 
ENDBRANCH  54  73
BRANCH  66  79
ATOM     79  C   UNL A   1      42.948  35.060  32.135  1.00  0.00    -0.014 A 
ATOM     80  C   UNL A   1      43.566  36.102  31.429  1.00  0.00     0.009 A 
ATOM     81  C   UNL A   1      42.745  35.199  33.517  1.00  0.00     0.009 A 
ATOM     82  C   UNL A   1      44.007  37.245  32.102  1.00  0.00     0.001 A 
ATOM     83  C   UNL A   1      43.159  36.354  34.181  1.00  0.00     0.001 A 
ATOM     84  C   UNL A   1      43.799  37.371  33.475  1.00  0.00     0.000 A 
ENDBRANCH  66  79
ENDBRANCH  40  41
ENDBRANCH  32  35
ENDBRANCH  30  31
ENDBRANCH  29  30
ENDBRANCH  28  29
ENDBRANCH   1  28
TORSDOF 17
ENDMDL
MODEL 3
REMARK VINA RESULT:     -10.8      1.234      2.447
REMARK SMILES O=C(CNc1nc(-c2ccccc2)c(-c2ccccc2)s1)NCCCCCCNC(=O)c1ccc(-c2c3nc(c(-c4ccccc4)c4ccc([nH]4)c(-c4ccccc4)c4nc(c(-c5ccccc5)c5ccc2[nH]5)C=C4)C=C3)cc1
REMARK SMILES IDX 25 1 24 2 23 3 22 4 1 5 2 6 3 8 4 9 5 11 6 12 21 13 7 14
REMARK SMILES IDX 14 15 8 16 9 17 13 18 10 19 12 20 11 21 15 22 16 23 20 24
REMARK SMILES IDX 17 25 19 26 18 27 26 28 27 29 28 30 29 31 30 32 31 34 32 35
REMARK SMILES IDX 33 36 79 37 34 38 78 39 35 40 36 41 37 42 72 43 38 44 77 45
REMARK SMILES IDX 71 46 73 47 39 48 76 49 70 50 69 51 40 53 62 54 47 55 61 56
REMARK SMILES IDX 48 57 51 58 60 59 74 60 49 61 50 62 59 64 75 65 52 66 41 67
REMARK SMILES IDX 42 68 46 69 43 70 45 71 44 72 63 73 64 74 68 75 65 76 67 77
REMARK SMILES IDX 66 78 53 79 54 80 58 81 55 82 57 83 56 84
REMARK H PARENT 22 7 4 10 29 33 73 52 51 63
REMARK Flexibility Score: inf
ROOT
ATOM      1  C   UNL A   1      35.425  20.619  24.975  1.00  0.00     0.002 C 
ENDROOT
BRANCH   1   2
ATOM      2  C   UNL A   1      34.269  19.664  24.648  1.00  0.00     0.021 C 
BRANCH   2   3
ATOM      3  C   UNL A   1      33.202  19.548  25.737  1.00  0.00     0.116 C 
BRANCH   3   4
ATOM      4  N   UNL A   1      32.147  20.521  25.563  1.00  0.00    -0.355 N 
ATOM      5  O   UNL A   1      32.858  22.034  27.145  1.00  0.00    -0.273 OA
ATOM      6  C   UNL A   1      32.060  21.703  26.276  1.00  0.00     0.239 C 
ATOM      7  H   UNL A   1      31.448  20.331  24.895  1.00  0.00     0.163 HD
BRANCH   6   8
ATOM      8  C   UNL A   1      30.829  22.546  25.899  1.00  0.00     0.215 C 
BRANCH   8   9
ATOM      9  N   UNL A   1      31.124  23.327  24.703  1.00  0.00    -0.352 N 
ATOM     10  H   UNL A   1      31.273  22.858  23.850  1.00  0.00     0.163 HD
BRANCH   9  11
ATOM     11  C   UNL A   1      31.199  24.668  24.731  1.00  0.00     0.184 A 
ATOM     12  N   UNL A   1      30.660  25.485  23.858  1.00  0.00    -0.220 NA
ATOM     13  S   UNL A   1      32.106  25.426  25.979  1.00  0.00    -0.096 S 
ATOM     14  C   UNL A   1      30.991  26.796  24.165  1.00  0.00     0.091 A 
ATOM     15  C   UNL A   1      31.824  26.959  25.262  1.00  0.00     0.064 A 
BRANCH  14  16
ATOM     16  C   UNL A   1      30.468  27.906  23.384  1.00  0.00     0.002 A 
ATOM     17  C   UNL A   1      31.324  28.744  22.659  1.00  0.00     0.010 A 
ATOM     18  C   UNL A   1      29.095  28.179  23.410  1.00  0.00     0.010 A 
ATOM     19  C   UNL A   1      30.815  29.861  21.993  1.00  0.00     0.001 A 
ATOM     20  C   UNL A   1      28.590  29.300  22.749  1.00  0.00     0.001 A 
ATOM     21  C   UNL A   1      29.451  30.143  22.045  1.00  0.00     0.000 A 
ENDBRANCH  14  16
BRANCH  15  22
ATOM     22  C   UNL A   1      32.409  28.159  25.858  1.00  0.00    -0.006 A 
ATOM     23  C   UNL A   1      31.584  29.206  26.298  1.00  0.00     0.009 A 
ATOM     24  C   UNL A   1      33.794  28.261  26.044  1.00  0.00     0.009 A 
ATOM     25  C   UNL A   1      32.136  30.331  26.912  1.00  0.00     0.001 A 
ATOM     26  C   UNL A   1      34.343  29.388  26.659  1.00  0.00     0.001 A 
ATOM     27  C   UNL A   1      33.514  30.421  27.092  1.00  0.00     0.000 A 
ENDBRANCH  15  22
ENDBRANCH   9  11
ENDBRANCH   8   9
ENDBRANCH   6   8
ENDBRANCH   3   4
ENDBRANCH   2   3
ENDBRANCH   1   2
BRANCH   1  28
ATOM     28  C   UNL A   1      35.276  22.049  24.446  1.00  0.00     0.002 C 
BRANCH  28  29
ATOM     29  C   UNL A   1      35.809  23.151  25.364  1.00  0.00     0.021 C 
BRANCH  29  30
ATOM     30  C   UNL A   1      37.200  23.675  25.016  1.00  0.00     0.116 C 
BRANCH  30  31
ATOM     31  N   UNL A   1      38.259  22.745  25.376  1.00  0.00    -0.352 N 
ATOM     32  C   UNL A   1      39.401  22.960  26.105  1.00  0.00     0.251 C 
ATOM     33  H   UNL A   1      38.137  21.825  25.049  1.00  0.00     0.163 HD
ATOM     34  O   UNL A   1      40.256  22.075  26.179  1.00  0.00    -0.269 OA
BRANCH  32  35
ATOM     35  C   UNL A   1      39.631  24.253  26.785  1.00  0.00     0.039 A 
ATOM     36  C   UNL A   1      39.103  24.444  28.066  1.00  0.00     0.014 A 
ATOM     37  C   UNL A   1      40.343  25.283  26.164  1.00  0.00     0.014 A 
ATOM     38  C   UNL A   1      39.340  25.642  28.744  1.00  0.00     0.010 A 
ATOM     39  C   UNL A   1      40.637  26.449  26.868  1.00  0.00     0.010 A 
ATOM     40  C   UNL A   1      40.136  26.643  28.165  1.00  0.00    -0.014 A 
BRANCH  40  41
ATOM     41  C   UNL A   1      40.451  27.896  28.899  1.00  0.00     0.031 A 
ATOM     42  C   UNL A   1      41.769  28.049  29.611  1.00  0.00     0.074 A 
ATOM     43  C   UNL A   1      39.532  28.878  28.973  1.00  0.00     0.049 A 
ATOM     44  N   UNL A   1      42.202  29.045  30.342  1.00  0.00    -0.248 NA
ATOM     45  C   UNL A   1      42.714  26.927  29.505  1.00  0.00     0.031 C 
ATOM     46  C   UNL A   1      38.202  28.844  28.360  1.00  0.00     0.029 A 
ATOM     47  N   UNL A   1      39.575  30.097  29.604  1.00  0.00    -0.354 N 
ATOM     48  C   UNL A   1      43.460  28.665  30.791  1.00  0.00     0.074 A 
ATOM     49  C   UNL A   1      43.700  27.329  30.293  1.00  0.00     0.031 C 
ATOM     50  C   UNL A   1      37.567  29.998  28.625  1.00  0.00     0.029 A 
ATOM     51  C   UNL A   1      38.427  30.837  29.453  1.00  0.00     0.049 A 
ATOM     52  H   UNL A   1      40.356  30.411  30.114  1.00  0.00     0.167 HD
ATOM     53  C   UNL A   1      44.347  29.372  31.532  1.00  0.00     0.031 A 
ATOM     54  C   UNL A   1      38.100  32.052  29.933  1.00  0.00     0.031 A 
ATOM     55  C   UNL A   1      44.116  30.703  32.025  1.00  0.00     0.049 A 
ATOM     56  C   UNL A   1      39.096  32.807  30.768  1.00  0.00     0.074 A 
ATOM     57  C   UNL A   1      44.972  31.516  32.751  1.00  0.00     0.029 A 
ATOM     58  N   UNL A   1      42.944  31.419  31.843  1.00  0.00    -0.354 N 
ATOM     59  N   UNL A   1      40.305  32.457  31.132  1.00  0.00    -0.248 NA
ATOM     60  C   UNL A   1      38.684  34.135  31.246  1.00  0.00     0.031 C 
ATOM     61  C   UNL A   1      44.299  32.706  33.046  1.00  0.00     0.029 A 
ATOM     62  C   UNL A   1      43.046  32.657  32.457  1.00  0.00     0.049 A 
ATOM     63  H   UNL A   1      42.155  31.096  31.350  1.00  0.00     0.167 HD
ATOM     64  C   UNL A   1      40.810  33.531  31.853  1.00  0.00     0.074 A 
ATOM     65  C   UNL A   1      39.781  34.551  31.862  1.00  0.00     0.031 C 
ATOM     66  C   UNL A   1      42.017  33.663  32.454  1.00  0.00     0.031 A 
BRANCH  53  67
ATOM     67  C   UNL A   1      45.657  28.707  31.857  1.00  0.00    -0.014 A 
ATOM     68  C   UNL A   1      45.803  27.919  33.010  1.00  0.00     0.009 A 
ATOM     69  C   UNL A   1      46.749  28.844  30.986  1.00  0.00     0.009 A 
ATOM     70  C   UNL A   1      47.027  27.313  33.303  1.00  0.00     0.001 A 
ATOM     71  C   UNL A   1      47.962  28.213  31.266  1.00  0.00     0.001 A 
ATOM     72  C   UNL A   1      48.104  27.456  32.429  1.00  0.00     0.000 A 
ENDBRANCH  53  67
BRANCH  54  73
ATOM     73  C   UNL A   1      36.772  32.643  29.624  1.00  0.00    -0.014 A 
ATOM     74  C   UNL A   1      35.711  32.526  30.536  1.00  0.00     0.009 A 
ATOM     75  C   UNL A   1      36.551  33.307  28.408  1.00  0.00     0.009 A 
ATOM     76  C   UNL A   1      34.449  33.035  30.222  1.00  0.00     0.001 A 
ATOM     77  C   UNL A   1      35.296  33.842  28.110  1.00  0.00     0.001 A 
ATOM     78  C   UNL A   1      34.243  33.696  29.012  1.00  0.00     0.000 A 
ENDBRANCH  54  73
BRANCH  66  79
ATOM     79  C   UNL A   1      42.307  34.972  33.132  1.00  0.00    -0.014 A 
ATOM     80  C   UNL A   1      43.099  35.954  32.517  1.00  0.00     0.009 A 
ATOM     81  C   UNL A   1      41.753  35.237  34.394  1.00  0.00     0.009 A 
ATOM     82  C   UNL A   1      43.360  37.161  33.170  1.00  0.00     0.001 A 
ATOM     83  C   UNL A   1      41.990  36.455  35.031  1.00  0.00     0.001 A 
ATOM     84  C   UNL A   1      42.802  37.411  34.424  1.00  0.00     0.000 A 
ENDBRANCH  66  79
ENDBRANCH  40  41
ENDBRANCH  32  35
ENDBRANCH  30  31
ENDBRANCH  29  30
ENDBRANCH  28  29
ENDBRANCH   1  28
TORSDOF 17
ENDMDL
