MODEL 1
REMARK VINA RESULT:     -11.7      0.000      0.000
REMARK SMILES Cc1c(Cc2ccccc2)c(=O)oc2cc(OCC(=O)N[C@H](C)C(=O)NCCCCCCNC(=O)c3ccc(-c4c5nc(c(-c6ccccc6)c6ccc([nH]6)c(-c6ccccc6)c6nc(c(-c7ccccc7)c7ccc4[nH]7)C=C6)C=C5)cc3)ccc12
REMARK SMILES IDX 27 1 26 2 24 3 25 4 22 6 23 7 21 8 19 9 20 10 18 12 17 13
REMARK SMILES IDX 16 14 1 15 2 16 3 17 86 18 11 19 14 20 85 21 12 22 13 23
REMARK SMILES IDX 15 24 84 25 4 26 5 27 6 28 10 29 7 30 9 31 8 32 28 33 29 34
REMARK SMILES IDX 30 35 31 36 32 37 33 38 34 39 35 41 36 42 37 43 83 44 38 45
REMARK SMILES IDX 82 46 39 47 40 48 41 49 76 50 42 51 81 52 75 53 77 54 43 55
REMARK SMILES IDX 80 56 74 57 73 58 44 60 66 61 51 62 65 63 52 64 55 65 64 66
REMARK SMILES IDX 78 67 53 68 54 69 63 71 79 72 56 73 45 74 46 75 50 76 47 77
REMARK SMILES IDX 49 78 48 79 67 80 68 81 72 82 69 83 71 84 70 85 57 86 58 87
REMARK SMILES IDX 62 88 59 89 61 90 60 91
REMARK H PARENT 26 5 21 11 33 40 77 59 55 70
REMARK Flexibility Score: inf
ROOT
ATOM      1  C   UNL A   1      34.556  30.890  27.270  1.00  0.00     0.116 C 
ENDROOT
BRANCH   1   2
ATOM      2  N   UNL A   1      33.392  30.149  27.650  1.00  0.00    -0.354 N 
ATOM      3  C   UNL A   1      32.520  29.529  26.795  1.00  0.00     0.242 C 
ATOM      4  O   UNL A   1      31.575  28.906  27.287  1.00  0.00    -0.273 OA
ATOM      5  H   UNL A   1      33.200  30.079  28.614  1.00  0.00     0.163 HD
BRANCH   3   6
ATOM      6  C   UNL A   1      32.661  29.673  25.249  1.00  0.00     0.168 C 
ATOM      7  C   UNL A   1      33.554  28.588  24.666  1.00  0.00     0.041 C 
BRANCH   6   8
ATOM      8  N   UNL A   1      31.399  30.006  24.548  1.00  0.00    -0.342 N 
ATOM      9  C   UNL A   1      30.387  29.384  23.891  1.00  0.00     0.258 C 
ATOM     10  O   UNL A   1      29.406  30.090  23.623  1.00  0.00    -0.271 OA
ATOM     11  H   UNL A   1      31.248  30.978  24.563  1.00  0.00     0.164 HD
BRANCH   9  12
ATOM     12  C   UNL A   1      30.355  27.900  23.486  1.00  0.00     0.329 C 
BRANCH  12  13
ATOM     13  O   UNL A   1      30.079  26.965  24.502  1.00  0.00    -0.484 OA
BRANCH  13  14
ATOM     14  C   UNL A   1      31.034  26.015  24.719  1.00  0.00     0.123 A 
ATOM     15  C   UNL A   1      33.651  22.168  26.958  1.00  0.00     0.046 C 
ATOM     16  C   UNL A   1      33.842  22.923  25.669  1.00  0.00    -0.029 A 
ATOM     17  C   UNL A   1      34.817  22.679  24.763  1.00  0.00     0.046 A 
ATOM     18  C   UNL A   1      32.883  24.003  25.402  1.00  0.00     0.021 A 
ATOM     19  C   UNL A   1      34.827  23.356  23.433  1.00  0.00     0.340 A 
ATOM     20  C   UNL A   1      32.845  24.552  24.130  1.00  0.00     0.142 A 
ATOM     21  C   UNL A   1      32.003  24.523  26.361  1.00  0.00     0.016 A 
ATOM     22  O   UNL A   1      35.700  23.149  22.597  1.00  0.00    -0.246 OA
ATOM     23  O   UNL A   1      33.752  24.171  23.135  1.00  0.00    -0.422 OA
ATOM     24  C   UNL A   1      31.929  25.533  23.770  1.00  0.00     0.094 A 
ATOM     25  C   UNL A   1      31.086  25.521  26.022  1.00  0.00     0.047 A 
BRANCH  17  26
ATOM     26  C   UNL A   1      35.943  21.686  24.942  1.00  0.00     0.079 C 
BRANCH  26  27
ATOM     27  C   UNL A   1      37.186  22.290  25.568  1.00  0.00    -0.043 A 
ATOM     28  C   UNL A   1      37.173  23.603  26.057  1.00  0.00     0.004 A 
ATOM     29  C   UNL A   1      38.382  21.560  25.656  1.00  0.00     0.004 A 
ATOM     30  C   UNL A   1      38.330  24.171  26.597  1.00  0.00     0.000 A 
ATOM     31  C   UNL A   1      39.531  22.121  26.210  1.00  0.00     0.000 A 
ATOM     32  C   UNL A   1      39.508  23.431  26.672  1.00  0.00     0.000 A 
ENDBRANCH  26  27
ENDBRANCH  17  26
ENDBRANCH  13  14
ENDBRANCH  12  13
ENDBRANCH   9  12
ENDBRANCH   6   8
ENDBRANCH   3   6
ENDBRANCH   1   2
BRANCH   1  33
ATOM     33  C   UNL A   1      35.206  31.710  28.369  1.00  0.00     0.021 C 
BRANCH  33  34
ATOM     34  C   UNL A   1      34.940  33.207  28.283  1.00  0.00     0.002 C 
BRANCH  34  35
ATOM     35  C   UNL A   1      34.071  33.782  29.408  1.00  0.00     0.002 C 
BRANCH  35  36
ATOM     36  C   UNL A   1      33.123  34.920  29.009  1.00  0.00     0.021 C 
BRANCH  36  37
ATOM     37  C   UNL A   1      33.356  36.243  29.736  1.00  0.00     0.116 C 
BRANCH  37  38
ATOM     38  N   UNL A   1      32.490  36.391  30.894  1.00  0.00    -0.352 N 
ATOM     39  C   UNL A   1      32.577  35.827  32.141  1.00  0.00     0.251 C 
ATOM     40  H   UNL A   1      31.721  36.992  30.764  1.00  0.00     0.163 HD
ATOM     41  O   UNL A   1      31.635  35.915  32.921  1.00  0.00    -0.269 OA
BRANCH  39  42
ATOM     42  C   UNL A   1      33.800  35.103  32.545  1.00  0.00     0.039 A 
ATOM     43  C   UNL A   1      33.684  33.792  33.015  1.00  0.00     0.014 A 
ATOM     44  C   UNL A   1      35.052  35.723  32.495  1.00  0.00     0.014 A 
ATOM     45  C   UNL A   1      34.829  33.084  33.381  1.00  0.00     0.010 A 
ATOM     46  C   UNL A   1      36.199  34.993  32.792  1.00  0.00     0.010 A 
ATOM     47  C   UNL A   1      36.099  33.668  33.244  1.00  0.00    -0.014 A 
BRANCH  47  48
ATOM     48  C   UNL A   1      37.334  32.913  33.571  1.00  0.00     0.031 A 
ATOM     49  C   UNL A   1      38.069  33.183  34.855  1.00  0.00     0.074 A 
ATOM     50  C   UNL A   1      37.827  32.028  32.683  1.00  0.00     0.049 A 
ATOM     51  N   UNL A   1      39.195  32.672  35.284  1.00  0.00    -0.248 NA
ATOM     52  C   UNL A   1      37.474  34.173  35.765  1.00  0.00     0.031 C 
ATOM     53  C   UNL A   1      37.225  31.698  31.389  1.00  0.00     0.029 A 
ATOM     54  N   UNL A   1      38.955  31.246  32.734  1.00  0.00    -0.354 N 
ATOM     55  C   UNL A   1      39.450  33.291  36.502  1.00  0.00     0.074 A 
ATOM     56  C   UNL A   1      38.390  34.250  36.719  1.00  0.00     0.031 C 
ATOM     57  C   UNL A   1      37.975  30.765  30.782  1.00  0.00     0.029 A 
ATOM     58  C   UNL A   1      39.131  30.462  31.620  1.00  0.00     0.049 A 
ATOM     59  H   UNL A   1      39.577  31.248  33.496  1.00  0.00     0.167 HD
ATOM     60  C   UNL A   1      40.464  33.066  37.371  1.00  0.00     0.031 A 
ATOM     61  C   UNL A   1      40.118  29.604  31.303  1.00  0.00     0.031 A 
ATOM     62  C   UNL A   1      41.516  32.109  37.157  1.00  0.00     0.049 A 
ATOM     63  C   UNL A   1      41.249  29.395  32.272  1.00  0.00     0.074 A 
ATOM     64  C   UNL A   1      42.561  31.772  38.000  1.00  0.00     0.029 A 
ATOM     65  N   UNL A   1      41.659  31.335  36.015  1.00  0.00    -0.354 N 
ATOM     66  N   UNL A   1      41.440  29.940  33.448  1.00  0.00    -0.248 NA
ATOM     67  C   UNL A   1      42.294  28.443  31.870  1.00  0.00     0.031 C 
ATOM     68  C   UNL A   1      43.369  30.839  37.343  1.00  0.00     0.029 A 
ATOM     69  C   UNL A   1      42.790  30.544  36.119  1.00  0.00     0.049 A 
ATOM     70  H   UNL A   1      41.046  31.348  35.243  1.00  0.00     0.167 HD
ATOM     71  C   UNL A   1      42.608  29.374  33.942  1.00  0.00     0.074 A 
ATOM     72  C   UNL A   1      43.072  28.433  32.944  1.00  0.00     0.031 C 
ATOM     73  C   UNL A   1      43.239  29.611  35.118  1.00  0.00     0.031 A 
BRANCH  60  74
ATOM     74  C   UNL A   1      40.489  33.885  38.633  1.00  0.00    -0.014 A 
ATOM     75  C   UNL A   1      41.201  35.093  38.706  1.00  0.00     0.009 A 
ATOM     76  C   UNL A   1      39.762  33.460  39.757  1.00  0.00     0.009 A 
ATOM     77  C   UNL A   1      41.218  35.837  39.888  1.00  0.00     0.001 A 
ATOM     78  C   UNL A   1      39.754  34.221  40.927  1.00  0.00     0.001 A 
ATOM     79  C   UNL A   1      40.490  35.404  40.995  1.00  0.00     0.000 A 
ENDBRANCH  60  74
BRANCH  61  80
ATOM     80  C   UNL A   1      40.078  28.865  30.013  1.00  0.00    -0.014 A 
ATOM     81  C   UNL A   1      40.570  29.454  28.838  1.00  0.00     0.009 A 
ATOM     82  C   UNL A   1      39.540  27.570  29.946  1.00  0.00     0.009 A 
ATOM     83  C   UNL A   1      40.496  28.777  27.619  1.00  0.00     0.001 A 
ATOM     84  C   UNL A   1      39.496  26.881  28.732  1.00  0.00     0.001 A 
ATOM     85  C   UNL A   1      39.964  27.489  27.568  1.00  0.00     0.000 A 
ENDBRANCH  61  80
BRANCH  73  86
ATOM     86  C   UNL A   1      44.476  28.808  35.411  1.00  0.00    -0.014 A 
ATOM     87  C   UNL A   1      45.753  29.276  35.064  1.00  0.00     0.009 A 
ATOM     88  C   UNL A   1      44.360  27.581  36.085  1.00  0.00     0.009 A 
ATOM     89  C   UNL A   1      46.886  28.513  35.356  1.00  0.00     0.001 A 
ATOM     90  C   UNL A   1      45.497  26.838  36.404  1.00  0.00     0.001 A 
ATOM     91  C   UNL A   1      46.758  27.300  36.031  1.00  0.00     0.000 A 
ENDBRANCH  73  86
ENDBRANCH  47  48
ENDBRANCH  39  42
ENDBRANCH  37  38
ENDBRANCH  36  37
ENDBRANCH  35  36
ENDBRANCH  34  35
ENDBRANCH  33  34
ENDBRANCH   1  33
TORSDOF 19
ENDMDL
MODEL 2
REMARK VINA RESULT:     -11.3      2.647      3.672
REMARK SMILES Cc1c(Cc2ccccc2)c(=O)oc2cc(OCC(=O)N[C@H](C)C(=O)NCCCCCCNC(=O)c3ccc(-c4c5nc(c(-c6ccccc6)c6ccc([nH]6)c(-c6ccccc6)c6nc(c(-c7ccccc7)c7ccc4[nH]7)C=C6)C=C5)cc3)ccc12
REMARK SMILES IDX 27 1 26 2 24 3 25 4 22 6 23 7 21 8 19 9 20 10 18 12 17 13
REMARK SMILES IDX 16 14 1 15 2 16 3 17 86 18 11 19 14 20 85 21 12 22 13 23
REMARK SMILES IDX 15 24 84 25 4 26 5 27 6 28 10 29 7 30 9 31 8 32 28 33 29 34
REMARK SMILES IDX 30 35 31 36 32 37 33 38 34 39 35 41 36 42 37 43 83 44 38 45
REMARK SMILES IDX 82 46 39 47 40 48 41 49 76 50 42 51 81 52 75 53 77 54 43 55
REMARK SMILES IDX 80 56 74 57 73 58 44 60 66 61 51 62 65 63 52 64 55 65 64 66
REMARK SMILES IDX 78 67 53 68 54 69 63 71 79 72 56 73 45 74 46 75 50 76 47 77
REMARK SMILES IDX 49 78 48 79 67 80 68 81 72 82 69 83 71 84 70 85 57 86 58 87
REMARK SMILES IDX 62 88 59 89 61 90 60 91
REMARK H PARENT 26 5 21 11 33 40 77 59 55 70
REMARK Flexibility Score: inf
ROOT
ATOM      1  C   UNL A   1      33.718  28.912  25.425  1.00  0.00     0.116 C 
ENDROOT
BRANCH   1   2
ATOM      2  N   UNL A   1      33.906  27.510  25.204  1.00  0.00    -0.354 N 
ATOM      3  C   UNL A   1      33.688  26.847  24.027  1.00  0.00     0.242 C 
ATOM      4  O   UNL A   1      33.924  25.636  23.994  1.00  0.00    -0.273 OA
ATOM      5  H   UNL A   1      34.220  26.974  25.969  1.00  0.00     0.163 HD
BRANCH   3   6
ATOM      6  C   UNL A   1      33.078  27.572  22.788  1.00  0.00     0.168 C 
ATOM      7  C   UNL A   1      32.761  26.593  21.668  1.00  0.00     0.041 C 
BRANCH   6   8
ATOM      8  N   UNL A   1      32.083  28.618  23.119  1.00  0.00    -0.342 N 
ATOM      9  C   UNL A   1      30.742  28.754  23.280  1.00  0.00     0.258 C 
ATOM     10  O   UNL A   1      30.365  29.831  23.762  1.00  0.00    -0.271 OA
ATOM     11  H   UNL A   1      32.533  29.480  23.269  1.00  0.00     0.164 HD
BRANCH   9  12
ATOM     12  C   UNL A   1      29.683  27.691  22.942  1.00  0.00     0.329 C 
BRANCH  12  13
ATOM     13  O   UNL A   1      29.176  26.930  24.013  1.00  0.00    -0.484 OA
BRANCH  13  14
ATOM     14  C   UNL A   1      29.956  25.893  24.435  1.00  0.00     0.123 A 
ATOM     15  C   UNL A   1      32.578  22.736  27.569  1.00  0.00     0.046 C 
ATOM     16  C   UNL A   1      32.331  22.732  26.084  1.00  0.00    -0.029 A 
ATOM     17  C   UNL A   1      32.774  21.784  25.225  1.00  0.00     0.046 A 
ATOM     18  C   UNL A   1      31.548  23.857  25.553  1.00  0.00     0.021 A 
ATOM     19  C   UNL A   1      32.334  21.763  23.799  1.00  0.00     0.340 A 
ATOM     20  C   UNL A   1      31.068  23.772  24.255  1.00  0.00     0.142 A 
ATOM     21  C   UNL A   1      31.260  25.021  26.278  1.00  0.00     0.016 A 
ATOM     22  O   UNL A   1      32.721  20.913  23.005  1.00  0.00    -0.246 OA
ATOM     23  O   UNL A   1      31.389  22.698  23.419  1.00  0.00    -0.422 OA
ATOM     24  C   UNL A   1      30.268  24.759  23.692  1.00  0.00     0.094 A 
ATOM     25  C   UNL A   1      30.469  26.030  25.723  1.00  0.00     0.047 A 
BRANCH  17  26
ATOM     26  C   UNL A   1      33.682  20.633  25.593  1.00  0.00     0.079 C 
BRANCH  26  27
ATOM     27  C   UNL A   1      35.154  20.941  25.397  1.00  0.00    -0.043 A 
ATOM     28  C   UNL A   1      36.041  19.945  24.971  1.00  0.00     0.004 A 
ATOM     29  C   UNL A   1      35.668  22.223  25.653  1.00  0.00     0.004 A 
ATOM     30  C   UNL A   1      37.405  20.220  24.829  1.00  0.00     0.000 A 
ATOM     31  C   UNL A   1      37.024  22.502  25.496  1.00  0.00     0.000 A 
ATOM     32  C   UNL A   1      37.895  21.497  25.093  1.00  0.00     0.000 A 
ENDBRANCH  26  27
ENDBRANCH  17  26
ENDBRANCH  13  14
ENDBRANCH  12  13
ENDBRANCH   9  12
ENDBRANCH   6   8
ENDBRANCH   3   6
ENDBRANCH   1   2
BRANCH   1  33
ATOM     33  C   UNL A   1      34.242  29.449  26.745  1.00  0.00     0.021 C 
BRANCH  33  34
ATOM     34  C   UNL A   1      33.202  30.173  27.590  1.00  0.00     0.002 C 
BRANCH  34  35
ATOM     35  C   UNL A   1      31.879  30.479  26.878  1.00  0.00     0.002 C 
BRANCH  35  36
ATOM     36  C   UNL A   1      31.443  31.949  26.873  1.00  0.00     0.021 C 
BRANCH  36  37
ATOM     37  C   UNL A   1      32.580  32.962  26.758  1.00  0.00     0.116 C 
BRANCH  37  38
ATOM     38  N   UNL A   1      32.400  34.092  27.655  1.00  0.00    -0.352 N 
ATOM     39  C   UNL A   1      33.098  34.447  28.781  1.00  0.00     0.251 C 
ATOM     40  H   UNL A   1      31.662  34.698  27.416  1.00  0.00     0.163 HD
ATOM     41  O   UNL A   1      32.665  35.324  29.519  1.00  0.00    -0.269 OA
BRANCH  39  42
ATOM     42  C   UNL A   1      34.367  33.767  29.113  1.00  0.00     0.039 A 
ATOM     43  C   UNL A   1      35.480  33.980  28.294  1.00  0.00     0.014 A 
ATOM     44  C   UNL A   1      34.453  32.897  30.203  1.00  0.00     0.014 A 
ATOM     45  C   UNL A   1      36.693  33.365  28.603  1.00  0.00     0.010 A 
ATOM     46  C   UNL A   1      35.681  32.341  30.550  1.00  0.00     0.010 A 
ATOM     47  C   UNL A   1      36.813  32.564  29.750  1.00  0.00    -0.014 A 
BRANCH  47  48
ATOM     48  C   UNL A   1      38.108  31.949  30.129  1.00  0.00     0.031 A 
ATOM     49  C   UNL A   1      39.054  32.677  31.044  1.00  0.00     0.074 A 
ATOM     50  C   UNL A   1      38.460  30.761  29.600  1.00  0.00     0.049 A 
ATOM     51  N   UNL A   1      40.254  32.331  31.436  1.00  0.00    -0.248 NA
ATOM     52  C   UNL A   1      38.602  33.975  31.569  1.00  0.00     0.031 C 
ATOM     53  C   UNL A   1      37.646  29.968  28.677  1.00  0.00     0.029 A 
ATOM     54  N   UNL A   1      39.602  30.015  29.761  1.00  0.00    -0.354 N 
ATOM     55  C   UNL A   1      40.705  33.373  32.236  1.00  0.00     0.074 A 
ATOM     56  C   UNL A   1      39.673  34.386  32.233  1.00  0.00     0.031 C 
ATOM     57  C   UNL A   1      38.302  28.836  28.374  1.00  0.00     0.029 A 
ATOM     58  C   UNL A   1      39.598  28.843  29.044  1.00  0.00     0.049 A 
ATOM     59  H   UNL A   1      40.351  30.293  30.335  1.00  0.00     0.167 HD
ATOM     60  C   UNL A   1      41.865  33.470  32.928  1.00  0.00     0.031 A 
ATOM     61  C   UNL A   1      40.537  27.886  28.930  1.00  0.00     0.031 A 
ATOM     62  C   UNL A   1      42.890  32.461  32.935  1.00  0.00     0.049 A 
ATOM     63  C   UNL A   1      41.830  28.032  29.685  1.00  0.00     0.074 A 
ATOM     64  C   UNL A   1      44.079  32.443  33.643  1.00  0.00     0.029 A 
ATOM     65  N   UNL A   1      42.848  31.289  32.195  1.00  0.00    -0.354 N 
ATOM     66  N   UNL A   1      42.213  28.994  30.489  1.00  0.00    -0.248 NA
ATOM     67  C   UNL A   1      42.815  26.953  29.522  1.00  0.00     0.031 C 
ATOM     68  C   UNL A   1      44.783  31.289  33.286  1.00  0.00     0.029 A 
ATOM     69  C   UNL A   1      44.003  30.556  32.407  1.00  0.00     0.049 A 
ATOM     70  H   UNL A   1      42.107  31.019  31.605  1.00  0.00     0.167 HD
ATOM     71  C   UNL A   1      43.468  28.621  30.953  1.00  0.00     0.074 A 
ATOM     72  C   UNL A   1      43.773  27.338  30.353  1.00  0.00     0.031 C 
ATOM     73  C   UNL A   1      44.292  29.280  31.804  1.00  0.00     0.031 A 
BRANCH  60  74
ATOM     74  C   UNL A   1      42.092  34.724  33.728  1.00  0.00    -0.014 A 
ATOM     75  C   UNL A   1      42.739  35.839  33.172  1.00  0.00     0.009 A 
ATOM     76  C   UNL A   1      41.622  34.805  35.049  1.00  0.00     0.009 A 
ATOM     77  C   UNL A   1      42.947  36.992  33.931  1.00  0.00     0.001 A 
ATOM     78  C   UNL A   1      41.801  35.970  35.796  1.00  0.00     0.001 A 
ATOM     79  C   UNL A   1      42.472  37.059  35.241  1.00  0.00     0.000 A 
ENDBRANCH  60  74
BRANCH  61  80
ATOM     80  C   UNL A   1      40.289  26.694  28.076  1.00  0.00    -0.014 A 
ATOM     81  C   UNL A   1      39.560  25.602  28.571  1.00  0.00     0.009 A 
ATOM     82  C   UNL A   1      40.786  26.638  26.764  1.00  0.00     0.009 A 
ATOM     83  C   UNL A   1      39.361  24.466  27.783  1.00  0.00     0.001 A 
ATOM     84  C   UNL A   1      40.558  25.513  25.967  1.00  0.00     0.001 A 
ATOM     85  C   UNL A   1      39.855  24.425  26.481  1.00  0.00     0.000 A 
ENDBRANCH  61  80
BRANCH  73  86
ATOM     86  C   UNL A   1      45.586  28.607  32.171  1.00  0.00    -0.014 A 
ATOM     87  C   UNL A   1      45.665  27.712  33.250  1.00  0.00     0.009 A 
ATOM     88  C   UNL A   1      46.732  28.842  31.396  1.00  0.00     0.009 A 
ATOM     89  C   UNL A   1      46.877  27.093  33.564  1.00  0.00     0.001 A 
ATOM     90  C   UNL A   1      47.933  28.197  31.692  1.00  0.00     0.001 A 
ATOM     91  C   UNL A   1      48.007  27.331  32.782  1.00  0.00     0.000 A 
ENDBRANCH  73  86
ENDBRANCH  47  48
ENDBRANCH  39  42
ENDBRANCH  37  38
ENDBRANCH  36  37
ENDBRANCH  35  36
ENDBRANCH  34  35
ENDBRANCH  33  34
ENDBRANCH   1  33
TORSDOF 19
ENDMDL
MODEL 3
REMARK VINA RESULT:     -10.7      5.215     10.510
REMARK SMILES Cc1c(Cc2ccccc2)c(=O)oc2cc(OCC(=O)N[C@H](C)C(=O)NCCCCCCNC(=O)c3ccc(-c4c5nc(c(-c6ccccc6)c6ccc([nH]6)c(-c6ccccc6)c6nc(c(-c7ccccc7)c7ccc4[nH]7)C=C6)C=C5)cc3)ccc12
REMARK SMILES IDX 27 1 26 2 24 3 25 4 22 6 23 7 21 8 19 9 20 10 18 12 17 13
REMARK SMILES IDX 16 14 1 15 2 16 3 17 86 18 11 19 14 20 85 21 12 22 13 23
REMARK SMILES IDX 15 24 84 25 4 26 5 27 6 28 10 29 7 30 9 31 8 32 28 33 29 34
REMARK SMILES IDX 30 35 31 36 32 37 33 38 34 39 35 41 36 42 37 43 83 44 38 45
REMARK SMILES IDX 82 46 39 47 40 48 41 49 76 50 42 51 81 52 75 53 77 54 43 55
REMARK SMILES IDX 80 56 74 57 73 58 44 60 66 61 51 62 65 63 52 64 55 65 64 66
REMARK SMILES IDX 78 67 53 68 54 69 63 71 79 72 56 73 45 74 46 75 50 76 47 77
REMARK SMILES IDX 49 78 48 79 67 80 68 81 72 82 69 83 71 84 70 85 57 86 58 87
REMARK SMILES IDX 62 88 59 89 61 90 60 91
REMARK H PARENT 26 5 21 11 33 40 77 59 55 70
REMARK Flexibility Score: inf
ROOT
ATOM      1  C   UNL A   1      37.931  23.636  26.114  1.00  0.00     0.116 C 
ENDROOT
BRANCH   1   2
ATOM      2  N   UNL A   1      37.512  23.725  24.748  1.00  0.00    -0.354 N 
ATOM      3  C   UNL A   1      36.754  22.803  24.078  1.00  0.00     0.242 C 
ATOM      4  O   UNL A   1      36.456  23.043  22.905  1.00  0.00    -0.273 OA
ATOM      5  H   UNL A   1      37.796  24.523  24.244  1.00  0.00     0.163 HD
BRANCH   3   6
ATOM      6  C   UNL A   1      36.350  21.450  24.742  1.00  0.00     0.168 C 
ATOM      7  C   UNL A   1      37.546  20.521  24.886  1.00  0.00     0.041 C 
BRANCH   6   8
ATOM      8  N   UNL A   1      35.413  21.582  25.880  1.00  0.00    -0.342 N 
ATOM      9  C   UNL A   1      34.216  21.096  26.295  1.00  0.00     0.258 C 
ATOM     10  O   UNL A   1      33.899  21.369  27.461  1.00  0.00    -0.271 OA
ATOM     11  H   UNL A   1      35.768  22.220  26.541  1.00  0.00     0.164 HD
BRANCH   9  12
ATOM     12  C   UNL A   1      33.256  20.234  25.457  1.00  0.00     0.329 C 
BRANCH  12  13
ATOM     13  O   UNL A   1      31.962  20.745  25.238  1.00  0.00    -0.484 OA
BRANCH  13  14
ATOM     14  C   UNL A   1      31.892  22.041  24.817  1.00  0.00     0.123 A 
ATOM     15  C   UNL A   1      31.700  26.135  21.676  1.00  0.00     0.046 C 
ATOM     16  C   UNL A   1      31.642  25.989  23.173  1.00  0.00    -0.029 A 
ATOM     17  C   UNL A   1      31.482  27.009  24.048  1.00  0.00     0.046 A 
ATOM     18  C   UNL A   1      31.774  24.622  23.698  1.00  0.00     0.021 A 
ATOM     19  C   UNL A   1      31.258  26.757  25.502  1.00  0.00     0.340 A 
ATOM     20  C   UNL A   1      31.468  24.395  25.031  1.00  0.00     0.142 A 
ATOM     21  C   UNL A   1      32.201  23.528  22.933  1.00  0.00     0.016 A 
ATOM     22  O   UNL A   1      31.109  27.666  26.311  1.00  0.00    -0.246 OA
ATOM     23  O   UNL A   1      31.133  25.439  25.900  1.00  0.00    -0.422 OA
ATOM     24  C   UNL A   1      31.504  23.126  25.596  1.00  0.00     0.094 A 
ATOM     25  C   UNL A   1      32.258  22.248  23.488  1.00  0.00     0.047 A 
BRANCH  17  26
ATOM     26  C   UNL A   1      31.446  28.474  23.678  1.00  0.00     0.079 C 
BRANCH  26  27
ATOM     27  C   UNL A   1      30.041  29.014  23.491  1.00  0.00    -0.043 A 
ATOM     28  C   UNL A   1      28.987  28.158  23.148  1.00  0.00     0.004 A 
ATOM     29  C   UNL A   1      29.764  30.383  23.638  1.00  0.00     0.004 A 
ATOM     30  C   UNL A   1      27.701  28.663  22.936  1.00  0.00     0.000 A 
ATOM     31  C   UNL A   1      28.479  30.885  23.444  1.00  0.00     0.000 A 
ATOM     32  C   UNL A   1      27.448  30.025  23.083  1.00  0.00     0.000 A 
ENDBRANCH  26  27
ENDBRANCH  17  26
ENDBRANCH  13  14
ENDBRANCH  12  13
ENDBRANCH   9  12
ENDBRANCH   6   8
ENDBRANCH   3   6
ENDBRANCH   1   2
BRANCH   1  33
ATOM     33  C   UNL A   1      39.116  24.501  26.500  1.00  0.00     0.021 C 
BRANCH  33  34
ATOM     34  C   UNL A   1      40.155  23.801  27.365  1.00  0.00     0.002 C 
BRANCH  34  35
ATOM     35  C   UNL A   1      40.055  22.271  27.397  1.00  0.00     0.002 C 
BRANCH  35  36
ATOM     36  C   UNL A   1      41.345  21.507  27.076  1.00  0.00     0.021 C 
BRANCH  36  37
ATOM     37  C   UNL A   1      41.912  21.749  25.678  1.00  0.00     0.116 C 
BRANCH  37  38
ATOM     38  N   UNL A   1      43.275  21.259  25.547  1.00  0.00    -0.352 N 
ATOM     39  C   UNL A   1      44.468  21.924  25.671  1.00  0.00     0.251 C 
ATOM     40  H   UNL A   1      43.353  20.301  25.337  1.00  0.00     0.163 HD
ATOM     41  O   UNL A   1      45.511  21.381  25.322  1.00  0.00    -0.269 OA
BRANCH  39  42
ATOM     42  C   UNL A   1      44.501  23.297  26.216  1.00  0.00     0.039 A 
ATOM     43  C   UNL A   1      44.274  24.371  25.351  1.00  0.00     0.014 A 
ATOM     44  C   UNL A   1      44.787  23.528  27.564  1.00  0.00     0.014 A 
ATOM     45  C   UNL A   1      44.280  25.674  25.850  1.00  0.00     0.010 A 
ATOM     46  C   UNL A   1      44.721  24.822  28.074  1.00  0.00     0.010 A 
ATOM     47  C   UNL A   1      44.472  25.909  27.221  1.00  0.00    -0.014 A 
BRANCH  47  48
ATOM     48  C   UNL A   1      44.423  27.281  27.782  1.00  0.00     0.031 A 
ATOM     49  C   UNL A   1      43.112  27.873  28.222  1.00  0.00     0.074 A 
ATOM     50  C   UNL A   1      45.549  28.018  27.838  1.00  0.00     0.049 A 
ATOM     51  N   UNL A   1      42.859  29.074  28.676  1.00  0.00    -0.248 NA
ATOM     52  C   UNL A   1      41.925  27.009  28.116  1.00  0.00     0.031 C 
ATOM     53  C   UNL A   1      46.878  27.572  27.414  1.00  0.00     0.029 A 
ATOM     54  N   UNL A   1      45.754  29.305  28.271  1.00  0.00    -0.354 N 
ATOM     55  C   UNL A   1      41.488  29.115  28.893  1.00  0.00     0.074 A 
ATOM     56  C   UNL A   1      40.955  27.838  28.473  1.00  0.00     0.031 C 
ATOM     57  C   UNL A   1      47.762  28.558  27.632  1.00  0.00     0.029 A 
ATOM     58  C   UNL A   1      47.060  29.718  28.169  1.00  0.00     0.049 A 
ATOM     59  H   UNL A   1      45.033  29.876  28.622  1.00  0.00     0.167 HD
ATOM     60  C   UNL A   1      40.740  30.118  29.413  1.00  0.00     0.031 A 
ATOM     61  C   UNL A   1      47.627  30.903  28.463  1.00  0.00     0.031 A 
ATOM     62  C   UNL A   1      41.271  31.387  29.835  1.00  0.00     0.049 A 
ATOM     63  C   UNL A   1      46.770  32.011  29.011  1.00  0.00     0.074 A 
ATOM     64  C   UNL A   1      40.605  32.449  30.420  1.00  0.00     0.029 A 
ATOM     65  N   UNL A   1      42.600  31.767  29.713  1.00  0.00    -0.354 N 
ATOM     66  N   UNL A   1      45.485  32.011  29.270  1.00  0.00    -0.248 NA
ATOM     67  C   UNL A   1      47.447  33.280  29.315  1.00  0.00     0.031 C 
ATOM     68  C   UNL A   1      41.518  33.493  30.598  1.00  0.00     0.029 A 
ATOM     69  C   UNL A   1      42.766  33.057  30.185  1.00  0.00     0.049 A 
ATOM     70  H   UNL A   1      43.318  31.202  29.344  1.00  0.00     0.167 HD
ATOM     71  C   UNL A   1      45.206  33.265  29.799  1.00  0.00     0.074 A 
ATOM     72  C   UNL A   1      46.458  33.992  29.836  1.00  0.00     0.031 C 
ATOM     73  C   UNL A   1      44.019  33.767  30.218  1.00  0.00     0.031 A 
BRANCH  60  74
ATOM     74  C   UNL A   1      39.260  29.884  29.542  1.00  0.00    -0.014 A 
ATOM     75  C   UNL A   1      38.383  30.151  28.479  1.00  0.00     0.009 A 
ATOM     76  C   UNL A   1      38.737  29.357  30.735  1.00  0.00     0.009 A 
ATOM     77  C   UNL A   1      37.010  29.934  28.620  1.00  0.00     0.001 A 
ATOM     78  C   UNL A   1      37.370  29.110  30.862  1.00  0.00     0.001 A 
ATOM     79  C   UNL A   1      36.505  29.408  29.809  1.00  0.00     0.000 A 
ENDBRANCH  60  74
BRANCH  61  80
ATOM     80  C   UNL A   1      49.086  31.104  28.257  1.00  0.00    -0.014 A 
ATOM     81  C   UNL A   1      49.567  31.655  27.060  1.00  0.00     0.009 A 
ATOM     82  C   UNL A   1      50.006  30.737  29.252  1.00  0.00     0.009 A 
ATOM     83  C   UNL A   1      50.940  31.805  26.850  1.00  0.00     0.001 A 
ATOM     84  C   UNL A   1      51.376  30.919  29.053  1.00  0.00     0.001 A 
ATOM     85  C   UNL A   1      51.842  31.443  27.848  1.00  0.00     0.000 A 
ENDBRANCH  61  80
BRANCH  73  86
ATOM     86  C   UNL A   1      44.024  35.156  30.796  1.00  0.00    -0.014 A 
ATOM     87  C   UNL A   1      44.230  35.379  32.166  1.00  0.00     0.009 A 
ATOM     88  C   UNL A   1      43.861  36.260  29.943  1.00  0.00     0.009 A 
ATOM     89  C   UNL A   1      44.238  36.680  32.675  1.00  0.00     0.001 A 
ATOM     90  C   UNL A   1      43.903  37.559  30.450  1.00  0.00     0.001 A 
ATOM     91  C   UNL A   1      44.082  37.767  31.816  1.00  0.00     0.000 A 
ENDBRANCH  73  86
ENDBRANCH  47  48
ENDBRANCH  39  42
ENDBRANCH  37  38
ENDBRANCH  36  37
ENDBRANCH  35  36
ENDBRANCH  34  35
ENDBRANCH  33  34
ENDBRANCH   1  33
TORSDOF 19
ENDMDL
