MODEL 1
REMARK VINA RESULT:     -10.9      0.000      0.000
REMARK SMILES Cc1ccc(S(=O)(=O)n2cc(C(=O)C(=O)N[C@@H](Cc3c[nH]c4ccccc34)C(=O)NCCCCCCNC(=O)c3ccc(-c4c5nc(c(-c6ccccc6)c6ccc([nH]6)c(-c6ccccc6)c6nc(c(-c7ccccc7)c7ccc4[nH]7)C=C6)C=C5)cc3)c3ccccc32)cc1
REMARK SMILES IDX 32 1 31 2 30 3 28 4 29 5 17 7 16 8 14 9 15 10 12 12 13 13
REMARK SMILES IDX 11 14 9 15 10 16 93 17 88 18 92 19 89 20 91 21 90 22 6 23
REMARK SMILES IDX 7 24 8 25 5 26 1 27 2 28 3 29 95 30 4 31 94 32 18 33 19 34
REMARK SMILES IDX 20 35 27 36 21 37 22 38 26 39 23 41 25 42 24 43 33 44 34 45
REMARK SMILES IDX 35 46 36 47 37 48 38 49 39 51 40 52 41 53 87 54 42 55 86 56
REMARK SMILES IDX 43 57 44 58 45 59 80 60 46 61 85 62 79 63 81 64 47 65 84 66
REMARK SMILES IDX 78 67 77 68 48 70 70 71 55 72 69 73 56 74 59 75 68 76 82 77
REMARK SMILES IDX 57 78 58 79 67 81 83 82 60 83 49 84 50 85 54 86 51 87 53 88
REMARK SMILES IDX 52 89 71 90 72 91 76 92 73 93 75 94 74 95 61 96 62 97 66 98
REMARK SMILES IDX 63 99 65 100 64 101
REMARK H PARENT 30 6 16 11 21 40 37 50 81 69 59 80
REMARK Flexibility Score: inf
ROOT
ATOM      1  C   UNL A   1      46.529  36.962  27.535  1.00  0.00     0.021 C 
ENDROOT
BRANCH   1   2
ATOM      2  C   UNL A   1      45.950  38.016  26.599  1.00  0.00     0.116 C 
BRANCH   2   3
ATOM      3  N   UNL A   1      46.822  39.103  26.223  1.00  0.00    -0.354 N 
ATOM      4  C   UNL A   1      46.887  40.350  26.791  1.00  0.00     0.242 C 
ATOM      5  O   UNL A   1      48.008  40.873  26.828  1.00  0.00    -0.273 OA
ATOM      6  H   UNL A   1      47.437  38.930  25.475  1.00  0.00     0.163 HD
BRANCH   4   7
ATOM      7  C   UNL A   1      45.685  41.048  27.502  1.00  0.00     0.176 C 
BRANCH   7   8
ATOM      8  N   UNL A   1      44.351  40.862  26.888  1.00  0.00    -0.337 N 
ATOM      9  C   UNL A   1      43.674  41.631  25.947  1.00  0.00     0.293 C 
ATOM     10  O   UNL A   1      42.499  41.390  25.682  1.00  0.00    -0.265 OA
ATOM     11  H   UNL A   1      43.863  40.064  27.196  1.00  0.00     0.164 HD
BRANCH   9  12
ATOM     12  C   UNL A   1      44.390  42.764  25.202  1.00  0.00     0.252 C 
ATOM     13  O   UNL A   1      44.632  43.767  25.875  1.00  0.00    -0.283 OA
BRANCH  12  14
ATOM     14  C   UNL A   1      44.672  42.728  23.751  1.00  0.00     0.054 A 
ATOM     15  N   UNL A   1      45.566  42.596  21.663  1.00  0.00    -0.240 N 
ATOM     16  C   UNL A   1      45.866  42.565  23.030  1.00  0.00     0.117 A 
ATOM     17  C   UNL A   1      44.165  42.567  21.543  1.00  0.00     0.065 A 
ATOM     18  C   UNL A   1      43.668  43.000  22.769  1.00  0.00     0.012 A 
ATOM     19  C   UNL A   1      43.337  42.474  20.406  1.00  0.00     0.028 A 
ATOM     20  C   UNL A   1      42.366  43.546  22.810  1.00  0.00     0.011 A 
ATOM     21  C   UNL A   1      42.083  43.079  20.457  1.00  0.00     0.002 A 
ATOM     22  C   UNL A   1      41.619  43.649  21.633  1.00  0.00     0.001 A 
BRANCH  15  23
ATOM     23  S   UNL A   1      46.285  43.655  20.464  1.00  0.00     0.268 S 
ATOM     24  O   UNL A   1      46.685  42.737  19.411  1.00  0.00    -0.201 OA
ATOM     25  O   UNL A   1      47.279  44.380  21.247  1.00  0.00    -0.201 OA
BRANCH  23  26
ATOM     26  C   UNL A   1      45.487  44.987  19.638  1.00  0.00     0.088 A 
ATOM     27  C   UNL A   1      43.859  47.762  16.748  1.00  0.00     0.044 C 
ATOM     28  C   UNL A   1      44.378  46.810  17.788  1.00  0.00    -0.051 A 
ATOM     29  C   UNL A   1      44.690  45.523  17.374  1.00  0.00     0.005 A 
ATOM     30  C   UNL A   1      44.611  47.169  19.135  1.00  0.00     0.005 A 
ATOM     31  C   UNL A   1      45.222  44.631  18.290  1.00  0.00     0.022 A 
ATOM     32  C   UNL A   1      45.173  46.262  20.073  1.00  0.00     0.022 A 
ENDBRANCH  23  26
ENDBRANCH  15  23
ENDBRANCH  12  14
ENDBRANCH   9  12
ENDBRANCH   7   8
BRANCH   7  33
ATOM     33  C   UNL A   1      45.697  40.850  29.051  1.00  0.00     0.072 C 
BRANCH  33  34
ATOM     34  C   UNL A   1      45.361  42.025  29.938  1.00  0.00    -0.020 A 
ATOM     35  C   UNL A   1      46.200  43.095  30.212  1.00  0.00     0.087 A 
ATOM     36  C   UNL A   1      44.145  42.280  30.662  1.00  0.00     0.003 A 
ATOM     37  N   UNL A   1      45.589  43.910  31.129  1.00  0.00    -0.361 N 
ATOM     38  C   UNL A   1      44.375  43.377  31.496  1.00  0.00     0.046 A 
ATOM     39  C   UNL A   1      42.898  41.629  30.757  1.00  0.00     0.010 A 
ATOM     40  H   UNL A   1      45.963  44.753  31.474  1.00  0.00     0.166 HD
ATOM     41  C   UNL A   1      43.477  43.777  32.493  1.00  0.00     0.026 A 
ATOM     42  C   UNL A   1      42.001  41.995  31.766  1.00  0.00     0.001 A 
ATOM     43  C   UNL A   1      42.299  43.040  32.636  1.00  0.00     0.002 A 
ENDBRANCH  33  34
ENDBRANCH   7  33
ENDBRANCH   4   7
ENDBRANCH   2   3
ENDBRANCH   1   2
BRANCH   1  44
ATOM     44  C   UNL A   1      46.994  37.410  28.926  1.00  0.00     0.002 C 
BRANCH  44  45
ATOM     45  C   UNL A   1      47.258  36.342  30.001  1.00  0.00     0.002 C 
BRANCH  45  46
ATOM     46  C   UNL A   1      46.556  34.991  29.859  1.00  0.00     0.021 C 
BRANCH  46  47
ATOM     47  C   UNL A   1      47.441  33.814  29.476  1.00  0.00     0.116 C 
BRANCH  47  48
ATOM     48  N   UNL A   1      48.238  34.015  28.272  1.00  0.00    -0.352 N 
ATOM     49  C   UNL A   1      48.132  33.388  27.036  1.00  0.00     0.251 C 
ATOM     50  H   UNL A   1      48.953  34.688  28.345  1.00  0.00     0.163 HD
ATOM     51  O   UNL A   1      48.891  33.670  26.131  1.00  0.00    -0.269 OA
BRANCH  49  52
ATOM     52  C   UNL A   1      46.985  32.474  26.793  1.00  0.00     0.039 A 
ATOM     53  C   UNL A   1      45.774  33.048  26.394  1.00  0.00     0.014 A 
ATOM     54  C   UNL A   1      47.035  31.138  27.182  1.00  0.00     0.014 A 
ATOM     55  C   UNL A   1      44.585  32.374  26.654  1.00  0.00     0.010 A 
ATOM     56  C   UNL A   1      45.859  30.510  27.539  1.00  0.00     0.010 A 
ATOM     57  C   UNL A   1      44.639  31.164  27.347  1.00  0.00    -0.014 A 
BRANCH  57  58
ATOM     58  C   UNL A   1      43.489  30.592  28.031  1.00  0.00     0.031 A 
ATOM     59  C   UNL A   1      42.781  29.425  27.474  1.00  0.00     0.074 A 
ATOM     60  C   UNL A   1      43.059  31.124  29.196  1.00  0.00     0.049 A 
ATOM     61  N   UNL A   1      41.534  29.172  27.688  1.00  0.00    -0.248 NA
ATOM     62  C   UNL A   1      43.421  28.468  26.579  1.00  0.00     0.031 C 
ATOM     63  C   UNL A   1      42.100  30.552  30.138  1.00  0.00     0.029 A 
ATOM     64  N   UNL A   1      43.262  32.397  29.690  1.00  0.00    -0.354 N 
ATOM     65  C   UNL A   1      41.295  27.895  27.244  1.00  0.00     0.074 A 
ATOM     66  C   UNL A   1      42.465  27.540  26.472  1.00  0.00     0.031 C 
ATOM     67  C   UNL A   1      41.620  31.532  30.922  1.00  0.00     0.029 A 
ATOM     68  C   UNL A   1      42.138  32.790  30.413  1.00  0.00     0.049 A 
ATOM     69  H   UNL A   1      44.073  32.940  29.555  1.00  0.00     0.167 HD
ATOM     70  C   UNL A   1      40.209  27.216  27.706  1.00  0.00     0.031 A 
ATOM     71  C   UNL A   1      41.366  33.853  30.038  1.00  0.00     0.031 A 
ATOM     72  C   UNL A   1      39.389  28.027  28.605  1.00  0.00     0.049 A 
ATOM     73  C   UNL A   1      39.925  33.490  29.732  1.00  0.00     0.074 A 
ATOM     74  C   UNL A   1      39.246  28.060  29.984  1.00  0.00     0.029 A 
ATOM     75  N   UNL A   1      38.767  29.171  28.122  1.00  0.00    -0.354 N 
ATOM     76  N   UNL A   1      39.500  32.275  29.521  1.00  0.00    -0.248 NA
ATOM     77  C   UNL A   1      38.863  34.479  29.578  1.00  0.00     0.031 C 
ATOM     78  C   UNL A   1      38.538  29.241  30.328  1.00  0.00     0.029 A 
ATOM     79  C   UNL A   1      38.239  29.916  29.158  1.00  0.00     0.049 A 
ATOM     80  H   UNL A   1      38.709  29.416  27.170  1.00  0.00     0.167 HD
ATOM     81  C   UNL A   1      38.166  32.295  29.196  1.00  0.00     0.074 A 
ATOM     82  C   UNL A   1      37.811  33.701  29.261  1.00  0.00     0.031 C 
ATOM     83  C   UNL A   1      37.498  31.143  28.879  1.00  0.00     0.031 A 
BRANCH  70  84
ATOM     84  C   UNL A   1      40.061  25.718  27.577  1.00  0.00    -0.014 A 
ATOM     85  C   UNL A   1      41.117  24.876  27.977  1.00  0.00     0.009 A 
ATOM     86  C   UNL A   1      38.939  25.076  27.027  1.00  0.00     0.009 A 
ATOM     87  C   UNL A   1      41.099  23.496  27.739  1.00  0.00     0.001 A 
ATOM     88  C   UNL A   1      38.931  23.702  26.748  1.00  0.00     0.001 A 
ATOM     89  C   UNL A   1      40.019  22.912  27.093  1.00  0.00     0.000 A 
ENDBRANCH  70  84
BRANCH  71  90
ATOM     90  C   UNL A   1      42.119  34.931  29.340  1.00  0.00    -0.014 A 
ATOM     91  C   UNL A   1      41.710  35.302  28.045  1.00  0.00     0.009 A 
ATOM     92  C   UNL A   1      42.954  35.802  30.056  1.00  0.00     0.009 A 
ATOM     93  C   UNL A   1      42.027  36.561  27.528  1.00  0.00     0.001 A 
ATOM     94  C   UNL A   1      43.279  37.057  29.528  1.00  0.00     0.001 A 
ATOM     95  C   UNL A   1      42.786  37.450  28.284  1.00  0.00     0.000 A 
ENDBRANCH  71  90
BRANCH  83  96
ATOM     96  C   UNL A   1      36.093  30.997  28.319  1.00  0.00    -0.014 A 
ATOM     97  C   UNL A   1      35.522  29.813  27.841  1.00  0.00     0.009 A 
ATOM     98  C   UNL A   1      35.237  32.129  28.332  1.00  0.00     0.009 A 
ATOM     99  C   UNL A   1      34.189  29.762  27.399  1.00  0.00     0.001 A 
ATOM    100  C   UNL A   1      33.901  32.077  27.928  1.00  0.00     0.001 A 
ATOM    101  C   UNL A   1      33.375  30.887  27.454  1.00  0.00     0.000 A 
ENDBRANCH  83  96
ENDBRANCH  57  58
ENDBRANCH  49  52
ENDBRANCH  47  48
ENDBRANCH  46  47
ENDBRANCH  45  46
ENDBRANCH  44  45
ENDBRANCH   1  44
TORSDOF 20
ENDMDL
MODEL 2
REMARK VINA RESULT:     -10.8      2.903      4.343
REMARK SMILES Cc1ccc(S(=O)(=O)n2cc(C(=O)C(=O)N[C@@H](Cc3c[nH]c4ccccc34)C(=O)NCCCCCCNC(=O)c3ccc(-c4c5nc(c(-c6ccccc6)c6ccc([nH]6)c(-c6ccccc6)c6nc(c(-c7ccccc7)c7ccc4[nH]7)C=C6)C=C5)cc3)c3ccccc32)cc1
REMARK SMILES IDX 32 1 31 2 30 3 28 4 29 5 17 7 16 8 14 9 15 10 12 12 13 13
REMARK SMILES IDX 11 14 9 15 10 16 93 17 88 18 92 19 89 20 91 21 90 22 6 23
REMARK SMILES IDX 7 24 8 25 5 26 1 27 2 28 3 29 95 30 4 31 94 32 18 33 19 34
REMARK SMILES IDX 20 35 27 36 21 37 22 38 26 39 23 41 25 42 24 43 33 44 34 45
REMARK SMILES IDX 35 46 36 47 37 48 38 49 39 51 40 52 41 53 87 54 42 55 86 56
REMARK SMILES IDX 43 57 44 58 45 59 80 60 46 61 85 62 79 63 81 64 47 65 84 66
REMARK SMILES IDX 78 67 77 68 48 70 70 71 55 72 69 73 56 74 59 75 68 76 82 77
REMARK SMILES IDX 57 78 58 79 67 81 83 82 60 83 49 84 50 85 54 86 51 87 53 88
REMARK SMILES IDX 52 89 71 90 72 91 76 92 73 93 75 94 74 95 61 96 62 97 66 98
REMARK SMILES IDX 63 99 65 100 64 101
REMARK H PARENT 30 6 16 11 21 40 37 50 81 69 59 80
REMARK Flexibility Score: inf
ROOT
ATOM      1  C   UNL A   1      42.640  36.283  26.664  1.00  0.00     0.021 C 
ENDROOT
BRANCH   1   2
ATOM      2  C   UNL A   1      43.136  37.712  26.854  1.00  0.00     0.116 C 
BRANCH   2   3
ATOM      3  N   UNL A   1      42.130  38.743  26.949  1.00  0.00    -0.354 N 
ATOM      4  C   UNL A   1      42.294  40.021  27.419  1.00  0.00     0.242 C 
ATOM      5  O   UNL A   1      41.614  40.895  26.867  1.00  0.00    -0.273 OA
ATOM      6  H   UNL A   1      41.227  38.501  26.642  1.00  0.00     0.163 HD
BRANCH   4   7
ATOM      7  C   UNL A   1      43.366  40.430  28.477  1.00  0.00     0.176 C 
BRANCH   7   8
ATOM      8  N   UNL A   1      43.734  41.863  28.532  1.00  0.00    -0.337 N 
ATOM      9  C   UNL A   1      44.534  42.623  27.686  1.00  0.00     0.293 C 
ATOM     10  O   UNL A   1      44.846  43.770  27.995  1.00  0.00    -0.265 OA
ATOM     11  H   UNL A   1      43.350  42.358  29.291  1.00  0.00     0.164 HD
BRANCH   9  12
ATOM     12  C   UNL A   1      45.008  42.058  26.341  1.00  0.00     0.252 C 
ATOM     13  O   UNL A   1      45.863  41.176  26.412  1.00  0.00    -0.283 OA
BRANCH  12  14
ATOM     14  C   UNL A   1      44.573  42.601  25.036  1.00  0.00     0.054 A 
ATOM     15  N   UNL A   1      43.529  43.129  23.085  1.00  0.00    -0.240 N 
ATOM     16  C   UNL A   1      43.470  42.308  24.217  1.00  0.00     0.117 A 
ATOM     17  C   UNL A   1      44.548  44.073  23.306  1.00  0.00     0.065 A 
ATOM     18  C   UNL A   1      45.370  43.524  24.287  1.00  0.00     0.012 A 
ATOM     19  C   UNL A   1      44.955  45.187  22.546  1.00  0.00     0.028 A 
ATOM     20  C   UNL A   1      46.706  43.971  24.370  1.00  0.00     0.011 A 
ATOM     21  C   UNL A   1      46.295  45.564  22.601  1.00  0.00     0.002 A 
ATOM     22  C   UNL A   1      47.173  44.933  23.470  1.00  0.00     0.001 A 
BRANCH  15  23
ATOM     23  S   UNL A   1      43.505  42.599  21.413  1.00  0.00     0.268 S 
ATOM     24  O   UNL A   1      42.402  41.652  21.383  1.00  0.00    -0.201 OA
ATOM     25  O   UNL A   1      44.879  42.158  21.208  1.00  0.00    -0.201 OA
BRANCH  23  26
ATOM     26  C   UNL A   1      43.276  43.620  20.000  1.00  0.00     0.088 A 
ATOM     27  C   UNL A   1      41.785  45.644  16.481  1.00  0.00     0.044 C 
ATOM     28  C   UNL A   1      42.332  44.991  17.718  1.00  0.00    -0.051 A 
ATOM     29  C   UNL A   1      41.425  44.379  18.570  1.00  0.00     0.005 A 
ATOM     30  C   UNL A   1      43.710  44.923  18.027  1.00  0.00     0.005 A 
ATOM     31  C   UNL A   1      41.894  43.719  19.694  1.00  0.00     0.022 A 
ATOM     32  C   UNL A   1      44.196  44.232  19.169  1.00  0.00     0.022 A 
ENDBRANCH  23  26
ENDBRANCH  15  23
ENDBRANCH  12  14
ENDBRANCH   9  12
ENDBRANCH   7   8
BRANCH   7  33
ATOM     33  C   UNL A   1      43.108  39.793  29.881  1.00  0.00     0.072 C 
BRANCH  33  34
ATOM     34  C   UNL A   1      43.937  40.259  31.054  1.00  0.00    -0.020 A 
ATOM     35  C   UNL A   1      45.259  39.918  31.293  1.00  0.00     0.087 A 
ATOM     36  C   UNL A   1      43.548  41.122  32.136  1.00  0.00     0.003 A 
ATOM     37  N   UNL A   1      45.639  40.448  32.499  1.00  0.00    -0.361 N 
ATOM     38  C   UNL A   1      44.578  41.101  33.080  1.00  0.00     0.046 A 
ATOM     39  C   UNL A   1      42.381  41.849  32.449  1.00  0.00     0.010 A 
ATOM     40  H   UNL A   1      46.540  40.373  32.891  1.00  0.00     0.166 HD
ATOM     41  C   UNL A   1      44.453  41.666  34.356  1.00  0.00     0.026 A 
ATOM     42  C   UNL A   1      42.227  42.393  33.728  1.00  0.00     0.001 A 
ATOM     43  C   UNL A   1      43.240  42.282  34.674  1.00  0.00     0.002 A 
ENDBRANCH  33  34
ENDBRANCH   7  33
ENDBRANCH   4   7
ENDBRANCH   2   3
ENDBRANCH   1   2
BRANCH   1  44
ATOM     44  C   UNL A   1      43.359  35.163  27.426  1.00  0.00     0.002 C 
BRANCH  44  45
ATOM     45  C   UNL A   1      44.877  35.267  27.643  1.00  0.00     0.002 C 
BRANCH  45  46
ATOM     46  C   UNL A   1      45.409  35.136  29.070  1.00  0.00     0.021 C 
BRANCH  46  47
ATOM     47  C   UNL A   1      44.760  36.036  30.112  1.00  0.00     0.116 C 
BRANCH  47  48
ATOM     48  N   UNL A   1      45.653  36.482  31.175  1.00  0.00    -0.352 N 
ATOM     49  C   UNL A   1      45.608  36.196  32.535  1.00  0.00     0.251 C 
ATOM     50  H   UNL A   1      46.391  37.068  30.890  1.00  0.00     0.163 HD
ATOM     51  O   UNL A   1      46.433  36.662  33.294  1.00  0.00    -0.269 OA
BRANCH  49  52
ATOM     52  C   UNL A   1      44.621  35.198  33.024  1.00  0.00     0.039 A 
ATOM     53  C   UNL A   1      45.105  33.940  33.396  1.00  0.00     0.014 A 
ATOM     54  C   UNL A   1      43.252  35.412  32.888  1.00  0.00     0.014 A 
ATOM     55  C   UNL A   1      44.250  32.843  33.351  1.00  0.00     0.010 A 
ATOM     56  C   UNL A   1      42.425  34.317  32.739  1.00  0.00     0.010 A 
ATOM     57  C   UNL A   1      42.945  33.030  32.893  1.00  0.00    -0.014 A 
BRANCH  57  58
ATOM     58  C   UNL A   1      42.113  31.938  32.411  1.00  0.00     0.031 A 
ATOM     59  C   UNL A   1      42.219  31.464  31.019  1.00  0.00     0.074 A 
ATOM     60  C   UNL A   1      41.233  31.337  33.242  1.00  0.00     0.049 A 
ATOM     61  N   UNL A   1      41.249  30.907  30.374  1.00  0.00    -0.248 NA
ATOM     62  C   UNL A   1      43.426  31.630  30.219  1.00  0.00     0.031 C 
ATOM     63  C   UNL A   1      40.506  30.089  33.021  1.00  0.00     0.029 A 
ATOM     64  N   UNL A   1      40.665  31.830  34.399  1.00  0.00    -0.354 N 
ATOM     65  C   UNL A   1      41.779  30.368  29.228  1.00  0.00     0.074 A 
ATOM     66  C   UNL A   1      43.106  30.930  29.126  1.00  0.00     0.031 C 
ATOM     67  C   UNL A   1      39.445  30.051  33.845  1.00  0.00     0.029 A 
ATOM     68  C   UNL A   1      39.368  31.337  34.516  1.00  0.00     0.049 A 
ATOM     69  H   UNL A   1      41.106  32.434  35.041  1.00  0.00     0.167 HD
ATOM     70  C   UNL A   1      41.102  29.382  28.575  1.00  0.00     0.031 A 
ATOM     71  C   UNL A   1      38.273  32.154  34.503  1.00  0.00     0.031 A 
ATOM     72  C   UNL A   1      39.814  29.085  29.202  1.00  0.00     0.049 A 
ATOM     73  C   UNL A   1      37.309  31.876  33.366  1.00  0.00     0.074 A 
ATOM     74  C   UNL A   1      39.377  28.059  30.025  1.00  0.00     0.029 A 
ATOM     75  N   UNL A   1      38.829  30.064  29.243  1.00  0.00    -0.354 N 
ATOM     76  N   UNL A   1      37.600  31.168  32.310  1.00  0.00    -0.248 NA
ATOM     77  C   UNL A   1      35.959  32.427  33.303  1.00  0.00     0.031 C 
ATOM     78  C   UNL A   1      38.121  28.432  30.570  1.00  0.00     0.029 A 
ATOM     79  C   UNL A   1      37.790  29.677  30.067  1.00  0.00     0.049 A 
ATOM     80  H   UNL A   1      38.867  30.916  28.752  1.00  0.00     0.167 HD
ATOM     81  C   UNL A   1      36.540  31.171  31.437  1.00  0.00     0.074 A 
ATOM     82  C   UNL A   1      35.530  31.962  32.115  1.00  0.00     0.031 C 
ATOM     83  C   UNL A   1      36.619  30.536  30.227  1.00  0.00     0.031 A 
BRANCH  70  84
ATOM     84  C   UNL A   1      41.749  28.484  27.547  1.00  0.00    -0.014 A 
ATOM     85  C   UNL A   1      41.940  28.953  26.233  1.00  0.00     0.009 A 
ATOM     86  C   UNL A   1      42.144  27.158  27.789  1.00  0.00     0.009 A 
ATOM     87  C   UNL A   1      42.390  28.118  25.203  1.00  0.00     0.001 A 
ATOM     88  C   UNL A   1      42.556  26.304  26.756  1.00  0.00     0.001 A 
ATOM     89  C   UNL A   1      42.666  26.782  25.458  1.00  0.00     0.000 A 
ENDBRANCH  70  84
BRANCH  71  90
ATOM     90  C   UNL A   1      38.524  33.508  35.069  1.00  0.00    -0.014 A 
ATOM     91  C   UNL A   1      38.538  33.658  36.469  1.00  0.00     0.009 A 
ATOM     92  C   UNL A   1      39.090  34.522  34.280  1.00  0.00     0.009 A 
ATOM     93  C   UNL A   1      39.206  34.729  37.067  1.00  0.00     0.001 A 
ATOM     94  C   UNL A   1      39.747  35.600  34.885  1.00  0.00     0.001 A 
ATOM     95  C   UNL A   1      39.837  35.683  36.275  1.00  0.00     0.000 A 
ENDBRANCH  71  90
BRANCH  83  96
ATOM     96  C   UNL A   1      35.633  30.592  29.072  1.00  0.00    -0.014 A 
ATOM     97  C   UNL A   1      35.338  29.542  28.196  1.00  0.00     0.009 A 
ATOM     98  C   UNL A   1      34.879  31.779  28.882  1.00  0.00     0.009 A 
ATOM     99  C   UNL A   1      34.361  29.669  27.193  1.00  0.00     0.001 A 
ATOM    100  C   UNL A   1      33.882  31.900  27.911  1.00  0.00     0.001 A 
ATOM    101  C   UNL A   1      33.625  30.840  27.058  1.00  0.00     0.000 A 
ENDBRANCH  83  96
ENDBRANCH  57  58
ENDBRANCH  49  52
ENDBRANCH  47  48
ENDBRANCH  46  47
ENDBRANCH  45  46
ENDBRANCH  44  45
ENDBRANCH   1  44
TORSDOF 20
ENDMDL
MODEL 3
REMARK VINA RESULT:     -10.8      9.530     14.692
REMARK SMILES Cc1ccc(S(=O)(=O)n2cc(C(=O)C(=O)N[C@@H](Cc3c[nH]c4ccccc34)C(=O)NCCCCCCNC(=O)c3ccc(-c4c5nc(c(-c6ccccc6)c6ccc([nH]6)c(-c6ccccc6)c6nc(c(-c7ccccc7)c7ccc4[nH]7)C=C6)C=C5)cc3)c3ccccc32)cc1
REMARK SMILES IDX 32 1 31 2 30 3 28 4 29 5 17 7 16 8 14 9 15 10 12 12 13 13
REMARK SMILES IDX 11 14 9 15 10 16 93 17 88 18 92 19 89 20 91 21 90 22 6 23
REMARK SMILES IDX 7 24 8 25 5 26 1 27 2 28 3 29 95 30 4 31 94 32 18 33 19 34
REMARK SMILES IDX 20 35 27 36 21 37 22 38 26 39 23 41 25 42 24 43 33 44 34 45
REMARK SMILES IDX 35 46 36 47 37 48 38 49 39 51 40 52 41 53 87 54 42 55 86 56
REMARK SMILES IDX 43 57 44 58 45 59 80 60 46 61 85 62 79 63 81 64 47 65 84 66
REMARK SMILES IDX 78 67 77 68 48 70 70 71 55 72 69 73 56 74 59 75 68 76 82 77
REMARK SMILES IDX 57 78 58 79 67 81 83 82 60 83 49 84 50 85 54 86 51 87 53 88
REMARK SMILES IDX 52 89 71 90 72 91 76 92 73 93 75 94 74 95 61 96 62 97 66 98
REMARK SMILES IDX 63 99 65 100 64 101
REMARK H PARENT 30 6 16 11 21 40 37 50 81 69 59 80
REMARK Flexibility Score: inf
ROOT
ATOM      1  C   UNL A   1      46.870  27.957  25.658  1.00  0.00     0.021 C 
ENDROOT
BRANCH   1   2
ATOM      2  C   UNL A   1      45.420  28.309  25.973  1.00  0.00     0.116 C 
BRANCH   2   3
ATOM      3  N   UNL A   1      44.415  27.783  25.081  1.00  0.00    -0.354 N 
ATOM      4  C   UNL A   1      43.124  27.441  25.394  1.00  0.00     0.242 C 
ATOM      5  O   UNL A   1      42.279  27.639  24.512  1.00  0.00    -0.273 OA
ATOM      6  H   UNL A   1      44.686  27.656  24.143  1.00  0.00     0.163 HD
BRANCH   4   7
ATOM      7  C   UNL A   1      42.666  26.971  26.811  1.00  0.00     0.176 C 
BRANCH   7   8
ATOM      8  N   UNL A   1      41.218  26.726  26.994  1.00  0.00    -0.337 N 
ATOM      9  C   UNL A   1      40.389  26.981  28.082  1.00  0.00     0.293 C 
ATOM     10  O   UNL A   1      39.237  26.555  28.094  1.00  0.00    -0.265 OA
ATOM     11  H   UNL A   1      40.768  26.316  26.221  1.00  0.00     0.164 HD
BRANCH   9  12
ATOM     12  C   UNL A   1      40.885  27.825  29.262  1.00  0.00     0.252 C 
ATOM     13  O   UNL A   1      41.602  27.233  30.069  1.00  0.00    -0.283 OA
BRANCH  12  14
ATOM     14  C   UNL A   1      40.449  29.218  29.501  1.00  0.00     0.054 A 
ATOM     15  N   UNL A   1      40.256  31.445  29.923  1.00  0.00    -0.240 N 
ATOM     16  C   UNL A   1      41.164  30.386  29.814  1.00  0.00     0.117 A 
ATOM     17  C   UNL A   1      39.010  30.975  29.472  1.00  0.00     0.065 A 
ATOM     18  C   UNL A   1      39.068  29.587  29.569  1.00  0.00     0.012 A 
ATOM     19  C   UNL A   1      37.788  31.646  29.271  1.00  0.00     0.028 A 
ATOM     20  C   UNL A   1      37.856  28.870  29.670  1.00  0.00     0.011 A 
ATOM     21  C   UNL A   1      36.608  30.925  29.441  1.00  0.00     0.002 A 
ATOM     22  C   UNL A   1      36.641  29.560  29.683  1.00  0.00     0.001 A 
BRANCH  15  23
ATOM     23  S   UNL A   1      40.072  32.519  31.298  1.00  0.00     0.268 S 
ATOM     24  O   UNL A   1      40.362  33.827  30.735  1.00  0.00    -0.201 OA
ATOM     25  O   UNL A   1      40.957  31.913  32.286  1.00  0.00    -0.201 OA
BRANCH  23  26
ATOM     26  C   UNL A   1      38.616  32.740  32.258  1.00  0.00     0.088 A 
ATOM     27  C   UNL A   1      35.433  34.241  34.773  1.00  0.00     0.044 C 
ATOM     28  C   UNL A   1      36.499  33.687  33.870  1.00  0.00    -0.051 A 
ATOM     29  C   UNL A   1      37.327  34.596  33.228  1.00  0.00     0.005 A 
ATOM     30  C   UNL A   1      36.731  32.305  33.685  1.00  0.00     0.005 A 
ATOM     31  C   UNL A   1      38.355  34.124  32.429  1.00  0.00     0.022 A 
ATOM     32  C   UNL A   1      37.795  31.818  32.881  1.00  0.00     0.022 A 
ENDBRANCH  23  26
ENDBRANCH  15  23
ENDBRANCH  12  14
ENDBRANCH   9  12
ENDBRANCH   7   8
BRANCH   7  33
ATOM     33  C   UNL A   1      43.574  25.845  27.399  1.00  0.00     0.072 C 
BRANCH  33  34
ATOM     34  C   UNL A   1      43.316  24.414  26.990  1.00  0.00    -0.020 A 
ATOM     35  C   UNL A   1      42.481  23.525  27.649  1.00  0.00     0.087 A 
ATOM     36  C   UNL A   1      43.861  23.692  25.872  1.00  0.00     0.003 A 
ATOM     37  N   UNL A   1      42.578  22.299  27.044  1.00  0.00    -0.361 N 
ATOM     38  C   UNL A   1      43.493  22.352  26.020  1.00  0.00     0.046 A 
ATOM     39  C   UNL A   1      44.707  24.030  24.796  1.00  0.00     0.010 A 
ATOM     40  H   UNL A   1      42.067  21.499  27.304  1.00  0.00     0.166 HD
ATOM     41  C   UNL A   1      44.020  21.326  25.225  1.00  0.00     0.026 A 
ATOM     42  C   UNL A   1      45.266  23.016  24.011  1.00  0.00     0.001 A 
ATOM     43  C   UNL A   1      44.944  21.682  24.239  1.00  0.00     0.002 A 
ENDBRANCH  33  34
ENDBRANCH   7  33
ENDBRANCH   4   7
ENDBRANCH   2   3
ENDBRANCH   1   2
BRANCH   1  44
ATOM     44  C   UNL A   1      47.141  26.956  24.529  1.00  0.00     0.002 C 
BRANCH  44  45
ATOM     45  C   UNL A   1      48.129  25.804  24.778  1.00  0.00     0.002 C 
BRANCH  45  46
ATOM     46  C   UNL A   1      47.999  25.016  26.082  1.00  0.00     0.021 C 
BRANCH  46  47
ATOM     47  C   UNL A   1      49.144  25.169  27.073  1.00  0.00     0.116 C 
BRANCH  47  48
ATOM     48  N   UNL A   1      49.313  26.514  27.608  1.00  0.00    -0.352 N 
ATOM     49  C   UNL A   1      48.728  27.091  28.730  1.00  0.00     0.251 C 
ATOM     50  H   UNL A   1      49.926  27.096  27.105  1.00  0.00     0.163 HD
ATOM     51  O   UNL A   1      48.972  28.240  29.035  1.00  0.00    -0.269 OA
BRANCH  49  52
ATOM     52  C   UNL A   1      47.911  26.236  29.631  1.00  0.00     0.039 A 
ATOM     53  C   UNL A   1      46.563  26.055  29.302  1.00  0.00     0.014 A 
ATOM     54  C   UNL A   1      48.390  25.836  30.875  1.00  0.00     0.014 A 
ATOM     55  C   UNL A   1      45.655  25.743  30.309  1.00  0.00     0.010 A 
ATOM     56  C   UNL A   1      47.485  25.630  31.896  1.00  0.00     0.010 A 
ATOM     57  C   UNL A   1      46.115  25.663  31.624  1.00  0.00    -0.014 A 
BRANCH  57  58
ATOM     58  C   UNL A   1      45.233  25.762  32.777  1.00  0.00     0.031 A 
ATOM     59  C   UNL A   1      44.807  27.076  33.293  1.00  0.00     0.074 A 
ATOM     60  C   UNL A   1      44.785  24.642  33.387  1.00  0.00     0.049 A 
ATOM     61  N   UNL A   1      44.483  27.293  34.523  1.00  0.00    -0.248 NA
ATOM     62  C   UNL A   1      44.762  28.272  32.462  1.00  0.00     0.031 C 
ATOM     63  C   UNL A   1      43.719  24.533  34.380  1.00  0.00     0.029 A 
ATOM     64  N   UNL A   1      45.332  23.375  33.374  1.00  0.00    -0.354 N 
ATOM     65  C   UNL A   1      43.898  28.534  34.576  1.00  0.00     0.074 A 
ATOM     66  C   UNL A   1      44.187  29.143  33.297  1.00  0.00     0.031 C 
ATOM     67  C   UNL A   1      43.858  23.373  35.044  1.00  0.00     0.029 A 
ATOM     68  C   UNL A   1      45.104  22.767  34.606  1.00  0.00     0.049 A 
ATOM     69  H   UNL A   1      45.808  22.966  32.615  1.00  0.00     0.167 HD
ATOM     70  C   UNL A   1      43.096  28.854  35.631  1.00  0.00     0.031 A 
ATOM     71  C   UNL A   1      46.124  22.402  35.438  1.00  0.00     0.031 A 
ATOM     72  C   UNL A   1      43.036  27.783  36.626  1.00  0.00     0.049 A 
ATOM     73  C   UNL A   1      46.092  23.089  36.790  1.00  0.00     0.074 A 
ATOM     74  C   UNL A   1      42.084  26.821  36.923  1.00  0.00     0.029 A 
ATOM     75  N   UNL A   1      44.189  27.413  37.306  1.00  0.00    -0.354 N 
ATOM     76  N   UNL A   1      45.386  24.151  37.061  1.00  0.00    -0.248 NA
ATOM     77  C   UNL A   1      46.904  22.665  37.927  1.00  0.00     0.031 C 
ATOM     78  C   UNL A   1      42.677  25.861  37.784  1.00  0.00     0.029 A 
ATOM     79  C   UNL A   1      43.984  26.250  38.020  1.00  0.00     0.049 A 
ATOM     80  H   UNL A   1      45.037  27.914  37.283  1.00  0.00     0.167 HD
ATOM     81  C   UNL A   1      45.637  24.567  38.345  1.00  0.00     0.074 A 
ATOM     82  C   UNL A   1      46.585  23.591  38.850  1.00  0.00     0.031 C 
ATOM     83  C   UNL A   1      45.051  25.697  38.850  1.00  0.00     0.031 A 
BRANCH  70  84
ATOM     84  C   UNL A   1      42.131  30.016  35.606  1.00  0.00    -0.014 A 
ATOM     85  C   UNL A   1      42.596  31.314  35.892  1.00  0.00     0.009 A 
ATOM     86  C   UNL A   1      40.753  29.897  35.361  1.00  0.00     0.009 A 
ATOM     87  C   UNL A   1      41.725  32.401  36.036  1.00  0.00     0.001 A 
ATOM     88  C   UNL A   1      39.870  30.971  35.543  1.00  0.00     0.001 A 
ATOM     89  C   UNL A   1      40.356  32.222  35.894  1.00  0.00     0.000 A 
ENDBRANCH  70  84
BRANCH  71  90
ATOM     90  C   UNL A   1      47.375  22.018  34.729  1.00  0.00    -0.014 A 
ATOM     91  C   UNL A   1      48.433  22.946  34.689  1.00  0.00     0.009 A 
ATOM     92  C   UNL A   1      47.650  20.675  34.434  1.00  0.00     0.009 A 
ATOM     93  C   UNL A   1      49.748  22.523  34.481  1.00  0.00     0.001 A 
ATOM     94  C   UNL A   1      48.968  20.258  34.213  1.00  0.00     0.001 A 
ATOM     95  C   UNL A   1      50.018  21.174  34.273  1.00  0.00     0.000 A 
ENDBRANCH  71  90
BRANCH  83  96
ATOM     96  C   UNL A   1      45.353  26.404  40.161  1.00  0.00    -0.014 A 
ATOM     97  C   UNL A   1      46.608  26.864  40.573  1.00  0.00     0.009 A 
ATOM     98  C   UNL A   1      44.275  26.701  41.034  1.00  0.00     0.009 A 
ATOM     99  C   UNL A   1      46.779  27.566  41.778  1.00  0.00     0.001 A 
ATOM    100  C   UNL A   1      44.431  27.429  42.216  1.00  0.00     0.001 A 
ATOM    101  C   UNL A   1      45.692  27.859  42.593  1.00  0.00     0.000 A 
ENDBRANCH  83  96
ENDBRANCH  57  58
ENDBRANCH  49  52
ENDBRANCH  47  48
ENDBRANCH  46  47
ENDBRANCH  45  46
ENDBRANCH  44  45
ENDBRANCH   1  44
TORSDOF 20
ENDMDL
