MODEL 1
REMARK VINA RESULT:     -10.2      0.000      0.000
REMARK SMILES C[C@@H]1CC[N@@H+]1[C@@H]1CCC[C@@H]1C(=O)NCCCCCCNC(=O)c1ccc(-c2c3nc(c(-c4ccccc4)c4ccc([nH]4)c(-c4ccccc4)c4nc(c(-c5ccccc5)c5ccc2[nH]5)C=C4)C=C3)cc1
REMARK SMILES IDX 17 1 16 2 15 3 14 4 13 5 11 6 12 7 10 9 6 10 7 11 8 12 9 13
REMARK SMILES IDX 5 14 1 15 2 16 3 17 4 18 18 20 19 21 20 22 21 23 22 25 23 26
REMARK SMILES IDX 24 27 70 28 25 29 69 30 26 31 27 32 28 33 63 34 29 35 68 36
REMARK SMILES IDX 62 37 64 38 30 39 67 40 61 41 60 42 31 44 53 45 38 46 52 47
REMARK SMILES IDX 39 48 42 49 51 50 65 51 40 52 41 53 50 55 66 56 43 57 32 58
REMARK SMILES IDX 33 59 37 60 34 61 36 62 35 63 54 64 55 65 59 66 56 67 58 68
REMARK SMILES IDX 57 69 44 70 45 71 49 72 46 73 48 74 47 75
REMARK H PARENT 13 8 5 19 20 24 64 43 42 54
REMARK Flexibility Score: inf
ROOT
ATOM      1  C   UNL A   1      36.276  20.929  24.907  1.00  0.00     0.002 C 
ENDROOT
BRANCH   1   2
ATOM      2  C   UNL A   1      36.454  22.217  24.082  1.00  0.00     0.002 C 
BRANCH   2   3
ATOM      3  C   UNL A   1      36.532  23.511  24.896  1.00  0.00     0.021 C 
BRANCH   3   4
ATOM      4  C   UNL A   1      35.162  23.967  25.360  1.00  0.00     0.116 C 
BRANCH   4   5
ATOM      5  N   UNL A   1      34.460  24.819  24.444  1.00  0.00    -0.356 N 
ATOM      6  C   UNL A   1      33.927  26.045  24.691  1.00  0.00     0.229 C 
ATOM      7  O   UNL A   1      33.795  26.782  23.705  1.00  0.00    -0.275 OA
ATOM      8  H   UNL A   1      34.350  24.474  23.528  1.00  0.00     0.163 HD
BRANCH   6   9
ATOM      9  C   UNL A   1      33.343  26.489  26.034  1.00  0.00     0.136 C 
ATOM     10  C   UNL A   1      31.866  26.805  26.389  1.00  0.00     0.196 C 
ATOM     11  C   UNL A   1      31.693  28.344  26.216  1.00  0.00     0.066 C 
ATOM     12  C   UNL A   1      33.097  28.912  26.001  1.00  0.00     0.007 C 
ATOM     13  C   UNL A   1      34.055  27.805  26.415  1.00  0.00     0.020 C 
BRANCH  10  14
ATOM     14  N   UNL A   1      30.727  25.866  26.418  1.00  0.00    -0.329 N 
ATOM     15  C   UNL A   1      31.860  23.574  26.930  1.00  0.00     0.075 C 
ATOM     16  C   UNL A   1      30.813  24.397  26.226  1.00  0.00     0.186 C 
ATOM     17  C   UNL A   1      30.644  24.614  24.709  1.00  0.00     0.126 C 
ATOM     18  C   UNL A   1      29.913  25.899  25.157  1.00  0.00     0.268 C 
ATOM     19  H   UNL A   1      30.454  26.180  27.349  1.00  0.00     0.348 HD
ENDBRANCH  10  14
ENDBRANCH   6   9
ENDBRANCH   4   5
ENDBRANCH   3   4
ENDBRANCH   2   3
ENDBRANCH   1   2
BRANCH   1  20
ATOM     20  C   UNL A   1      37.472  19.975  24.908  1.00  0.00     0.021 C 
BRANCH  20  21
ATOM     21  C   UNL A   1      38.710  20.520  25.606  1.00  0.00     0.116 C 
BRANCH  21  22
ATOM     22  N   UNL A   1      39.774  19.532  25.692  1.00  0.00    -0.352 N 
ATOM     23  C   UNL A   1      41.085  19.693  26.050  1.00  0.00     0.251 C 
ATOM     24  H   UNL A   1      39.513  18.613  25.458  1.00  0.00     0.163 HD
ATOM     25  O   UNL A   1      41.888  18.777  25.898  1.00  0.00    -0.269 OA
BRANCH  23  26
ATOM     26  C   UNL A   1      41.531  20.984  26.603  1.00  0.00     0.039 A 
ATOM     27  C   UNL A   1      42.048  21.945  25.732  1.00  0.00     0.014 A 
ATOM     28  C   UNL A   1      41.429  21.247  27.971  1.00  0.00     0.014 A 
ATOM     29  C   UNL A   1      42.415  23.194  26.230  1.00  0.00     0.010 A 
ATOM     30  C   UNL A   1      41.716  22.518  28.452  1.00  0.00     0.010 A 
ATOM     31  C   UNL A   1      42.221  23.500  27.587  1.00  0.00    -0.014 A 
BRANCH  31  32
ATOM     32  C   UNL A   1      42.541  24.846  28.118  1.00  0.00     0.031 A 
ATOM     33  C   UNL A   1      43.940  25.174  28.554  1.00  0.00     0.074 A 
ATOM     34  C   UNL A   1      41.554  25.751  28.261  1.00  0.00     0.049 A 
ATOM     35  N   UNL A   1      44.403  26.283  29.073  1.00  0.00    -0.248 NA
ATOM     36  C   UNL A   1      44.947  24.109  28.417  1.00  0.00     0.031 C 
ATOM     37  C   UNL A   1      40.146  25.531  27.920  1.00  0.00     0.029 A 
ATOM     38  N   UNL A   1      41.583  27.036  28.737  1.00  0.00    -0.354 N 
ATOM     39  C   UNL A   1      45.745  26.042  29.341  1.00  0.00     0.074 A 
ATOM     40  C   UNL A   1      46.009  24.667  28.978  1.00  0.00     0.031 C 
ATOM     41  C   UNL A   1      39.454  26.652  28.170  1.00  0.00     0.029 A 
ATOM     42  C   UNL A   1      40.357  27.654  28.728  1.00  0.00     0.049 A 
ATOM     43  H   UNL A   1      42.406  27.475  29.054  1.00  0.00     0.167 HD
ATOM     44  C   UNL A   1      46.677  26.894  29.828  1.00  0.00     0.031 A 
ATOM     45  C   UNL A   1      39.996  28.886  29.134  1.00  0.00     0.031 A 
ATOM     46  C   UNL A   1      46.408  28.262  30.182  1.00  0.00     0.049 A 
ATOM     47  C   UNL A   1      41.047  29.812  29.676  1.00  0.00     0.074 A 
ATOM     48  C   UNL A   1      47.296  29.230  30.618  1.00  0.00     0.029 A 
ATOM     49  N   UNL A   1      45.153  28.854  30.151  1.00  0.00    -0.354 N 
ATOM     50  N   UNL A   1      42.330  29.598  29.841  1.00  0.00    -0.248 NA
ATOM     51  C   UNL A   1      40.602  31.153  30.076  1.00  0.00     0.031 C 
ATOM     52  C   UNL A   1      46.569  30.386  30.917  1.00  0.00     0.029 A 
ATOM     53  C   UNL A   1      45.238  30.163  30.596  1.00  0.00     0.049 A 
ATOM     54  H   UNL A   1      44.326  28.409  29.856  1.00  0.00     0.167 HD
ATOM     55  C   UNL A   1      42.851  30.786  30.341  1.00  0.00     0.074 A 
ATOM     56  C   UNL A   1      41.747  31.719  30.432  1.00  0.00     0.031 C 
ATOM     57  C   UNL A   1      44.128  31.076  30.691  1.00  0.00     0.031 A 
BRANCH  44  58
ATOM     58  C   UNL A   1      48.069  26.360  30.025  1.00  0.00    -0.014 A 
ATOM     59  C   UNL A   1      48.465  25.769  31.237  1.00  0.00     0.009 A 
ATOM     60  C   UNL A   1      48.995  26.428  28.973  1.00  0.00     0.009 A 
ATOM     61  C   UNL A   1      49.769  25.300  31.404  1.00  0.00     0.001 A 
ATOM     62  C   UNL A   1      50.289  25.927  29.130  1.00  0.00     0.001 A 
ATOM     63  C   UNL A   1      50.679  25.373  30.350  1.00  0.00     0.000 A 
ENDBRANCH  44  58
BRANCH  45  64
ATOM     64  C   UNL A   1      38.575  29.312  29.031  1.00  0.00    -0.014 A 
ATOM     65  C   UNL A   1      37.720  29.229  30.141  1.00  0.00     0.009 A 
ATOM     66  C   UNL A   1      38.069  29.817  27.822  1.00  0.00     0.009 A 
ATOM     67  C   UNL A   1      36.383  29.619  30.034  1.00  0.00     0.001 A 
ATOM     68  C   UNL A   1      36.741  30.236  27.728  1.00  0.00     0.001 A 
ATOM     69  C   UNL A   1      35.897  30.128  28.831  1.00  0.00     0.000 A 
ENDBRANCH  45  64
BRANCH  57  70
ATOM     70  C   UNL A   1      44.406  32.471  31.179  1.00  0.00    -0.014 A 
ATOM     71  C   UNL A   1      44.920  33.457  30.324  1.00  0.00     0.009 A 
ATOM     72  C   UNL A   1      44.105  32.813  32.507  1.00  0.00     0.009 A 
ATOM     73  C   UNL A   1      45.164  34.747  30.800  1.00  0.00     0.001 A 
ATOM     74  C   UNL A   1      44.316  34.112  32.971  1.00  0.00     0.001 A 
ATOM     75  C   UNL A   1      44.856  35.075  32.119  1.00  0.00     0.000 A 
ENDBRANCH  57  70
ENDBRANCH  31  32
ENDBRANCH  23  26
ENDBRANCH  21  22
ENDBRANCH  20  21
ENDBRANCH   1  20
TORSDOF 14
ENDMDL
MODEL 2
REMARK VINA RESULT:     -10.2      1.173      2.047
REMARK SMILES C[C@@H]1CC[N@@H+]1[C@@H]1CCC[C@@H]1C(=O)NCCCCCCNC(=O)c1ccc(-c2c3nc(c(-c4ccccc4)c4ccc([nH]4)c(-c4ccccc4)c4nc(c(-c5ccccc5)c5ccc2[nH]5)C=C4)C=C3)cc1
REMARK SMILES IDX 17 1 16 2 15 3 14 4 13 5 11 6 12 7 10 9 6 10 7 11 8 12 9 13
REMARK SMILES IDX 5 14 1 15 2 16 3 17 4 18 18 20 19 21 20 22 21 23 22 25 23 26
REMARK SMILES IDX 24 27 70 28 25 29 69 30 26 31 27 32 28 33 63 34 29 35 68 36
REMARK SMILES IDX 62 37 64 38 30 39 67 40 61 41 60 42 31 44 53 45 38 46 52 47
REMARK SMILES IDX 39 48 42 49 51 50 65 51 40 52 41 53 50 55 66 56 43 57 32 58
REMARK SMILES IDX 33 59 37 60 34 61 36 62 35 63 54 64 55 65 59 66 56 67 58 68
REMARK SMILES IDX 57 69 44 70 45 71 49 72 46 73 48 74 47 75
REMARK H PARENT 13 8 5 19 20 24 64 43 42 54
REMARK Flexibility Score: inf
ROOT
ATOM      1  C   UNL A   1      36.484  20.701  24.907  1.00  0.00     0.002 C 
ENDROOT
BRANCH   1   2
ATOM      2  C   UNL A   1      36.466  22.125  24.320  1.00  0.00     0.002 C 
BRANCH   2   3
ATOM      3  C   UNL A   1      35.888  23.206  25.237  1.00  0.00     0.021 C 
BRANCH   3   4
ATOM      4  C   UNL A   1      34.977  24.155  24.483  1.00  0.00     0.116 C 
BRANCH   4   5
ATOM      5  N   UNL A   1      34.726  23.802  23.115  1.00  0.00    -0.356 N 
ATOM      6  C   UNL A   1      33.524  23.559  22.527  1.00  0.00     0.229 C 
ATOM      7  O   UNL A   1      33.481  23.734  21.302  1.00  0.00    -0.275 OA
ATOM      8  H   UNL A   1      35.517  23.727  22.534  1.00  0.00     0.163 HD
BRANCH   6   9
ATOM      9  C   UNL A   1      32.317  22.937  23.232  1.00  0.00     0.136 C 
ATOM     10  C   UNL A   1      32.061  22.780  24.754  1.00  0.00     0.196 C 
ATOM     11  C   UNL A   1      32.562  21.356  25.140  1.00  0.00     0.066 C 
ATOM     12  C   UNL A   1      32.873  20.640  23.824  1.00  0.00     0.007 C 
ATOM     13  C   UNL A   1      32.217  21.478  22.736  1.00  0.00     0.020 C 
BRANCH  10  14
ATOM     14  N   UNL A   1      31.848  23.854  25.746  1.00  0.00    -0.329 N 
ATOM     15  C   UNL A   1      29.794  23.003  27.109  1.00  0.00     0.075 C 
ATOM     16  C   UNL A   1      30.582  24.118  26.474  1.00  0.00     0.186 C 
ATOM     17  C   UNL A   1      30.146  25.046  25.321  1.00  0.00     0.126 C 
ATOM     18  C   UNL A   1      31.669  25.204  25.114  1.00  0.00     0.268 C 
ATOM     19  H   UNL A   1      32.629  23.524  26.313  1.00  0.00     0.348 HD
ENDBRANCH  10  14
ENDBRANCH   6   9
ENDBRANCH   4   5
ENDBRANCH   3   4
ENDBRANCH   2   3
ENDBRANCH   1   2
BRANCH   1  20
ATOM     20  C   UNL A   1      37.804  19.943  24.762  1.00  0.00     0.021 C 
BRANCH  20  21
ATOM     21  C   UNL A   1      38.854  20.303  25.803  1.00  0.00     0.116 C 
BRANCH  21  22
ATOM     22  N   UNL A   1      39.955  19.353  25.827  1.00  0.00    -0.352 N 
ATOM     23  C   UNL A   1      41.279  19.561  26.103  1.00  0.00     0.251 C 
ATOM     24  H   UNL A   1      39.713  18.424  25.611  1.00  0.00     0.163 HD
ATOM     25  O   UNL A   1      42.103  18.672  25.904  1.00  0.00    -0.269 OA
BRANCH  23  26
ATOM     26  C   UNL A   1      41.713  20.870  26.624  1.00  0.00     0.039 A 
ATOM     27  C   UNL A   1      42.189  21.826  25.725  1.00  0.00     0.014 A 
ATOM     28  C   UNL A   1      41.639  21.152  27.990  1.00  0.00     0.014 A 
ATOM     29  C   UNL A   1      42.543  23.090  26.194  1.00  0.00     0.010 A 
ATOM     30  C   UNL A   1      41.913  22.436  28.443  1.00  0.00     0.010 A 
ATOM     31  C   UNL A   1      42.376  23.414  27.551  1.00  0.00    -0.014 A 
BRANCH  31  32
ATOM     32  C   UNL A   1      42.682  24.774  28.053  1.00  0.00     0.031 A 
ATOM     33  C   UNL A   1      44.083  25.135  28.456  1.00  0.00     0.074 A 
ATOM     34  C   UNL A   1      41.682  25.664  28.200  1.00  0.00     0.049 A 
ATOM     35  N   UNL A   1      44.536  26.260  28.947  1.00  0.00    -0.248 NA
ATOM     36  C   UNL A   1      45.106  24.085  28.318  1.00  0.00     0.031 C 
ATOM     37  C   UNL A   1      40.272  25.413  27.891  1.00  0.00     0.029 A 
ATOM     38  N   UNL A   1      41.697  26.958  28.654  1.00  0.00    -0.354 N 
ATOM     39  C   UNL A   1      45.887  26.048  29.192  1.00  0.00     0.074 A 
ATOM     40  C   UNL A   1      46.168  24.671  28.848  1.00  0.00     0.031 C 
ATOM     41  C   UNL A   1      39.565  26.526  28.135  1.00  0.00     0.029 A 
ATOM     42  C   UNL A   1      40.460  27.553  28.659  1.00  0.00     0.049 A 
ATOM     43  H   UNL A   1      42.518  27.416  28.947  1.00  0.00     0.167 HD
ATOM     44  C   UNL A   1      46.813  26.924  29.646  1.00  0.00     0.031 A 
ATOM     45  C   UNL A   1      40.085  28.785  29.050  1.00  0.00     0.031 A 
ATOM     46  C   UNL A   1      46.526  28.294  29.982  1.00  0.00     0.049 A 
ATOM     47  C   UNL A   1      41.129  29.739  29.556  1.00  0.00     0.074 A 
ATOM     48  C   UNL A   1      47.405  29.284  30.384  1.00  0.00     0.029 A 
ATOM     49  N   UNL A   1      45.261  28.863  29.966  1.00  0.00    -0.354 N 
ATOM     50  N   UNL A   1      42.419  29.551  29.700  1.00  0.00    -0.248 NA
ATOM     51  C   UNL A   1      40.668  31.079  29.942  1.00  0.00     0.031 C 
ATOM     52  C   UNL A   1      46.663  30.432  30.678  1.00  0.00     0.029 A 
ATOM     53  C   UNL A   1      45.330  30.180  30.387  1.00  0.00     0.049 A 
ATOM     54  H   UNL A   1      44.436  28.398  29.695  1.00  0.00     0.167 HD
ATOM     55  C   UNL A   1      42.928  30.756  30.169  1.00  0.00     0.074 A 
ATOM     56  C   UNL A   1      41.809  31.671  30.265  1.00  0.00     0.031 C 
ATOM     57  C   UNL A   1      44.206  31.075  30.489  1.00  0.00     0.031 A 
BRANCH  44  58
ATOM     58  C   UNL A   1      48.218  26.419  29.825  1.00  0.00    -0.014 A 
ATOM     59  C   UNL A   1      48.652  25.869  31.043  1.00  0.00     0.009 A 
ATOM     60  C   UNL A   1      49.118  26.471  28.749  1.00  0.00     0.009 A 
ATOM     61  C   UNL A   1      49.967  25.426  31.192  1.00  0.00     0.001 A 
ATOM     62  C   UNL A   1      50.423  25.995  28.890  1.00  0.00     0.001 A 
ATOM     63  C   UNL A   1      50.851  25.484  30.115  1.00  0.00     0.000 A 
ENDBRANCH  44  58
BRANCH  45  64
ATOM     64  C   UNL A   1      38.654  29.184  28.969  1.00  0.00    -0.014 A 
ATOM     65  C   UNL A   1      38.110  29.660  27.767  1.00  0.00     0.009 A 
ATOM     66  C   UNL A   1      37.822  29.077  30.095  1.00  0.00     0.009 A 
ATOM     67  C   UNL A   1      36.769  30.046  27.701  1.00  0.00     0.001 A 
ATOM     68  C   UNL A   1      36.474  29.432  30.017  1.00  0.00     0.001 A 
ATOM     69  C   UNL A   1      35.951  29.925  28.823  1.00  0.00     0.000 A 
ENDBRANCH  45  64
BRANCH  57  70
ATOM     70  C   UNL A   1      44.468  32.483  30.947  1.00  0.00    -0.014 A 
ATOM     71  C   UNL A   1      44.751  33.510  30.034  1.00  0.00     0.009 A 
ATOM     72  C   UNL A   1      44.387  32.793  32.314  1.00  0.00     0.009 A 
ATOM     73  C   UNL A   1      44.985  34.810  30.485  1.00  0.00     0.001 A 
ATOM     74  C   UNL A   1      44.586  34.100  32.759  1.00  0.00     0.001 A 
ATOM     75  C   UNL A   1      44.895  35.106  31.845  1.00  0.00     0.000 A 
ENDBRANCH  57  70
ENDBRANCH  31  32
ENDBRANCH  23  26
ENDBRANCH  21  22
ENDBRANCH  20  21
ENDBRANCH   1  20
TORSDOF 14
ENDMDL
MODEL 3
REMARK VINA RESULT:     -10.2      1.775      7.564
REMARK SMILES C[C@@H]1CC[N@@H+]1[C@@H]1CCC[C@@H]1C(=O)NCCCCCCNC(=O)c1ccc(-c2c3nc(c(-c4ccccc4)c4ccc([nH]4)c(-c4ccccc4)c4nc(c(-c5ccccc5)c5ccc2[nH]5)C=C4)C=C3)cc1
REMARK SMILES IDX 17 1 16 2 15 3 14 4 13 5 11 6 12 7 10 9 6 10 7 11 8 12 9 13
REMARK SMILES IDX 5 14 1 15 2 16 3 17 4 18 18 20 19 21 20 22 21 23 22 25 23 26
REMARK SMILES IDX 24 27 70 28 25 29 69 30 26 31 27 32 28 33 63 34 29 35 68 36
REMARK SMILES IDX 62 37 64 38 30 39 67 40 61 41 60 42 31 44 53 45 38 46 52 47
REMARK SMILES IDX 39 48 42 49 51 50 65 51 40 52 41 53 50 55 66 56 43 57 32 58
REMARK SMILES IDX 33 59 37 60 34 61 36 62 35 63 54 64 55 65 59 66 56 67 58 68
REMARK SMILES IDX 57 69 44 70 45 71 49 72 46 73 48 74 47 75
REMARK H PARENT 13 8 5 19 20 24 64 43 42 54
REMARK Flexibility Score: inf
ROOT
ATOM      1  C   UNL A   1      32.957  28.657  24.812  1.00  0.00     0.002 C 
ENDROOT
BRANCH   1   2
ATOM      2  C   UNL A   1      32.662  27.543  23.790  1.00  0.00     0.002 C 
BRANCH   2   3
ATOM      3  C   UNL A   1      33.722  26.443  23.694  1.00  0.00     0.021 C 
BRANCH   3   4
ATOM      4  C   UNL A   1      33.130  25.069  23.945  1.00  0.00     0.116 C 
BRANCH   4   5
ATOM      5  N   UNL A   1      33.459  24.485  25.213  1.00  0.00    -0.356 N 
ATOM      6  C   UNL A   1      34.362  23.500  25.465  1.00  0.00     0.229 C 
ATOM      7  O   UNL A   1      34.822  23.474  26.614  1.00  0.00    -0.275 OA
ATOM      8  H   UNL A   1      32.974  24.840  25.993  1.00  0.00     0.163 HD
BRANCH   6   9
ATOM      9  C   UNL A   1      34.700  22.359  24.503  1.00  0.00     0.136 C 
ATOM     10  C   UNL A   1      34.958  20.864  24.828  1.00  0.00     0.196 C 
ATOM     11  C   UNL A   1      36.501  20.707  24.982  1.00  0.00     0.066 C 
ATOM     12  C   UNL A   1      37.114  22.030  24.520  1.00  0.00     0.007 C 
ATOM     13  C   UNL A   1      36.003  22.760  23.778  1.00  0.00     0.020 C 
BRANCH  10  14
ATOM     14  N   UNL A   1      33.993  19.879  25.358  1.00  0.00    -0.329 N 
ATOM     15  C   UNL A   1      34.730  17.653  24.215  1.00  0.00     0.075 C 
ATOM     16  C   UNL A   1      33.657  18.576  24.731  1.00  0.00     0.186 C 
ATOM     17  C   UNL A   1      32.549  19.282  23.923  1.00  0.00     0.126 C 
ATOM     18  C   UNL A   1      32.565  20.271  25.110  1.00  0.00     0.268 C 
ATOM     19  H   UNL A   1      34.486  19.832  26.249  1.00  0.00     0.348 HD
ENDBRANCH  10  14
ENDBRANCH   6   9
ENDBRANCH   4   5
ENDBRANCH   3   4
ENDBRANCH   2   3
ENDBRANCH   1   2
BRANCH   1  20
ATOM     20  C   UNL A   1      34.039  28.336  25.844  1.00  0.00     0.021 C 
BRANCH  20  21
ATOM     21  C   UNL A   1      33.617  28.562  27.289  1.00  0.00     0.116 C 
BRANCH  21  22
ATOM     22  N   UNL A   1      33.577  29.974  27.636  1.00  0.00    -0.352 N 
ATOM     23  C   UNL A   1      34.534  30.752  28.230  1.00  0.00     0.251 C 
ATOM     24  H   UNL A   1      32.739  30.439  27.412  1.00  0.00     0.163 HD
ATOM     25  O   UNL A   1      34.265  31.888  28.609  1.00  0.00    -0.269 OA
BRANCH  23  26
ATOM     26  C   UNL A   1      35.889  30.206  28.429  1.00  0.00     0.039 A 
ATOM     27  C   UNL A   1      36.809  30.293  27.383  1.00  0.00     0.014 A 
ATOM     28  C   UNL A   1      36.249  29.621  29.646  1.00  0.00     0.014 A 
ATOM     29  C   UNL A   1      38.112  29.839  27.577  1.00  0.00     0.010 A 
ATOM     30  C   UNL A   1      37.568  29.246  29.865  1.00  0.00     0.010 A 
ATOM     31  C   UNL A   1      38.509  29.342  28.830  1.00  0.00    -0.014 A 
BRANCH  31  32
ATOM     32  C   UNL A   1      39.909  28.921  29.074  1.00  0.00     0.031 A 
ATOM     33  C   UNL A   1      40.370  27.554  28.657  1.00  0.00     0.074 A 
ATOM     34  C   UNL A   1      40.744  29.752  29.726  1.00  0.00     0.049 A 
ATOM     35  N   UNL A   1      41.544  26.997  28.815  1.00  0.00    -0.248 NA
ATOM     36  C   UNL A   1      39.378  26.687  28.001  1.00  0.00     0.031 C 
ATOM     37  C   UNL A   1      40.396  31.084  30.226  1.00  0.00     0.029 A 
ATOM     38  N   UNL A   1      42.058  29.595  30.086  1.00  0.00    -0.354 N 
ATOM     39  C   UNL A   1      41.424  25.713  28.297  1.00  0.00     0.074 A 
ATOM     40  C   UNL A   1      40.051  25.555  27.871  1.00  0.00     0.031 C 
ATOM     41  C   UNL A   1      41.477  31.633  30.800  1.00  0.00     0.029 A 
ATOM     42  C   UNL A   1      42.579  30.678  30.749  1.00  0.00     0.049 A 
ATOM     43  H   UNL A   1      42.578  28.782  29.887  1.00  0.00     0.167 HD
ATOM     44  C   UNL A   1      42.375  24.758  28.173  1.00  0.00     0.031 A 
ATOM     45  C   UNL A   1      43.806  30.879  31.267  1.00  0.00     0.031 A 
ATOM     46  C   UNL A   1      43.740  24.924  28.596  1.00  0.00     0.049 A 
ATOM     47  C   UNL A   1      44.843  29.802  31.122  1.00  0.00     0.074 A 
ATOM     48  C   UNL A   1      44.799  24.045  28.451  1.00  0.00     0.029 A 
ATOM     49  N   UNL A   1      44.233  26.041  29.256  1.00  0.00    -0.354 N 
ATOM     50  N   UNL A   1      44.739  28.626  30.552  1.00  0.00    -0.248 NA
ATOM     51  C   UNL A   1      46.172  30.086  31.680  1.00  0.00     0.031 C 
ATOM     52  C   UNL A   1      45.915  24.600  29.085  1.00  0.00     0.029 A 
ATOM     53  C   UNL A   1      45.571  25.857  29.559  1.00  0.00     0.049 A 
ATOM     54  H   UNL A   1      43.707  26.844  29.476  1.00  0.00     0.167 HD
ATOM     55  C   UNL A   1      45.993  28.039  30.660  1.00  0.00     0.074 A 
ATOM     56  C   UNL A   1      46.845  28.998  31.333  1.00  0.00     0.031 C 
ATOM     57  C   UNL A   1      46.403  26.817  30.240  1.00  0.00     0.031 A 
BRANCH  44  58
ATOM     58  C   UNL A   1      41.962  23.442  27.574  1.00  0.00    -0.014 A 
ATOM     59  C   UNL A   1      42.144  23.166  26.208  1.00  0.00     0.009 A 
ATOM     60  C   UNL A   1      41.405  22.449  28.395  1.00  0.00     0.009 A 
ATOM     61  C   UNL A   1      41.734  21.944  25.672  1.00  0.00     0.001 A 
ATOM     62  C   UNL A   1      41.027  21.214  27.863  1.00  0.00     0.001 A 
ATOM     63  C   UNL A   1      41.181  20.967  26.498  1.00  0.00     0.000 A 
ENDBRANCH  44  58
BRANCH  45  64
ATOM     64  C   UNL A   1      44.115  32.156  31.963  1.00  0.00    -0.014 A 
ATOM     65  C   UNL A   1      44.605  33.260  31.251  1.00  0.00     0.009 A 
ATOM     66  C   UNL A   1      43.909  32.279  33.347  1.00  0.00     0.009 A 
ATOM     67  C   UNL A   1      44.906  34.453  31.913  1.00  0.00     0.001 A 
ATOM     68  C   UNL A   1      44.180  33.482  34.001  1.00  0.00     0.001 A 
ATOM     69  C   UNL A   1      44.687  34.565  33.285  1.00  0.00     0.000 A 
ENDBRANCH  45  64
BRANCH  57  70
ATOM     70  C   UNL A   1      47.845  26.459  30.470  1.00  0.00    -0.014 A 
ATOM     71  C   UNL A   1      48.258  25.798  31.636  1.00  0.00     0.009 A 
ATOM     72  C   UNL A   1      48.797  26.752  29.481  1.00  0.00     0.009 A 
ATOM     73  C   UNL A   1      49.603  25.472  31.823  1.00  0.00     0.001 A 
ATOM     74  C   UNL A   1      50.134  26.393  29.655  1.00  0.00     0.001 A 
ATOM     75  C   UNL A   1      50.538  25.763  30.831  1.00  0.00     0.000 A 
ENDBRANCH  57  70
ENDBRANCH  31  32
ENDBRANCH  23  26
ENDBRANCH  21  22
ENDBRANCH  20  21
ENDBRANCH   1  20
TORSDOF 14
ENDMDL
