MODEL 1
REMARK VINA RESULT:     -11.0      0.000      0.000
REMARK SMILES Cn1nc(C(=O)N2C[C@@H](O)C[C@H]2C(=O)NCCCCCCNC(=O)c2ccc(-c3c4nc(c(-c5ccccc5)c5ccc([nH]5)c(-c5ccccc5)c5nc(c(-c6ccccc6)c6ccc3[nH]6)C=C5)C=C4)cc2)ccc1=O
REMARK SMILES IDX 18 1 17 2 16 3 15 4 13 5 14 6 12 8 7 9 8 10 9 11 11 12 5 13
REMARK SMILES IDX 6 14 4 15 1 16 2 17 3 18 75 19 74 20 76 21 73 22 10 23 19 25
REMARK SMILES IDX 20 26 21 27 22 28 23 29 24 31 25 32 26 33 72 34 27 35 71 36
REMARK SMILES IDX 28 37 29 38 30 39 65 40 31 41 70 42 64 43 66 44 32 45 69 46
REMARK SMILES IDX 63 47 62 48 33 50 55 51 40 52 54 53 41 54 44 55 53 56 67 57
REMARK SMILES IDX 42 58 43 59 52 61 68 62 45 63 34 64 35 65 39 66 36 67 38 68
REMARK SMILES IDX 37 69 56 70 57 71 61 72 58 73 60 74 59 75 46 76 47 77 51 78
REMARK SMILES IDX 48 79 50 80 49 81
REMARK H PARENT 15 7 10 24 22 30 66 49 44 60
REMARK Flexibility Score: inf
ROOT
ATOM      1  C   UNL A   1      37.656  22.020  25.157  1.00  0.00     0.002 C 
ENDROOT
BRANCH   1   2
ATOM      2  C   UNL A   1      36.738  23.165  24.716  1.00  0.00     0.021 C 
BRANCH   2   3
ATOM      3  C   UNL A   1      36.044  23.876  25.871  1.00  0.00     0.116 C 
BRANCH   3   4
ATOM      4  N   UNL A   1      35.524  22.948  26.848  1.00  0.00    -0.354 N 
ATOM      5  C   UNL A   1      34.248  22.533  27.080  1.00  0.00     0.242 C 
ATOM      6  O   UNL A   1      34.107  21.567  27.837  1.00  0.00    -0.273 OA
ATOM      7  H   UNL A   1      36.201  22.553  27.443  1.00  0.00     0.163 HD
BRANCH   5   8
ATOM      8  C   UNL A   1      33.044  23.086  26.293  1.00  0.00     0.177 C 
ATOM      9  N   UNL A   1      32.323  22.168  25.409  1.00  0.00    -0.323 N 
ATOM     10  C   UNL A   1      30.897  22.146  25.698  1.00  0.00     0.152 C 
ATOM     11  C   UNL A   1      30.647  23.378  26.562  1.00  0.00     0.136 C 
ATOM     12  C   UNL A   1      31.986  23.666  27.238  1.00  0.00     0.069 C 
BRANCH   9  13
ATOM     13  C   UNL A   1      32.947  21.815  24.220  1.00  0.00     0.275 C 
ATOM     14  O   UNL A   1      33.306  22.627  23.376  1.00  0.00    -0.267 OA
BRANCH  13  15
ATOM     15  C   UNL A   1      33.083  20.335  23.878  1.00  0.00     0.149 A 
ATOM     16  C   UNL A   1      35.028  17.547  25.004  1.00  0.00     0.178 C 
ATOM     17  N   UNL A   1      34.030  18.288  24.256  1.00  0.00    -0.232 N 
ATOM     18  N   UNL A   1      33.940  19.629  24.548  1.00  0.00    -0.165 NA
ATOM     19  C   UNL A   1      33.198  17.630  23.360  1.00  0.00     0.266 A 
ATOM     20  C   UNL A   1      32.216  18.481  22.648  1.00  0.00     0.076 A 
ATOM     21  O   UNL A   1      33.226  16.425  23.123  1.00  0.00    -0.268 OA
ATOM     22  C   UNL A   1      32.157  19.797  22.865  1.00  0.00     0.042 A 
ENDBRANCH  13  15
ENDBRANCH   9  13
BRANCH  11  23
ATOM     23  O   UNL A   1      29.627  23.159  27.526  1.00  0.00    -0.391 OA
ATOM     24  H   UNL A   1      28.762  23.164  27.088  1.00  0.00     0.211 HD
ENDBRANCH  11  23
ENDBRANCH   5   8
ENDBRANCH   3   4
ENDBRANCH   2   3
ENDBRANCH   1   2
BRANCH   1  25
ATOM     25  C   UNL A   1      37.390  20.669  24.480  1.00  0.00     0.002 C 
BRANCH  25  26
ATOM     26  C   UNL A   1      38.188  19.489  25.041  1.00  0.00     0.021 C 
BRANCH  26  27
ATOM     27  C   UNL A   1      39.266  19.880  26.046  1.00  0.00     0.116 C 
BRANCH  27  28
ATOM     28  N   UNL A   1      40.378  18.945  26.035  1.00  0.00    -0.352 N 
ATOM     29  C   UNL A   1      41.722  19.213  26.087  1.00  0.00     0.251 C 
ATOM     30  H   UNL A   1      40.134  17.992  25.982  1.00  0.00     0.163 HD
ATOM     31  O   UNL A   1      42.549  18.337  25.861  1.00  0.00    -0.269 OA
BRANCH  29  32
ATOM     32  C   UNL A   1      42.166  20.581  26.411  1.00  0.00     0.039 A 
ATOM     33  C   UNL A   1      42.460  21.465  25.371  1.00  0.00     0.014 A 
ATOM     34  C   UNL A   1      42.286  20.982  27.747  1.00  0.00     0.014 A 
ATOM     35  C   UNL A   1      42.837  22.774  25.670  1.00  0.00     0.010 A 
ATOM     36  C   UNL A   1      42.614  22.300  28.042  1.00  0.00     0.010 A 
ATOM     37  C   UNL A   1      42.903  23.202  27.006  1.00  0.00    -0.014 A 
BRANCH  37  38
ATOM     38  C   UNL A   1      43.309  24.584  27.342  1.00  0.00     0.031 A 
ATOM     39  C   UNL A   1      44.754  24.978  27.254  1.00  0.00     0.074 A 
ATOM     40  C   UNL A   1      42.389  25.469  27.767  1.00  0.00     0.049 A 
ATOM     41  N   UNL A   1      45.310  26.129  27.532  1.00  0.00    -0.248 NA
ATOM     42  C   UNL A   1      45.701  23.939  26.816  1.00  0.00     0.031 C 
ATOM     43  C   UNL A   1      40.959  25.195  27.920  1.00  0.00     0.029 A 
ATOM     44  N   UNL A   1      42.523  26.778  28.152  1.00  0.00    -0.354 N 
ATOM     45  C   UNL A   1      46.669  25.949  27.313  1.00  0.00     0.074 A 
ATOM     46  C   UNL A   1      46.861  24.572  26.918  1.00  0.00     0.031 C 
ATOM     47  C   UNL A   1      40.344  26.310  28.347  1.00  0.00     0.029 A 
ATOM     48  C   UNL A   1      41.339  27.366  28.521  1.00  0.00     0.049 A 
ATOM     49  H   UNL A   1      43.387  27.251  28.165  1.00  0.00     0.167 HD
ATOM     50  C   UNL A   1      47.665  26.858  27.413  1.00  0.00     0.031 A 
ATOM     51  C   UNL A   1      41.080  28.617  28.948  1.00  0.00     0.031 A 
ATOM     52  C   UNL A   1      47.471  28.232  27.783  1.00  0.00     0.049 A 
ATOM     53  C   UNL A   1      42.201  29.608  29.063  1.00  0.00     0.074 A 
ATOM     54  C   UNL A   1      48.411  29.245  27.840  1.00  0.00     0.029 A 
ATOM     55  N   UNL A   1      46.257  28.784  28.159  1.00  0.00    -0.354 N 
ATOM     56  N   UNL A   1      43.474  29.440  28.796  1.00  0.00    -0.248 NA
ATOM     57  C   UNL A   1      41.855  30.958  29.531  1.00  0.00     0.031 C 
ATOM     58  C   UNL A   1      47.775  30.401  28.298  1.00  0.00     0.029 A 
ATOM     59  C   UNL A   1      46.430  30.118  28.480  1.00  0.00     0.049 A 
ATOM     60  H   UNL A   1      45.401  28.300  28.193  1.00  0.00     0.167 HD
ATOM     61  C   UNL A   1      44.079  30.663  29.048  1.00  0.00     0.074 A 
ATOM     62  C   UNL A   1      43.035  31.568  29.486  1.00  0.00     0.031 C 
ATOM     63  C   UNL A   1      45.384  31.002  28.923  1.00  0.00     0.031 A 
BRANCH  50  64
ATOM     64  C   UNL A   1      49.060  26.398  27.115  1.00  0.00    -0.014 A 
ATOM     65  C   UNL A   1      49.578  26.462  25.812  1.00  0.00     0.009 A 
ATOM     66  C   UNL A   1      49.887  25.958  28.158  1.00  0.00     0.009 A 
ATOM     67  C   UNL A   1      50.895  26.076  25.557  1.00  0.00     0.001 A 
ATOM     68  C   UNL A   1      51.210  25.592  27.904  1.00  0.00     0.001 A 
ATOM     69  C   UNL A   1      51.711  25.647  26.605  1.00  0.00     0.000 A 
ENDBRANCH  50  64
BRANCH  51  70
ATOM     70  C   UNL A   1      39.680  28.992  29.265  1.00  0.00    -0.014 A 
ATOM     71  C   UNL A   1      38.834  29.475  28.256  1.00  0.00     0.009 A 
ATOM     72  C   UNL A   1      39.162  28.793  30.555  1.00  0.00     0.009 A 
ATOM     73  C   UNL A   1      37.492  29.747  28.532  1.00  0.00     0.001 A 
ATOM     74  C   UNL A   1      37.816  29.050  30.823  1.00  0.00     0.001 A 
ATOM     75  C   UNL A   1      36.982  29.526  29.811  1.00  0.00     0.000 A 
ENDBRANCH  51  70
BRANCH  63  76
ATOM     76  C   UNL A   1      45.783  32.409  29.259  1.00  0.00    -0.014 A 
ATOM     77  C   UNL A   1      46.277  32.728  30.532  1.00  0.00     0.009 A 
ATOM     78  C   UNL A   1      45.790  33.390  28.255  1.00  0.00     0.009 A 
ATOM     79  C   UNL A   1      46.773  34.007  30.793  1.00  0.00     0.001 A 
ATOM     80  C   UNL A   1      46.304  34.661  28.513  1.00  0.00     0.001 A 
ATOM     81  C   UNL A   1      46.795  34.968  29.782  1.00  0.00     0.000 A 
ENDBRANCH  63  76
ENDBRANCH  37  38
ENDBRANCH  29  32
ENDBRANCH  27  28
ENDBRANCH  26  27
ENDBRANCH  25  26
ENDBRANCH   1  25
TORSDOF 16
ENDMDL
MODEL 2
REMARK VINA RESULT:     -10.8      6.091     10.316
REMARK SMILES Cn1nc(C(=O)N2C[C@@H](O)C[C@H]2C(=O)NCCCCCCNC(=O)c2ccc(-c3c4nc(c(-c5ccccc5)c5ccc([nH]5)c(-c5ccccc5)c5nc(c(-c6ccccc6)c6ccc3[nH]6)C=C5)C=C4)cc2)ccc1=O
REMARK SMILES IDX 18 1 17 2 16 3 15 4 13 5 14 6 12 8 7 9 8 10 9 11 11 12 5 13
REMARK SMILES IDX 6 14 4 15 1 16 2 17 3 18 75 19 74 20 76 21 73 22 10 23 19 25
REMARK SMILES IDX 20 26 21 27 22 28 23 29 24 31 25 32 26 33 72 34 27 35 71 36
REMARK SMILES IDX 28 37 29 38 30 39 65 40 31 41 70 42 64 43 66 44 32 45 69 46
REMARK SMILES IDX 63 47 62 48 33 50 55 51 40 52 54 53 41 54 44 55 53 56 67 57
REMARK SMILES IDX 42 58 43 59 52 61 68 62 45 63 34 64 35 65 39 66 36 67 38 68
REMARK SMILES IDX 37 69 56 70 57 71 61 72 58 73 60 74 59 75 46 76 47 77 51 78
REMARK SMILES IDX 48 79 50 80 49 81
REMARK H PARENT 15 7 10 24 22 30 66 49 44 60
REMARK Flexibility Score: inf
ROOT
ATOM      1  C   UNL A   1      32.968  30.191  26.989  1.00  0.00     0.002 C 
ENDROOT
BRANCH   1   2
ATOM      2  C   UNL A   1      33.001  28.680  27.240  1.00  0.00     0.021 C 
BRANCH   2   3
ATOM      3  C   UNL A   1      33.840  27.908  26.231  1.00  0.00     0.116 C 
BRANCH   3   4
ATOM      4  N   UNL A   1      34.055  28.656  25.015  1.00  0.00    -0.354 N 
ATOM      5  C   UNL A   1      33.709  28.370  23.729  1.00  0.00     0.242 C 
ATOM      6  O   UNL A   1      33.822  29.286  22.906  1.00  0.00    -0.273 OA
ATOM      7  H   UNL A   1      34.529  29.510  25.135  1.00  0.00     0.163 HD
BRANCH   5   8
ATOM      8  C   UNL A   1      33.017  27.051  23.334  1.00  0.00     0.177 C 
ATOM      9  N   UNL A   1      31.614  27.112  22.917  1.00  0.00    -0.323 N 
ATOM     10  C   UNL A   1      31.408  26.489  21.618  1.00  0.00     0.152 C 
ATOM     11  C   UNL A   1      32.671  25.673  21.363  1.00  0.00     0.136 C 
ATOM     12  C   UNL A   1      33.759  26.360  22.185  1.00  0.00     0.069 C 
BRANCH   9  13
ATOM     13  C   UNL A   1      30.668  27.319  23.911  1.00  0.00     0.275 C 
ATOM     14  O   UNL A   1      30.565  26.612  24.907  1.00  0.00    -0.267 OA
BRANCH  13  15
ATOM     15  C   UNL A   1      29.615  28.402  23.703  1.00  0.00     0.149 A 
ATOM     16  C   UNL A   1      29.486  31.980  23.733  1.00  0.00     0.178 C 
ATOM     17  N   UNL A   1      29.035  30.610  23.576  1.00  0.00    -0.232 N 
ATOM     18  N   UNL A   1      29.985  29.642  23.801  1.00  0.00    -0.165 NA
ATOM     19  C   UNL A   1      27.736  30.346  23.162  1.00  0.00     0.266 A 
ATOM     20  C   UNL A   1      27.380  28.913  23.037  1.00  0.00     0.076 A 
ATOM     21  O   UNL A   1      26.889  31.196  22.906  1.00  0.00    -0.268 OA
ATOM     22  C   UNL A   1      28.265  27.954  23.315  1.00  0.00     0.042 A 
ENDBRANCH  13  15
ENDBRANCH   9  13
BRANCH  11  23
ATOM     23  O   UNL A   1      33.019  25.639  19.986  1.00  0.00    -0.391 OA
ATOM     24  H   UNL A   1      33.864  25.177  19.878  1.00  0.00     0.211 HD
ENDBRANCH  11  23
ENDBRANCH   5   8
ENDBRANCH   3   4
ENDBRANCH   2   3
ENDBRANCH   1   2
BRANCH   1  25
ATOM     25  C   UNL A   1      31.594  30.764  26.617  1.00  0.00     0.002 C 
BRANCH  25  26
ATOM     26  C   UNL A   1      31.425  32.267  26.860  1.00  0.00     0.021 C 
BRANCH  26  27
ATOM     27  C   UNL A   1      32.717  32.996  27.211  1.00  0.00     0.116 C 
BRANCH  27  28
ATOM     28  N   UNL A   1      32.466  34.359  27.647  1.00  0.00    -0.352 N 
ATOM     29  C   UNL A   1      33.043  35.046  28.684  1.00  0.00     0.251 C 
ATOM     30  H   UNL A   1      31.790  34.854  27.129  1.00  0.00     0.163 HD
ATOM     31  O   UNL A   1      32.585  36.118  29.063  1.00  0.00    -0.269 OA
BRANCH  29  32
ATOM     32  C   UNL A   1      34.227  34.473  29.350  1.00  0.00     0.039 A 
ATOM     33  C   UNL A   1      34.062  33.777  30.550  1.00  0.00     0.014 A 
ATOM     34  C   UNL A   1      35.496  34.624  28.779  1.00  0.00     0.014 A 
ATOM     35  C   UNL A   1      35.171  33.194  31.162  1.00  0.00     0.010 A 
ATOM     36  C   UNL A   1      36.592  34.000  29.364  1.00  0.00     0.010 A 
ATOM     37  C   UNL A   1      36.439  33.291  30.565  1.00  0.00    -0.014 A 
BRANCH  37  38
ATOM     38  C   UNL A   1      37.627  32.685  31.205  1.00  0.00     0.031 A 
ATOM     39  C   UNL A   1      38.282  31.489  30.579  1.00  0.00     0.074 A 
ATOM     40  C   UNL A   1      38.089  33.182  32.367  1.00  0.00     0.049 A 
ATOM     41  N   UNL A   1      39.312  30.802  31.001  1.00  0.00    -0.248 NA
ATOM     42  C   UNL A   1      37.692  30.987  29.327  1.00  0.00     0.031 C 
ATOM     43  C   UNL A   1      37.519  34.323  33.086  1.00  0.00     0.029 A 
ATOM     44  N   UNL A   1      39.142  32.784  33.150  1.00  0.00    -0.354 N 
ATOM     45  C   UNL A   1      39.485  29.784  30.074  1.00  0.00     0.074 A 
ATOM     46  C   UNL A   1      38.435  29.915  29.091  1.00  0.00     0.031 C 
ATOM     47  C   UNL A   1      38.243  34.547  34.194  1.00  0.00     0.029 A 
ATOM     48  C   UNL A   1      39.310  33.551  34.276  1.00  0.00     0.049 A 
ATOM     49  H   UNL A   1      39.722  32.020  32.927  1.00  0.00     0.167 HD
ATOM     50  C   UNL A   1      40.448  28.835  30.037  1.00  0.00     0.031 A 
ATOM     51  C   UNL A   1      40.222  33.466  35.264  1.00  0.00     0.031 A 
ATOM     52  C   UNL A   1      41.506  28.719  31.002  1.00  0.00     0.049 A 
ATOM     53  C   UNL A   1      41.276  32.399  35.209  1.00  0.00     0.074 A 
ATOM     54  C   UNL A   1      42.568  27.833  31.006  1.00  0.00     0.029 A 
ATOM     55  N   UNL A   1      41.633  29.509  32.133  1.00  0.00    -0.354 N 
ATOM     56  N   UNL A   1      41.463  31.478  34.296  1.00  0.00    -0.248 NA
ATOM     57  C   UNL A   1      42.245  32.360  36.314  1.00  0.00     0.031 C 
ATOM     58  C   UNL A   1      43.314  28.056  32.166  1.00  0.00     0.029 A 
ATOM     59  C   UNL A   1      42.741  29.111  32.859  1.00  0.00     0.049 A 
ATOM     60  H   UNL A   1      41.026  30.242  32.382  1.00  0.00     0.167 HD
ATOM     61  C   UNL A   1      42.577  30.759  34.704  1.00  0.00     0.074 A 
ATOM     62  C   UNL A   1      43.029  31.352  35.947  1.00  0.00     0.031 C 
ATOM     63  C   UNL A   1      43.172  29.704  34.098  1.00  0.00     0.031 A 
BRANCH  50  64
ATOM     64  C   UNL A   1      40.407  27.844  28.913  1.00  0.00    -0.014 A 
ATOM     65  C   UNL A   1      41.089  28.089  27.711  1.00  0.00     0.009 A 
ATOM     66  C   UNL A   1      39.734  26.626  29.081  1.00  0.00     0.009 A 
ATOM     67  C   UNL A   1      41.083  27.136  26.691  1.00  0.00     0.001 A 
ATOM     68  C   UNL A   1      39.746  25.666  28.068  1.00  0.00     0.001 A 
ATOM     69  C   UNL A   1      40.416  25.924  26.873  1.00  0.00     0.000 A 
ENDBRANCH  50  64
BRANCH  51  70
ATOM     70  C   UNL A   1      40.178  34.455  36.368  1.00  0.00    -0.014 A 
ATOM     71  C   UNL A   1      39.434  34.187  37.526  1.00  0.00     0.009 A 
ATOM     72  C   UNL A   1      40.944  35.631  36.305  1.00  0.00     0.009 A 
ATOM     73  C   UNL A   1      39.460  35.077  38.603  1.00  0.00     0.001 A 
ATOM     74  C   UNL A   1      40.981  36.509  37.389  1.00  0.00     0.001 A 
ATOM     75  C   UNL A   1      40.240  36.231  38.537  1.00  0.00     0.000 A 
ENDBRANCH  51  70
BRANCH  63  76
ATOM     76  C   UNL A   1      44.381  29.103  34.752  1.00  0.00    -0.014 A 
ATOM     77  C   UNL A   1      44.256  28.003  35.614  1.00  0.00     0.009 A 
ATOM     78  C   UNL A   1      45.662  29.556  34.399  1.00  0.00     0.009 A 
ATOM     79  C   UNL A   1      45.396  27.367  36.109  1.00  0.00     0.001 A 
ATOM     80  C   UNL A   1      46.798  28.906  34.880  1.00  0.00     0.001 A 
ATOM     81  C   UNL A   1      46.664  27.812  35.735  1.00  0.00     0.000 A 
ENDBRANCH  63  76
ENDBRANCH  37  38
ENDBRANCH  29  32
ENDBRANCH  27  28
ENDBRANCH  26  27
ENDBRANCH  25  26
ENDBRANCH   1  25
TORSDOF 16
ENDMDL
MODEL 3
REMARK VINA RESULT:     -10.8      5.030      9.400
REMARK SMILES Cn1nc(C(=O)N2C[C@@H](O)C[C@H]2C(=O)NCCCCCCNC(=O)c2ccc(-c3c4nc(c(-c5ccccc5)c5ccc([nH]5)c(-c5ccccc5)c5nc(c(-c6ccccc6)c6ccc3[nH]6)C=C5)C=C4)cc2)ccc1=O
REMARK SMILES IDX 18 1 17 2 16 3 15 4 13 5 14 6 12 8 7 9 8 10 9 11 11 12 5 13
REMARK SMILES IDX 6 14 4 15 1 16 2 17 3 18 75 19 74 20 76 21 73 22 10 23 19 25
REMARK SMILES IDX 20 26 21 27 22 28 23 29 24 31 25 32 26 33 72 34 27 35 71 36
REMARK SMILES IDX 28 37 29 38 30 39 65 40 31 41 70 42 64 43 66 44 32 45 69 46
REMARK SMILES IDX 63 47 62 48 33 50 55 51 40 52 54 53 41 54 44 55 53 56 67 57
REMARK SMILES IDX 42 58 43 59 52 61 68 62 45 63 34 64 35 65 39 66 36 67 38 68
REMARK SMILES IDX 37 69 56 70 57 71 61 72 58 73 60 74 59 75 46 76 47 77 51 78
REMARK SMILES IDX 48 79 50 80 49 81
REMARK H PARENT 15 7 10 24 22 30 66 49 44 60
REMARK Flexibility Score: inf
ROOT
ATOM      1  C   UNL A   1      32.577  29.582  25.641  1.00  0.00     0.002 C 
ENDROOT
BRANCH   1   2
ATOM      2  C   UNL A   1      33.303  29.281  24.326  1.00  0.00     0.021 C 
BRANCH   2   3
ATOM      3  C   UNL A   1      33.798  27.845  24.212  1.00  0.00     0.116 C 
BRANCH   3   4
ATOM      4  N   UNL A   1      33.816  27.382  22.844  1.00  0.00    -0.354 N 
ATOM      5  C   UNL A   1      33.474  26.174  22.316  1.00  0.00     0.242 C 
ATOM      6  O   UNL A   1      33.377  26.112  21.085  1.00  0.00    -0.273 OA
ATOM      7  H   UNL A   1      34.127  28.046  22.188  1.00  0.00     0.163 HD
BRANCH   5   8
ATOM      8  C   UNL A   1      33.024  24.988  23.192  1.00  0.00     0.177 C 
ATOM      9  N   UNL A   1      31.595  24.856  23.485  1.00  0.00    -0.323 N 
ATOM     10  C   UNL A   1      31.088  23.540  23.128  1.00  0.00     0.152 C 
ATOM     11  C   UNL A   1      32.329  22.673  22.939  1.00  0.00     0.136 C 
ATOM     12  C   UNL A   1      33.442  23.652  22.569  1.00  0.00     0.069 C 
BRANCH   9  13
ATOM     13  C   UNL A   1      31.053  25.748  24.400  1.00  0.00     0.275 C 
ATOM     14  O   UNL A   1      31.265  25.693  25.606  1.00  0.00    -0.267 OA
BRANCH  13  15
ATOM     15  C   UNL A   1      30.039  26.775  23.908  1.00  0.00     0.149 A 
ATOM     16  C   UNL A   1      30.087  29.813  22.014  1.00  0.00     0.178 C 
ATOM     17  N   UNL A   1      29.549  28.684  22.749  1.00  0.00    -0.232 N 
ATOM     18  N   UNL A   1      30.475  27.783  23.217  1.00  0.00    -0.165 NA
ATOM     19  C   UNL A   1      28.176  28.531  22.888  1.00  0.00     0.266 A 
ATOM     20  C   UNL A   1      27.734  27.345  23.658  1.00  0.00     0.076 A 
ATOM     21  O   UNL A   1      27.330  29.296  22.433  1.00  0.00    -0.268 OA
ATOM     22  C   UNL A   1      28.618  26.493  24.181  1.00  0.00     0.042 A 
ENDBRANCH  13  15
ENDBRANCH   9  13
BRANCH  11  23
ATOM     23  O   UNL A   1      32.152  21.697  21.923  1.00  0.00    -0.391 OA
ATOM     24  H   UNL A   1      31.475  22.000  21.298  1.00  0.00     0.211 HD
ENDBRANCH  11  23
ENDBRANCH   5   8
ENDBRANCH   3   4
ENDBRANCH   2   3
ENDBRANCH   1   2
BRANCH   1  25
ATOM     25  C   UNL A   1      31.312  30.441  25.510  1.00  0.00     0.002 C 
BRANCH  25  26
ATOM     26  C   UNL A   1      31.197  31.591  26.514  1.00  0.00     0.021 C 
BRANCH  26  27
ATOM     27  C   UNL A   1      32.531  32.213  26.914  1.00  0.00     0.116 C 
BRANCH  27  28
ATOM     28  N   UNL A   1      32.368  33.575  27.392  1.00  0.00    -0.352 N 
ATOM     29  C   UNL A   1      33.113  34.249  28.326  1.00  0.00     0.251 C 
ATOM     30  H   UNL A   1      31.624  34.082  26.992  1.00  0.00     0.163 HD
ATOM     31  O   UNL A   1      32.734  35.323  28.779  1.00  0.00    -0.269 OA
BRANCH  29  32
ATOM     32  C   UNL A   1      34.382  33.659  28.789  1.00  0.00     0.039 A 
ATOM     33  C   UNL A   1      35.559  33.944  28.095  1.00  0.00     0.014 A 
ATOM     34  C   UNL A   1      34.399  32.826  29.915  1.00  0.00     0.014 A 
ATOM     35  C   UNL A   1      36.769  33.425  28.555  1.00  0.00     0.010 A 
ATOM     36  C   UNL A   1      35.611  32.351  30.400  1.00  0.00     0.010 A 
ATOM     37  C   UNL A   1      36.803  32.638  29.717  1.00  0.00    -0.014 A 
BRANCH  37  38
ATOM     38  C   UNL A   1      38.077  32.072  30.214  1.00  0.00     0.031 A 
ATOM     39  C   UNL A   1      38.580  30.772  29.661  1.00  0.00     0.074 A 
ATOM     40  C   UNL A   1      38.755  32.703  31.190  1.00  0.00     0.049 A 
ATOM     41  N   UNL A   1      39.656  30.102  29.986  1.00  0.00    -0.248 NA
ATOM     42  C   UNL A   1      37.760  30.128  28.622  1.00  0.00     0.031 C 
ATOM     43  C   UNL A   1      38.351  33.958  31.826  1.00  0.00     0.029 A 
ATOM     44  N   UNL A   1      39.926  32.369  31.821  1.00  0.00    -0.354 N 
ATOM     45  C   UNL A   1      39.635  28.958  29.201  1.00  0.00     0.074 A 
ATOM     46  C   UNL A   1      38.424  29.001  28.414  1.00  0.00     0.031 C 
ATOM     47  C   UNL A   1      39.271  34.300  32.742  1.00  0.00     0.029 A 
ATOM     48  C   UNL A   1      40.314  33.276  32.775  1.00  0.00     0.049 A 
ATOM     49  H   UNL A   1      40.439  31.556  31.610  1.00  0.00     0.167 HD
ATOM     50  C   UNL A   1      40.555  27.970  29.130  1.00  0.00     0.031 A 
ATOM     51  C   UNL A   1      41.390  33.287  33.585  1.00  0.00     0.031 A 
ATOM     52  C   UNL A   1      41.770  27.940  29.896  1.00  0.00     0.049 A 
ATOM     53  C   UNL A   1      42.394  32.175  33.497  1.00  0.00     0.074 A 
ATOM     54  C   UNL A   1      42.797  27.015  29.837  1.00  0.00     0.029 A 
ATOM     55  N   UNL A   1      42.119  28.872  30.859  1.00  0.00    -0.354 N 
ATOM     56  N   UNL A   1      42.391  31.128  32.708  1.00  0.00    -0.248 NA
ATOM     57  C   UNL A   1      43.550  32.244  34.404  1.00  0.00     0.031 C 
ATOM     58  C   UNL A   1      43.748  27.362  30.799  1.00  0.00     0.029 A 
ATOM     59  C   UNL A   1      43.334  28.528  31.424  1.00  0.00     0.049 A 
ATOM     60  H   UNL A   1      41.584  29.661  31.104  1.00  0.00     0.167 HD
ATOM     61  C   UNL A   1      43.547  30.422  33.010  1.00  0.00     0.074 A 
ATOM     62  C   UNL A   1      44.231  31.160  34.052  1.00  0.00     0.031 C 
ATOM     63  C   UNL A   1      43.998  29.266  32.466  1.00  0.00     0.031 A 
BRANCH  50  64
ATOM     64  C   UNL A   1      40.287  26.836  28.187  1.00  0.00    -0.014 A 
ATOM     65  C   UNL A   1      40.790  26.853  26.876  1.00  0.00     0.009 A 
ATOM     66  C   UNL A   1      39.582  25.710  28.633  1.00  0.00     0.009 A 
ATOM     67  C   UNL A   1      40.574  25.769  26.025  1.00  0.00     0.001 A 
ATOM     68  C   UNL A   1      39.385  24.618  27.786  1.00  0.00     0.001 A 
ATOM     69  C   UNL A   1      39.877  24.650  26.483  1.00  0.00     0.000 A 
ENDBRANCH  50  64
BRANCH  51  70
ATOM     70  C   UNL A   1      41.571  34.421  34.524  1.00  0.00    -0.014 A 
ATOM     71  C   UNL A   1      42.231  35.586  34.104  1.00  0.00     0.009 A 
ATOM     72  C   UNL A   1      41.017  34.377  35.812  1.00  0.00     0.009 A 
ATOM     73  C   UNL A   1      42.327  36.688  34.957  1.00  0.00     0.001 A 
ATOM     74  C   UNL A   1      41.100  35.486  36.656  1.00  0.00     0.001 A 
ATOM     75  C   UNL A   1      41.754  36.641  36.227  1.00  0.00     0.000 A 
ENDBRANCH  51  70
BRANCH  63  76
ATOM     76  C   UNL A   1      45.294  28.707  32.973  1.00  0.00    -0.014 A 
ATOM     77  C   UNL A   1      46.519  29.197  32.498  1.00  0.00     0.009 A 
ATOM     78  C   UNL A   1      45.289  27.781  34.028  1.00  0.00     0.009 A 
ATOM     79  C   UNL A   1      47.717  28.769  33.072  1.00  0.00     0.001 A 
ATOM     80  C   UNL A   1      46.487  27.370  34.612  1.00  0.00     0.001 A 
ATOM     81  C   UNL A   1      47.700  27.864  34.134  1.00  0.00     0.000 A 
ENDBRANCH  63  76
ENDBRANCH  37  38
ENDBRANCH  29  32
ENDBRANCH  27  28
ENDBRANCH  26  27
ENDBRANCH  25  26
ENDBRANCH   1  25
TORSDOF 16
ENDMDL
