MODEL 1
REMARK VINA RESULT:      -9.6      0.000      0.000
REMARK SMILES C[C@H]1C[C@](C(=O)NCCCCCCNC(=O)c2ccc(-c3c4nc(c(-c5ccccc5)c5ccc([nH]5)c(-c5ccccc5)c5nc(c(-c6ccccc6)c6ccc3[nH]6)C=C5)C=C4)cc2)(N(C=O)C2CC2)CS1
REMARK SMILES IDX 10 1 9 2 8 3 7 4 5 5 6 6 4 8 1 9 2 10 3 11 72 12 71 13 65 14
REMARK SMILES IDX 66 15 67 16 68 17 69 18 70 19 11 20 12 21 13 22 14 23 15 24
REMARK SMILES IDX 16 26 17 27 18 28 64 29 19 30 63 31 20 32 21 33 22 34 57 35
REMARK SMILES IDX 23 36 62 37 56 38 58 39 24 40 61 41 55 42 54 43 25 45 47 46
REMARK SMILES IDX 32 47 46 48 33 49 36 50 45 51 59 52 34 53 35 54 44 56 60 57
REMARK SMILES IDX 37 58 26 59 27 60 31 61 28 62 30 63 29 64 48 65 49 66 53 67
REMARK SMILES IDX 50 68 52 69 51 70 38 71 39 72 43 73 40 74 42 75 41 76
REMARK H PARENT 7 7 14 25 58 44 36 55
REMARK Flexibility Score: inf
ROOT
ATOM      1  C   UNL A   1      36.609  21.789  25.753  1.00  0.00     0.002 C 
ENDROOT
BRANCH   1   2
ATOM      2  C   UNL A   1      36.862  23.100  24.993  1.00  0.00     0.021 C 
BRANCH   2   3
ATOM      3  C   UNL A   1      35.764  24.151  25.191  1.00  0.00     0.116 C 
BRANCH   3   4
ATOM      4  N   UNL A   1      34.813  24.091  24.101  1.00  0.00    -0.354 N 
ATOM      5  C   UNL A   1      33.573  24.572  23.873  1.00  0.00     0.246 C 
ATOM      6  O   UNL A   1      33.078  24.138  22.818  1.00  0.00    -0.272 OA
ATOM      7  H   UNL A   1      35.156  23.571  23.338  1.00  0.00     0.163 HD
BRANCH   5   8
ATOM      8  C   UNL A   1      32.716  25.536  24.784  1.00  0.00     0.131 C 
ATOM      9  C   UNL A   1      30.711  22.951  26.105  1.00  0.00     0.019 C 
ATOM     10  C   UNL A   1      31.021  24.411  26.398  1.00  0.00     0.046 C 
ATOM     11  C   UNL A   1      32.484  24.767  26.142  1.00  0.00     0.054 C 
ATOM     12  S   UNL A   1      30.068  25.516  25.345  1.00  0.00    -0.156 SA
ATOM     13  C   UNL A   1      31.339  25.554  24.058  1.00  0.00     0.108 C 
BRANCH   8  14
ATOM     14  N   UNL A   1      33.284  26.887  25.106  1.00  0.00    -0.327 N 
BRANCH  14  15
ATOM     15  C   UNL A   1      33.815  27.680  24.083  1.00  0.00     0.341 C 
ATOM     16  O   UNL A   1      33.271  27.956  23.019  1.00  0.00    -0.279 OA
ENDBRANCH  14  15
BRANCH  14  17
ATOM     17  C   UNL A   1      33.334  27.471  26.440  1.00  0.00     0.086 C 
ATOM     18  C   UNL A   1      33.552  28.881  26.930  1.00  0.00     0.027 C 
ATOM     19  C   UNL A   1      32.160  28.380  26.793  1.00  0.00     0.027 C 
ENDBRANCH  14  17
ENDBRANCH   8  14
ENDBRANCH   5   8
ENDBRANCH   3   4
ENDBRANCH   2   3
ENDBRANCH   1   2
BRANCH   1  20
ATOM     20  C   UNL A   1      36.506  20.539  24.870  1.00  0.00     0.002 C 
BRANCH  20  21
ATOM     21  C   UNL A   1      37.792  19.717  24.762  1.00  0.00     0.021 C 
BRANCH  21  22
ATOM     22  C   UNL A   1      38.895  20.151  25.720  1.00  0.00     0.116 C 
BRANCH  22  23
ATOM     23  N   UNL A   1      39.916  19.123  25.865  1.00  0.00    -0.352 N 
ATOM     24  C   UNL A   1      41.265  19.267  26.050  1.00  0.00     0.251 C 
ATOM     25  H   UNL A   1      39.591  18.194  25.826  1.00  0.00     0.163 HD
ATOM     26  O   UNL A   1      42.021  18.304  25.912  1.00  0.00    -0.269 OA
BRANCH  24  27
ATOM     27  C   UNL A   1      41.815  20.587  26.413  1.00  0.00     0.039 A 
ATOM     28  C   UNL A   1      42.083  21.519  25.406  1.00  0.00     0.014 A 
ATOM     29  C   UNL A   1      42.072  20.895  27.751  1.00  0.00     0.014 A 
ATOM     30  C   UNL A   1      42.563  22.784  25.749  1.00  0.00     0.010 A 
ATOM     31  C   UNL A   1      42.481  22.177  28.096  1.00  0.00     0.010 A 
ATOM     32  C   UNL A   1      42.740  23.130  27.099  1.00  0.00    -0.014 A 
BRANCH  32  33
ATOM     33  C   UNL A   1      43.222  24.471  27.502  1.00  0.00     0.031 A 
ATOM     34  C   UNL A   1      42.232  25.528  27.905  1.00  0.00     0.074 A 
ATOM     35  C   UNL A   1      44.534  24.764  27.430  1.00  0.00     0.049 A 
ATOM     36  N   UNL A   1      42.435  26.790  28.187  1.00  0.00    -0.248 NA
ATOM     37  C   UNL A   1      40.820  25.115  27.971  1.00  0.00     0.031 C 
ATOM     38  C   UNL A   1      45.591  23.832  27.035  1.00  0.00     0.029 A 
ATOM     39  N   UNL A   1      45.199  25.937  27.675  1.00  0.00    -0.354 N 
ATOM     40  C   UNL A   1      41.178  27.325  28.438  1.00  0.00     0.074 A 
ATOM     41  C   UNL A   1      40.216  26.266  28.227  1.00  0.00     0.031 C 
ATOM     42  C   UNL A   1      46.775  24.463  27.093  1.00  0.00     0.029 A 
ATOM     43  C   UNL A   1      46.555  25.852  27.480  1.00  0.00     0.049 A 
ATOM     44  H   UNL A   1      44.747  26.764  27.963  1.00  0.00     0.167 HD
ATOM     45  C   UNL A   1      40.854  28.582  28.825  1.00  0.00     0.031 A 
ATOM     46  C   UNL A   1      47.512  26.792  27.593  1.00  0.00     0.031 A 
ATOM     47  C   UNL A   1      41.814  29.630  29.041  1.00  0.00     0.049 A 
ATOM     48  C   UNL A   1      47.125  28.190  27.986  1.00  0.00     0.074 A 
ATOM     49  C   UNL A   1      41.596  30.923  29.483  1.00  0.00     0.029 A 
ATOM     50  N   UNL A   1      43.178  29.504  28.826  1.00  0.00    -0.354 N 
ATOM     51  N   UNL A   1      45.938  28.670  28.273  1.00  0.00    -0.248 NA
ATOM     52  C   UNL A   1      48.211  29.176  28.073  1.00  0.00     0.031 C 
ATOM     53  C   UNL A   1      42.823  31.594  29.488  1.00  0.00     0.029 A 
ATOM     54  C   UNL A   1      43.812  30.702  29.102  1.00  0.00     0.049 A 
ATOM     55  H   UNL A   1      43.629  28.683  28.521  1.00  0.00     0.167 HD
ATOM     56  C   UNL A   1      46.141  30.002  28.612  1.00  0.00     0.074 A 
ATOM     57  C   UNL A   1      47.563  30.253  28.497  1.00  0.00     0.031 C 
ATOM     58  C   UNL A   1      45.230  30.931  28.991  1.00  0.00     0.031 A 
BRANCH  45  59
ATOM     59  C   UNL A   1      39.394  28.885  29.021  1.00  0.00    -0.014 A 
ATOM     60  C   UNL A   1      38.601  29.363  27.965  1.00  0.00     0.009 A 
ATOM     61  C   UNL A   1      38.802  28.684  30.277  1.00  0.00     0.009 A 
ATOM     62  C   UNL A   1      37.258  29.684  28.177  1.00  0.00     0.001 A 
ATOM     63  C   UNL A   1      37.451  28.975  30.478  1.00  0.00     0.001 A 
ATOM     64  C   UNL A   1      36.683  29.486  29.432  1.00  0.00     0.000 A 
ENDBRANCH  45  59
BRANCH  46  65
ATOM     65  C   UNL A   1      48.935  26.436  27.359  1.00  0.00    -0.014 A 
ATOM     66  C   UNL A   1      49.474  26.505  26.065  1.00  0.00     0.009 A 
ATOM     67  C   UNL A   1      49.763  26.032  28.419  1.00  0.00     0.009 A 
ATOM     68  C   UNL A   1      50.807  26.155  25.833  1.00  0.00     0.001 A 
ATOM     69  C   UNL A   1      51.101  25.709  28.188  1.00  0.00     0.001 A 
ATOM     70  C   UNL A   1      51.620  25.763  26.895  1.00  0.00     0.000 A 
ENDBRANCH  46  65
BRANCH  58  71
ATOM     71  C   UNL A   1      45.746  32.291  29.362  1.00  0.00    -0.014 A 
ATOM     72  C   UNL A   1      45.860  33.315  28.410  1.00  0.00     0.009 A 
ATOM     73  C   UNL A   1      46.069  32.566  30.700  1.00  0.00     0.009 A 
ATOM     74  C   UNL A   1      46.310  34.582  28.789  1.00  0.00     0.001 A 
ATOM     75  C   UNL A   1      46.492  33.839  31.081  1.00  0.00     0.001 A 
ATOM     76  C   UNL A   1      46.619  34.844  30.123  1.00  0.00     0.000 A 
ENDBRANCH  58  71
ENDBRANCH  32  33
ENDBRANCH  24  27
ENDBRANCH  22  23
ENDBRANCH  21  22
ENDBRANCH  20  21
ENDBRANCH   1  20
TORSDOF 16
ENDMDL
MODEL 2
REMARK VINA RESULT:      -9.5      4.153      8.822
REMARK SMILES C[C@H]1C[C@](C(=O)NCCCCCCNC(=O)c2ccc(-c3c4nc(c(-c5ccccc5)c5ccc([nH]5)c(-c5ccccc5)c5nc(c(-c6ccccc6)c6ccc3[nH]6)C=C5)C=C4)cc2)(N(C=O)C2CC2)CS1
REMARK SMILES IDX 10 1 9 2 8 3 7 4 5 5 6 6 4 8 1 9 2 10 3 11 72 12 71 13 65 14
REMARK SMILES IDX 66 15 67 16 68 17 69 18 70 19 11 20 12 21 13 22 14 23 15 24
REMARK SMILES IDX 16 26 17 27 18 28 64 29 19 30 63 31 20 32 21 33 22 34 57 35
REMARK SMILES IDX 23 36 62 37 56 38 58 39 24 40 61 41 55 42 54 43 25 45 47 46
REMARK SMILES IDX 32 47 46 48 33 49 36 50 45 51 59 52 34 53 35 54 44 56 60 57
REMARK SMILES IDX 37 58 26 59 27 60 31 61 28 62 30 63 29 64 48 65 49 66 53 67
REMARK SMILES IDX 50 68 52 69 51 70 38 71 39 72 43 73 40 74 42 75 41 76
REMARK H PARENT 7 7 14 25 58 44 36 55
REMARK Flexibility Score: inf
ROOT
ATOM      1  C   UNL A   1      32.521  29.845  26.132  1.00  0.00     0.002 C 
ENDROOT
BRANCH   1   2
ATOM      2  C   UNL A   1      33.250  29.059  25.032  1.00  0.00     0.021 C 
BRANCH   2   3
ATOM      3  C   UNL A   1      32.475  28.977  23.713  1.00  0.00     0.116 C 
BRANCH   3   4
ATOM      4  N   UNL A   1      33.059  27.973  22.851  1.00  0.00    -0.354 N 
ATOM      5  C   UNL A   1      33.161  26.627  22.865  1.00  0.00     0.246 C 
ATOM      6  O   UNL A   1      33.893  26.193  21.959  1.00  0.00    -0.272 OA
ATOM      7  H   UNL A   1      33.489  28.369  22.059  1.00  0.00     0.163 HD
BRANCH   5   8
ATOM      8  C   UNL A   1      32.520  25.609  23.888  1.00  0.00     0.131 C 
ATOM      9  C   UNL A   1      35.584  24.046  24.672  1.00  0.00     0.019 C 
ATOM     10  C   UNL A   1      34.166  24.104  25.218  1.00  0.00     0.046 C 
ATOM     11  C   UNL A   1      33.539  25.490  25.087  1.00  0.00     0.054 C 
ATOM     12  S   UNL A   1      33.065  22.994  24.328  1.00  0.00    -0.156 SA
ATOM     13  C   UNL A   1      32.600  24.258  23.119  1.00  0.00     0.108 C 
BRANCH   8  14
ATOM     14  N   UNL A   1      31.171  25.940  24.457  1.00  0.00    -0.327 N 
BRANCH  14  15
ATOM     15  C   UNL A   1      31.044  26.235  25.819  1.00  0.00     0.341 C 
ATOM     16  O   UNL A   1      30.516  25.529  26.670  1.00  0.00    -0.279 OA
ENDBRANCH  14  15
BRANCH  14  17
ATOM     17  C   UNL A   1      29.934  25.986  23.689  1.00  0.00     0.086 C 
ATOM     18  C   UNL A   1      28.549  26.486  24.013  1.00  0.00     0.027 C 
ATOM     19  C   UNL A   1      29.477  27.383  23.279  1.00  0.00     0.027 C 
ENDBRANCH  14  17
ENDBRANCH   8  14
ENDBRANCH   5   8
ENDBRANCH   3   4
ENDBRANCH   2   3
ENDBRANCH   1   2
BRANCH   1  20
ATOM     20  C   UNL A   1      31.331  30.683  25.648  1.00  0.00     0.002 C 
BRANCH  20  21
ATOM     21  C   UNL A   1      31.201  32.059  26.305  1.00  0.00     0.021 C 
BRANCH  21  22
ATOM     22  C   UNL A   1      32.252  32.347  27.370  1.00  0.00     0.116 C 
BRANCH  22  23
ATOM     23  N   UNL A   1      32.366  33.774  27.641  1.00  0.00    -0.352 N 
ATOM     24  C   UNL A   1      33.300  34.437  28.391  1.00  0.00     0.251 C 
ATOM     25  H   UNL A   1      31.675  34.340  27.226  1.00  0.00     0.163 HD
ATOM     26  O   UNL A   1      33.118  35.610  28.720  1.00  0.00    -0.269 OA
BRANCH  24  27
ATOM     27  C   UNL A   1      34.529  33.738  28.810  1.00  0.00     0.039 A 
ATOM     28  C   UNL A   1      35.719  33.967  28.114  1.00  0.00     0.014 A 
ATOM     29  C   UNL A   1      34.497  32.849  29.887  1.00  0.00     0.014 A 
ATOM     30  C   UNL A   1      36.893  33.340  28.533  1.00  0.00     0.010 A 
ATOM     31  C   UNL A   1      35.679  32.283  30.347  1.00  0.00     0.010 A 
ATOM     32  C   UNL A   1      36.886  32.514  29.669  1.00  0.00    -0.014 A 
BRANCH  32  33
ATOM     33  C   UNL A   1      38.118  31.853  30.159  1.00  0.00     0.031 A 
ATOM     34  C   UNL A   1      38.964  32.533  31.199  1.00  0.00     0.074 A 
ATOM     35  C   UNL A   1      38.517  30.688  29.616  1.00  0.00     0.049 A 
ATOM     36  N   UNL A   1      40.128  32.179  31.681  1.00  0.00    -0.248 NA
ATOM     37  C   UNL A   1      38.443  33.796  31.748  1.00  0.00     0.031 C 
ATOM     38  C   UNL A   1      37.794  29.939  28.587  1.00  0.00     0.029 A 
ATOM     39  N   UNL A   1      39.640  29.936  29.849  1.00  0.00    -0.354 N 
ATOM     40  C   UNL A   1      40.488  33.186  32.568  1.00  0.00     0.074 A 
ATOM     41  C   UNL A   1      39.445  34.186  32.521  1.00  0.00     0.031 C 
ATOM     42  C   UNL A   1      38.479  28.819  28.299  1.00  0.00     0.029 A 
ATOM     43  C   UNL A   1      39.708  28.798  29.084  1.00  0.00     0.049 A 
ATOM     44  H   UNL A   1      40.333  30.188  30.503  1.00  0.00     0.167 HD
ATOM     45  C   UNL A   1      41.582  33.263  33.364  1.00  0.00     0.031 A 
ATOM     46  C   UNL A   1      40.660  27.848  29.018  1.00  0.00     0.031 A 
ATOM     47  C   UNL A   1      42.612  32.262  33.414  1.00  0.00     0.049 A 
ATOM     48  C   UNL A   1      41.883  27.975  29.882  1.00  0.00     0.074 A 
ATOM     49  C   UNL A   1      43.735  32.219  34.222  1.00  0.00     0.029 A 
ATOM     50  N   UNL A   1      42.646  31.128  32.618  1.00  0.00    -0.354 N 
ATOM     51  N   UNL A   1      42.186  28.904  30.757  1.00  0.00    -0.248 NA
ATOM     52  C   UNL A   1      42.896  26.918  29.751  1.00  0.00     0.031 C 
ATOM     53  C   UNL A   1      44.474  31.082  33.879  1.00  0.00     0.029 A 
ATOM     54  C   UNL A   1      43.783  30.389  32.897  1.00  0.00     0.049 A 
ATOM     55  H   UNL A   1      41.964  30.884  31.952  1.00  0.00     0.167 HD
ATOM     56  C   UNL A   1      43.403  28.524  31.306  1.00  0.00     0.074 A 
ATOM     57  C   UNL A   1      43.782  27.279  30.670  1.00  0.00     0.031 C 
ATOM     58  C   UNL A   1      44.138  29.148  32.260  1.00  0.00     0.031 A 
BRANCH  45  59
ATOM     59  C   UNL A   1      41.716  34.485  34.229  1.00  0.00    -0.014 A 
ATOM     60  C   UNL A   1      41.193  34.518  35.532  1.00  0.00     0.009 A 
ATOM     61  C   UNL A   1      42.378  35.620  33.736  1.00  0.00     0.009 A 
ATOM     62  C   UNL A   1      41.285  35.678  36.304  1.00  0.00     0.001 A 
ATOM     63  C   UNL A   1      42.498  36.768  34.522  1.00  0.00     0.001 A 
ATOM     64  C   UNL A   1      41.940  36.801  35.800  1.00  0.00     0.000 A 
ENDBRANCH  45  59
BRANCH  46  65
ATOM     65  C   UNL A   1      40.481  26.677  28.122  1.00  0.00    -0.014 A 
ATOM     66  C   UNL A   1      39.792  25.542  28.577  1.00  0.00     0.009 A 
ATOM     67  C   UNL A   1      40.987  26.685  26.813  1.00  0.00     0.009 A 
ATOM     68  C   UNL A   1      39.635  24.429  27.747  1.00  0.00     0.001 A 
ATOM     69  C   UNL A   1      40.804  25.582  25.977  1.00  0.00     0.001 A 
ATOM     70  C   UNL A   1      40.136  24.452  26.447  1.00  0.00     0.000 A 
ENDBRANCH  46  65
BRANCH  58  71
ATOM     71  C   UNL A   1      45.399  28.469  32.712  1.00  0.00    -0.014 A 
ATOM     72  C   UNL A   1      45.389  27.520  33.745  1.00  0.00     0.009 A 
ATOM     73  C   UNL A   1      46.606  28.743  32.050  1.00  0.00     0.009 A 
ATOM     74  C   UNL A   1      46.570  26.878  34.123  1.00  0.00     0.001 A 
ATOM     75  C   UNL A   1      47.779  28.081  32.410  1.00  0.00     0.001 A 
ATOM     76  C   UNL A   1      47.761  27.153  33.451  1.00  0.00     0.000 A 
ENDBRANCH  58  71
ENDBRANCH  32  33
ENDBRANCH  24  27
ENDBRANCH  22  23
ENDBRANCH  21  22
ENDBRANCH  20  21
ENDBRANCH   1  20
TORSDOF 16
ENDMDL
MODEL 3
REMARK VINA RESULT:      -9.4      1.796      6.575
REMARK SMILES C[C@H]1C[C@](C(=O)NCCCCCCNC(=O)c2ccc(-c3c4nc(c(-c5ccccc5)c5ccc([nH]5)c(-c5ccccc5)c5nc(c(-c6ccccc6)c6ccc3[nH]6)C=C5)C=C4)cc2)(N(C=O)C2CC2)CS1
REMARK SMILES IDX 10 1 9 2 8 3 7 4 5 5 6 6 4 8 1 9 2 10 3 11 72 12 71 13 65 14
REMARK SMILES IDX 66 15 67 16 68 17 69 18 70 19 11 20 12 21 13 22 14 23 15 24
REMARK SMILES IDX 16 26 17 27 18 28 64 29 19 30 63 31 20 32 21 33 22 34 57 35
REMARK SMILES IDX 23 36 62 37 56 38 58 39 24 40 61 41 55 42 54 43 25 45 47 46
REMARK SMILES IDX 32 47 46 48 33 49 36 50 45 51 59 52 34 53 35 54 44 56 60 57
REMARK SMILES IDX 37 58 26 59 27 60 31 61 28 62 30 63 29 64 48 65 49 66 53 67
REMARK SMILES IDX 50 68 52 69 51 70 38 71 39 72 43 73 40 74 42 75 41 76
REMARK H PARENT 7 7 14 25 58 44 36 55
REMARK Flexibility Score: inf
ROOT
ATOM      1  C   UNL A   1      37.832  23.171  25.711  1.00  0.00     0.002 C 
ENDROOT
BRANCH   1   2
ATOM      2  C   UNL A   1      36.449  22.623  26.094  1.00  0.00     0.021 C 
BRANCH   2   3
ATOM      3  C   UNL A   1      35.856  21.661  25.059  1.00  0.00     0.116 C 
BRANCH   3   4
ATOM      4  N   UNL A   1      35.446  22.390  23.878  1.00  0.00    -0.354 N 
ATOM      5  C   UNL A   1      34.336  23.053  23.488  1.00  0.00     0.246 C 
ATOM      6  O   UNL A   1      34.387  23.413  22.300  1.00  0.00    -0.272 OA
ATOM      7  H   UNL A   1      36.148  22.406  23.189  1.00  0.00     0.163 HD
BRANCH   5   8
ATOM      8  C   UNL A   1      33.033  23.357  24.328  1.00  0.00     0.131 C 
ATOM      9  C   UNL A   1      31.822  25.789  22.079  1.00  0.00     0.019 C 
ATOM     10  C   UNL A   1      31.308  24.974  23.255  1.00  0.00     0.046 C 
ATOM     11  C   UNL A   1      31.871  23.554  23.280  1.00  0.00     0.054 C 
ATOM     12  S   UNL A   1      31.783  25.704  24.828  1.00  0.00    -0.156 SA
ATOM     13  C   UNL A   1      33.329  24.767  24.915  1.00  0.00     0.108 C 
BRANCH   8  14
ATOM     14  N   UNL A   1      32.587  22.330  25.328  1.00  0.00    -0.327 N 
BRANCH  14  15
ATOM     15  C   UNL A   1      32.645  22.621  26.696  1.00  0.00     0.341 C 
ATOM     16  O   UNL A   1      31.706  22.954  27.410  1.00  0.00    -0.279 OA
ENDBRANCH  14  15
BRANCH  14  17
ATOM     17  C   UNL A   1      32.077  21.008  24.991  1.00  0.00     0.086 C 
ATOM     18  C   UNL A   1      32.519  19.967  23.993  1.00  0.00     0.027 C 
ATOM     19  C   UNL A   1      32.975  19.844  25.402  1.00  0.00     0.027 C 
ENDBRANCH  14  17
ENDBRANCH   8  14
ENDBRANCH   5   8
ENDBRANCH   3   4
ENDBRANCH   2   3
ENDBRANCH   1   2
BRANCH   1  20
ATOM     20  C   UNL A   1      39.020  22.378  26.272  1.00  0.00     0.002 C 
BRANCH  20  21
ATOM     21  C   UNL A   1      39.298  21.047  25.570  1.00  0.00     0.021 C 
BRANCH  21  22
ATOM     22  C   UNL A   1      39.768  19.935  26.500  1.00  0.00     0.116 C 
BRANCH  22  23
ATOM     23  N   UNL A   1      41.003  19.325  26.026  1.00  0.00    -0.352 N 
ATOM     24  C   UNL A   1      42.214  19.912  25.775  1.00  0.00     0.251 C 
ATOM     25  H   UNL A   1      40.961  18.354  25.864  1.00  0.00     0.163 HD
ATOM     26  O   UNL A   1      43.085  19.304  25.150  1.00  0.00    -0.269 OA
BRANCH  24  27
ATOM     27  C   UNL A   1      42.473  21.282  26.254  1.00  0.00     0.039 A 
ATOM     28  C   UNL A   1      42.724  22.297  25.326  1.00  0.00     0.014 A 
ATOM     29  C   UNL A   1      42.477  21.557  27.624  1.00  0.00     0.014 A 
ATOM     30  C   UNL A   1      42.927  23.604  25.774  1.00  0.00     0.010 A 
ATOM     31  C   UNL A   1      42.608  22.868  28.063  1.00  0.00     0.010 A 
ATOM     32  C   UNL A   1      42.845  23.902  27.143  1.00  0.00    -0.014 A 
BRANCH  32  33
ATOM     33  C   UNL A   1      43.029  25.281  27.653  1.00  0.00     0.031 A 
ATOM     34  C   UNL A   1      44.407  25.764  28.011  1.00  0.00     0.074 A 
ATOM     35  C   UNL A   1      41.958  26.066  27.870  1.00  0.00     0.049 A 
ATOM     36  N   UNL A   1      44.771  26.889  28.571  1.00  0.00    -0.248 NA
ATOM     37  C   UNL A   1      45.522  24.844  27.726  1.00  0.00     0.031 C 
ATOM     38  C   UNL A   1      40.569  25.706  27.583  1.00  0.00     0.029 A 
ATOM     39  N   UNL A   1      41.872  27.329  28.397  1.00  0.00    -0.354 N 
ATOM     40  C   UNL A   1      46.149  26.801  28.728  1.00  0.00     0.074 A 
ATOM     41  C   UNL A   1      46.548  25.497  28.251  1.00  0.00     0.031 C 
ATOM     42  C   UNL A   1      39.773  26.736  27.910  1.00  0.00     0.029 A 
ATOM     43  C   UNL A   1      40.588  27.807  28.474  1.00  0.00     0.049 A 
ATOM     44  H   UNL A   1      42.658  27.845  28.692  1.00  0.00     0.167 HD
ATOM     45  C   UNL A   1      47.007  27.732  29.211  1.00  0.00     0.031 A 
ATOM     46  C   UNL A   1      40.119  28.974  28.954  1.00  0.00     0.031 A 
ATOM     47  C   UNL A   1      46.607  29.031  29.678  1.00  0.00     0.049 A 
ATOM     48  C   UNL A   1      41.087  29.975  29.521  1.00  0.00     0.074 A 
ATOM     49  C   UNL A   1      47.403  30.065  30.139  1.00  0.00     0.029 A 
ATOM     50  N   UNL A   1      45.295  29.473  29.745  1.00  0.00    -0.354 N 
ATOM     51  N   UNL A   1      42.393  29.902  29.614  1.00  0.00    -0.248 NA
ATOM     52  C   UNL A   1      40.514  31.221  30.048  1.00  0.00     0.031 C 
ATOM     53  C   UNL A   1      46.566  31.115  30.532  1.00  0.00     0.029 A 
ATOM     54  C   UNL A   1      45.255  30.755  30.263  1.00  0.00     0.049 A 
ATOM     55  H   UNL A   1      44.508  28.951  29.466  1.00  0.00     0.167 HD
ATOM     56  C   UNL A   1      42.801  31.106  30.173  1.00  0.00     0.074 A 
ATOM     57  C   UNL A   1      41.604  31.892  30.396  1.00  0.00     0.031 C 
ATOM     58  C   UNL A   1      44.055  31.525  30.468  1.00  0.00     0.031 A 
BRANCH  45  59
ATOM     59  C   UNL A   1      48.462  27.356  29.270  1.00  0.00    -0.014 A 
ATOM     60  C   UNL A   1      49.004  26.713  30.395  1.00  0.00     0.009 A 
ATOM     61  C   UNL A   1      49.303  27.645  28.184  1.00  0.00     0.009 A 
ATOM     62  C   UNL A   1      50.368  26.415  30.452  1.00  0.00     0.001 A 
ATOM     63  C   UNL A   1      50.659  27.316  28.230  1.00  0.00     0.001 A 
ATOM     64  C   UNL A   1      51.193  26.713  29.369  1.00  0.00     0.000 A 
ENDBRANCH  45  59
BRANCH  46  65
ATOM     65  C   UNL A   1      38.666  29.274  28.892  1.00  0.00    -0.014 A 
ATOM     66  C   UNL A   1      38.100  29.767  27.706  1.00  0.00     0.009 A 
ATOM     67  C   UNL A   1      37.837  29.067  30.006  1.00  0.00     0.009 A 
ATOM     68  C   UNL A   1      36.736  30.069  27.644  1.00  0.00     0.001 A 
ATOM     69  C   UNL A   1      36.471  29.344  29.932  1.00  0.00     0.001 A 
ATOM     70  C   UNL A   1      35.923  29.852  28.755  1.00  0.00     0.000 A 
ENDBRANCH  46  65
BRANCH  58  71
ATOM     71  C   UNL A   1      44.206  32.916  31.015  1.00  0.00    -0.014 A 
ATOM     72  C   UNL A   1      44.280  34.032  30.167  1.00  0.00     0.009 A 
ATOM     73  C   UNL A   1      44.215  33.114  32.405  1.00  0.00     0.009 A 
ATOM     74  C   UNL A   1      44.385  35.317  30.703  1.00  0.00     0.001 A 
ATOM     75  C   UNL A   1      44.292  34.400  32.937  1.00  0.00     0.001 A 
ATOM     76  C   UNL A   1      44.384  35.501  32.086  1.00  0.00     0.000 A 
ENDBRANCH  58  71
ENDBRANCH  32  33
ENDBRANCH  24  27
ENDBRANCH  22  23
ENDBRANCH  21  22
ENDBRANCH  20  21
ENDBRANCH   1  20
TORSDOF 16
ENDMDL
