MODEL 1
REMARK VINA RESULT:     -12.6      0.000      0.000
REMARK SMILES Cc1ccc(-c2cc(Cl)cc3c2O[C@H](C(F)(F)F)C(C(=O)NCCCCCCNC(=O)c2ccc(-c4c5nc(c(-c6ccccc6)c6ccc([nH]6)c(-c6ccccc6)c6nc(c(-c7ccccc7)c7ccc4[nH]7)C=C6)C=C5)cc2)=C3)cc1F
REMARK SMILES IDX 26 1 25 2 24 3 23 4 22 5 20 6 21 7 19 9 6 10 7 11 12 12 8 13
REMARK SMILES IDX 11 14 13 15 9 16 10 17 80 18 14 19 5 20 1 21 2 22 3 23 82 24
REMARK SMILES IDX 4 25 81 26 83 27 15 28 16 29 17 30 18 31 27 32 28 33 29 34
REMARK SMILES IDX 30 35 31 37 32 38 33 39 79 40 34 41 78 42 35 43 36 44 37 45
REMARK SMILES IDX 72 46 38 47 77 48 71 49 73 50 39 51 76 52 70 53 69 54 40 56
REMARK SMILES IDX 62 57 47 58 61 59 48 60 51 61 60 62 74 63 49 64 50 65 59 67
REMARK SMILES IDX 75 68 52 69 41 70 42 71 46 72 43 73 45 74 44 75 63 76 64 77
REMARK SMILES IDX 68 78 65 79 67 80 66 81 53 82 54 83 58 84 55 85 57 86 56 87
REMARK H PARENT 22 8 29 36 73 55 51 66
REMARK Flexibility Score: inf
ROOT
ATOM      1  C   UNL A   1      35.482  20.515  25.008  1.00  0.00     0.002 C 
ENDROOT
BRANCH   1   2
ATOM      2  C   UNL A   1      34.032  20.181  24.626  1.00  0.00     0.002 C 
BRANCH   2   3
ATOM      3  C   UNL A   1      32.969  20.586  25.653  1.00  0.00     0.021 C 
BRANCH   3   4
ATOM      4  C   UNL A   1      31.878  21.497  25.093  1.00  0.00     0.116 C 
BRANCH   4   5
ATOM      5  N   UNL A   1      30.885  21.837  26.099  1.00  0.00    -0.352 N 
ATOM      6  C   UNL A   1      30.353  22.960  26.636  1.00  0.00     0.251 C 
ATOM      7  O   UNL A   1      29.471  22.769  27.480  1.00  0.00    -0.270 OA
ATOM      8  H   UNL A   1      30.491  21.028  26.499  1.00  0.00     0.163 HD
BRANCH   6   9
ATOM      9  C   UNL A   1      30.746  24.358  26.289  1.00  0.00     0.067 C 
ATOM     10  C   UNL A   1      31.645  28.370  25.348  1.00  0.00     0.026 A 
ATOM     11  C   UNL A   1      30.981  28.977  24.273  1.00  0.00     0.033 A 
ATOM     12  C   UNL A   1      31.289  27.048  25.683  1.00  0.00     0.135 A 
ATOM     13  C   UNL A   1      30.003  28.278  23.564  1.00  0.00     0.042 A 
ATOM     14  C   UNL A   1      30.316  26.341  24.969  1.00  0.00     0.019 A 
ATOM     15  O   UNL A   1      31.887  26.506  26.789  1.00  0.00    -0.475 OA
ATOM     16  Cl  UNL A   1      29.192  29.048  22.254  1.00  0.00    -0.084 Cl
ATOM     17  C   UNL A   1      29.668  26.966  23.902  1.00  0.00     0.032 A 
ATOM     18  C   UNL A   1      29.975  24.982  25.377  1.00  0.00     0.025 C 
ATOM     19  C   UNL A   1      31.935  25.064  26.871  1.00  0.00     0.314 C 
BRANCH  10  20
ATOM     20  C   UNL A   1      32.689  29.082  26.103  1.00  0.00    -0.012 A 
ATOM     21  C   UNL A   1      35.836  31.374  27.992  1.00  0.00     0.047 C 
ATOM     22  C   UNL A   1      34.750  30.553  27.366  1.00  0.00    -0.015 A 
ATOM     23  C   UNL A   1      34.994  29.264  26.881  1.00  0.00     0.007 A 
ATOM     24  C   UNL A   1      33.467  31.083  27.235  1.00  0.00     0.126 A 
ATOM     25  C   UNL A   1      33.973  28.535  26.259  1.00  0.00     0.009 A 
ATOM     26  C   UNL A   1      32.446  30.363  26.621  1.00  0.00     0.048 A 
ATOM     27  F   UNL A   1      33.206  32.319  27.684  1.00  0.00    -0.207 F 
ENDBRANCH  10  20
BRANCH  19  28
ATOM     28  C   UNL A   1      33.273  24.566  26.296  1.00  0.00     0.429 C 
ATOM     29  F   UNL A   1      33.118  24.170  25.009  1.00  0.00    -0.167 F 
ATOM     30  F   UNL A   1      34.226  25.527  26.287  1.00  0.00    -0.167 F 
ATOM     31  F   UNL A   1      33.775  23.517  26.985  1.00  0.00    -0.167 F 
ENDBRANCH  19  28
ENDBRANCH   6   9
ENDBRANCH   4   5
ENDBRANCH   3   4
ENDBRANCH   2   3
ENDBRANCH   1   2
BRANCH   1  32
ATOM     32  C   UNL A   1      35.873  21.991  24.908  1.00  0.00     0.021 C 
BRANCH  32  33
ATOM     33  C   UNL A   1      37.374  22.258  24.871  1.00  0.00     0.116 C 
BRANCH  33  34
ATOM     34  N   UNL A   1      38.145  21.201  25.505  1.00  0.00    -0.352 N 
ATOM     35  C   UNL A   1      39.263  21.297  26.297  1.00  0.00     0.251 C 
ATOM     36  H   UNL A   1      37.820  20.287  25.343  1.00  0.00     0.163 HD
ATOM     37  O   UNL A   1      39.877  20.287  26.631  1.00  0.00    -0.269 OA
BRANCH  35  38
ATOM     38  C   UNL A   1      39.748  22.628  26.718  1.00  0.00     0.039 A 
ATOM     39  C   UNL A   1      39.167  23.792  26.207  1.00  0.00     0.014 A 
ATOM     40  C   UNL A   1      40.816  22.709  27.614  1.00  0.00     0.014 A 
ATOM     41  C   UNL A   1      39.757  25.025  26.466  1.00  0.00     0.010 A 
ATOM     42  C   UNL A   1      41.360  23.956  27.933  1.00  0.00     0.010 A 
ATOM     43  C   UNL A   1      40.867  25.120  27.322  1.00  0.00    -0.014 A 
BRANCH  43  44
ATOM     44  C   UNL A   1      41.517  26.437  27.547  1.00  0.00     0.031 A 
ATOM     45  C   UNL A   1      40.893  27.443  28.478  1.00  0.00     0.074 A 
ATOM     46  C   UNL A   1      42.699  26.704  26.960  1.00  0.00     0.049 A 
ATOM     47  N   UNL A   1      41.310  28.645  28.788  1.00  0.00    -0.248 NA
ATOM     48  C   UNL A   1      39.644  27.053  29.153  1.00  0.00     0.031 C 
ATOM     49  C   UNL A   1      43.430  25.791  26.077  1.00  0.00     0.029 A 
ATOM     50  N   UNL A   1      43.511  27.808  27.039  1.00  0.00    -0.354 N 
ATOM     51  C   UNL A   1      40.372  29.156  29.676  1.00  0.00     0.074 A 
ATOM     52  C   UNL A   1      39.350  28.148  29.842  1.00  0.00     0.031 C 
ATOM     53  C   UNL A   1      44.605  26.347  25.746  1.00  0.00     0.029 A 
ATOM     54  C   UNL A   1      44.682  27.683  26.331  1.00  0.00     0.049 A 
ATOM     55  H   UNL A   1      43.276  28.614  27.555  1.00  0.00     0.167 HD
ATOM     56  C   UNL A   1      40.371  30.354  30.305  1.00  0.00     0.031 A 
ATOM     57  C   UNL A   1      45.700  28.547  26.160  1.00  0.00     0.031 A 
ATOM     58  C   UNL A   1      41.397  31.350  30.155  1.00  0.00     0.049 A 
ATOM     59  C   UNL A   1      45.630  29.901  26.808  1.00  0.00     0.074 A 
ATOM     60  C   UNL A   1      41.475  32.597  30.752  1.00  0.00     0.029 A 
ATOM     61  N   UNL A   1      42.526  31.212  29.365  1.00  0.00    -0.354 N 
ATOM     62  N   UNL A   1      44.724  30.375  27.628  1.00  0.00    -0.248 NA
ATOM     63  C   UNL A   1      46.717  30.842  26.502  1.00  0.00     0.031 C 
ATOM     64  C   UNL A   1      42.627  33.232  30.286  1.00  0.00     0.029 A 
ATOM     65  C   UNL A   1      43.297  32.357  29.447  1.00  0.00     0.049 A 
ATOM     66  H   UNL A   1      42.747  30.418  28.827  1.00  0.00     0.167 HD
ATOM     67  C   UNL A   1      45.145  31.657  27.955  1.00  0.00     0.074 A 
ATOM     68  C   UNL A   1      46.392  31.884  27.257  1.00  0.00     0.031 C 
ATOM     69  C   UNL A   1      44.546  32.565  28.763  1.00  0.00     0.031 A 
BRANCH  56  70
ATOM     70  C   UNL A   1      39.227  30.680  31.222  1.00  0.00    -0.014 A 
ATOM     71  C   UNL A   1      39.248  30.226  32.551  1.00  0.00     0.009 A 
ATOM     72  C   UNL A   1      38.074  31.317  30.739  1.00  0.00     0.009 A 
ATOM     73  C   UNL A   1      38.130  30.382  33.371  1.00  0.00     0.001 A 
ATOM     74  C   UNL A   1      36.965  31.492  31.570  1.00  0.00     0.001 A 
ATOM     75  C   UNL A   1      36.989  31.015  32.880  1.00  0.00     0.000 A 
ENDBRANCH  56  70
BRANCH  57  76
ATOM     76  C   UNL A   1      46.875  28.156  25.338  1.00  0.00    -0.014 A 
ATOM     77  C   UNL A   1      46.788  28.103  23.936  1.00  0.00     0.009 A 
ATOM     78  C   UNL A   1      48.090  27.817  25.952  1.00  0.00     0.009 A 
ATOM     79  C   UNL A   1      47.884  27.700  23.171  1.00  0.00     0.001 A 
ATOM     80  C   UNL A   1      49.194  27.445  25.182  1.00  0.00     0.001 A 
ATOM     81  C   UNL A   1      49.088  27.378  23.794  1.00  0.00     0.000 A 
ENDBRANCH  57  76
BRANCH  69  82
ATOM     82  C   UNL A   1      45.234  33.881  28.979  1.00  0.00    -0.014 A 
ATOM     83  C   UNL A   1      44.992  34.943  28.094  1.00  0.00     0.009 A 
ATOM     84  C   UNL A   1      46.207  34.033  29.978  1.00  0.00     0.009 A 
ATOM     85  C   UNL A   1      45.722  36.127  28.192  1.00  0.00     0.001 A 
ATOM     86  C   UNL A   1      46.917  35.229  30.091  1.00  0.00     0.001 A 
ATOM     87  C   UNL A   1      46.682  36.270  29.191  1.00  0.00     0.000 A 
ENDBRANCH  69  82
ENDBRANCH  43  44
ENDBRANCH  35  38
ENDBRANCH  33  34
ENDBRANCH  32  33
ENDBRANCH   1  32
TORSDOF 15
ENDMDL
MODEL 2
REMARK VINA RESULT:     -12.5      3.931      7.810
REMARK SMILES Cc1ccc(-c2cc(Cl)cc3c2O[C@H](C(F)(F)F)C(C(=O)NCCCCCCNC(=O)c2ccc(-c4c5nc(c(-c6ccccc6)c6ccc([nH]6)c(-c6ccccc6)c6nc(c(-c7ccccc7)c7ccc4[nH]7)C=C6)C=C5)cc2)=C3)cc1F
REMARK SMILES IDX 26 1 25 2 24 3 23 4 22 5 20 6 21 7 19 9 6 10 7 11 12 12 8 13
REMARK SMILES IDX 11 14 13 15 9 16 10 17 80 18 14 19 5 20 1 21 2 22 3 23 82 24
REMARK SMILES IDX 4 25 81 26 83 27 15 28 16 29 17 30 18 31 27 32 28 33 29 34
REMARK SMILES IDX 30 35 31 37 32 38 33 39 79 40 34 41 78 42 35 43 36 44 37 45
REMARK SMILES IDX 72 46 38 47 77 48 71 49 73 50 39 51 76 52 70 53 69 54 40 56
REMARK SMILES IDX 62 57 47 58 61 59 48 60 51 61 60 62 74 63 49 64 50 65 59 67
REMARK SMILES IDX 75 68 52 69 41 70 42 71 46 72 43 73 45 74 44 75 63 76 64 77
REMARK SMILES IDX 68 78 65 79 67 80 66 81 53 82 54 83 58 84 55 85 57 86 56 87
REMARK H PARENT 22 8 29 36 73 55 51 66
REMARK Flexibility Score: inf
ROOT
ATOM      1  C   UNL A   1      31.391  30.008  25.193  1.00  0.00     0.002 C 
ENDROOT
BRANCH   1   2
ATOM      2  C   UNL A   1      31.680  28.618  24.609  1.00  0.00     0.002 C 
BRANCH   2   3
ATOM      3  C   UNL A   1      31.192  27.433  25.450  1.00  0.00     0.021 C 
BRANCH   3   4
ATOM      4  C   UNL A   1      30.682  26.254  24.625  1.00  0.00     0.116 C 
BRANCH   4   5
ATOM      5  N   UNL A   1      31.272  26.224  23.296  1.00  0.00    -0.352 N 
ATOM      6  C   UNL A   1      32.178  25.476  22.623  1.00  0.00     0.251 C 
ATOM      7  O   UNL A   1      32.359  25.806  21.447  1.00  0.00    -0.270 OA
ATOM      8  H   UNL A   1      30.916  26.947  22.732  1.00  0.00     0.163 HD
BRANCH   6   9
ATOM      9  C   UNL A   1      32.943  24.324  23.188  1.00  0.00     0.067 C 
ATOM     10  C   UNL A   1      35.058  20.956  24.592  1.00  0.00     0.026 A 
ATOM     11  C   UNL A   1      34.372  19.744  24.749  1.00  0.00     0.033 A 
ATOM     12  C   UNL A   1      34.347  22.054  24.067  1.00  0.00     0.135 A 
ATOM     13  C   UNL A   1      33.025  19.645  24.395  1.00  0.00     0.042 A 
ATOM     14  C   UNL A   1      32.996  21.962  23.719  1.00  0.00     0.019 A 
ATOM     15  O   UNL A   1      35.059  23.202  23.840  1.00  0.00    -0.475 OA
ATOM     16  Cl  UNL A   1      32.204  18.143  24.586  1.00  0.00    -0.084 Cl
ATOM     17  C   UNL A   1      32.332  20.746  23.885  1.00  0.00     0.032 A 
ATOM     18  C   UNL A   1      32.319  23.129  23.160  1.00  0.00     0.025 C 
ATOM     19  C   UNL A   1      34.313  24.438  23.786  1.00  0.00     0.314 C 
BRANCH  10  20
ATOM     20  C   UNL A   1      36.474  21.088  24.969  1.00  0.00    -0.012 A 
ATOM     21  C   UNL A   1      40.540  21.328  26.432  1.00  0.00     0.047 C 
ATOM     22  C   UNL A   1      39.141  21.272  25.898  1.00  0.00    -0.015 A 
ATOM     23  C   UNL A   1      38.307  22.394  25.913  1.00  0.00     0.007 A 
ATOM     24  C   UNL A   1      38.637  20.073  25.395  1.00  0.00     0.126 A 
ATOM     25  C   UNL A   1      36.988  22.303  25.450  1.00  0.00     0.009 A 
ATOM     26  C   UNL A   1      37.329  19.976  24.930  1.00  0.00     0.048 A 
ATOM     27  F   UNL A   1      39.413  18.979  25.376  1.00  0.00    -0.207 F 
ENDBRANCH  10  20
BRANCH  19  28
ATOM     28  C   UNL A   1      34.310  25.093  25.178  1.00  0.00     0.429 C 
ATOM     29  F   UNL A   1      34.205  26.441  25.069  1.00  0.00    -0.167 F 
ATOM     30  F   UNL A   1      33.268  24.690  25.942  1.00  0.00    -0.167 F 
ATOM     31  F   UNL A   1      35.438  24.831  25.877  1.00  0.00    -0.167 F 
ENDBRANCH  19  28
ENDBRANCH   6   9
ENDBRANCH   4   5
ENDBRANCH   3   4
ENDBRANCH   2   3
ENDBRANCH   1   2
BRANCH   1  32
ATOM     32  C   UNL A   1      31.763  30.202  26.665  1.00  0.00     0.021 C 
BRANCH  32  33
ATOM     33  C   UNL A   1      32.918  31.167  26.915  1.00  0.00     0.116 C 
BRANCH  33  34
ATOM     34  N   UNL A   1      32.464  32.513  27.225  1.00  0.00    -0.352 N 
ATOM     35  C   UNL A   1      33.040  33.458  28.038  1.00  0.00     0.251 C 
ATOM     36  H   UNL A   1      31.625  32.787  26.789  1.00  0.00     0.163 HD
ATOM     37  O   UNL A   1      32.442  34.497  28.304  1.00  0.00    -0.269 OA
BRANCH  35  38
ATOM     38  C   UNL A   1      34.372  33.201  28.626  1.00  0.00     0.039 A 
ATOM     39  C   UNL A   1      35.531  33.632  27.977  1.00  0.00     0.014 A 
ATOM     40  C   UNL A   1      34.458  32.496  29.829  1.00  0.00     0.014 A 
ATOM     41  C   UNL A   1      36.775  33.219  28.446  1.00  0.00     0.010 A 
ATOM     42  C   UNL A   1      35.711  32.146  30.338  1.00  0.00     0.010 A 
ATOM     43  C   UNL A   1      36.878  32.462  29.624  1.00  0.00    -0.014 A 
BRANCH  43  44
ATOM     44  C   UNL A   1      38.208  31.984  30.082  1.00  0.00     0.031 A 
ATOM     45  C   UNL A   1      38.906  32.664  31.231  1.00  0.00     0.074 A 
ATOM     46  C   UNL A   1      38.762  30.901  29.504  1.00  0.00     0.049 A 
ATOM     47  N   UNL A   1      40.073  32.394  31.760  1.00  0.00    -0.248 NA
ATOM     48  C   UNL A   1      38.207  33.790  31.874  1.00  0.00     0.031 C 
ATOM     49  C   UNL A   1      38.161  30.125  28.416  1.00  0.00     0.029 A 
ATOM     50  N   UNL A   1      39.939  30.246  29.767  1.00  0.00    -0.354 N 
ATOM     51  C   UNL A   1      40.252  33.319  32.781  1.00  0.00     0.074 A 
ATOM     52  C   UNL A   1      39.087  34.176  32.787  1.00  0.00     0.031 C 
ATOM     53  C   UNL A   1      38.943  29.068  28.148  1.00  0.00     0.029 A 
ATOM     54  C   UNL A   1      40.134  29.130  28.989  1.00  0.00     0.049 A 
ATOM     55  H   UNL A   1      40.583  30.549  30.449  1.00  0.00     0.167 HD
ATOM     56  C   UNL A   1      41.289  33.436  33.642  1.00  0.00     0.031 A 
ATOM     57  C   UNL A   1      41.160  28.259  28.949  1.00  0.00     0.031 A 
ATOM     58  C   UNL A   1      42.439  32.572  33.648  1.00  0.00     0.049 A 
ATOM     59  C   UNL A   1      42.333  28.463  29.865  1.00  0.00     0.074 A 
ATOM     60  C   UNL A   1      43.541  32.620  34.485  1.00  0.00     0.029 A 
ATOM     61  N   UNL A   1      42.631  31.502  32.791  1.00  0.00    -0.354 N 
ATOM     62  N   UNL A   1      42.494  29.356  30.809  1.00  0.00    -0.248 NA
ATOM     63  C   UNL A   1      43.470  27.544  29.704  1.00  0.00     0.031 C 
ATOM     64  C   UNL A   1      44.423  31.608  34.102  1.00  0.00     0.029 A 
ATOM     65  C   UNL A   1      43.842  30.893  33.067  1.00  0.00     0.049 A 
ATOM     66  H   UNL A   1      42.001  31.218  32.090  1.00  0.00     0.167 HD
ATOM     67  C   UNL A   1      43.736  29.091  31.372  1.00  0.00     0.074 A 
ATOM     68  C   UNL A   1      44.282  27.948  30.673  1.00  0.00     0.031 C 
ATOM     69  C   UNL A   1      44.366  29.744  32.378  1.00  0.00     0.031 A 
BRANCH  56  70
ATOM     70  C   UNL A   1      41.251  34.537  34.664  1.00  0.00    -0.014 A 
ATOM     71  C   UNL A   1      41.844  35.776  34.373  1.00  0.00     0.009 A 
ATOM     72  C   UNL A   1      40.751  34.307  35.954  1.00  0.00     0.009 A 
ATOM     73  C   UNL A   1      41.958  36.756  35.361  1.00  0.00     0.001 A 
ATOM     74  C   UNL A   1      40.846  35.298  36.933  1.00  0.00     0.001 A 
ATOM     75  C   UNL A   1      41.459  36.516  36.640  1.00  0.00     0.000 A 
ENDBRANCH  56  70
BRANCH  57  76
ATOM     76  C   UNL A   1      41.120  27.110  28.005  1.00  0.00    -0.014 A 
ATOM     77  C   UNL A   1      41.574  27.249  26.683  1.00  0.00     0.009 A 
ATOM     78  C   UNL A   1      40.612  25.869  28.418  1.00  0.00     0.009 A 
ATOM     79  C   UNL A   1      41.501  26.178  25.790  1.00  0.00     0.001 A 
ATOM     80  C   UNL A   1      40.570  24.790  27.532  1.00  0.00     0.001 A 
ATOM     81  C   UNL A   1      41.006  24.947  26.218  1.00  0.00     0.000 A 
ENDBRANCH  57  76
BRANCH  69  82
ATOM     82  C   UNL A   1      45.703  29.229  32.826  1.00  0.00    -0.014 A 
ATOM     83  C   UNL A   1      46.870  29.698  32.202  1.00  0.00     0.009 A 
ATOM     84  C   UNL A   1      45.802  28.199  33.773  1.00  0.00     0.009 A 
ATOM     85  C   UNL A   1      48.110  29.135  32.504  1.00  0.00     0.001 A 
ATOM     86  C   UNL A   1      47.047  27.655  34.092  1.00  0.00     0.001 A 
ATOM     87  C   UNL A   1      48.197  28.116  33.450  1.00  0.00     0.000 A 
ENDBRANCH  69  82
ENDBRANCH  43  44
ENDBRANCH  35  38
ENDBRANCH  33  34
ENDBRANCH  32  33
ENDBRANCH   1  32
TORSDOF 15
ENDMDL
MODEL 3
REMARK VINA RESULT:     -12.4      2.066      2.616
REMARK SMILES Cc1ccc(-c2cc(Cl)cc3c2O[C@H](C(F)(F)F)C(C(=O)NCCCCCCNC(=O)c2ccc(-c4c5nc(c(-c6ccccc6)c6ccc([nH]6)c(-c6ccccc6)c6nc(c(-c7ccccc7)c7ccc4[nH]7)C=C6)C=C5)cc2)=C3)cc1F
REMARK SMILES IDX 26 1 25 2 24 3 23 4 22 5 20 6 21 7 19 9 6 10 7 11 12 12 8 13
REMARK SMILES IDX 11 14 13 15 9 16 10 17 80 18 14 19 5 20 1 21 2 22 3 23 82 24
REMARK SMILES IDX 4 25 81 26 83 27 15 28 16 29 17 30 18 31 27 32 28 33 29 34
REMARK SMILES IDX 30 35 31 37 32 38 33 39 79 40 34 41 78 42 35 43 36 44 37 45
REMARK SMILES IDX 72 46 38 47 77 48 71 49 73 50 39 51 76 52 70 53 69 54 40 56
REMARK SMILES IDX 62 57 47 58 61 59 48 60 51 61 60 62 74 63 49 64 50 65 59 67
REMARK SMILES IDX 75 68 52 69 41 70 42 71 46 72 43 73 45 74 44 75 63 76 64 77
REMARK SMILES IDX 68 78 65 79 67 80 66 81 53 82 54 83 58 84 55 85 57 86 56 87
REMARK H PARENT 22 8 29 36 73 55 51 66
REMARK Flexibility Score: inf
ROOT
ATOM      1  C   UNL A   1      36.086  20.539  25.165  1.00  0.00     0.002 C 
ENDROOT
BRANCH   1   2
ATOM      2  C   UNL A   1      35.131  21.724  24.963  1.00  0.00     0.002 C 
BRANCH   2   3
ATOM      3  C   UNL A   1      33.836  21.409  24.208  1.00  0.00     0.021 C 
BRANCH   3   4
ATOM      4  C   UNL A   1      32.899  22.605  24.053  1.00  0.00     0.116 C 
BRANCH   4   5
ATOM      5  N   UNL A   1      31.842  22.599  25.053  1.00  0.00    -0.352 N 
ATOM      6  C   UNL A   1      31.063  23.508  25.685  1.00  0.00     0.251 C 
ATOM      7  O   UNL A   1      30.237  23.032  26.472  1.00  0.00    -0.270 OA
ATOM      8  H   UNL A   1      31.638  21.684  25.351  1.00  0.00     0.163 HD
BRANCH   6   9
ATOM      9  C   UNL A   1      31.133  24.989  25.502  1.00  0.00     0.067 C 
ATOM     10  C   UNL A   1      31.107  29.177  25.009  1.00  0.00     0.026 A 
ATOM     11  C   UNL A   1      30.385  29.728  23.942  1.00  0.00     0.033 A 
ATOM     12  C   UNL A   1      31.056  27.780  25.191  1.00  0.00     0.135 A 
ATOM     13  C   UNL A   1      29.646  28.903  23.090  1.00  0.00     0.042 A 
ATOM     14  C   UNL A   1      30.324  26.950  24.335  1.00  0.00     0.019 A 
ATOM     15  O   UNL A   1      31.696  27.274  26.290  1.00  0.00    -0.475 OA
ATOM     16  Cl  UNL A   1      28.758  29.603  21.791  1.00  0.00    -0.084 Cl
ATOM     17  C   UNL A   1      29.614  27.520  23.278  1.00  0.00     0.032 A 
ATOM     18  C   UNL A   1      30.292  25.512  24.587  1.00  0.00     0.025 C 
ATOM     19  C   UNL A   1      32.081  25.882  26.244  1.00  0.00     0.314 C 
BRANCH  10  20
ATOM     20  C   UNL A   1      31.903  30.024  25.912  1.00  0.00    -0.012 A 
ATOM     21  C   UNL A   1      34.379  32.697  28.246  1.00  0.00     0.047 C 
ATOM     22  C   UNL A   1      33.521  31.747  27.468  1.00  0.00    -0.015 A 
ATOM     23  C   UNL A   1      33.957  30.455  27.157  1.00  0.00     0.007 A 
ATOM     24  C   UNL A   1      32.266  32.155  27.016  1.00  0.00     0.126 A 
ATOM     25  C   UNL A   1      33.154  29.602  26.389  1.00  0.00     0.009 A 
ATOM     26  C   UNL A   1      31.462  31.311  26.256  1.00  0.00     0.048 A 
ATOM     27  F   UNL A   1      31.826  33.391  27.293  1.00  0.00    -0.207 F 
ENDBRANCH  10  20
BRANCH  19  28
ATOM     28  C   UNL A   1      33.531  25.772  25.743  1.00  0.00     0.429 C 
ATOM     29  F   UNL A   1      34.098  24.619  26.179  1.00  0.00    -0.167 F 
ATOM     30  F   UNL A   1      33.616  25.751  24.392  1.00  0.00    -0.167 F 
ATOM     31  F   UNL A   1      34.308  26.791  26.174  1.00  0.00    -0.167 F 
ENDBRANCH  19  28
ENDBRANCH   6   9
ENDBRANCH   4   5
ENDBRANCH   3   4
ENDBRANCH   2   3
ENDBRANCH   1   2
BRANCH   1  32
ATOM     32  C   UNL A   1      37.516  20.742  24.657  1.00  0.00     0.021 C 
BRANCH  32  33
ATOM     33  C   UNL A   1      38.576  20.854  25.747  1.00  0.00     0.116 C 
BRANCH  33  34
ATOM     34  N   UNL A   1      39.506  19.737  25.739  1.00  0.00    -0.352 N 
ATOM     35  C   UNL A   1      40.850  19.724  26.018  1.00  0.00     0.251 C 
ATOM     36  H   UNL A   1      39.116  18.865  25.502  1.00  0.00     0.163 HD
ATOM     37  O   UNL A   1      41.517  18.712  25.820  1.00  0.00    -0.269 OA
BRANCH  35  38
ATOM     38  C   UNL A   1      41.503  20.950  26.524  1.00  0.00     0.039 A 
ATOM     39  C   UNL A   1      41.578  21.202  27.896  1.00  0.00     0.014 A 
ATOM     40  C   UNL A   1      42.021  21.870  25.609  1.00  0.00     0.014 A 
ATOM     41  C   UNL A   1      42.024  22.442  28.344  1.00  0.00     0.010 A 
ATOM     42  C   UNL A   1      42.537  23.085  26.067  1.00  0.00     0.010 A 
ATOM     43  C   UNL A   1      42.497  23.402  27.434  1.00  0.00    -0.014 A 
BRANCH  43  44
ATOM     44  C   UNL A   1      42.919  24.739  27.923  1.00  0.00     0.031 A 
ATOM     45  C   UNL A   1      41.888  25.760  28.328  1.00  0.00     0.074 A 
ATOM     46  C   UNL A   1      44.230  25.015  28.059  1.00  0.00     0.049 A 
ATOM     47  N   UNL A   1      42.068  26.980  28.767  1.00  0.00    -0.248 NA
ATOM     48  C   UNL A   1      40.473  25.364  28.234  1.00  0.00     0.031 C 
ATOM     49  C   UNL A   1      45.324  24.091  27.749  1.00  0.00     0.029 A 
ATOM     50  N   UNL A   1      44.867  26.139  28.522  1.00  0.00    -0.354 N 
ATOM     51  C   UNL A   1      40.798  27.498  28.986  1.00  0.00     0.074 A 
ATOM     52  C   UNL A   1      39.850  26.473  28.611  1.00  0.00     0.031 C 
ATOM     53  C   UNL A   1      46.490  24.663  28.085  1.00  0.00     0.029 A 
ATOM     54  C   UNL A   1      46.236  26.017  28.566  1.00  0.00     0.049 A 
ATOM     55  H   UNL A   1      44.389  26.955  28.797  1.00  0.00     0.167 HD
ATOM     56  C   UNL A   1      40.454  28.715  29.467  1.00  0.00     0.031 A 
ATOM     57  C   UNL A   1      47.182  26.899  28.940  1.00  0.00     0.031 A 
ATOM     58  C   UNL A   1      41.396  29.729  29.857  1.00  0.00     0.049 A 
ATOM     59  C   UNL A   1      46.770  28.271  29.394  1.00  0.00     0.074 A 
ATOM     60  C   UNL A   1      41.136  30.996  30.352  1.00  0.00     0.029 A 
ATOM     61  N   UNL A   1      42.773  29.591  29.810  1.00  0.00    -0.354 N 
ATOM     62  N   UNL A   1      45.563  28.750  29.573  1.00  0.00    -0.248 NA
ATOM     63  C   UNL A   1      47.848  29.226  29.688  1.00  0.00     0.031 C 
ATOM     64  C   UNL A   1      42.355  31.642  30.560  1.00  0.00     0.029 A 
ATOM     65  C   UNL A   1      43.375  30.756  30.252  1.00  0.00     0.049 A 
ATOM     66  H   UNL A   1      43.252  28.786  29.509  1.00  0.00     0.167 HD
ATOM     67  C   UNL A   1      45.738  30.051  30.027  1.00  0.00     0.074 A 
ATOM     68  C   UNL A   1      47.164  30.284  30.106  1.00  0.00     0.031 C 
ATOM     69  C   UNL A   1      44.795  30.970  30.345  1.00  0.00     0.031 A 
BRANCH  56  70
ATOM     70  C   UNL A   1      38.995  29.044  29.605  1.00  0.00    -0.014 A 
ATOM     71  C   UNL A   1      38.329  29.708  28.562  1.00  0.00     0.009 A 
ATOM     72  C   UNL A   1      38.316  28.819  30.812  1.00  0.00     0.009 A 
ATOM     73  C   UNL A   1      37.020  30.161  28.732  1.00  0.00     0.001 A 
ATOM     74  C   UNL A   1      36.997  29.253  30.970  1.00  0.00     0.001 A 
ATOM     75  C   UNL A   1      36.355  29.933  29.936  1.00  0.00     0.000 A 
ENDBRANCH  56  70
BRANCH  57  76
ATOM     76  C   UNL A   1      48.617  26.509  28.901  1.00  0.00    -0.014 A 
ATOM     77  C   UNL A   1      49.391  26.727  27.749  1.00  0.00     0.009 A 
ATOM     78  C   UNL A   1      49.217  25.899  30.013  1.00  0.00     0.009 A 
ATOM     79  C   UNL A   1      50.727  26.326  27.704  1.00  0.00     0.001 A 
ATOM     80  C   UNL A   1      50.563  25.528  29.977  1.00  0.00     0.001 A 
ATOM     81  C   UNL A   1      51.314  25.733  28.821  1.00  0.00     0.000 A 
ENDBRANCH  57  76
BRANCH  69  82
ATOM     82  C   UNL A   1      45.253  32.307  30.848  1.00  0.00    -0.014 A 
ATOM     83  C   UNL A   1      45.538  33.332  29.931  1.00  0.00     0.009 A 
ATOM     84  C   UNL A   1      45.519  32.516  32.209  1.00  0.00     0.009 A 
ATOM     85  C   UNL A   1      46.096  34.534  30.364  1.00  0.00     0.001 A 
ATOM     86  C   UNL A   1      46.052  33.731  32.643  1.00  0.00     0.001 A 
ATOM     87  C   UNL A   1      46.351  34.734  31.719  1.00  0.00     0.000 A 
ENDBRANCH  69  82
ENDBRANCH  43  44
ENDBRANCH  35  38
ENDBRANCH  33  34
ENDBRANCH  32  33
ENDBRANCH   1  32
TORSDOF 15
ENDMDL
