MODEL 1
REMARK VINA RESULT:     -11.2      0.000      0.000
REMARK SMILES CC(C)CS(=O)(=O)Cc1c(C(=O)NCCCCCCNC(=O)c2ccc(-c3c4nc(c(-c5ccccc5)c5ccc([nH]5)c(-c5ccccc5)c5nc(c(-c6ccccc6)c6ccc3[nH]6)C=C5)C=C4)cc2)oc2ccccc12
REMARK SMILES IDX 15 1 14 2 13 3 11 4 12 5 10 7 9 8 77 9 71 10 72 11 76 12
REMARK SMILES IDX 73 13 75 14 74 15 8 16 5 17 6 18 7 19 4 20 2 21 1 22 3 23
REMARK SMILES IDX 16 24 17 25 18 26 19 27 20 28 21 29 22 31 23 32 24 33 70 34
REMARK SMILES IDX 25 35 69 36 26 37 27 38 28 39 63 40 29 41 68 42 62 43 64 44
REMARK SMILES IDX 30 45 67 46 61 47 60 48 31 50 53 51 38 52 52 53 39 54 42 55
REMARK SMILES IDX 51 56 65 57 40 58 41 59 50 61 66 62 43 63 32 64 33 65 37 66
REMARK SMILES IDX 34 67 36 68 35 69 54 70 55 71 59 72 56 73 58 74 57 75 44 76
REMARK SMILES IDX 45 77 49 78 46 79 48 80 47 81
REMARK H PARENT 13 6 20 30 64 49 42 60
REMARK Flexibility Score: inf
ROOT
ATOM      1  C   UNL A   1      31.782  28.218  27.399  1.00  0.00     0.021 C 
ENDROOT
BRANCH   1   2
ATOM      2  C   UNL A   1      32.198  27.051  26.507  1.00  0.00     0.116 C 
BRANCH   2   3
ATOM      3  N   UNL A   1      31.514  25.831  26.898  1.00  0.00    -0.349 N 
ATOM      4  C   UNL A   1      31.741  24.509  26.606  1.00  0.00     0.287 C 
ATOM      5  O   UNL A   1      30.877  23.725  27.015  1.00  0.00    -0.266 OA
ATOM      6  H   UNL A   1      30.738  25.981  27.485  1.00  0.00     0.163 HD
BRANCH   4   7
ATOM      7  C   UNL A   1      32.910  24.075  25.853  1.00  0.00     0.196 A 
ATOM      8  C   UNL A   1      33.198  24.080  24.478  1.00  0.00     0.027 A 
ATOM      9  C   UNL A   1      34.568  23.616  24.378  1.00  0.00     0.025 A 
ATOM     10  O   UNL A   1      33.979  23.592  26.535  1.00  0.00    -0.451 OA
ATOM     11  C   UNL A   1      34.976  23.340  25.674  1.00  0.00     0.135 A 
ATOM     12  C   UNL A   1      35.550  23.423  23.387  1.00  0.00     0.012 A 
ATOM     13  C   UNL A   1      36.240  22.894  26.057  1.00  0.00     0.048 A 
ATOM     14  C   UNL A   1      36.827  22.941  23.720  1.00  0.00     0.001 A 
ATOM     15  C   UNL A   1      37.168  22.687  25.041  1.00  0.00     0.004 A 
BRANCH   8  16
ATOM     16  C   UNL A   1      32.268  24.637  23.433  1.00  0.00     0.177 C 
BRANCH  16  17
ATOM     17  S   UNL A   1      32.702  26.098  22.494  1.00  0.00     0.154 S 
ATOM     18  O   UNL A   1      33.221  25.648  21.213  1.00  0.00    -0.228 OA
ATOM     19  O   UNL A   1      33.531  26.941  23.340  1.00  0.00    -0.228 OA
BRANCH  17  20
ATOM     20  C   UNL A   1      31.239  27.035  22.130  1.00  0.00     0.140 C 
BRANCH  20  21
ATOM     21  C   UNL A   1      30.539  27.794  23.271  1.00  0.00    -0.002 C 
ATOM     22  C   UNL A   1      29.893  29.136  22.934  1.00  0.00     0.008 C 
ATOM     23  C   UNL A   1      29.486  26.874  23.905  1.00  0.00     0.008 C 
ENDBRANCH  20  21
ENDBRANCH  17  20
ENDBRANCH  16  17
ENDBRANCH   8  16
ENDBRANCH   4   7
ENDBRANCH   2   3
ENDBRANCH   1   2
BRANCH   1  24
ATOM     24  C   UNL A   1      32.495  29.531  27.062  1.00  0.00     0.002 C 
BRANCH  24  25
ATOM     25  C   UNL A   1      31.739  30.436  26.082  1.00  0.00     0.002 C 
BRANCH  25  26
ATOM     26  C   UNL A   1      31.475  31.856  26.591  1.00  0.00     0.021 C 
BRANCH  26  27
ATOM     27  C   UNL A   1      32.673  32.509  27.268  1.00  0.00     0.116 C 
BRANCH  27  28
ATOM     28  N   UNL A   1      32.428  33.912  27.560  1.00  0.00    -0.352 N 
ATOM     29  C   UNL A   1      33.033  34.725  28.483  1.00  0.00     0.251 C 
ATOM     30  H   UNL A   1      31.728  34.339  27.017  1.00  0.00     0.163 HD
ATOM     31  O   UNL A   1      32.552  35.821  28.755  1.00  0.00    -0.269 OA
BRANCH  29  32
ATOM     32  C   UNL A   1      34.260  34.268  29.167  1.00  0.00     0.039 A 
ATOM     33  C   UNL A   1      34.147  33.639  30.409  1.00  0.00     0.014 A 
ATOM     34  C   UNL A   1      35.515  34.462  28.583  1.00  0.00     0.014 A 
ATOM     35  C   UNL A   1      35.292  33.143  31.035  1.00  0.00     0.010 A 
ATOM     36  C   UNL A   1      36.644  33.904  29.174  1.00  0.00     0.010 A 
ATOM     37  C   UNL A   1      36.543  33.237  30.405  1.00  0.00    -0.014 A 
BRANCH  37  38
ATOM     38  C   UNL A   1      37.755  32.623  31.003  1.00  0.00     0.031 A 
ATOM     39  C   UNL A   1      38.358  31.388  30.394  1.00  0.00     0.074 A 
ATOM     40  C   UNL A   1      38.268  33.138  32.136  1.00  0.00     0.049 A 
ATOM     41  N   UNL A   1      39.365  30.667  30.819  1.00  0.00    -0.248 NA
ATOM     42  C   UNL A   1      37.737  30.885  29.159  1.00  0.00     0.031 C 
ATOM     43  C   UNL A   1      37.756  34.317  32.841  1.00  0.00     0.029 A 
ATOM     44  N   UNL A   1      39.332  32.730  32.902  1.00  0.00    -0.354 N 
ATOM     45  C   UNL A   1      39.489  29.622  29.912  1.00  0.00     0.074 A 
ATOM     46  C   UNL A   1      38.426  29.773  28.943  1.00  0.00     0.031 C 
ATOM     47  C   UNL A   1      38.521  34.550  33.919  1.00  0.00     0.029 A 
ATOM     48  C   UNL A   1      39.541  33.512  34.013  1.00  0.00     0.049 A 
ATOM     49  H   UNL A   1      39.891  31.952  32.677  1.00  0.00     0.167 HD
ATOM     50  C   UNL A   1      40.414  28.633  29.882  1.00  0.00     0.031 A 
ATOM     51  C   UNL A   1      40.443  33.396  35.006  1.00  0.00     0.031 A 
ATOM     52  C   UNL A   1      41.470  28.483  30.848  1.00  0.00     0.049 A 
ATOM     53  C   UNL A   1      41.429  32.261  34.972  1.00  0.00     0.074 A 
ATOM     54  C   UNL A   1      42.486  27.542  30.875  1.00  0.00     0.029 A 
ATOM     55  N   UNL A   1      41.640  29.287  31.965  1.00  0.00    -0.354 N 
ATOM     56  N   UNL A   1      41.575  31.319  34.072  1.00  0.00    -0.248 NA
ATOM     57  C   UNL A   1      42.379  32.180  36.089  1.00  0.00     0.031 C 
ATOM     58  C   UNL A   1      43.231  27.738  32.042  1.00  0.00     0.029 A 
ATOM     59  C   UNL A   1      42.721  28.841  32.707  1.00  0.00     0.049 A 
ATOM     60  H   UNL A   1      41.075  30.059  32.197  1.00  0.00     0.167 HD
ATOM     61  C   UNL A   1      42.647  30.548  34.502  1.00  0.00     0.074 A 
ATOM     62  C   UNL A   1      43.127  31.147  35.729  1.00  0.00     0.031 C 
ATOM     63  C   UNL A   1      43.184  29.442  33.931  1.00  0.00     0.031 A 
BRANCH  50  64
ATOM     64  C   UNL A   1      40.316  27.625  28.770  1.00  0.00    -0.014 A 
ATOM     65  C   UNL A   1      39.567  26.446  28.915  1.00  0.00     0.009 A 
ATOM     66  C   UNL A   1      40.949  27.878  27.541  1.00  0.00     0.009 A 
ATOM     67  C   UNL A   1      39.483  25.526  27.868  1.00  0.00     0.001 A 
ATOM     68  C   UNL A   1      40.836  26.972  26.485  1.00  0.00     0.001 A 
ATOM     69  C   UNL A   1      40.113  25.792  26.652  1.00  0.00     0.000 A 
ENDBRANCH  50  64
BRANCH  51  70
ATOM     70  C   UNL A   1      40.454  34.377  36.123  1.00  0.00    -0.014 A 
ATOM     71  C   UNL A   1      39.708  34.141  37.288  1.00  0.00     0.009 A 
ATOM     72  C   UNL A   1      41.199  35.563  36.025  1.00  0.00     0.009 A 
ATOM     73  C   UNL A   1      39.683  35.084  38.317  1.00  0.00     0.001 A 
ATOM     74  C   UNL A   1      41.199  36.489  37.071  1.00  0.00     0.001 A 
ATOM     75  C   UNL A   1      40.432  36.255  38.209  1.00  0.00     0.000 A 
ENDBRANCH  51  70
BRANCH  63  76
ATOM     76  C   UNL A   1      44.371  28.823  34.618  1.00  0.00    -0.014 A 
ATOM     77  C   UNL A   1      45.681  29.234  34.325  1.00  0.00     0.009 A 
ATOM     78  C   UNL A   1      44.171  27.836  35.596  1.00  0.00     0.009 A 
ATOM     79  C   UNL A   1      46.767  28.645  34.974  1.00  0.00     0.001 A 
ATOM     80  C   UNL A   1      45.257  27.273  36.267  1.00  0.00     0.001 A 
ATOM     81  C   UNL A   1      46.554  27.669  35.949  1.00  0.00     0.000 A 
ENDBRANCH  63  76
ENDBRANCH  37  38
ENDBRANCH  29  32
ENDBRANCH  27  28
ENDBRANCH  26  27
ENDBRANCH  25  26
ENDBRANCH  24  25
ENDBRANCH   1  24
TORSDOF 17
ENDMDL
MODEL 2
REMARK VINA RESULT:     -11.1      4.075      9.140
REMARK SMILES CC(C)CS(=O)(=O)Cc1c(C(=O)NCCCCCCNC(=O)c2ccc(-c3c4nc(c(-c5ccccc5)c5ccc([nH]5)c(-c5ccccc5)c5nc(c(-c6ccccc6)c6ccc3[nH]6)C=C5)C=C4)cc2)oc2ccccc12
REMARK SMILES IDX 15 1 14 2 13 3 11 4 12 5 10 7 9 8 77 9 71 10 72 11 76 12
REMARK SMILES IDX 73 13 75 14 74 15 8 16 5 17 6 18 7 19 4 20 2 21 1 22 3 23
REMARK SMILES IDX 16 24 17 25 18 26 19 27 20 28 21 29 22 31 23 32 24 33 70 34
REMARK SMILES IDX 25 35 69 36 26 37 27 38 28 39 63 40 29 41 68 42 62 43 64 44
REMARK SMILES IDX 30 45 67 46 61 47 60 48 31 50 53 51 38 52 52 53 39 54 42 55
REMARK SMILES IDX 51 56 65 57 40 58 41 59 50 61 66 62 43 63 32 64 33 65 37 66
REMARK SMILES IDX 34 67 36 68 35 69 54 70 55 71 59 72 56 73 58 74 57 75 44 76
REMARK SMILES IDX 45 77 49 78 46 79 48 80 47 81
REMARK H PARENT 13 6 20 30 64 49 42 60
REMARK Flexibility Score: inf
ROOT
ATOM      1  C   UNL A   1      36.919  23.703  24.906  1.00  0.00     0.021 C 
ENDROOT
BRANCH   1   2
ATOM      2  C   UNL A   1      35.394  23.750  24.954  1.00  0.00     0.116 C 
BRANCH   2   3
ATOM      3  N   UNL A   1      34.847  24.131  23.664  1.00  0.00    -0.349 N 
ATOM      4  C   UNL A   1      33.898  25.054  23.298  1.00  0.00     0.287 C 
ATOM      5  O   UNL A   1      33.580  25.034  22.104  1.00  0.00    -0.266 OA
ATOM      6  H   UNL A   1      35.230  23.633  22.907  1.00  0.00     0.163 HD
BRANCH   4   7
ATOM      7  C   UNL A   1      33.304  25.972  24.260  1.00  0.00     0.196 A 
ATOM      8  C   UNL A   1      32.149  25.884  25.055  1.00  0.00     0.027 A 
ATOM      9  C   UNL A   1      32.165  27.079  25.876  1.00  0.00     0.025 A 
ATOM     10  O   UNL A   1      33.940  27.143  24.518  1.00  0.00    -0.451 OA
ATOM     11  C   UNL A   1      33.288  27.795  25.492  1.00  0.00     0.135 A 
ATOM     12  C   UNL A   1      31.418  27.652  26.924  1.00  0.00     0.012 A 
ATOM     13  C   UNL A   1      33.716  29.003  26.040  1.00  0.00     0.048 A 
ATOM     14  C   UNL A   1      31.790  28.886  27.485  1.00  0.00     0.001 A 
ATOM     15  C   UNL A   1      32.931  29.548  27.051  1.00  0.00     0.004 A 
BRANCH   8  16
ATOM     16  C   UNL A   1      31.252  24.675  25.093  1.00  0.00     0.177 C 
BRANCH  16  17
ATOM     17  S   UNL A   1      31.438  23.425  26.359  1.00  0.00     0.154 S 
ATOM     18  O   UNL A   1      30.278  23.520  27.231  1.00  0.00    -0.228 OA
ATOM     19  O   UNL A   1      32.768  23.562  26.929  1.00  0.00    -0.228 OA
BRANCH  17  20
ATOM     20  C   UNL A   1      31.369  21.810  25.626  1.00  0.00     0.140 C 
BRANCH  20  21
ATOM     21  C   UNL A   1      32.642  21.231  24.984  1.00  0.00    -0.002 C 
ATOM     22  C   UNL A   1      32.999  19.781  25.308  1.00  0.00     0.008 C 
ATOM     23  C   UNL A   1      32.548  21.397  23.460  1.00  0.00     0.008 C 
ENDBRANCH  20  21
ENDBRANCH  17  20
ENDBRANCH  16  17
ENDBRANCH   8  16
ENDBRANCH   4   7
ENDBRANCH   2   3
ENDBRANCH   1   2
BRANCH   1  24
ATOM     24  C   UNL A   1      37.510  22.402  25.458  1.00  0.00     0.002 C 
BRANCH  24  25
ATOM     25  C   UNL A   1      37.265  21.167  24.585  1.00  0.00     0.002 C 
BRANCH  25  26
ATOM     26  C   UNL A   1      38.133  19.953  24.928  1.00  0.00     0.021 C 
BRANCH  26  27
ATOM     27  C   UNL A   1      39.143  20.203  26.041  1.00  0.00     0.116 C 
BRANCH  27  28
ATOM     28  N   UNL A   1      40.272  19.291  25.960  1.00  0.00    -0.352 N 
ATOM     29  C   UNL A   1      41.612  19.557  26.066  1.00  0.00     0.251 C 
ATOM     30  H   UNL A   1      40.040  18.347  25.808  1.00  0.00     0.163 HD
ATOM     31  O   UNL A   1      42.440  18.708  25.749  1.00  0.00    -0.269 OA
BRANCH  29  32
ATOM     32  C   UNL A   1      42.059  20.880  26.546  1.00  0.00     0.039 A 
ATOM     33  C   UNL A   1      42.445  21.843  25.612  1.00  0.00     0.014 A 
ATOM     34  C   UNL A   1      42.098  21.166  27.914  1.00  0.00     0.014 A 
ATOM     35  C   UNL A   1      42.806  23.119  26.047  1.00  0.00     0.010 A 
ATOM     36  C   UNL A   1      42.388  22.458  28.340  1.00  0.00     0.010 A 
ATOM     37  C   UNL A   1      42.743  23.448  27.411  1.00  0.00    -0.014 A 
BRANCH  37  38
ATOM     38  C   UNL A   1      43.018  24.827  27.885  1.00  0.00     0.031 A 
ATOM     39  C   UNL A   1      44.418  25.240  28.245  1.00  0.00     0.074 A 
ATOM     40  C   UNL A   1      41.995  25.685  28.056  1.00  0.00     0.049 A 
ATOM     41  N   UNL A   1      44.840  26.372  28.749  1.00  0.00    -0.248 NA
ATOM     42  C   UNL A   1      45.479  24.243  28.033  1.00  0.00     0.031 C 
ATOM     43  C   UNL A   1      40.587  25.396  27.770  1.00  0.00     0.029 A 
ATOM     44  N   UNL A   1      41.980  26.976  28.524  1.00  0.00    -0.354 N 
ATOM     45  C   UNL A   1      46.209  26.219  28.924  1.00  0.00     0.074 A 
ATOM     46  C   UNL A   1      46.540  24.871  28.520  1.00  0.00     0.031 C 
ATOM     47  C   UNL A   1      39.851  26.484  28.044  1.00  0.00     0.029 A 
ATOM     48  C   UNL A   1      40.722  27.528  28.573  1.00  0.00     0.049 A 
ATOM     49  H   UNL A   1      42.792  27.460  28.797  1.00  0.00     0.167 HD
ATOM     50  C   UNL A   1      47.112  27.127  29.367  1.00  0.00     0.031 A 
ATOM     51  C   UNL A   1      40.313  28.733  29.011  1.00  0.00     0.031 A 
ATOM     52  C   UNL A   1      46.781  28.468  29.770  1.00  0.00     0.049 A 
ATOM     53  C   UNL A   1      41.331  29.704  29.543  1.00  0.00     0.074 A 
ATOM     54  C   UNL A   1      47.631  29.477  30.188  1.00  0.00     0.029 A 
ATOM     55  N   UNL A   1      45.494  28.984  29.818  1.00  0.00    -0.354 N 
ATOM     56  N   UNL A   1      42.631  29.569  29.639  1.00  0.00    -0.248 NA
ATOM     57  C   UNL A   1      40.822  30.998  30.018  1.00  0.00     0.031 C 
ATOM     58  C   UNL A   1      46.854  30.582  30.549  1.00  0.00     0.029 A 
ATOM     59  C   UNL A   1      45.526  30.285  30.293  1.00  0.00     0.049 A 
ATOM     60  H   UNL A   1      44.680  28.498  29.555  1.00  0.00     0.167 HD
ATOM     61  C   UNL A   1      43.098  30.767  30.164  1.00  0.00     0.074 A 
ATOM     62  C   UNL A   1      41.944  31.623  30.342  1.00  0.00     0.031 C 
ATOM     63  C   UNL A   1      44.369  31.124  30.472  1.00  0.00     0.031 A 
BRANCH  50  64
ATOM     64  C   UNL A   1      48.550  26.692  29.451  1.00  0.00    -0.014 A 
ATOM     65  C   UNL A   1      49.030  25.965  30.553  1.00  0.00     0.009 A 
ATOM     66  C   UNL A   1      49.428  26.976  28.392  1.00  0.00     0.009 A 
ATOM     67  C   UNL A   1      50.367  25.564  30.609  1.00  0.00     0.001 A 
ATOM     68  C   UNL A   1      50.755  26.545  28.437  1.00  0.00     0.001 A 
ATOM     69  C   UNL A   1      51.226  25.850  29.549  1.00  0.00     0.000 A 
ENDBRANCH  50  64
BRANCH  51  70
ATOM     70  C   UNL A   1      38.870  29.091  28.975  1.00  0.00    -0.014 A 
ATOM     71  C   UNL A   1      38.069  28.945  30.118  1.00  0.00     0.009 A 
ATOM     72  C   UNL A   1      38.282  29.567  27.792  1.00  0.00     0.009 A 
ATOM     73  C   UNL A   1      36.705  29.239  30.069  1.00  0.00     0.001 A 
ATOM     74  C   UNL A   1      36.924  29.892  27.756  1.00  0.00     0.001 A 
ATOM     75  C   UNL A   1      36.134  29.716  28.890  1.00  0.00     0.000 A 
ENDBRANCH  51  70
BRANCH  63  76
ATOM     76  C   UNL A   1      44.580  32.513  31.011  1.00  0.00    -0.014 A 
ATOM     77  C   UNL A   1      44.666  32.756  32.390  1.00  0.00     0.009 A 
ATOM     78  C   UNL A   1      44.730  33.588  30.120  1.00  0.00     0.009 A 
ATOM     79  C   UNL A   1      44.863  34.053  32.868  1.00  0.00     0.001 A 
ATOM     80  C   UNL A   1      44.960  34.878  30.600  1.00  0.00     0.001 A 
ATOM     81  C   UNL A   1      45.015  35.112  31.972  1.00  0.00     0.000 A 
ENDBRANCH  63  76
ENDBRANCH  37  38
ENDBRANCH  29  32
ENDBRANCH  27  28
ENDBRANCH  26  27
ENDBRANCH  25  26
ENDBRANCH  24  25
ENDBRANCH   1  24
TORSDOF 17
ENDMDL
MODEL 3
REMARK VINA RESULT:     -11.1      0.929      5.891
REMARK SMILES CC(C)CS(=O)(=O)Cc1c(C(=O)NCCCCCCNC(=O)c2ccc(-c3c4nc(c(-c5ccccc5)c5ccc([nH]5)c(-c5ccccc5)c5nc(c(-c6ccccc6)c6ccc3[nH]6)C=C5)C=C4)cc2)oc2ccccc12
REMARK SMILES IDX 15 1 14 2 13 3 11 4 12 5 10 7 9 8 77 9 71 10 72 11 76 12
REMARK SMILES IDX 73 13 75 14 74 15 8 16 5 17 6 18 7 19 4 20 2 21 1 22 3 23
REMARK SMILES IDX 16 24 17 25 18 26 19 27 20 28 21 29 22 31 23 32 24 33 70 34
REMARK SMILES IDX 25 35 69 36 26 37 27 38 28 39 63 40 29 41 68 42 62 43 64 44
REMARK SMILES IDX 30 45 67 46 61 47 60 48 31 50 53 51 38 52 52 53 39 54 42 55
REMARK SMILES IDX 51 56 65 57 40 58 41 59 50 61 66 62 43 63 32 64 33 65 37 66
REMARK SMILES IDX 34 67 36 68 35 69 54 70 55 71 59 72 56 73 58 74 57 75 44 76
REMARK SMILES IDX 45 77 49 78 46 79 48 80 47 81
REMARK H PARENT 13 6 20 30 64 49 42 60
REMARK Flexibility Score: inf
ROOT
ATOM      1  C   UNL A   1      31.691  28.405  27.454  1.00  0.00     0.021 C 
ENDROOT
BRANCH   1   2
ATOM      2  C   UNL A   1      32.107  27.232  26.570  1.00  0.00     0.116 C 
BRANCH   2   3
ATOM      3  N   UNL A   1      31.393  26.024  26.944  1.00  0.00    -0.349 N 
ATOM      4  C   UNL A   1      31.593  24.699  26.642  1.00  0.00     0.287 C 
ATOM      5  O   UNL A   1      30.709  23.931  27.037  1.00  0.00    -0.266 OA
ATOM      6  H   UNL A   1      30.616  26.185  27.527  1.00  0.00     0.163 HD
BRANCH   4   7
ATOM      7  C   UNL A   1      32.759  24.247  25.893  1.00  0.00     0.196 A 
ATOM      8  C   UNL A   1      32.983  24.071  24.518  1.00  0.00     0.027 A 
ATOM      9  C   UNL A   1      34.380  23.700  24.408  1.00  0.00     0.025 A 
ATOM     10  O   UNL A   1      33.893  23.949  26.577  1.00  0.00    -0.451 OA
ATOM     11  C   UNL A   1      34.867  23.648  25.705  1.00  0.00     0.135 A 
ATOM     12  C   UNL A   1      35.329  23.436  23.401  1.00  0.00     0.012 A 
ATOM     13  C   UNL A   1      36.179  23.358  26.076  1.00  0.00     0.048 A 
ATOM     14  C   UNL A   1      36.655  23.104  23.727  1.00  0.00     0.001 A 
ATOM     15  C   UNL A   1      37.075  23.073  25.050  1.00  0.00     0.004 A 
BRANCH   8  16
ATOM     16  C   UNL A   1      31.965  24.399  23.458  1.00  0.00     0.177 C 
BRANCH  16  17
ATOM     17  S   UNL A   1      31.809  26.060  22.809  1.00  0.00     0.154 S 
ATOM     18  O   UNL A   1      31.543  25.941  21.384  1.00  0.00    -0.228 OA
ATOM     19  O   UNL A   1      32.962  26.823  23.256  1.00  0.00    -0.228 OA
BRANCH  17  20
ATOM     20  C   UNL A   1      30.382  26.848  23.510  1.00  0.00     0.140 C 
BRANCH  20  21
ATOM     21  C   UNL A   1      29.725  28.012  22.747  1.00  0.00    -0.002 C 
ATOM     22  C   UNL A   1      28.299  28.397  23.137  1.00  0.00     0.008 C 
ATOM     23  C   UNL A   1      30.628  29.250  22.860  1.00  0.00     0.008 C 
ENDBRANCH  20  21
ENDBRANCH  17  20
ENDBRANCH  16  17
ENDBRANCH   8  16
ENDBRANCH   4   7
ENDBRANCH   2   3
ENDBRANCH   1   2
BRANCH   1  24
ATOM     24  C   UNL A   1      32.395  29.718  27.100  1.00  0.00     0.002 C 
BRANCH  24  25
ATOM     25  C   UNL A   1      31.592  30.648  26.184  1.00  0.00     0.002 C 
BRANCH  25  26
ATOM     26  C   UNL A   1      31.430  32.080  26.701  1.00  0.00     0.021 C 
BRANCH  26  27
ATOM     27  C   UNL A   1      32.715  32.697  27.240  1.00  0.00     0.116 C 
BRANCH  27  28
ATOM     28  N   UNL A   1      32.501  34.050  27.725  1.00  0.00    -0.352 N 
ATOM     29  C   UNL A   1      33.153  34.730  28.720  1.00  0.00     0.251 C 
ATOM     30  H   UNL A   1      31.784  34.551  27.272  1.00  0.00     0.163 HD
ATOM     31  O   UNL A   1      32.698  35.785  29.154  1.00  0.00    -0.269 OA
BRANCH  29  32
ATOM     32  C   UNL A   1      34.401  34.178  29.286  1.00  0.00     0.039 A 
ATOM     33  C   UNL A   1      34.338  33.447  30.475  1.00  0.00     0.014 A 
ATOM     34  C   UNL A   1      35.626  34.381  28.645  1.00  0.00     0.014 A 
ATOM     35  C   UNL A   1      35.498  32.863  30.985  1.00  0.00     0.010 A 
ATOM     36  C   UNL A   1      36.766  33.739  29.115  1.00  0.00     0.010 A 
ATOM     37  C   UNL A   1      36.713  32.972  30.289  1.00  0.00    -0.014 A 
BRANCH  37  38
ATOM     38  C   UNL A   1      37.934  32.270  30.757  1.00  0.00     0.031 A 
ATOM     39  C   UNL A   1      38.793  32.876  31.832  1.00  0.00     0.074 A 
ATOM     40  C   UNL A   1      38.306  31.120  30.162  1.00  0.00     0.049 A 
ATOM     41  N   UNL A   1      39.933  32.451  32.313  1.00  0.00    -0.248 NA
ATOM     42  C   UNL A   1      38.320  34.135  32.428  1.00  0.00     0.031 C 
ATOM     43  C   UNL A   1      37.574  30.445  29.088  1.00  0.00     0.029 A 
ATOM     44  N   UNL A   1      39.401  30.319  30.372  1.00  0.00    -0.354 N 
ATOM     45  C   UNL A   1      40.319  33.394  33.257  1.00  0.00     0.074 A 
ATOM     46  C   UNL A   1      39.317  34.437  33.247  1.00  0.00     0.031 C 
ATOM     47  C   UNL A   1      38.226  29.321  28.751  1.00  0.00     0.029 A 
ATOM     48  C   UNL A   1      39.446  29.222  29.545  1.00  0.00     0.049 A 
ATOM     49  H   UNL A   1      40.088  30.512  31.049  1.00  0.00     0.167 HD
ATOM     50  C   UNL A   1      41.401  33.383  34.071  1.00  0.00     0.031 A 
ATOM     51  C   UNL A   1      40.374  28.254  29.426  1.00  0.00     0.031 A 
ATOM     52  C   UNL A   1      42.398  32.345  34.079  1.00  0.00     0.049 A 
ATOM     53  C   UNL A   1      41.590  28.293  30.310  1.00  0.00     0.074 A 
ATOM     54  C   UNL A   1      43.505  32.220  34.901  1.00  0.00     0.029 A 
ATOM     55  N   UNL A   1      42.414  31.258  33.218  1.00  0.00    -0.354 N 
ATOM     56  N   UNL A   1      41.907  29.156  31.244  1.00  0.00    -0.248 NA
ATOM     57  C   UNL A   1      42.573  27.217  30.125  1.00  0.00     0.031 C 
ATOM     58  C   UNL A   1      44.226  31.093  34.493  1.00  0.00     0.029 A 
ATOM     59  C   UNL A   1      43.532  30.479  33.464  1.00  0.00     0.049 A 
ATOM     60  H   UNL A   1      41.733  31.070  32.533  1.00  0.00     0.167 HD
ATOM     61  C   UNL A   1      43.112  28.715  31.774  1.00  0.00     0.074 A 
ATOM     62  C   UNL A   1      43.456  27.496  31.073  1.00  0.00     0.031 C 
ATOM     63  C   UNL A   1      43.867  29.272  32.753  1.00  0.00     0.031 A 
BRANCH  50  64
ATOM     64  C   UNL A   1      41.572  34.543  35.015  1.00  0.00    -0.014 A 
ATOM     65  C   UNL A   1      42.316  35.677  34.653  1.00  0.00     0.009 A 
ATOM     66  C   UNL A   1      40.941  34.518  36.270  1.00  0.00     0.009 A 
ATOM     67  C   UNL A   1      42.457  36.745  35.541  1.00  0.00     0.001 A 
ATOM     68  C   UNL A   1      41.057  35.602  37.143  1.00  0.00     0.001 A 
ATOM     69  C   UNL A   1      41.822  36.710  36.782  1.00  0.00     0.000 A 
ENDBRANCH  50  64
BRANCH  51  70
ATOM     70  C   UNL A   1      40.197  27.167  28.427  1.00  0.00    -0.014 A 
ATOM     71  C   UNL A   1      39.474  26.009  28.754  1.00  0.00     0.009 A 
ATOM     72  C   UNL A   1      40.761  27.275  27.147  1.00  0.00     0.009 A 
ATOM     73  C   UNL A   1      39.347  24.970  27.830  1.00  0.00     0.001 A 
ATOM     74  C   UNL A   1      40.604  26.248  26.213  1.00  0.00     0.001 A 
ATOM     75  C   UNL A   1      39.908  25.092  26.559  1.00  0.00     0.000 A 
ENDBRANCH  51  70
BRANCH  63  76
ATOM     76  C   UNL A   1      45.129  28.550  33.141  1.00  0.00    -0.014 A 
ATOM     77  C   UNL A   1      46.358  28.852  32.535  1.00  0.00     0.009 A 
ATOM     78  C   UNL A   1      45.090  27.578  34.153  1.00  0.00     0.009 A 
ATOM     79  C   UNL A   1      47.517  28.170  32.911  1.00  0.00     0.001 A 
ATOM     80  C   UNL A   1      46.256  26.921  34.550  1.00  0.00     0.001 A 
ATOM     81  C   UNL A   1      47.466  27.209  33.922  1.00  0.00     0.000 A 
ENDBRANCH  63  76
ENDBRANCH  37  38
ENDBRANCH  29  32
ENDBRANCH  27  28
ENDBRANCH  26  27
ENDBRANCH  25  26
ENDBRANCH  24  25
ENDBRANCH   1  24
TORSDOF 17
ENDMDL
