MODEL 1
REMARK VINA RESULT:     -10.9      0.000      0.000
REMARK SMILES O=C(CC(=O)c1ccccc1)Nc1cccc(C(=O)NCCCCCCNC(=O)c2ccc(-c3c4nc(c(-c5ccccc5)c5ccc([nH]5)c(-c5ccccc5)c5nc(c(-c6ccccc6)c6ccc3[nH]6)C=C5)C=C4)cc2)c1
REMARK SMILES IDX 22 1 21 2 20 3 18 4 19 5 17 7 13 8 14 9 78 10 15 11 16 12
REMARK SMILES IDX 12 13 1 14 2 15 3 17 4 18 5 19 6 20 7 21 11 22 8 23 10 24
REMARK SMILES IDX 9 25 23 26 24 27 25 28 26 29 27 30 28 31 29 33 30 34 31 35
REMARK SMILES IDX 77 36 32 37 76 38 33 39 34 40 35 41 70 42 36 43 75 44 69 45
REMARK SMILES IDX 71 46 37 47 74 48 68 49 67 50 38 52 60 53 45 54 59 55 46 56
REMARK SMILES IDX 49 57 58 58 72 59 47 60 48 61 57 63 73 64 50 65 39 66 40 67
REMARK SMILES IDX 44 68 41 69 43 70 42 71 61 72 62 73 66 74 63 75 65 76 64 77
REMARK SMILES IDX 51 78 52 79 56 80 53 81 55 82 54 83
REMARK H PARENT 20 6 12 16 27 32 71 51 49 62
REMARK Flexibility Score: inf
ROOT
ATOM      1  C   UNL A   1      35.382  22.328  25.945  1.00  0.00     0.021 C 
ENDROOT
BRANCH   1   2
ATOM      2  C   UNL A   1      34.508  21.460  26.841  1.00  0.00     0.116 C 
BRANCH   2   3
ATOM      3  N   UNL A   1      33.740  20.438  26.144  1.00  0.00    -0.352 N 
ATOM      4  C   UNL A   1      32.550  20.540  25.450  1.00  0.00     0.251 C 
ATOM      5  O   UNL A   1      32.058  19.538  24.938  1.00  0.00    -0.269 OA
ATOM      6  H   UNL A   1      34.128  19.533  26.173  1.00  0.00     0.163 HD
BRANCH   4   7
ATOM      7  C   UNL A   1      31.817  21.833  25.369  1.00  0.00     0.041 A 
ATOM      8  C   UNL A   1      31.514  23.982  24.296  1.00  0.00     0.041 A 
ATOM      9  C   UNL A   1      30.780  24.419  25.403  1.00  0.00     0.026 A 
ATOM     10  C   UNL A   1      31.911  22.649  24.242  1.00  0.00     0.040 A 
ATOM     11  C   UNL A   1      30.525  23.550  26.469  1.00  0.00     0.003 A 
ATOM     12  C   UNL A   1      31.074  22.267  26.468  1.00  0.00     0.014 A 
BRANCH   8  13
ATOM     13  N   UNL A   1      31.880  24.931  23.314  1.00  0.00    -0.326 N 
ATOM     14  O   UNL A   1      34.207  24.789  23.400  1.00  0.00    -0.274 OA
ATOM     15  C   UNL A   1      33.172  25.245  22.918  1.00  0.00     0.232 C 
ATOM     16  H   UNL A   1      31.148  25.415  22.869  1.00  0.00     0.169 HD
BRANCH  15  17
ATOM     17  C   UNL A   1      33.273  26.283  21.838  1.00  0.00     0.181 C 
BRANCH  17  18
ATOM     18  C   UNL A   1      33.579  27.693  22.253  1.00  0.00     0.172 C 
ATOM     19  O   UNL A   1      34.403  28.361  21.629  1.00  0.00    -0.294 OA
BRANCH  18  20
ATOM     20  C   UNL A   1      32.862  28.328  23.392  1.00  0.00     0.018 A 
ATOM     21  C   UNL A   1      31.507  28.629  23.207  1.00  0.00     0.012 A 
ATOM     22  C   UNL A   1      33.495  28.716  24.578  1.00  0.00     0.012 A 
ATOM     23  C   UNL A   1      30.798  29.319  24.191  1.00  0.00     0.001 A 
ATOM     24  C   UNL A   1      32.789  29.429  25.548  1.00  0.00     0.001 A 
ATOM     25  C   UNL A   1      31.443  29.730  25.355  1.00  0.00     0.000 A 
ENDBRANCH  18  20
ENDBRANCH  17  18
ENDBRANCH  15  17
ENDBRANCH   8  13
ENDBRANCH   4   7
ENDBRANCH   2   3
ENDBRANCH   1   2
BRANCH   1  26
ATOM     26  C   UNL A   1      35.764  21.742  24.588  1.00  0.00     0.002 C 
BRANCH  26  27
ATOM     27  C   UNL A   1      37.249  21.460  24.354  1.00  0.00     0.002 C 
BRANCH  27  28
ATOM     28  C   UNL A   1      37.788  20.119  24.858  1.00  0.00     0.021 C 
BRANCH  28  29
ATOM     29  C   UNL A   1      38.742  20.174  26.050  1.00  0.00     0.116 C 
BRANCH  29  30
ATOM     30  N   UNL A   1      39.912  19.331  25.887  1.00  0.00    -0.352 N 
ATOM     31  C   UNL A   1      41.243  19.615  26.060  1.00  0.00     0.251 C 
ATOM     32  H   UNL A   1      39.720  18.408  25.605  1.00  0.00     0.163 HD
ATOM     33  O   UNL A   1      42.086  18.776  25.754  1.00  0.00    -0.269 OA
BRANCH  31  34
ATOM     34  C   UNL A   1      41.686  20.929  26.588  1.00  0.00     0.039 A 
ATOM     35  C   UNL A   1      42.098  21.903  25.673  1.00  0.00     0.014 A 
ATOM     36  C   UNL A   1      41.747  21.197  27.958  1.00  0.00     0.014 A 
ATOM     37  C   UNL A   1      42.517  23.157  26.126  1.00  0.00     0.010 A 
ATOM     38  C   UNL A   1      42.104  22.470  28.407  1.00  0.00     0.010 A 
ATOM     39  C   UNL A   1      42.497  23.462  27.495  1.00  0.00    -0.014 A 
BRANCH  39  40
ATOM     40  C   UNL A   1      42.879  24.816  27.976  1.00  0.00     0.031 A 
ATOM     41  C   UNL A   1      41.833  25.875  28.199  1.00  0.00     0.074 A 
ATOM     42  C   UNL A   1      44.177  25.105  28.184  1.00  0.00     0.049 A 
ATOM     43  N   UNL A   1      41.984  27.107  28.619  1.00  0.00    -0.248 NA
ATOM     44  C   UNL A   1      40.441  25.511  27.893  1.00  0.00     0.031 C 
ATOM     45  C   UNL A   1      45.296  24.184  27.968  1.00  0.00     0.029 A 
ATOM     46  N   UNL A   1      44.778  26.258  28.625  1.00  0.00    -0.354 N 
ATOM     47  C   UNL A   1      40.712  27.666  28.616  1.00  0.00     0.074 A 
ATOM     48  C   UNL A   1      39.809  26.655  28.109  1.00  0.00     0.031 C 
ATOM     49  C   UNL A   1      46.441  24.795  28.311  1.00  0.00     0.029 A 
ATOM     50  C   UNL A   1      46.144  26.158  28.738  1.00  0.00     0.049 A 
ATOM     51  H   UNL A   1      44.278  27.078  28.842  1.00  0.00     0.167 HD
ATOM     52  C   UNL A   1      40.325  28.902  29.017  1.00  0.00     0.031 A 
ATOM     53  C   UNL A   1      47.056  27.061  29.142  1.00  0.00     0.031 A 
ATOM     54  C   UNL A   1      41.217  29.908  29.528  1.00  0.00     0.049 A 
ATOM     55  C   UNL A   1      46.602  28.425  29.579  1.00  0.00     0.074 A 
ATOM     56  C   UNL A   1      40.911  31.171  30.007  1.00  0.00     0.029 A 
ATOM     57  N   UNL A   1      42.593  29.768  29.625  1.00  0.00    -0.354 N 
ATOM     58  N   UNL A   1      45.386  28.914  29.634  1.00  0.00    -0.248 NA
ATOM     59  C   UNL A   1      47.648  29.358  30.023  1.00  0.00     0.031 C 
ATOM     60  C   UNL A   1      42.107  31.811  30.350  1.00  0.00     0.029 A 
ATOM     61  C   UNL A   1      43.152  30.928  30.136  1.00  0.00     0.049 A 
ATOM     62  H   UNL A   1      43.098  28.962  29.369  1.00  0.00     0.167 HD
ATOM     63  C   UNL A   1      45.519  30.199  30.142  1.00  0.00     0.074 A 
ATOM     64  C   UNL A   1      46.929  30.407  30.396  1.00  0.00     0.031 C 
ATOM     65  C   UNL A   1      44.557  31.125  30.377  1.00  0.00     0.031 A 
BRANCH  52  66
ATOM     66  C   UNL A   1      38.861  29.234  28.913  1.00  0.00    -0.014 A 
ATOM     67  C   UNL A   1      38.306  29.699  27.709  1.00  0.00     0.009 A 
ATOM     68  C   UNL A   1      38.020  29.047  30.020  1.00  0.00     0.009 A 
ATOM     69  C   UNL A   1      36.947  30.007  27.629  1.00  0.00     0.001 A 
ATOM     70  C   UNL A   1      36.655  29.328  29.929  1.00  0.00     0.001 A 
ATOM     71  C   UNL A   1      36.121  29.817  28.737  1.00  0.00     0.000 A 
ENDBRANCH  52  66
BRANCH  53  72
ATOM     72  C   UNL A   1      48.496  26.696  29.182  1.00  0.00    -0.014 A 
ATOM     73  C   UNL A   1      49.322  26.937  28.074  1.00  0.00     0.009 A 
ATOM     74  C   UNL A   1      49.050  26.099  30.325  1.00  0.00     0.009 A 
ATOM     75  C   UNL A   1      50.667  26.564  28.099  1.00  0.00     0.001 A 
ATOM     76  C   UNL A   1      50.402  25.753  30.358  1.00  0.00     0.001 A 
ATOM     77  C   UNL A   1      51.207  25.976  29.242  1.00  0.00     0.000 A 
ENDBRANCH  53  72
BRANCH  65  78
ATOM     78  C   UNL A   1      45.000  32.435  30.965  1.00  0.00    -0.014 A 
ATOM     79  C   UNL A   1      45.371  33.513  30.147  1.00  0.00     0.009 A 
ATOM     80  C   UNL A   1      45.027  32.598  32.358  1.00  0.00     0.009 A 
ATOM     81  C   UNL A   1      45.799  34.715  30.714  1.00  0.00     0.001 A 
ATOM     82  C   UNL A   1      45.428  33.810  32.923  1.00  0.00     0.001 A 
ATOM     83  C   UNL A   1      45.825  34.863  32.099  1.00  0.00     0.000 A 
ENDBRANCH  65  78
ENDBRANCH  39  40
ENDBRANCH  31  34
ENDBRANCH  29  30
ENDBRANCH  28  29
ENDBRANCH  27  28
ENDBRANCH  26  27
ENDBRANCH   1  26
TORSDOF 17
ENDMDL
MODEL 2
REMARK VINA RESULT:     -10.7      1.570      6.103
REMARK SMILES O=C(CC(=O)c1ccccc1)Nc1cccc(C(=O)NCCCCCCNC(=O)c2ccc(-c3c4nc(c(-c5ccccc5)c5ccc([nH]5)c(-c5ccccc5)c5nc(c(-c6ccccc6)c6ccc3[nH]6)C=C5)C=C4)cc2)c1
REMARK SMILES IDX 22 1 21 2 20 3 18 4 19 5 17 7 13 8 14 9 78 10 15 11 16 12
REMARK SMILES IDX 12 13 1 14 2 15 3 17 4 18 5 19 6 20 7 21 11 22 8 23 10 24
REMARK SMILES IDX 9 25 23 26 24 27 25 28 26 29 27 30 28 31 29 33 30 34 31 35
REMARK SMILES IDX 77 36 32 37 76 38 33 39 34 40 35 41 70 42 36 43 75 44 69 45
REMARK SMILES IDX 71 46 37 47 74 48 68 49 67 50 38 52 60 53 45 54 59 55 46 56
REMARK SMILES IDX 49 57 58 58 72 59 47 60 48 61 57 63 73 64 50 65 39 66 40 67
REMARK SMILES IDX 44 68 41 69 43 70 42 71 61 72 62 73 66 74 63 75 65 76 64 77
REMARK SMILES IDX 51 78 52 79 56 80 53 81 55 82 54 83
REMARK H PARENT 20 6 12 16 27 32 71 51 49 62
REMARK Flexibility Score: inf
ROOT
ATOM      1  C   UNL A   1      37.283  22.591  24.975  1.00  0.00     0.021 C 
ENDROOT
BRANCH   1   2
ATOM      2  C   UNL A   1      36.470  21.352  25.330  1.00  0.00     0.116 C 
BRANCH   2   3
ATOM      3  N   UNL A   1      35.527  21.530  26.425  1.00  0.00    -0.352 N 
ATOM      4  C   UNL A   1      34.240  22.033  26.416  1.00  0.00     0.251 C 
ATOM      5  O   UNL A   1      33.611  22.109  27.468  1.00  0.00    -0.269 OA
ATOM      6  H   UNL A   1      35.858  21.250  27.310  1.00  0.00     0.163 HD
BRANCH   4   7
ATOM      7  C   UNL A   1      33.627  22.548  25.162  1.00  0.00     0.041 A 
ATOM      8  C   UNL A   1      32.839  24.432  23.860  1.00  0.00     0.041 A 
ATOM      9  C   UNL A   1      32.129  23.553  23.037  1.00  0.00     0.026 A 
ATOM     10  C   UNL A   1      33.683  23.902  24.833  1.00  0.00     0.040 A 
ATOM     11  C   UNL A   1      32.206  22.171  23.247  1.00  0.00     0.003 A 
ATOM     12  C   UNL A   1      32.927  21.671  24.332  1.00  0.00     0.014 A 
BRANCH   8  13
ATOM     13  N   UNL A   1      32.616  25.820  23.714  1.00  0.00    -0.326 N 
ATOM     14  O   UNL A   1      33.632  26.223  21.653  1.00  0.00    -0.274 OA
ATOM     15  C   UNL A   1      32.992  26.603  22.632  1.00  0.00     0.232 C 
ATOM     16  H   UNL A   1      32.149  26.276  24.451  1.00  0.00     0.169 HD
BRANCH  15  17
ATOM     17  C   UNL A   1      32.614  28.052  22.731  1.00  0.00     0.181 C 
BRANCH  17  18
ATOM     18  C   UNL A   1      31.635  28.446  23.797  1.00  0.00     0.172 C 
ATOM     19  O   UNL A   1      32.000  28.557  24.968  1.00  0.00    -0.294 OA
BRANCH  18  20
ATOM     20  C   UNL A   1      30.219  28.755  23.461  1.00  0.00     0.018 A 
ATOM     21  C   UNL A   1      29.847  30.105  23.438  1.00  0.00     0.012 A 
ATOM     22  C   UNL A   1      29.243  27.772  23.264  1.00  0.00     0.012 A 
ATOM     23  C   UNL A   1      28.515  30.466  23.233  1.00  0.00     0.001 A 
ATOM     24  C   UNL A   1      27.907  28.137  23.086  1.00  0.00     0.001 A 
ATOM     25  C   UNL A   1      27.544  29.481  23.071  1.00  0.00     0.000 A 
ENDBRANCH  18  20
ENDBRANCH  17  18
ENDBRANCH  15  17
ENDBRANCH   8  13
ENDBRANCH   4   7
ENDBRANCH   2   3
ENDBRANCH   1   2
BRANCH   1  26
ATOM     26  C   UNL A   1      38.148  23.181  26.085  1.00  0.00     0.002 C 
BRANCH  26  27
ATOM     27  C   UNL A   1      39.361  22.357  26.522  1.00  0.00     0.002 C 
BRANCH  27  28
ATOM     28  C   UNL A   1      39.621  21.052  25.766  1.00  0.00     0.021 C 
BRANCH  28  29
ATOM     29  C   UNL A   1      40.383  19.967  26.524  1.00  0.00     0.116 C 
BRANCH  29  30
ATOM     30  N   UNL A   1      41.645  19.612  25.900  1.00  0.00    -0.352 N 
ATOM     31  C   UNL A   1      42.802  20.337  25.760  1.00  0.00     0.251 C 
ATOM     32  H   UNL A   1      41.675  18.707  25.515  1.00  0.00     0.163 HD
ATOM     33  O   UNL A   1      43.724  19.881  25.090  1.00  0.00    -0.269 OA
BRANCH  31  34
ATOM     34  C   UNL A   1      42.951  21.675  26.383  1.00  0.00     0.039 A 
ATOM     35  C   UNL A   1      43.189  22.770  25.546  1.00  0.00     0.014 A 
ATOM     36  C   UNL A   1      42.908  21.859  27.767  1.00  0.00     0.014 A 
ATOM     37  C   UNL A   1      43.330  24.050  26.090  1.00  0.00     0.010 A 
ATOM     38  C   UNL A   1      42.983  23.145  28.305  1.00  0.00     0.010 A 
ATOM     39  C   UNL A   1      43.200  24.253  27.472  1.00  0.00    -0.014 A 
BRANCH  39  40
ATOM     40  C   UNL A   1      43.282  25.622  28.048  1.00  0.00     0.031 A 
ATOM     41  C   UNL A   1      44.606  26.198  28.473  1.00  0.00     0.074 A 
ATOM     42  C   UNL A   1      42.156  26.339  28.219  1.00  0.00     0.049 A 
ATOM     43  N   UNL A   1      44.865  27.374  28.989  1.00  0.00    -0.248 NA
ATOM     44  C   UNL A   1      45.788  25.337  28.315  1.00  0.00     0.031 C 
ATOM     45  C   UNL A   1      40.803  25.884  27.888  1.00  0.00     0.029 A 
ATOM     46  N   UNL A   1      41.967  27.606  28.714  1.00  0.00    -0.354 N 
ATOM     47  C   UNL A   1      46.235  27.388  29.227  1.00  0.00     0.074 A 
ATOM     48  C   UNL A   1      46.743  26.089  28.844  1.00  0.00     0.031 C 
ATOM     49  C   UNL A   1      39.930  26.870  28.155  1.00  0.00     0.029 A 
ATOM     50  C   UNL A   1      40.655  28.010  28.706  1.00  0.00     0.049 A 
ATOM     51  H   UNL A   1      42.704  28.172  29.042  1.00  0.00     0.167 HD
ATOM     52  C   UNL A   1      47.004  28.397  29.704  1.00  0.00     0.031 A 
ATOM     53  C   UNL A   1      40.094  29.170  29.096  1.00  0.00     0.031 A 
ATOM     54  C   UNL A   1      46.506  29.693  30.080  1.00  0.00     0.049 A 
ATOM     55  C   UNL A   1      40.969  30.272  29.625  1.00  0.00     0.074 A 
ATOM     56  C   UNL A   1      47.216  30.795  30.525  1.00  0.00     0.029 A 
ATOM     57  N   UNL A   1      45.170  30.062  30.059  1.00  0.00    -0.354 N 
ATOM     58  N   UNL A   1      42.271  30.292  29.780  1.00  0.00    -0.248 NA
ATOM     59  C   UNL A   1      40.296  31.518  30.018  1.00  0.00     0.031 C 
ATOM     60  C   UNL A   1      46.304  31.816  30.818  1.00  0.00     0.029 A 
ATOM     61  C   UNL A   1      45.032  31.367  30.503  1.00  0.00     0.049 A 
ATOM     62  H   UNL A   1      44.428  29.481  29.770  1.00  0.00     0.167 HD
ATOM     63  C   UNL A   1      42.574  31.558  30.264  1.00  0.00     0.074 A 
ATOM     64  C   UNL A   1      41.324  32.282  30.359  1.00  0.00     0.031 C 
ATOM     65  C   UNL A   1      43.782  32.074  30.600  1.00  0.00     0.031 A 
BRANCH  52  66
ATOM     66  C   UNL A   1      48.478  28.131  29.849  1.00  0.00    -0.014 A 
ATOM     67  C   UNL A   1      49.007  27.601  31.037  1.00  0.00     0.009 A 
ATOM     68  C   UNL A   1      49.344  28.381  28.773  1.00  0.00     0.009 A 
ATOM     69  C   UNL A   1      50.377  27.362  31.157  1.00  0.00     0.001 A 
ATOM     70  C   UNL A   1      50.710  28.115  28.886  1.00  0.00     0.001 A 
ATOM     71  C   UNL A   1      51.227  27.615  30.081  1.00  0.00     0.000 A 
ENDBRANCH  52  66
BRANCH  53  72
ATOM     72  C   UNL A   1      38.626  29.364  28.975  1.00  0.00    -0.014 A 
ATOM     73  C   UNL A   1      38.057  29.733  27.747  1.00  0.00     0.009 A 
ATOM     74  C   UNL A   1      37.788  29.189  30.087  1.00  0.00     0.009 A 
ATOM     75  C   UNL A   1      36.681  29.948  27.641  1.00  0.00     0.001 A 
ATOM     76  C   UNL A   1      36.410  29.376  29.971  1.00  0.00     0.001 A 
ATOM     77  C   UNL A   1      35.858  29.765  28.751  1.00  0.00     0.000 A 
ENDBRANCH  53  72
BRANCH  65  78
ATOM     78  C   UNL A   1      43.806  33.500  31.073  1.00  0.00    -0.014 A 
ATOM     79  C   UNL A   1      43.989  34.562  30.175  1.00  0.00     0.009 A 
ATOM     80  C   UNL A   1      43.625  33.783  32.435  1.00  0.00     0.009 A 
ATOM     81  C   UNL A   1      44.029  35.879  30.639  1.00  0.00     0.001 A 
ATOM     82  C   UNL A   1      43.637  35.102  32.892  1.00  0.00     0.001 A 
ATOM     83  C   UNL A   1      43.850  36.148  31.995  1.00  0.00     0.000 A 
ENDBRANCH  65  78
ENDBRANCH  39  40
ENDBRANCH  31  34
ENDBRANCH  29  30
ENDBRANCH  28  29
ENDBRANCH  27  28
ENDBRANCH  26  27
ENDBRANCH   1  26
TORSDOF 17
ENDMDL
MODEL 3
REMARK VINA RESULT:     -10.5      3.999      9.074
REMARK SMILES O=C(CC(=O)c1ccccc1)Nc1cccc(C(=O)NCCCCCCNC(=O)c2ccc(-c3c4nc(c(-c5ccccc5)c5ccc([nH]5)c(-c5ccccc5)c5nc(c(-c6ccccc6)c6ccc3[nH]6)C=C5)C=C4)cc2)c1
REMARK SMILES IDX 22 1 21 2 20 3 18 4 19 5 17 7 13 8 14 9 78 10 15 11 16 12
REMARK SMILES IDX 12 13 1 14 2 15 3 17 4 18 5 19 6 20 7 21 11 22 8 23 10 24
REMARK SMILES IDX 9 25 23 26 24 27 25 28 26 29 27 30 28 31 29 33 30 34 31 35
REMARK SMILES IDX 77 36 32 37 76 38 33 39 34 40 35 41 70 42 36 43 75 44 69 45
REMARK SMILES IDX 71 46 37 47 74 48 68 49 67 50 38 52 60 53 45 54 59 55 46 56
REMARK SMILES IDX 49 57 58 58 72 59 47 60 48 61 57 63 73 64 50 65 39 66 40 67
REMARK SMILES IDX 44 68 41 69 43 70 42 71 61 72 62 73 66 74 63 75 65 76 64 77
REMARK SMILES IDX 51 78 52 79 56 80 53 81 55 82 54 83
REMARK H PARENT 20 6 12 16 27 32 71 51 49 62
REMARK Flexibility Score: inf
ROOT
ATOM      1  C   UNL A   1      31.823  28.144  24.820  1.00  0.00     0.021 C 
ENDROOT
BRANCH   1   2
ATOM      2  C   UNL A   1      32.637  27.337  25.823  1.00  0.00     0.116 C 
BRANCH   2   3
ATOM      3  N   UNL A   1      31.872  26.368  26.595  1.00  0.00    -0.352 N 
ATOM      4  C   UNL A   1      31.715  25.008  26.409  1.00  0.00     0.251 C 
ATOM      5  O   UNL A   1      31.006  24.368  27.180  1.00  0.00    -0.269 OA
ATOM      6  H   UNL A   1      31.391  26.740  27.371  1.00  0.00     0.163 HD
BRANCH   4   7
ATOM      7  C   UNL A   1      32.336  24.317  25.246  1.00  0.00     0.041 A 
ATOM      8  C   UNL A   1      34.269  23.241  24.262  1.00  0.00     0.041 A 
ATOM      9  C   UNL A   1      33.691  23.383  22.997  1.00  0.00     0.026 A 
ATOM     10  C   UNL A   1      33.521  23.594  25.382  1.00  0.00     0.040 A 
ATOM     11  C   UNL A   1      32.418  23.949  22.862  1.00  0.00     0.003 A 
ATOM     12  C   UNL A   1      31.755  24.448  23.984  1.00  0.00     0.014 A 
BRANCH   8  13
ATOM     13  N   UNL A   1      35.612  22.809  24.344  1.00  0.00    -0.326 N 
ATOM     14  O   UNL A   1      35.344  20.678  25.254  1.00  0.00    -0.274 OA
ATOM     15  C   UNL A   1      36.052  21.574  24.797  1.00  0.00     0.232 C 
ATOM     16  H   UNL A   1      36.303  23.447  24.052  1.00  0.00     0.169 HD
BRANCH  15  17
ATOM     17  C   UNL A   1      37.539  21.374  24.763  1.00  0.00     0.181 C 
BRANCH  17  18
ATOM     18  C   UNL A   1      38.363  22.089  25.793  1.00  0.00     0.172 C 
ATOM     19  O   UNL A   1      38.022  23.199  26.202  1.00  0.00    -0.294 OA
BRANCH  18  20
ATOM     20  C   UNL A   1      39.577  21.457  26.377  1.00  0.00     0.018 A 
ATOM     21  C   UNL A   1      40.295  22.202  27.321  1.00  0.00     0.012 A 
ATOM     22  C   UNL A   1      40.071  20.216  25.963  1.00  0.00     0.012 A 
ATOM     23  C   UNL A   1      41.499  21.717  27.833  1.00  0.00     0.001 A 
ATOM     24  C   UNL A   1      41.290  19.746  26.458  1.00  0.00     0.001 A 
ATOM     25  C   UNL A   1      42.002  20.495  27.391  1.00  0.00     0.000 A 
ENDBRANCH  18  20
ENDBRANCH  17  18
ENDBRANCH  15  17
ENDBRANCH   8  13
ENDBRANCH   4   7
ENDBRANCH   2   3
ENDBRANCH   1   2
BRANCH   1  26
ATOM     26  C   UNL A   1      31.806  29.658  25.013  1.00  0.00     0.002 C 
BRANCH  26  27
ATOM     27  C   UNL A   1      31.461  30.167  26.414  1.00  0.00     0.002 C 
BRANCH  27  28
ATOM     28  C   UNL A   1      31.387  31.685  26.602  1.00  0.00     0.021 C 
BRANCH  28  29
ATOM     29  C   UNL A   1      32.702  32.396  26.913  1.00  0.00     0.116 C 
BRANCH  29  30
ATOM     30  N   UNL A   1      32.517  33.702  27.519  1.00  0.00    -0.352 N 
ATOM     31  C   UNL A   1      33.222  34.327  28.518  1.00  0.00     0.251 C 
ATOM     32  H   UNL A   1      31.765  34.223  27.156  1.00  0.00     0.163 HD
ATOM     33  O   UNL A   1      32.820  35.399  28.962  1.00  0.00    -0.269 OA
BRANCH  31  34
ATOM     34  C   UNL A   1      34.447  33.718  29.090  1.00  0.00     0.039 A 
ATOM     35  C   UNL A   1      34.299  32.660  29.993  1.00  0.00     0.014 A 
ATOM     36  C   UNL A   1      35.724  34.199  28.791  1.00  0.00     0.014 A 
ATOM     37  C   UNL A   1      35.427  32.052  30.551  1.00  0.00     0.010 A 
ATOM     38  C   UNL A   1      36.853  33.552  29.299  1.00  0.00     0.010 A 
ATOM     39  C   UNL A   1      36.715  32.474  30.187  1.00  0.00    -0.014 A 
BRANCH  39  40
ATOM     40  C   UNL A   1      37.918  31.788  30.728  1.00  0.00     0.031 A 
ATOM     41  C   UNL A   1      38.444  32.124  32.098  1.00  0.00     0.074 A 
ATOM     42  C   UNL A   1      38.562  30.879  29.970  1.00  0.00     0.049 A 
ATOM     43  N   UNL A   1      39.477  31.623  32.730  1.00  0.00    -0.248 NA
ATOM     44  C   UNL A   1      37.731  33.170  32.846  1.00  0.00     0.031 C 
ATOM     45  C   UNL A   1      38.182  30.490  28.610  1.00  0.00     0.029 A 
ATOM     46  N   UNL A   1      39.671  30.115  30.237  1.00  0.00    -0.354 N 
ATOM     47  C   UNL A   1      39.542  32.299  33.942  1.00  0.00     0.074 A 
ATOM     48  C   UNL A   1      38.476  33.277  33.937  1.00  0.00     0.031 C 
ATOM     49  C   UNL A   1      39.021  29.536  28.176  1.00  0.00     0.029 A 
ATOM     50  C   UNL A   1      40.016  29.270  29.210  1.00  0.00     0.049 A 
ATOM     51  H   UNL A   1      40.170  30.167  31.084  1.00  0.00     0.167 HD
ATOM     52  C   UNL A   1      40.399  32.111  34.976  1.00  0.00     0.031 A 
ATOM     53  C   UNL A   1      41.019  28.378  29.111  1.00  0.00     0.031 A 
ATOM     54  C   UNL A   1      41.457  31.136  34.989  1.00  0.00     0.049 A 
ATOM     55  C   UNL A   1      41.958  28.192  30.269  1.00  0.00     0.074 A 
ATOM     56  C   UNL A   1      42.343  30.838  36.010  1.00  0.00     0.029 A 
ATOM     57  N   UNL A   1      41.774  30.301  33.929  1.00  0.00    -0.354 N 
ATOM     58  N   UNL A   1      41.964  28.793  31.435  1.00  0.00    -0.248 NA
ATOM     59  C   UNL A   1      43.021  27.191  30.102  1.00  0.00     0.031 C 
ATOM     60  C   UNL A   1      43.226  29.855  35.551  1.00  0.00     0.029 A 
ATOM     61  C   UNL A   1      42.856  29.503  34.264  1.00  0.00     0.049 A 
ATOM     62  H   UNL A   1      41.300  30.279  33.066  1.00  0.00     0.167 HD
ATOM     63  C   UNL A   1      43.012  28.225  32.147  1.00  0.00     0.074 A 
ATOM     64  C   UNL A   1      43.607  27.221  31.291  1.00  0.00     0.031 C 
ATOM     65  C   UNL A   1      43.443  28.512  33.400  1.00  0.00     0.031 A 
BRANCH  52  66
ATOM     66  C   UNL A   1      40.226  32.992  36.184  1.00  0.00    -0.014 A 
ATOM     67  C   UNL A   1      40.924  34.204  36.305  1.00  0.00     0.009 A 
ATOM     68  C   UNL A   1      39.329  32.621  37.197  1.00  0.00     0.009 A 
ATOM     69  C   UNL A   1      40.755  35.008  37.434  1.00  0.00     0.001 A 
ATOM     70  C   UNL A   1      39.140  33.441  38.312  1.00  0.00     0.001 A 
ATOM     71  C   UNL A   1      39.860  34.629  38.434  1.00  0.00     0.000 A 
ENDBRANCH  52  66
BRANCH  53  72
ATOM     72  C   UNL A   1      41.173  27.567  27.876  1.00  0.00    -0.014 A 
ATOM     73  C   UNL A   1      41.970  28.029  26.817  1.00  0.00     0.009 A 
ATOM     74  C   UNL A   1      40.520  26.332  27.746  1.00  0.00     0.009 A 
ATOM     75  C   UNL A   1      42.088  27.282  25.643  1.00  0.00     0.001 A 
ATOM     76  C   UNL A   1      40.663  25.574  26.583  1.00  0.00     0.001 A 
ATOM     77  C   UNL A   1      41.439  26.054  25.528  1.00  0.00     0.000 A 
ENDBRANCH  53  72
BRANCH  65  78
ATOM     78  C   UNL A   1      44.597  27.705  33.926  1.00  0.00    -0.014 A 
ATOM     79  C   UNL A   1      45.917  28.165  33.816  1.00  0.00     0.009 A 
ATOM     80  C   UNL A   1      44.355  26.476  34.557  1.00  0.00     0.009 A 
ATOM     81  C   UNL A   1      46.977  27.390  34.293  1.00  0.00     0.001 A 
ATOM     82  C   UNL A   1      45.412  25.716  35.058  1.00  0.00     0.001 A 
ATOM     83  C   UNL A   1      46.724  26.169  34.915  1.00  0.00     0.000 A 
ENDBRANCH  65  78
ENDBRANCH  39  40
ENDBRANCH  31  34
ENDBRANCH  29  30
ENDBRANCH  28  29
ENDBRANCH  27  28
ENDBRANCH  26  27
ENDBRANCH   1  26
TORSDOF 17
ENDMDL
