MODEL 1
REMARK VINA RESULT:     -10.4      0.000      0.000
REMARK SMILES CC(C)(C)OC(=O)[C@H]1CC[C@]1([NH3+])C(=O)NCCCCCCNC(=O)c1ccc(-c2c3nc(c(-c4ccccc4)c4ccc([nH]4)c(-c4ccccc4)c4nc(c(-c5ccccc5)c5ccc2[nH]5)C=C4)C=C3)cc1
REMARK SMILES IDX 18 1 17 2 16 3 15 4 13 5 14 6 11 8 8 9 9 10 10 11 6 12 7 13
REMARK SMILES IDX 5 14 2 15 1 16 3 17 4 18 12 19 19 23 20 24 21 25 22 26 23 27
REMARK SMILES IDX 24 29 25 30 26 31 72 32 27 33 71 34 28 35 29 36 30 37 65 38
REMARK SMILES IDX 31 39 70 40 64 41 66 42 32 43 69 44 63 45 62 46 33 48 55 49
REMARK SMILES IDX 40 50 54 51 41 52 44 53 53 54 67 55 42 56 43 57 52 59 68 60
REMARK SMILES IDX 45 61 34 62 35 63 39 64 36 65 38 66 37 67 56 68 57 69 61 70
REMARK SMILES IDX 58 71 60 72 59 73 46 74 47 75 51 76 48 77 50 78 49 79
REMARK H PARENT 15 7 12 20 12 21 12 22 22 28 66 47 44 58
REMARK Flexibility Score: inf
ROOT
ATOM      1  C   UNL A   1      36.956  22.084  24.604  1.00  0.00     0.002 C 
ENDROOT
BRANCH   1   2
ATOM      2  C   UNL A   1      36.735  23.092  25.736  1.00  0.00     0.021 C 
BRANCH   2   3
ATOM      3  C   UNL A   1      35.375  23.784  25.707  1.00  0.00     0.116 C 
BRANCH   3   4
ATOM      4  N   UNL A   1      35.131  24.427  24.428  1.00  0.00    -0.351 N 
ATOM      5  C   UNL A   1      34.042  24.286  23.597  1.00  0.00     0.282 C 
ATOM      6  O   UNL A   1      34.040  24.947  22.553  1.00  0.00    -0.268 OA
ATOM      7  H   UNL A   1      35.833  25.042  24.117  1.00  0.00     0.163 HD
BRANCH   5   8
ATOM      8  C   UNL A   1      32.881  23.310  24.053  1.00  0.00     0.187 C 
ATOM      9  C   UNL A   1      33.145  21.783  23.861  1.00  0.00     0.170 C 
ATOM     10  C   UNL A   1      32.323  21.888  22.546  1.00  0.00     0.029 C 
ATOM     11  C   UNL A   1      31.654  23.148  23.112  1.00  0.00     0.081 C 
BRANCH   9  12
ATOM     12  C   UNL A   1      32.733  20.655  24.827  1.00  0.00     0.316 C 
ATOM     13  O   UNL A   1      31.676  20.666  25.458  1.00  0.00    -0.252 OA
BRANCH  12  14
ATOM     14  O   UNL A   1      33.631  19.632  24.897  1.00  0.00    -0.460 OA
BRANCH  14  15
ATOM     15  C   UNL A   1      33.294  18.288  24.471  1.00  0.00     0.104 C 
ATOM     16  C   UNL A   1      34.653  17.606  24.249  1.00  0.00     0.056 C 
ATOM     17  C   UNL A   1      32.532  18.294  23.140  1.00  0.00     0.056 C 
ATOM     18  C   UNL A   1      32.537  17.537  25.569  1.00  0.00     0.056 C 
ENDBRANCH  14  15
ENDBRANCH  12  14
ENDBRANCH   9  12
BRANCH   8  19
ATOM     19  N   UNL A   1      32.345  23.674  25.380  1.00  0.00    -0.344 N 
ATOM     20  H   UNL A   1      32.475  22.895  26.025  1.00  0.00     0.345 HD
ATOM     21  H   UNL A   1      31.349  23.885  25.298  1.00  0.00     0.345 HD
ATOM     22  H   UNL A   1      32.837  24.494  25.733  1.00  0.00     0.345 HD
ENDBRANCH   8  19
ENDBRANCH   5   8
ENDBRANCH   3   4
ENDBRANCH   2   3
ENDBRANCH   1   2
BRANCH   1  23
ATOM     23  C   UNL A   1      36.779  20.615  25.001  1.00  0.00     0.002 C 
BRANCH  23  24
ATOM     24  C   UNL A   1      38.033  19.750  24.857  1.00  0.00     0.021 C 
BRANCH  24  25
ATOM     25  C   UNL A   1      39.196  20.157  25.757  1.00  0.00     0.116 C 
BRANCH  25  26
ATOM     26  N   UNL A   1      40.187  19.102  25.891  1.00  0.00    -0.352 N 
ATOM     27  C   UNL A   1      41.538  19.198  26.105  1.00  0.00     0.251 C 
ATOM     28  H   UNL A   1      39.837  18.184  25.818  1.00  0.00     0.163 HD
ATOM     29  O   UNL A   1      42.251  18.201  26.014  1.00  0.00    -0.269 OA
BRANCH  27  30
ATOM     30  C   UNL A   1      42.142  20.507  26.423  1.00  0.00     0.039 A 
ATOM     31  C   UNL A   1      42.641  21.292  25.379  1.00  0.00     0.014 A 
ATOM     32  C   UNL A   1      42.224  20.961  27.743  1.00  0.00     0.014 A 
ATOM     33  C   UNL A   1      43.166  22.556  25.654  1.00  0.00     0.010 A 
ATOM     34  C   UNL A   1      42.681  22.250  28.007  1.00  0.00     0.010 A 
ATOM     35  C   UNL A   1      43.159  23.060  26.964  1.00  0.00    -0.014 A 
BRANCH  35  36
ATOM     36  C   UNL A   1      43.639  24.434  27.263  1.00  0.00     0.031 A 
ATOM     37  C   UNL A   1      42.665  25.505  27.679  1.00  0.00     0.074 A 
ATOM     38  C   UNL A   1      44.943  24.734  27.100  1.00  0.00     0.049 A 
ATOM     39  N   UNL A   1      42.891  26.771  27.927  1.00  0.00    -0.248 NA
ATOM     40  C   UNL A   1      41.253  25.110  27.810  1.00  0.00     0.031 C 
ATOM     41  C   UNL A   1      45.982  23.797  26.664  1.00  0.00     0.029 A 
ATOM     42  N   UNL A   1      45.618  25.917  27.273  1.00  0.00    -0.354 N 
ATOM     43  C   UNL A   1      41.650  27.325  28.218  1.00  0.00     0.074 A 
ATOM     44  C   UNL A   1      40.671  26.270  28.080  1.00  0.00     0.031 C 
ATOM     45  C   UNL A   1      47.163  24.435  26.627  1.00  0.00     0.029 A 
ATOM     46  C   UNL A   1      46.961  25.832  26.993  1.00  0.00     0.049 A 
ATOM     47  H   UNL A   1      45.180  26.747  27.570  1.00  0.00     0.167 HD
ATOM     48  C   UNL A   1      41.355  28.596  28.580  1.00  0.00     0.031 A 
ATOM     49  C   UNL A   1      47.921  26.778  27.017  1.00  0.00     0.031 A 
ATOM     50  C   UNL A   1      42.332  29.639  28.744  1.00  0.00     0.049 A 
ATOM     51  C   UNL A   1      47.557  28.183  27.416  1.00  0.00     0.074 A 
ATOM     52  C   UNL A   1      42.137  30.935  29.188  1.00  0.00     0.029 A 
ATOM     53  N   UNL A   1      43.682  29.509  28.463  1.00  0.00    -0.354 N 
ATOM     54  N   UNL A   1      46.394  28.665  27.779  1.00  0.00    -0.248 NA
ATOM     55  C   UNL A   1      48.645  29.171  27.417  1.00  0.00     0.031 C 
ATOM     56  C   UNL A   1      43.359  31.609  29.117  1.00  0.00     0.029 A 
ATOM     57  C   UNL A   1      44.326  30.713  28.691  1.00  0.00     0.049 A 
ATOM     58  H   UNL A   1      44.119  28.684  28.149  1.00  0.00     0.167 HD
ATOM     59  C   UNL A   1      46.618  30.001  28.086  1.00  0.00     0.074 A 
ATOM     60  C   UNL A   1      48.030  30.248  27.885  1.00  0.00     0.031 C 
ATOM     61  C   UNL A   1      45.734  30.941  28.498  1.00  0.00     0.031 A 
BRANCH  48  62
ATOM     62  C   UNL A   1      39.913  28.944  28.819  1.00  0.00    -0.014 A 
ATOM     63  C   UNL A   1      39.080  29.375  27.774  1.00  0.00     0.009 A 
ATOM     64  C   UNL A   1      39.359  28.759  30.096  1.00  0.00     0.009 A 
ATOM     65  C   UNL A   1      37.728  29.634  28.009  1.00  0.00     0.001 A 
ATOM     66  C   UNL A   1      38.001  28.993  30.322  1.00  0.00     0.001 A 
ATOM     67  C   UNL A   1      37.188  29.435  29.279  1.00  0.00     0.000 A 
ENDBRANCH  48  62
BRANCH  49  68
ATOM     68  C   UNL A   1      49.322  26.443  26.649  1.00  0.00    -0.014 A 
ATOM     69  C   UNL A   1      50.240  26.030  27.628  1.00  0.00     0.009 A 
ATOM     70  C   UNL A   1      49.766  26.585  25.325  1.00  0.00     0.009 A 
ATOM     71  C   UNL A   1      51.579  25.811  27.298  1.00  0.00     0.001 A 
ATOM     72  C   UNL A   1      51.098  26.331  24.991  1.00  0.00     0.001 A 
ATOM     73  C   UNL A   1      52.007  25.960  25.980  1.00  0.00     0.000 A 
ENDBRANCH  49  68
BRANCH  61  74
ATOM     74  C   UNL A   1      46.273  32.310  28.805  1.00  0.00    -0.014 A 
ATOM     75  C   UNL A   1      46.311  33.319  27.831  1.00  0.00     0.009 A 
ATOM     76  C   UNL A   1      46.713  32.603  30.106  1.00  0.00     0.009 A 
ATOM     77  C   UNL A   1      46.814  34.583  28.144  1.00  0.00     0.001 A 
ATOM     78  C   UNL A   1      47.184  33.877  30.425  1.00  0.00     0.001 A 
ATOM     79  C   UNL A   1      47.244  34.863  29.441  1.00  0.00     0.000 A 
ENDBRANCH  61  74
ENDBRANCH  35  36
ENDBRANCH  27  30
ENDBRANCH  25  26
ENDBRANCH  24  25
ENDBRANCH  23  24
ENDBRANCH   1  23
TORSDOF 17
ENDMDL
MODEL 2
REMARK VINA RESULT:     -10.3      1.636      6.216
REMARK SMILES CC(C)(C)OC(=O)[C@H]1CC[C@]1([NH3+])C(=O)NCCCCCCNC(=O)c1ccc(-c2c3nc(c(-c4ccccc4)c4ccc([nH]4)c(-c4ccccc4)c4nc(c(-c5ccccc5)c5ccc2[nH]5)C=C4)C=C3)cc1
REMARK SMILES IDX 18 1 17 2 16 3 15 4 13 5 14 6 11 8 8 9 9 10 10 11 6 12 7 13
REMARK SMILES IDX 5 14 2 15 1 16 3 17 4 18 12 19 19 23 20 24 21 25 22 26 23 27
REMARK SMILES IDX 24 29 25 30 26 31 72 32 27 33 71 34 28 35 29 36 30 37 65 38
REMARK SMILES IDX 31 39 70 40 64 41 66 42 32 43 69 44 63 45 62 46 33 48 55 49
REMARK SMILES IDX 40 50 54 51 41 52 44 53 53 54 67 55 42 56 43 57 52 59 68 60
REMARK SMILES IDX 45 61 34 62 35 63 39 64 36 65 38 66 37 67 56 68 57 69 61 70
REMARK SMILES IDX 58 71 60 72 59 73 46 74 47 75 51 76 48 77 50 78 49 79
REMARK H PARENT 15 7 12 20 12 21 12 22 22 28 66 47 44 58
REMARK Flexibility Score: inf
ROOT
ATOM      1  C   UNL A   1      36.681  21.873  25.750  1.00  0.00     0.002 C 
ENDROOT
BRANCH   1   2
ATOM      2  C   UNL A   1      36.748  23.360  25.394  1.00  0.00     0.021 C 
BRANCH   2   3
ATOM      3  C   UNL A   1      35.398  24.074  25.413  1.00  0.00     0.116 C 
BRANCH   3   4
ATOM      4  N   UNL A   1      35.016  24.526  24.088  1.00  0.00    -0.351 N 
ATOM      5  C   UNL A   1      33.883  24.208  23.372  1.00  0.00     0.282 C 
ATOM      6  O   UNL A   1      33.757  24.724  22.256  1.00  0.00    -0.268 OA
ATOM      7  H   UNL A   1      35.646  25.138  23.645  1.00  0.00     0.163 HD
BRANCH   5   8
ATOM      8  C   UNL A   1      32.834  23.227  24.040  1.00  0.00     0.187 C 
ATOM      9  C   UNL A   1      33.166  21.702  23.967  1.00  0.00     0.170 C 
ATOM     10  C   UNL A   1      32.211  21.634  22.743  1.00  0.00     0.029 C 
ATOM     11  C   UNL A   1      31.530  22.911  23.254  1.00  0.00     0.081 C 
BRANCH   9  12
ATOM     12  C   UNL A   1      32.921  20.659  25.075  1.00  0.00     0.316 C 
ATOM     13  O   UNL A   1      33.304  20.811  26.235  1.00  0.00    -0.252 OA
BRANCH  12  14
ATOM     14  O   UNL A   1      32.218  19.569  24.660  1.00  0.00    -0.460 OA
BRANCH  14  15
ATOM     15  C   UNL A   1      32.866  18.303  24.373  1.00  0.00     0.104 C 
ATOM     16  C   UNL A   1      32.408  17.954  22.948  1.00  0.00     0.056 C 
ATOM     17  C   UNL A   1      32.386  17.198  25.321  1.00  0.00     0.056 C 
ATOM     18  C   UNL A   1      34.389  18.452  24.381  1.00  0.00     0.056 C 
ENDBRANCH  14  15
ENDBRANCH  12  14
ENDBRANCH   9  12
BRANCH   8  19
ATOM     19  N   UNL A   1      32.414  23.697  25.375  1.00  0.00    -0.344 N 
ATOM     20  H   UNL A   1      33.178  24.212  25.809  1.00  0.00     0.345 HD
ATOM     21  H   UNL A   1      32.171  22.894  25.957  1.00  0.00     0.345 HD
ATOM     22  H   UNL A   1      31.602  24.307  25.282  1.00  0.00     0.345 HD
ENDBRANCH   8  19
ENDBRANCH   5   8
ENDBRANCH   3   4
ENDBRANCH   2   3
ENDBRANCH   1   2
BRANCH   1  23
ATOM     23  C   UNL A   1      36.936  20.914  24.583  1.00  0.00     0.002 C 
BRANCH  23  24
ATOM     24  C   UNL A   1      37.940  19.795  24.871  1.00  0.00     0.021 C 
BRANCH  24  25
ATOM     25  C   UNL A   1      39.014  20.149  25.895  1.00  0.00     0.116 C 
BRANCH  25  26
ATOM     26  N   UNL A   1      40.162  19.260  25.821  1.00  0.00    -0.352 N 
ATOM     27  C   UNL A   1      41.491  19.538  26.014  1.00  0.00     0.251 C 
ATOM     28  H   UNL A   1      39.956  18.323  25.600  1.00  0.00     0.163 HD
ATOM     29  O   UNL A   1      42.345  18.698  25.734  1.00  0.00    -0.269 OA
BRANCH  27  30
ATOM     30  C   UNL A   1      41.901  20.856  26.537  1.00  0.00     0.039 A 
ATOM     31  C   UNL A   1      42.314  21.841  25.635  1.00  0.00     0.014 A 
ATOM     32  C   UNL A   1      41.884  21.123  27.909  1.00  0.00     0.014 A 
ATOM     33  C   UNL A   1      42.653  23.112  26.105  1.00  0.00     0.010 A 
ATOM     34  C   UNL A   1      42.152  22.410  28.368  1.00  0.00     0.010 A 
ATOM     35  C   UNL A   1      42.541  23.418  27.471  1.00  0.00    -0.014 A 
BRANCH  35  36
ATOM     36  C   UNL A   1      42.819  24.786  27.978  1.00  0.00     0.031 A 
ATOM     37  C   UNL A   1      44.215  25.175  28.386  1.00  0.00     0.074 A 
ATOM     38  C   UNL A   1      41.803  25.659  28.131  1.00  0.00     0.049 A 
ATOM     39  N   UNL A   1      44.638  26.303  28.901  1.00  0.00    -0.248 NA
ATOM     40  C   UNL A   1      45.268  24.161  28.217  1.00  0.00     0.031 C 
ATOM     41  C   UNL A   1      40.398  25.392  27.810  1.00  0.00     0.029 A 
ATOM     42  N   UNL A   1      41.794  26.948  28.604  1.00  0.00    -0.354 N 
ATOM     43  C   UNL A   1      45.995  26.124  29.138  1.00  0.00     0.074 A 
ATOM     44  C   UNL A   1      46.320  24.770  28.747  1.00  0.00     0.031 C 
ATOM     45  C   UNL A   1      39.669  26.489  28.073  1.00  0.00     0.029 A 
ATOM     46  C   UNL A   1      40.544  27.520  28.621  1.00  0.00     0.049 A 
ATOM     47  H   UNL A   1      42.605  27.417  28.903  1.00  0.00     0.167 HD
ATOM     48  C   UNL A   1      46.893  27.012  29.626  1.00  0.00     0.031 A 
ATOM     49  C   UNL A   1      40.145  28.737  29.041  1.00  0.00     0.031 A 
ATOM     50  C   UNL A   1      46.577  28.367  29.989  1.00  0.00     0.049 A 
ATOM     51  C   UNL A   1      41.168  29.697  29.586  1.00  0.00     0.074 A 
ATOM     52  C   UNL A   1      47.437  29.365  30.414  1.00  0.00     0.029 A 
ATOM     53  N   UNL A   1      45.304  28.912  29.979  1.00  0.00    -0.354 N 
ATOM     54  N   UNL A   1      42.463  29.542  29.714  1.00  0.00    -0.248 NA
ATOM     55  C   UNL A   1      40.672  31.006  30.035  1.00  0.00     0.031 C 
ATOM     56  C   UNL A   1      46.675  30.496  30.721  1.00  0.00     0.029 A 
ATOM     57  C   UNL A   1      45.350  30.222  30.424  1.00  0.00     0.049 A 
ATOM     58  H   UNL A   1      44.487  28.439  29.697  1.00  0.00     0.167 HD
ATOM     59  C   UNL A   1      42.939  30.744  30.223  1.00  0.00     0.074 A 
ATOM     60  C   UNL A   1      41.797  31.623  30.362  1.00  0.00     0.031 C 
ATOM     61  C   UNL A   1      44.208  31.089  30.547  1.00  0.00     0.031 A 
BRANCH  48  62
ATOM     62  C   UNL A   1      48.313  26.552  29.807  1.00  0.00    -0.014 A 
ATOM     63  C   UNL A   1      49.284  26.767  28.817  1.00  0.00     0.009 A 
ATOM     64  C   UNL A   1      48.700  25.968  31.024  1.00  0.00     0.009 A 
ATOM     65  C   UNL A   1      50.610  26.386  29.034  1.00  0.00     0.001 A 
ATOM     66  C   UNL A   1      50.032  25.613  31.248  1.00  0.00     0.001 A 
ATOM     67  C   UNL A   1      50.984  25.818  30.251  1.00  0.00     0.000 A 
ENDBRANCH  48  62
BRANCH  49  68
ATOM     68  C   UNL A   1      38.712  29.128  28.976  1.00  0.00    -0.014 A 
ATOM     69  C   UNL A   1      38.179  29.705  27.811  1.00  0.00     0.009 A 
ATOM     70  C   UNL A   1      37.877  28.975  30.095  1.00  0.00     0.009 A 
ATOM     71  C   UNL A   1      36.860  30.161  27.784  1.00  0.00     0.001 A 
ATOM     72  C   UNL A   1      36.548  29.400  30.053  1.00  0.00     0.001 A 
ATOM     73  C   UNL A   1      36.045  30.007  28.904  1.00  0.00     0.000 A 
ENDBRANCH  49  68
BRANCH  61  74
ATOM     74  C   UNL A   1      44.439  32.491  31.037  1.00  0.00    -0.014 A 
ATOM     75  C   UNL A   1      44.690  33.547  30.148  1.00  0.00     0.009 A 
ATOM     76  C   UNL A   1      44.363  32.763  32.413  1.00  0.00     0.009 A 
ATOM     77  C   UNL A   1      44.897  34.841  30.630  1.00  0.00     0.001 A 
ATOM     78  C   UNL A   1      44.537  34.063  32.889  1.00  0.00     0.001 A 
ATOM     79  C   UNL A   1      44.814  35.098  31.998  1.00  0.00     0.000 A 
ENDBRANCH  61  74
ENDBRANCH  35  36
ENDBRANCH  27  30
ENDBRANCH  25  26
ENDBRANCH  24  25
ENDBRANCH  23  24
ENDBRANCH   1  23
TORSDOF 17
ENDMDL
MODEL 3
REMARK VINA RESULT:     -10.3      5.277     10.187
REMARK SMILES CC(C)(C)OC(=O)[C@H]1CC[C@]1([NH3+])C(=O)NCCCCCCNC(=O)c1ccc(-c2c3nc(c(-c4ccccc4)c4ccc([nH]4)c(-c4ccccc4)c4nc(c(-c5ccccc5)c5ccc2[nH]5)C=C4)C=C3)cc1
REMARK SMILES IDX 18 1 17 2 16 3 15 4 13 5 14 6 11 8 8 9 9 10 10 11 6 12 7 13
REMARK SMILES IDX 5 14 2 15 1 16 3 17 4 18 12 19 19 23 20 24 21 25 22 26 23 27
REMARK SMILES IDX 24 29 25 30 26 31 72 32 27 33 71 34 28 35 29 36 30 37 65 38
REMARK SMILES IDX 31 39 70 40 64 41 66 42 32 43 69 44 63 45 62 46 33 48 55 49
REMARK SMILES IDX 40 50 54 51 41 52 44 53 53 54 67 55 42 56 43 57 52 59 68 60
REMARK SMILES IDX 45 61 34 62 35 63 39 64 36 65 38 66 37 67 56 68 57 69 61 70
REMARK SMILES IDX 58 71 60 72 59 73 46 74 47 75 51 76 48 77 50 78 49 79
REMARK H PARENT 15 7 12 20 12 21 12 22 22 28 66 47 44 58
REMARK Flexibility Score: inf
ROOT
ATOM      1  C   UNL A   1      33.305  30.325  27.312  1.00  0.00     0.002 C 
ENDROOT
BRANCH   1   2
ATOM      2  C   UNL A   1      33.791  28.882  27.150  1.00  0.00     0.021 C 
BRANCH   2   3
ATOM      3  C   UNL A   1      33.054  28.085  26.077  1.00  0.00     0.116 C 
BRANCH   3   4
ATOM      4  N   UNL A   1      32.364  26.940  26.643  1.00  0.00    -0.351 N 
ATOM      5  C   UNL A   1      31.549  26.034  26.002  1.00  0.00     0.282 C 
ATOM      6  O   UNL A   1      31.072  25.122  26.686  1.00  0.00    -0.268 OA
ATOM      7  H   UNL A   1      32.495  26.794  27.607  1.00  0.00     0.163 HD
BRANCH   5   8
ATOM      8  C   UNL A   1      31.305  26.223  24.448  1.00  0.00     0.187 C 
ATOM      9  C   UNL A   1      30.393  27.420  24.030  1.00  0.00     0.170 C 
ATOM     10  C   UNL A   1      29.230  26.393  23.926  1.00  0.00     0.029 C 
ATOM     11  C   UNL A   1      30.278  25.285  23.753  1.00  0.00     0.081 C 
BRANCH   9  12
ATOM     12  C   UNL A   1      30.594  28.340  22.811  1.00  0.00     0.316 C 
ATOM     13  O   UNL A   1      31.700  28.738  22.447  1.00  0.00    -0.252 OA
BRANCH  12  14
ATOM     14  O   UNL A   1      29.440  28.648  22.155  1.00  0.00    -0.460 OA
BRANCH  14  15
ATOM     15  C   UNL A   1      28.604  29.762  22.560  1.00  0.00     0.104 C 
ATOM     16  C   UNL A   1      28.410  30.581  21.274  1.00  0.00     0.056 C 
ATOM     17  C   UNL A   1      29.308  30.647  23.596  1.00  0.00     0.056 C 
ATOM     18  C   UNL A   1      27.237  29.275  23.047  1.00  0.00     0.056 C 
ENDBRANCH  14  15
ENDBRANCH  12  14
ENDBRANCH   9  12
BRANCH   8  19
ATOM     19  N   UNL A   1      32.559  26.113  23.677  1.00  0.00    -0.344 N 
ATOM     20  H   UNL A   1      32.382  26.360  22.704  1.00  0.00     0.345 HD
ATOM     21  H   UNL A   1      32.907  25.155  23.727  1.00  0.00     0.345 HD
ATOM     22  H   UNL A   1      33.256  26.748  24.067  1.00  0.00     0.345 HD
ENDBRANCH   8  19
ENDBRANCH   5   8
ENDBRANCH   3   4
ENDBRANCH   2   3
ENDBRANCH   1   2
BRANCH   1  23
ATOM     23  C   UNL A   1      31.843  30.564  26.918  1.00  0.00     0.002 C 
BRANCH  23  24
ATOM     24  C   UNL A   1      31.433  32.035  26.816  1.00  0.00     0.021 C 
BRANCH  24  25
ATOM     25  C   UNL A   1      32.595  33.022  26.780  1.00  0.00     0.116 C 
BRANCH  25  26
ATOM     26  N   UNL A   1      32.373  34.170  27.645  1.00  0.00    -0.352 N 
ATOM     27  C   UNL A   1      33.065  34.566  28.760  1.00  0.00     0.251 C 
ATOM     28  H   UNL A   1      31.616  34.746  27.392  1.00  0.00     0.163 HD
ATOM     29  O   UNL A   1      32.625  35.466  29.473  1.00  0.00    -0.269 OA
BRANCH  27  30
ATOM     30  C   UNL A   1      34.330  33.895  29.121  1.00  0.00     0.039 A 
ATOM     31  C   UNL A   1      35.515  34.316  28.512  1.00  0.00     0.014 A 
ATOM     32  C   UNL A   1      34.350  32.851  30.051  1.00  0.00     0.014 A 
ATOM     33  C   UNL A   1      36.728  33.731  28.881  1.00  0.00     0.010 A 
ATOM     34  C   UNL A   1      35.567  32.320  30.470  1.00  0.00     0.010 A 
ATOM     35  C   UNL A   1      36.769  32.753  29.888  1.00  0.00    -0.014 A 
BRANCH  35  36
ATOM     36  C   UNL A   1      38.059  32.178  30.349  1.00  0.00     0.031 A 
ATOM     37  C   UNL A   1      38.572  30.892  29.757  1.00  0.00     0.074 A 
ATOM     38  C   UNL A   1      38.737  32.779  31.347  1.00  0.00     0.049 A 
ATOM     39  N   UNL A   1      39.646  30.212  30.071  1.00  0.00    -0.248 NA
ATOM     40  C   UNL A   1      37.764  30.278  28.691  1.00  0.00     0.031 C 
ATOM     41  C   UNL A   1      38.327  34.009  32.033  1.00  0.00     0.029 A 
ATOM     42  N   UNL A   1      39.913  32.434  31.965  1.00  0.00    -0.354 N 
ATOM     43  C   UNL A   1      39.628  29.083  29.262  1.00  0.00     0.074 A 
ATOM     44  C   UNL A   1      38.421  29.148  28.469  1.00  0.00     0.031 C 
ATOM     45  C   UNL A   1      39.248  34.325  32.958  1.00  0.00     0.029 A 
ATOM     46  C   UNL A   1      40.288  33.302  32.963  1.00  0.00     0.049 A 
ATOM     47  H   UNL A   1      40.438  31.639  31.717  1.00  0.00     0.167 HD
ATOM     48  C   UNL A   1      40.542  28.088  29.178  1.00  0.00     0.031 A 
ATOM     49  C   UNL A   1      41.346  33.272  33.797  1.00  0.00     0.031 A 
ATOM     50  C   UNL A   1      41.757  28.037  29.946  1.00  0.00     0.049 A 
ATOM     51  C   UNL A   1      42.339  32.146  33.682  1.00  0.00     0.074 A 
ATOM     52  C   UNL A   1      42.783  27.111  29.869  1.00  0.00     0.029 A 
ATOM     53  N   UNL A   1      42.106  28.941  30.935  1.00  0.00    -0.354 N 
ATOM     54  N   UNL A   1      42.353  31.137  32.846  1.00  0.00    -0.248 NA
ATOM     55  C   UNL A   1      43.468  32.163  34.623  1.00  0.00     0.031 C 
ATOM     56  C   UNL A   1      43.724  27.420  30.855  1.00  0.00     0.029 A 
ATOM     57  C   UNL A   1      43.315  28.574  31.501  1.00  0.00     0.049 A 
ATOM     58  H   UNL A   1      41.574  29.727  31.198  1.00  0.00     0.167 HD
ATOM     59  C   UNL A   1      43.509  30.423  33.136  1.00  0.00     0.074 A 
ATOM     60  C   UNL A   1      44.178  31.123  34.212  1.00  0.00     0.031 C 
ATOM     61  C   UNL A   1      43.975  29.287  32.563  1.00  0.00     0.031 A 
BRANCH  48  62
ATOM     62  C   UNL A   1      40.269  26.958  28.225  1.00  0.00    -0.014 A 
ATOM     63  C   UNL A   1      40.778  26.963  26.917  1.00  0.00     0.009 A 
ATOM     64  C   UNL A   1      39.559  25.832  28.673  1.00  0.00     0.009 A 
ATOM     65  C   UNL A   1      40.562  25.874  26.071  1.00  0.00     0.001 A 
ATOM     66  C   UNL A   1      39.368  24.733  27.833  1.00  0.00     0.001 A 
ATOM     67  C   UNL A   1      39.866  24.757  26.531  1.00  0.00     0.000 A 
ENDBRANCH  48  62
BRANCH  49  68
ATOM     68  C   UNL A   1      41.531  34.331  34.824  1.00  0.00    -0.014 A 
ATOM     69  C   UNL A   1      40.959  34.200  36.100  1.00  0.00     0.009 A 
ATOM     70  C   UNL A   1      42.239  35.505  34.520  1.00  0.00     0.009 A 
ATOM     71  C   UNL A   1      41.050  35.237  37.029  1.00  0.00     0.001 A 
ATOM     72  C   UNL A   1      42.359  36.526  35.464  1.00  0.00     0.001 A 
ATOM     73  C   UNL A   1      41.752  36.399  36.712  1.00  0.00     0.000 A 
ENDBRANCH  49  68
BRANCH  61  74
ATOM     74  C   UNL A   1      45.293  28.757  33.053  1.00  0.00    -0.014 A 
ATOM     75  C   UNL A   1      45.364  27.814  34.090  1.00  0.00     0.009 A 
ATOM     76  C   UNL A   1      46.481  29.181  32.436  1.00  0.00     0.009 A 
ATOM     77  C   UNL A   1      46.602  27.334  34.523  1.00  0.00     0.001 A 
ATOM     78  C   UNL A   1      47.714  28.675  32.849  1.00  0.00     0.001 A 
ATOM     79  C   UNL A   1      47.774  27.760  33.899  1.00  0.00     0.000 A 
ENDBRANCH  61  74
ENDBRANCH  35  36
ENDBRANCH  27  30
ENDBRANCH  25  26
ENDBRANCH  24  25
ENDBRANCH  23  24
ENDBRANCH   1  23
TORSDOF 17
ENDMDL
