MODEL 1
REMARK VINA RESULT:     -12.1      0.000      0.000
REMARK SMILES O=C(NCCCCCCNC(=O)c1ccc(-c2c3nc(c(-c4ccccc4)c4ccc([nH]4)c(-c4ccccc4)c4nc(c(-c5ccccc5)c5ccc2[nH]5)C=C4)C=C3)cc1)C1=Cc2cc(Cl)cc(C#Cc3ccccc3)c2O[C@@H]1C(F)(F)F
REMARK SMILES IDX 6 1 5 2 4 3 3 4 1 5 2 6 61 8 62 9 79 10 63 11 78 12 64 13
REMARK SMILES IDX 77 14 65 15 68 16 66 17 67 18 80 19 81 20 82 21 83 22 69 23
REMARK SMILES IDX 70 24 71 25 72 26 76 27 73 28 75 29 74 30 7 31 8 32 9 33
REMARK SMILES IDX 10 34 11 35 12 37 13 38 14 39 60 40 15 41 59 42 16 43 17 44
REMARK SMILES IDX 18 45 53 46 19 47 58 48 52 49 54 50 20 51 57 52 51 53 50 54
REMARK SMILES IDX 21 56 43 57 28 58 42 59 29 60 32 61 41 62 55 63 30 64 31 65
REMARK SMILES IDX 40 67 56 68 33 69 22 70 23 71 27 72 24 73 26 74 25 75 44 76
REMARK SMILES IDX 45 77 49 78 46 79 48 80 47 81 34 82 35 83 39 84 36 85 38 86
REMARK SMILES IDX 37 87
REMARK H PARENT 3 7 10 36 54 55 32 66
REMARK Flexibility Score: inf
ROOT
ATOM      1  C   UNL A   1      30.921  28.104  23.948  1.00  0.00     0.002 C 
ENDROOT
BRANCH   1   2
ATOM      2  C   UNL A   1      30.344  26.990  24.822  1.00  0.00     0.021 C 
BRANCH   2   3
ATOM      3  C   UNL A   1      30.880  26.906  26.246  1.00  0.00     0.116 C 
BRANCH   3   4
ATOM      4  N   UNL A   1      31.115  25.569  26.756  1.00  0.00    -0.352 N 
ATOM      5  O   UNL A   1      32.179  23.607  27.017  1.00  0.00    -0.270 OA
ATOM      6  C   UNL A   1      32.028  24.630  26.352  1.00  0.00     0.251 C 
ATOM      7  H   UNL A   1      30.534  25.295  27.502  1.00  0.00     0.163 HD
BRANCH   6   8
ATOM      8  C   UNL A   1      32.935  24.850  25.181  1.00  0.00     0.067 C 
ATOM      9  C   UNL A   1      34.241  25.127  25.338  1.00  0.00     0.025 C 
ATOM     10  C   UNL A   1      32.525  24.016  23.990  1.00  0.00     0.314 C 
ATOM     11  C   UNL A   1      35.127  24.002  24.949  1.00  0.00     0.020 A 
ATOM     12  O   UNL A   1      33.267  22.767  23.963  1.00  0.00    -0.474 OA
ATOM     13  C   UNL A   1      36.439  24.012  25.438  1.00  0.00     0.032 A 
ATOM     14  C   UNL A   1      34.556  22.813  24.449  1.00  0.00     0.143 A 
ATOM     15  C   UNL A   1      37.147  22.816  25.515  1.00  0.00     0.043 A 
ATOM     16  C   UNL A   1      35.250  21.607  24.607  1.00  0.00     0.069 A 
ATOM     17  Cl  UNL A   1      38.688  22.787  26.280  1.00  0.00    -0.084 Cl
ATOM     18  C   UNL A   1      36.556  21.618  25.120  1.00  0.00     0.041 A 
BRANCH  10  19
ATOM     19  C   UNL A   1      32.637  24.822  22.681  1.00  0.00     0.429 C 
ATOM     20  F   UNL A   1      31.425  25.235  22.244  1.00  0.00    -0.167 F 
ATOM     21  F   UNL A   1      33.394  25.934  22.849  1.00  0.00    -0.167 F 
ATOM     22  F   UNL A   1      33.205  24.111  21.676  1.00  0.00    -0.167 F 
ENDBRANCH  10  19
BRANCH  16  23
ATOM     23  C   UNL A   1      34.586  20.334  24.544  1.00  0.00    -0.058 C 
ATOM     24  C   UNL A   1      34.170  19.215  24.676  1.00  0.00    -0.062 C 
BRANCH  24  25
ATOM     25  C   UNL A   1      33.813  17.850  24.931  1.00  0.00     0.025 A 
ATOM     26  C   UNL A   1      32.552  17.520  25.433  1.00  0.00     0.017 A 
ATOM     27  C   UNL A   1      34.754  16.841  24.707  1.00  0.00     0.017 A 
ATOM     28  C   UNL A   1      32.228  16.182  25.682  1.00  0.00     0.001 A 
ATOM     29  C   UNL A   1      34.429  15.506  24.957  1.00  0.00     0.001 A 
ATOM     30  C   UNL A   1      33.164  15.176  25.438  1.00  0.00     0.000 A 
ENDBRANCH  24  25
ENDBRANCH  16  23
ENDBRANCH   6   8
ENDBRANCH   3   4
ENDBRANCH   2   3
ENDBRANCH   1   2
BRANCH   1  31
ATOM     31  C   UNL A   1      31.830  29.128  24.641  1.00  0.00     0.002 C 
BRANCH  31  32
ATOM     32  C   UNL A   1      33.332  28.832  24.641  1.00  0.00     0.021 C 
BRANCH  32  33
ATOM     33  C   UNL A   1      34.037  28.910  25.992  1.00  0.00     0.116 C 
BRANCH  33  34
ATOM     34  N   UNL A   1      33.798  30.165  26.682  1.00  0.00    -0.352 N 
ATOM     35  C   UNL A   1      34.508  30.773  27.687  1.00  0.00     0.251 C 
ATOM     36  H   UNL A   1      33.000  30.658  26.382  1.00  0.00     0.163 HD
ATOM     37  O   UNL A   1      34.053  31.774  28.233  1.00  0.00    -0.269 OA
BRANCH  35  38
ATOM     38  C   UNL A   1      35.808  30.226  28.136  1.00  0.00     0.039 A 
ATOM     39  C   UNL A   1      36.908  30.334  27.279  1.00  0.00     0.014 A 
ATOM     40  C   UNL A   1      35.948  29.576  29.366  1.00  0.00     0.014 A 
ATOM     41  C   UNL A   1      38.152  29.835  27.671  1.00  0.00     0.010 A 
ATOM     42  C   UNL A   1      37.204  29.145  29.788  1.00  0.00     0.010 A 
ATOM     43  C   UNL A   1      38.317  29.261  28.942  1.00  0.00    -0.014 A 
BRANCH  43  44
ATOM     44  C   UNL A   1      39.645  28.770  29.392  1.00  0.00     0.031 A 
ATOM     45  C   UNL A   1      40.494  29.607  30.308  1.00  0.00     0.074 A 
ATOM     46  C   UNL A   1      40.108  27.589  28.940  1.00  0.00     0.049 A 
ATOM     47  N   UNL A   1      41.692  29.362  30.780  1.00  0.00    -0.248 NA
ATOM     48  C   UNL A   1      39.936  30.900  30.735  1.00  0.00     0.031 C 
ATOM     49  C   UNL A   1      39.398  26.698  28.019  1.00  0.00     0.029 A 
ATOM     50  N   UNL A   1      41.289  26.936  29.191  1.00  0.00    -0.354 N 
ATOM     51  C   UNL A   1      42.031  30.470  31.545  1.00  0.00     0.074 A 
ATOM     52  C   UNL A   1      40.940  31.413  31.429  1.00  0.00     0.031 C 
ATOM     53  C   UNL A   1      40.147  25.605  27.804  1.00  0.00     0.029 A 
ATOM     54  C   UNL A   1      41.403  25.734  28.535  1.00  0.00     0.049 A 
ATOM     55  H   UNL A   1      41.988  27.295  29.784  1.00  0.00     0.167 HD
ATOM     56  C   UNL A   1      43.141  30.679  32.293  1.00  0.00     0.031 A 
ATOM     57  C   UNL A   1      42.409  24.841  28.514  1.00  0.00     0.031 A 
ATOM     58  C   UNL A   1      44.230  29.744  32.405  1.00  0.00     0.049 A 
ATOM     59  C   UNL A   1      43.643  25.105  29.331  1.00  0.00     0.074 A 
ATOM     60  C   UNL A   1      45.378  29.843  33.172  1.00  0.00     0.029 A 
ATOM     61  N   UNL A   1      44.307  28.539  31.722  1.00  0.00    -0.354 N 
ATOM     62  N   UNL A   1      43.920  26.129  30.102  1.00  0.00    -0.248 NA
ATOM     63  C   UNL A   1      44.697  24.082  29.284  1.00  0.00     0.031 C 
ATOM     64  C   UNL A   1      46.176  28.726  32.908  1.00  0.00     0.029 A 
ATOM     65  C   UNL A   1      45.496  27.899  32.028  1.00  0.00     0.049 A 
ATOM     66  H   UNL A   1      43.619  28.192  31.110  1.00  0.00     0.167 HD
ATOM     67  C   UNL A   1      45.168  25.863  30.651  1.00  0.00     0.074 A 
ATOM     68  C   UNL A   1      45.584  24.573  30.139  1.00  0.00     0.031 C 
ATOM     69  C   UNL A   1      45.902  26.618  31.504  1.00  0.00     0.031 A 
BRANCH  56  70
ATOM     70  C   UNL A   1      43.235  31.984  33.038  1.00  0.00    -0.014 A 
ATOM     71  C   UNL A   1      43.831  33.115  32.456  1.00  0.00     0.009 A 
ATOM     72  C   UNL A   1      42.705  32.091  34.334  1.00  0.00     0.009 A 
ATOM     73  C   UNL A   1      43.937  34.309  33.173  1.00  0.00     0.001 A 
ATOM     74  C   UNL A   1      42.783  33.296  35.035  1.00  0.00     0.001 A 
ATOM     75  C   UNL A   1      43.410  34.400  34.460  1.00  0.00     0.000 A 
ENDBRANCH  56  70
BRANCH  57  76
ATOM     76  C   UNL A   1      42.284  23.604  27.698  1.00  0.00    -0.014 A 
ATOM     77  C   UNL A   1      42.627  23.608  26.338  1.00  0.00     0.009 A 
ATOM     78  C   UNL A   1      41.830  22.410  28.280  1.00  0.00     0.009 A 
ATOM     79  C   UNL A   1      42.496  22.447  25.572  1.00  0.00     0.001 A 
ATOM     80  C   UNL A   1      41.730  21.243  27.519  1.00  0.00     0.001 A 
ATOM     81  C   UNL A   1      42.054  21.265  26.163  1.00  0.00     0.000 A 
ENDBRANCH  57  76
BRANCH  69  82
ATOM     82  C   UNL A   1      47.219  26.056  31.964  1.00  0.00    -0.014 A 
ATOM     83  C   UNL A   1      48.399  26.267  31.235  1.00  0.00     0.009 A 
ATOM     84  C   UNL A   1      47.283  25.335  33.167  1.00  0.00     0.009 A 
ATOM     85  C   UNL A   1      49.611  25.738  31.686  1.00  0.00     0.001 A 
ATOM     86  C   UNL A   1      48.500  24.836  33.631  1.00  0.00     0.001 A 
ATOM     87  C   UNL A   1      49.661  25.028  32.884  1.00  0.00     0.000 A 
ENDBRANCH  69  82
ENDBRANCH  43  44
ENDBRANCH  35  38
ENDBRANCH  33  34
ENDBRANCH  32  33
ENDBRANCH  31  32
ENDBRANCH   1  31
TORSDOF 16
ENDMDL
MODEL 2
REMARK VINA RESULT:     -11.8      2.647      6.770
REMARK SMILES O=C(NCCCCCCNC(=O)c1ccc(-c2c3nc(c(-c4ccccc4)c4ccc([nH]4)c(-c4ccccc4)c4nc(c(-c5ccccc5)c5ccc2[nH]5)C=C4)C=C3)cc1)C1=Cc2cc(Cl)cc(C#Cc3ccccc3)c2O[C@@H]1C(F)(F)F
REMARK SMILES IDX 6 1 5 2 4 3 3 4 1 5 2 6 61 8 62 9 79 10 63 11 78 12 64 13
REMARK SMILES IDX 77 14 65 15 68 16 66 17 67 18 80 19 81 20 82 21 83 22 69 23
REMARK SMILES IDX 70 24 71 25 72 26 76 27 73 28 75 29 74 30 7 31 8 32 9 33
REMARK SMILES IDX 10 34 11 35 12 37 13 38 14 39 60 40 15 41 59 42 16 43 17 44
REMARK SMILES IDX 18 45 53 46 19 47 58 48 52 49 54 50 20 51 57 52 51 53 50 54
REMARK SMILES IDX 21 56 43 57 28 58 42 59 29 60 32 61 41 62 55 63 30 64 31 65
REMARK SMILES IDX 40 67 56 68 33 69 22 70 23 71 27 72 24 73 26 74 25 75 44 76
REMARK SMILES IDX 45 77 49 78 46 79 48 80 47 81 34 82 35 83 39 84 36 85 38 86
REMARK SMILES IDX 37 87
REMARK H PARENT 3 7 10 36 54 55 32 66
REMARK Flexibility Score: inf
ROOT
ATOM      1  C   UNL A   1      32.370  29.581  26.916  1.00  0.00     0.002 C 
ENDROOT
BRANCH   1   2
ATOM      2  C   UNL A   1      31.826  28.263  27.466  1.00  0.00     0.021 C 
BRANCH   2   3
ATOM      3  C   UNL A   1      31.381  27.235  26.432  1.00  0.00     0.116 C 
BRANCH   3   4
ATOM      4  N   UNL A   1      31.427  25.849  26.858  1.00  0.00    -0.352 N 
ATOM      5  O   UNL A   1      32.191  23.740  26.971  1.00  0.00    -0.270 OA
ATOM      6  C   UNL A   1      32.178  24.812  26.370  1.00  0.00     0.251 C 
ATOM      7  H   UNL A   1      30.831  25.620  27.607  1.00  0.00     0.163 HD
BRANCH   6   8
ATOM      8  C   UNL A   1      33.076  24.966  25.182  1.00  0.00     0.067 C 
ATOM      9  C   UNL A   1      34.395  25.192  25.314  1.00  0.00     0.025 C 
ATOM     10  C   UNL A   1      32.615  24.122  24.017  1.00  0.00     0.314 C 
ATOM     11  C   UNL A   1      35.228  24.022  24.941  1.00  0.00     0.020 A 
ATOM     12  O   UNL A   1      33.304  22.843  24.010  1.00  0.00    -0.474 OA
ATOM     13  C   UNL A   1      36.546  23.988  25.412  1.00  0.00     0.032 A 
ATOM     14  C   UNL A   1      34.600  22.846  24.478  1.00  0.00     0.143 A 
ATOM     15  C   UNL A   1      37.204  22.766  25.508  1.00  0.00     0.043 A 
ATOM     16  C   UNL A   1      35.247  21.616  24.656  1.00  0.00     0.069 A 
ATOM     17  Cl  UNL A   1      38.754  22.691  26.254  1.00  0.00    -0.084 Cl
ATOM     18  C   UNL A   1      36.559  21.584  25.150  1.00  0.00     0.041 A 
BRANCH  10  19
ATOM     19  C   UNL A   1      32.742  24.891  22.687  1.00  0.00     0.429 C 
ATOM     20  F   UNL A   1      33.318  24.134  21.725  1.00  0.00    -0.167 F 
ATOM     21  F   UNL A   1      31.527  25.267  22.217  1.00  0.00    -0.167 F 
ATOM     22  F   UNL A   1      33.481  26.021  22.805  1.00  0.00    -0.167 F 
ENDBRANCH  10  19
BRANCH  16  23
ATOM     23  C   UNL A   1      34.530  20.371  24.632  1.00  0.00    -0.058 C 
ATOM     24  C   UNL A   1      34.104  19.254  24.756  1.00  0.00    -0.062 C 
BRANCH  24  25
ATOM     25  C   UNL A   1      33.752  17.880  24.965  1.00  0.00     0.025 A 
ATOM     26  C   UNL A   1      32.528  17.532  25.539  1.00  0.00     0.017 A 
ATOM     27  C   UNL A   1      34.663  16.879  24.620  1.00  0.00     0.017 A 
ATOM     28  C   UNL A   1      32.208  16.185  25.741  1.00  0.00     0.001 A 
ATOM     29  C   UNL A   1      34.343  15.534  24.823  1.00  0.00     0.001 A 
ATOM     30  C   UNL A   1      33.114  15.188  25.377  1.00  0.00     0.000 A 
ENDBRANCH  24  25
ENDBRANCH  16  23
ENDBRANCH   6   8
ENDBRANCH   3   4
ENDBRANCH   2   3
ENDBRANCH   1   2
BRANCH   1  31
ATOM     31  C   UNL A   1      31.393  30.455  26.118  1.00  0.00     0.002 C 
BRANCH  31  32
ATOM     32  C   UNL A   1      31.326  31.938  26.491  1.00  0.00     0.021 C 
BRANCH  32  33
ATOM     33  C   UNL A   1      32.560  32.520  27.174  1.00  0.00     0.116 C 
BRANCH  33  34
ATOM     34  N   UNL A   1      32.393  33.911  27.554  1.00  0.00    -0.352 N 
ATOM     35  C   UNL A   1      33.055  34.658  28.495  1.00  0.00     0.251 C 
ATOM     36  H   UNL A   1      31.693  34.394  27.060  1.00  0.00     0.163 HD
ATOM     37  O   UNL A   1      32.661  35.790  28.760  1.00  0.00    -0.269 OA
BRANCH  35  38
ATOM     38  C   UNL A   1      34.230  34.110  29.211  1.00  0.00     0.039 A 
ATOM     39  C   UNL A   1      34.011  33.344  30.360  1.00  0.00     0.014 A 
ATOM     40  C   UNL A   1      35.537  34.375  28.792  1.00  0.00     0.014 A 
ATOM     41  C   UNL A   1      35.094  32.805  31.059  1.00  0.00     0.010 A 
ATOM     42  C   UNL A   1      36.613  33.776  29.445  1.00  0.00     0.010 A 
ATOM     43  C   UNL A   1      36.404  32.994  30.591  1.00  0.00    -0.014 A 
BRANCH  43  44
ATOM     44  C   UNL A   1      37.562  32.387  31.295  1.00  0.00     0.031 A 
ATOM     45  C   UNL A   1      38.285  31.211  30.697  1.00  0.00     0.074 A 
ATOM     46  C   UNL A   1      37.937  32.864  32.497  1.00  0.00     0.049 A 
ATOM     47  N   UNL A   1      39.293  30.528  31.179  1.00  0.00    -0.248 NA
ATOM     48  C   UNL A   1      37.798  30.724  29.396  1.00  0.00     0.031 C 
ATOM     49  C   UNL A   1      37.297  33.977  33.203  1.00  0.00     0.029 A 
ATOM     50  N   UNL A   1      38.947  32.472  33.340  1.00  0.00    -0.354 N 
ATOM     51  C   UNL A   1      39.552  29.528  30.250  1.00  0.00     0.074 A 
ATOM     52  C   UNL A   1      38.560  29.657  29.204  1.00  0.00     0.031 C 
ATOM     53  C   UNL A   1      37.945  34.192  34.358  1.00  0.00     0.029 A 
ATOM     54  C   UNL A   1      39.016  33.211  34.496  1.00  0.00     0.049 A 
ATOM     55  H   UNL A   1      39.561  31.731  33.137  1.00  0.00     0.167 HD
ATOM     56  C   UNL A   1      40.537  28.598  30.253  1.00  0.00     0.031 A 
ATOM     57  C   UNL A   1      39.842  33.106  35.554  1.00  0.00     0.031 A 
ATOM     58  C   UNL A   1      41.520  28.465  31.295  1.00  0.00     0.049 A 
ATOM     59  C   UNL A   1      40.911  32.050  35.549  1.00  0.00     0.074 A 
ATOM     60  C   UNL A   1      42.585  27.584  31.370  1.00  0.00     0.029 A 
ATOM     61  N   UNL A   1      41.554  29.233  32.450  1.00  0.00    -0.354 N 
ATOM     62  N   UNL A   1      41.183  31.154  34.631  1.00  0.00    -0.248 NA
ATOM     63  C   UNL A   1      41.795  31.999  36.721  1.00  0.00     0.031 C 
ATOM     64  C   UNL A   1      43.228  27.779  32.596  1.00  0.00     0.029 A 
ATOM     65  C   UNL A   1      42.604  28.827  33.256  1.00  0.00     0.049 A 
ATOM     66  H   UNL A   1      40.924  29.958  32.665  1.00  0.00     0.167 HD
ATOM     67  C   UNL A   1      42.284  30.450  35.102  1.00  0.00     0.074 A 
ATOM     68  C   UNL A   1      42.639  31.036  36.379  1.00  0.00     0.031 C 
ATOM     69  C   UNL A   1      42.942  29.413  34.529  1.00  0.00     0.031 A 
BRANCH  56  70
ATOM     70  C   UNL A   1      40.583  27.639  29.093  1.00  0.00    -0.014 A 
ATOM     71  C   UNL A   1      41.360  27.909  27.954  1.00  0.00     0.009 A 
ATOM     72  C   UNL A   1      39.854  26.441  29.145  1.00  0.00     0.009 A 
ATOM     73  C   UNL A   1      41.368  27.024  26.874  1.00  0.00     0.001 A 
ATOM     74  C   UNL A   1      39.891  25.541  28.078  1.00  0.00     0.001 A 
ATOM     75  C   UNL A   1      40.637  25.839  26.938  1.00  0.00     0.000 A 
ENDBRANCH  56  70
BRANCH  57  76
ATOM     76  C   UNL A   1      39.695  34.040  36.702  1.00  0.00    -0.014 A 
ATOM     77  C   UNL A   1      39.057  33.627  37.881  1.00  0.00     0.009 A 
ATOM     78  C   UNL A   1      40.205  35.345  36.627  1.00  0.00     0.009 A 
ATOM     79  C   UNL A   1      38.911  34.511  38.953  1.00  0.00     0.001 A 
ATOM     80  C   UNL A   1      40.086  36.217  37.712  1.00  0.00     0.001 A 
ATOM     81  C   UNL A   1      39.430  35.803  38.871  1.00  0.00     0.000 A 
ENDBRANCH  57  76
BRANCH  69  82
ATOM     82  C   UNL A   1      44.134  28.864  35.263  1.00  0.00    -0.014 A 
ATOM     83  C   UNL A   1      45.419  29.395  35.072  1.00  0.00     0.009 A 
ATOM     84  C   UNL A   1      43.960  27.823  36.189  1.00  0.00     0.009 A 
ATOM     85  C   UNL A   1      46.510  28.870  35.770  1.00  0.00     0.001 A 
ATOM     86  C   UNL A   1      45.046  27.323  36.907  1.00  0.00     0.001 A 
ATOM     87  C   UNL A   1      46.321  27.840  36.689  1.00  0.00     0.000 A 
ENDBRANCH  69  82
ENDBRANCH  43  44
ENDBRANCH  35  38
ENDBRANCH  33  34
ENDBRANCH  32  33
ENDBRANCH  31  32
ENDBRANCH   1  31
TORSDOF 16
ENDMDL
MODEL 3
REMARK VINA RESULT:     -11.4      2.668      6.228
REMARK SMILES O=C(NCCCCCCNC(=O)c1ccc(-c2c3nc(c(-c4ccccc4)c4ccc([nH]4)c(-c4ccccc4)c4nc(c(-c5ccccc5)c5ccc2[nH]5)C=C4)C=C3)cc1)C1=Cc2cc(Cl)cc(C#Cc3ccccc3)c2O[C@@H]1C(F)(F)F
REMARK SMILES IDX 6 1 5 2 4 3 3 4 1 5 2 6 61 8 62 9 79 10 63 11 78 12 64 13
REMARK SMILES IDX 77 14 65 15 68 16 66 17 67 18 80 19 81 20 82 21 83 22 69 23
REMARK SMILES IDX 70 24 71 25 72 26 76 27 73 28 75 29 74 30 7 31 8 32 9 33
REMARK SMILES IDX 10 34 11 35 12 37 13 38 14 39 60 40 15 41 59 42 16 43 17 44
REMARK SMILES IDX 18 45 53 46 19 47 58 48 52 49 54 50 20 51 57 52 51 53 50 54
REMARK SMILES IDX 21 56 43 57 28 58 42 59 29 60 32 61 41 62 55 63 30 64 31 65
REMARK SMILES IDX 40 67 56 68 33 69 22 70 23 71 27 72 24 73 26 74 25 75 44 76
REMARK SMILES IDX 45 77 49 78 46 79 48 80 47 81 34 82 35 83 39 84 36 85 38 86
REMARK SMILES IDX 37 87
REMARK H PARENT 3 7 10 36 54 55 32 66
REMARK Flexibility Score: inf
ROOT
ATOM      1  C   UNL A   1      31.873  27.746  27.134  1.00  0.00     0.002 C 
ENDROOT
BRANCH   1   2
ATOM      2  C   UNL A   1      31.161  27.238  25.881  1.00  0.00     0.021 C 
BRANCH   2   3
ATOM      3  C   UNL A   1      30.271  26.014  26.062  1.00  0.00     0.116 C 
BRANCH   3   4
ATOM      4  N   UNL A   1      30.857  24.911  26.801  1.00  0.00    -0.352 N 
ATOM      5  O   UNL A   1      32.434  23.435  27.418  1.00  0.00    -0.270 OA
ATOM      6  C   UNL A   1      32.034  24.244  26.582  1.00  0.00     0.251 C 
ATOM      7  H   UNL A   1      30.332  24.596  27.572  1.00  0.00     0.163 HD
BRANCH   6   8
ATOM      8  C   UNL A   1      32.915  24.540  25.409  1.00  0.00     0.067 C 
ATOM      9  C   UNL A   1      34.216  24.844  25.557  1.00  0.00     0.025 C 
ATOM     10  C   UNL A   1      32.506  23.750  24.188  1.00  0.00     0.314 C 
ATOM     11  C   UNL A   1      35.123  23.761  25.103  1.00  0.00     0.020 A 
ATOM     12  O   UNL A   1      33.279  22.524  24.091  1.00  0.00    -0.474 OA
ATOM     13  C   UNL A   1      36.443  23.783  25.571  1.00  0.00     0.032 A 
ATOM     14  C   UNL A   1      34.574  22.581  24.558  1.00  0.00     0.143 A 
ATOM     15  C   UNL A   1      37.182  22.605  25.582  1.00  0.00     0.043 A 
ATOM     16  C   UNL A   1      35.302  21.388  24.650  1.00  0.00     0.069 A 
ATOM     17  Cl  UNL A   1      38.736  22.581  26.321  1.00  0.00    -0.084 Cl
ATOM     18  C   UNL A   1      36.616  21.410  25.142  1.00  0.00     0.041 A 
BRANCH  10  19
ATOM     19  C   UNL A   1      32.575  24.617  22.915  1.00  0.00     0.429 C 
ATOM     20  F   UNL A   1      33.292  25.747  23.118  1.00  0.00    -0.167 F 
ATOM     21  F   UNL A   1      33.172  23.952  21.896  1.00  0.00    -0.167 F 
ATOM     22  F   UNL A   1      31.351  24.993  22.471  1.00  0.00    -0.167 F 
ENDBRANCH  10  19
BRANCH  16  23
ATOM     23  C   UNL A   1      34.670  20.103  24.540  1.00  0.00    -0.058 C 
ATOM     24  C   UNL A   1      34.227  18.993  24.666  1.00  0.00    -0.062 C 
BRANCH  24  25
ATOM     25  C   UNL A   1      33.808  17.651  24.949  1.00  0.00     0.025 A 
ATOM     26  C   UNL A   1      32.505  17.380  25.371  1.00  0.00     0.017 A 
ATOM     27  C   UNL A   1      34.729  16.606  24.834  1.00  0.00     0.017 A 
ATOM     28  C   UNL A   1      32.120  16.064  25.650  1.00  0.00     0.001 A 
ATOM     29  C   UNL A   1      34.343  15.293  25.113  1.00  0.00     0.001 A 
ATOM     30  C   UNL A   1      33.037  15.022  25.515  1.00  0.00     0.000 A 
ENDBRANCH  24  25
ENDBRANCH  16  23
ENDBRANCH   6   8
ENDBRANCH   3   4
ENDBRANCH   2   3
ENDBRANCH   1   2
BRANCH   1  31
ATOM     31  C   UNL A   1      32.349  29.205  27.118  1.00  0.00     0.002 C 
BRANCH  31  32
ATOM     32  C   UNL A   1      33.765  29.466  26.598  1.00  0.00     0.021 C 
BRANCH  32  33
ATOM     33  C   UNL A   1      34.907  29.166  27.565  1.00  0.00     0.116 C 
BRANCH  33  34
ATOM     34  N   UNL A   1      34.943  30.074  28.696  1.00  0.00    -0.352 N 
ATOM     35  C   UNL A   1      35.979  30.408  29.532  1.00  0.00     0.251 C 
ATOM     36  H   UNL A   1      34.090  30.523  28.896  1.00  0.00     0.163 HD
ATOM     37  O   UNL A   1      35.762  31.097  30.525  1.00  0.00    -0.269 OA
BRANCH  35  38
ATOM     38  C   UNL A   1      37.355  29.929  29.265  1.00  0.00     0.039 A 
ATOM     39  C   UNL A   1      37.853  30.026  27.962  1.00  0.00     0.014 A 
ATOM     40  C   UNL A   1      38.140  29.351  30.267  1.00  0.00     0.014 A 
ATOM     41  C   UNL A   1      39.148  29.591  27.674  1.00  0.00     0.010 A 
ATOM     42  C   UNL A   1      39.458  28.985  29.996  1.00  0.00     0.010 A 
ATOM     43  C   UNL A   1      39.972  29.091  28.695  1.00  0.00    -0.014 A 
BRANCH  43  44
ATOM     44  C   UNL A   1      41.368  28.670  28.413  1.00  0.00     0.031 A 
ATOM     45  C   UNL A   1      41.676  27.238  28.072  1.00  0.00     0.074 A 
ATOM     46  C   UNL A   1      42.368  29.567  28.508  1.00  0.00     0.049 A 
ATOM     47  N   UNL A   1      42.834  26.676  27.829  1.00  0.00    -0.248 NA
ATOM     48  C   UNL A   1      40.536  26.308  28.018  1.00  0.00     0.031 C 
ATOM     49  C   UNL A   1      42.207  30.979  28.865  1.00  0.00     0.029 A 
ATOM     50  N   UNL A   1      43.719  29.424  28.316  1.00  0.00    -0.354 N 
ATOM     51  C   UNL A   1      42.564  25.332  27.606  1.00  0.00     0.074 A 
ATOM     52  C   UNL A   1      41.141  25.151  27.799  1.00  0.00     0.031 C 
ATOM     53  C   UNL A   1      43.409  31.575  28.841  1.00  0.00     0.029 A 
ATOM     54  C   UNL A   1      44.428  30.585  28.510  1.00  0.00     0.049 A 
ATOM     55  H   UNL A   1      44.140  28.571  28.064  1.00  0.00     0.167 HD
ATOM     56  C   UNL A   1      43.416  24.340  27.253  1.00  0.00     0.031 A 
ATOM     57  C   UNL A   1      45.751  30.825  28.439  1.00  0.00     0.031 A 
ATOM     58  C   UNL A   1      44.832  24.519  27.067  1.00  0.00     0.049 A 
ATOM     59  C   UNL A   1      46.682  29.704  28.072  1.00  0.00     0.074 A 
ATOM     60  C   UNL A   1      45.775  23.587  26.666  1.00  0.00     0.029 A 
ATOM     61  N   UNL A   1      45.510  25.711  27.275  1.00  0.00    -0.354 N 
ATOM     62  N   UNL A   1      46.401  28.452  27.800  1.00  0.00    -0.248 NA
ATOM     63  C   UNL A   1      48.111  30.033  27.989  1.00  0.00     0.031 C 
ATOM     64  C   UNL A   1      47.031  24.200  26.689  1.00  0.00     0.029 A 
ATOM     65  C   UNL A   1      46.863  25.531  27.039  1.00  0.00     0.049 A 
ATOM     66  H   UNL A   1      45.093  26.558  27.551  1.00  0.00     0.167 HD
ATOM     67  C   UNL A   1      47.614  27.851  27.489  1.00  0.00     0.074 A 
ATOM     68  C   UNL A   1      48.629  28.879  27.590  1.00  0.00     0.031 C 
ATOM     69  C   UNL A   1      47.865  26.562  27.151  1.00  0.00     0.031 A 
BRANCH  56  70
ATOM     70  C   UNL A   1      42.834  22.965  27.063  1.00  0.00    -0.014 A 
ATOM     71  C   UNL A   1      42.437  22.182  28.160  1.00  0.00     0.009 A 
ATOM     72  C   UNL A   1      42.662  22.450  25.768  1.00  0.00     0.009 A 
ATOM     73  C   UNL A   1      41.927  20.897  27.967  1.00  0.00     0.001 A 
ATOM     74  C   UNL A   1      42.119  21.178  25.577  1.00  0.00     0.001 A 
ATOM     75  C   UNL A   1      41.765  20.397  26.676  1.00  0.00     0.000 A 
ENDBRANCH  56  70
BRANCH  57  76
ATOM     76  C   UNL A   1      46.270  32.191  28.711  1.00  0.00    -0.014 A 
ATOM     77  C   UNL A   1      46.255  33.174  27.710  1.00  0.00     0.009 A 
ATOM     78  C   UNL A   1      46.772  32.522  29.979  1.00  0.00     0.009 A 
ATOM     79  C   UNL A   1      46.755  34.454  27.967  1.00  0.00     0.001 A 
ATOM     80  C   UNL A   1      47.242  33.811  30.243  1.00  0.00     0.001 A 
ATOM     81  C   UNL A   1      47.242  34.773  29.234  1.00  0.00     0.000 A 
ENDBRANCH  57  76
BRANCH  69  82
ATOM     82  C   UNL A   1      49.289  26.198  26.833  1.00  0.00    -0.014 A 
ATOM     83  C   UNL A   1      50.120  25.592  27.788  1.00  0.00     0.009 A 
ATOM     84  C   UNL A   1      49.793  26.430  25.543  1.00  0.00     0.009 A 
ATOM     85  C   UNL A   1      51.438  25.259  27.466  1.00  0.00     0.001 A 
ATOM     86  C   UNL A   1      51.099  26.067  25.215  1.00  0.00     0.001 A 
ATOM     87  C   UNL A   1      51.923  25.491  26.180  1.00  0.00     0.000 A 
ENDBRANCH  69  82
ENDBRANCH  43  44
ENDBRANCH  35  38
ENDBRANCH  33  34
ENDBRANCH  32  33
ENDBRANCH  31  32
ENDBRANCH   1  31
TORSDOF 16
ENDMDL
