MODEL 1
REMARK VINA RESULT:     -11.5      0.000      0.000
REMARK SMILES COc1ccccc1OC1CCN(c2cccc(C(=O)NCCCCCCNC(=O)c3ccc(-c4c5nc(c(-c6ccccc6)c6ccc([nH]6)c(-c6ccccc6)c6nc(c(-c7ccccc7)c7ccc4[nH]7)C=C6)C=C5)cc3)n2)CC1
REMARK SMILES IDX 23 1 22 2 21 3 19 4 20 5 18 7 14 8 15 9 79 10 16 11 17 12
REMARK SMILES IDX 13 13 10 14 11 15 81 16 12 17 80 18 9 19 8 20 3 21 4 22 5 23
REMARK SMILES IDX 7 24 6 25 2 26 1 27 24 28 25 29 26 30 27 31 28 32 29 33
REMARK SMILES IDX 30 35 31 36 32 37 78 38 33 39 77 40 34 41 35 42 36 43 71 44
REMARK SMILES IDX 37 45 76 46 70 47 72 48 38 49 75 50 69 51 68 52 39 54 61 55
REMARK SMILES IDX 46 56 60 57 47 58 50 59 59 60 73 61 48 62 49 63 58 65 74 66
REMARK SMILES IDX 51 67 40 68 41 69 45 70 42 71 44 72 43 73 62 74 63 75 67 76
REMARK SMILES IDX 64 77 66 78 65 79 52 80 53 81 57 82 54 83 56 84 55 85
REMARK H PARENT 21 6 28 34 72 53 50 64
REMARK Flexibility Score: inf
ROOT
ATOM      1  C   UNL A   1      38.203  22.815  25.999  1.00  0.00     0.021 C 
ENDROOT
BRANCH   1   2
ATOM      2  C   UNL A   1      37.050  21.971  25.479  1.00  0.00     0.116 C 
BRANCH   2   3
ATOM      3  N   UNL A   1      36.078  21.662  26.500  1.00  0.00    -0.351 N 
ATOM      4  C   UNL A   1      34.704  21.680  26.492  1.00  0.00     0.269 C 
ATOM      5  O   UNL A   1      34.150  21.446  27.570  1.00  0.00    -0.268 OA
ATOM      6  H   UNL A   1      36.473  21.390  27.360  1.00  0.00     0.163 HD
BRANCH   4   7
ATOM      7  C   UNL A   1      33.875  21.962  25.267  1.00  0.00     0.130 A 
ATOM      8  C   UNL A   1      32.755  23.638  24.126  1.00  0.00     0.129 A 
ATOM      9  C   UNL A   1      32.239  22.724  23.219  1.00  0.00     0.047 A 
ATOM     10  N   UNL A   1      33.626  23.279  25.082  1.00  0.00    -0.226 NA
ATOM     11  C   UNL A   1      32.530  21.379  23.374  1.00  0.00     0.006 A 
ATOM     12  C   UNL A   1      33.295  20.985  24.464  1.00  0.00     0.034 A 
BRANCH   8  13
ATOM     13  N   UNL A   1      32.237  24.914  24.176  1.00  0.00    -0.356 N 
ATOM     14  C   UNL A   1      30.095  27.819  23.002  1.00  0.00     0.177 C 
ATOM     15  C   UNL A   1      29.389  26.499  24.244  1.00  0.00     0.066 C 
ATOM     16  C   UNL A   1      31.805  27.436  22.158  1.00  0.00     0.066 C 
ATOM     17  C   UNL A   1      30.587  25.143  24.958  1.00  0.00     0.122 C 
ATOM     18  C   UNL A   1      32.953  26.080  22.938  1.00  0.00     0.122 C 
BRANCH  14  19
ATOM     19  O   UNL A   1      30.307  29.033  23.782  1.00  0.00    -0.486 OA
BRANCH  19  20
ATOM     20  C   UNL A   1      29.539  30.041  23.236  1.00  0.00     0.161 A 
ATOM     21  C   UNL A   1      29.474  31.290  23.874  1.00  0.00     0.160 A 
ATOM     22  C   UNL A   1      28.704  32.307  23.317  1.00  0.00     0.050 A 
ATOM     23  C   UNL A   1      28.028  32.082  22.116  1.00  0.00     0.004 A 
ATOM     24  C   UNL A   1      28.861  29.808  22.047  1.00  0.00     0.050 A 
ATOM     25  C   UNL A   1      28.108  30.838  21.482  1.00  0.00     0.004 A 
BRANCH  21  26
ATOM     26  O   UNL A   1      30.275  31.317  25.001  1.00  0.00    -0.493 OA
ATOM     27  C   UNL A   1      31.416  31.436  26.453  1.00  0.00     0.278 C 
ENDBRANCH  21  26
ENDBRANCH  19  20
ENDBRANCH  14  19
ENDBRANCH   8  13
ENDBRANCH   4   7
ENDBRANCH   2   3
ENDBRANCH   1   2
BRANCH   1  28
ATOM     28  C   UNL A   1      39.451  22.037  26.412  1.00  0.00     0.002 C 
BRANCH  28  29
ATOM     29  C   UNL A   1      40.743  22.856  26.509  1.00  0.00     0.002 C 
BRANCH  29  30
ATOM     30  C   UNL A   1      41.988  22.213  25.891  1.00  0.00     0.021 C 
BRANCH  30  31
ATOM     31  C   UNL A   1      42.928  23.184  25.189  1.00  0.00     0.116 C 
BRANCH  31  32
ATOM     32  N   UNL A   1      44.320  22.905  25.493  1.00  0.00    -0.352 N 
ATOM     33  C   UNL A   1      45.147  23.507  26.404  1.00  0.00     0.251 C 
ATOM     34  H   UNL A   1      44.727  22.179  24.968  1.00  0.00     0.163 HD
ATOM     35  O   UNL A   1      46.356  23.305  26.369  1.00  0.00    -0.269 OA
BRANCH  33  36
ATOM     36  C   UNL A   1      44.579  24.411  27.425  1.00  0.00     0.039 A 
ATOM     37  C   UNL A   1      44.805  25.785  27.309  1.00  0.00     0.014 A 
ATOM     38  C   UNL A   1      43.849  23.907  28.505  1.00  0.00     0.014 A 
ATOM     39  C   UNL A   1      44.259  26.655  28.253  1.00  0.00     0.010 A 
ATOM     40  C   UNL A   1      43.237  24.780  29.397  1.00  0.00     0.010 A 
ATOM     41  C   UNL A   1      43.448  26.163  29.290  1.00  0.00    -0.014 A 
BRANCH  41  42
ATOM     42  C   UNL A   1      42.825  27.079  30.276  1.00  0.00     0.031 A 
ATOM     43  C   UNL A   1      43.445  27.261  31.634  1.00  0.00     0.074 A 
ATOM     44  C   UNL A   1      41.677  27.710  29.966  1.00  0.00     0.049 A 
ATOM     45  N   UNL A   1      43.032  27.992  32.639  1.00  0.00    -0.248 NA
ATOM     46  C   UNL A   1      44.677  26.506  31.910  1.00  0.00     0.031 C 
ATOM     47  C   UNL A   1      40.960  27.590  28.695  1.00  0.00     0.029 A 
ATOM     48  N   UNL A   1      40.909  28.579  30.699  1.00  0.00    -0.354 N 
ATOM     49  C   UNL A   1      43.943  27.773  33.665  1.00  0.00     0.074 A 
ATOM     50  C   UNL A   1      44.896  26.797  33.183  1.00  0.00     0.031 C 
ATOM     51  C   UNL A   1      39.880  28.387  28.722  1.00  0.00     0.029 A 
ATOM     52  C   UNL A   1      39.802  29.036  30.027  1.00  0.00     0.049 A 
ATOM     53  H   UNL A   1      41.132  28.850  31.619  1.00  0.00     0.167 HD
ATOM     54  C   UNL A   1      43.995  28.347  34.891  1.00  0.00     0.031 A 
ATOM     55  C   UNL A   1      38.831  29.881  30.419  1.00  0.00     0.031 A 
ATOM     56  C   UNL A   1      43.047  29.318  35.366  1.00  0.00     0.049 A 
ATOM     57  C   UNL A   1      38.893  30.478  31.797  1.00  0.00     0.074 A 
ATOM     58  C   UNL A   1      43.039  29.997  36.573  1.00  0.00     0.029 A 
ATOM     59  N   UNL A   1      41.932  29.743  34.661  1.00  0.00    -0.354 N 
ATOM     60  N   UNL A   1      39.799  30.314  32.730  1.00  0.00    -0.248 NA
ATOM     61  C   UNL A   1      37.800  31.388  32.171  1.00  0.00     0.031 C 
ATOM     62  C   UNL A   1      41.886  30.786  36.622  1.00  0.00     0.029 A 
ATOM     63  C   UNL A   1      41.212  30.653  35.418  1.00  0.00     0.049 A 
ATOM     64  H   UNL A   1      41.688  29.445  33.755  1.00  0.00     0.167 HD
ATOM     65  C   UNL A   1      39.406  31.125  33.787  1.00  0.00     0.074 A 
ATOM     66  C   UNL A   1      38.188  31.792  33.372  1.00  0.00     0.031 C 
ATOM     67  C   UNL A   1      40.001  31.305  34.992  1.00  0.00     0.031 A 
BRANCH  54  68
ATOM     68  C   UNL A   1      45.112  27.922  35.806  1.00  0.00    -0.014 A 
ATOM     69  C   UNL A   1      44.965  26.834  36.683  1.00  0.00     0.009 A 
ATOM     70  C   UNL A   1      46.339  28.603  35.774  1.00  0.00     0.009 A 
ATOM     71  C   UNL A   1      46.007  26.467  37.538  1.00  0.00     0.001 A 
ATOM     72  C   UNL A   1      47.390  28.213  36.605  1.00  0.00     0.001 A 
ATOM     73  C   UNL A   1      47.220  27.154  37.495  1.00  0.00     0.000 A 
ENDBRANCH  54  68
BRANCH  55  74
ATOM     74  C   UNL A   1      37.725  30.232  29.489  1.00  0.00    -0.014 A 
ATOM     75  C   UNL A   1      36.682  29.323  29.249  1.00  0.00     0.009 A 
ATOM     76  C   UNL A   1      37.708  31.470  28.828  1.00  0.00     0.009 A 
ATOM     77  C   UNL A   1      35.665  29.634  28.343  1.00  0.00     0.001 A 
ATOM     78  C   UNL A   1      36.673  31.792  27.948  1.00  0.00     0.001 A 
ATOM     79  C   UNL A   1      35.659  30.869  27.698  1.00  0.00     0.000 A 
ENDBRANCH  55  74
BRANCH  67  80
ATOM     80  C   UNL A   1      39.366  32.294  35.931  1.00  0.00    -0.014 A 
ATOM     81  C   UNL A   1      38.454  31.887  36.918  1.00  0.00     0.009 A 
ATOM     82  C   UNL A   1      39.715  33.651  35.846  1.00  0.00     0.009 A 
ATOM     83  C   UNL A   1      37.877  32.827  37.776  1.00  0.00     0.001 A 
ATOM     84  C   UNL A   1      39.164  34.583  36.727  1.00  0.00     0.001 A 
ATOM     85  C   UNL A   1      38.236  34.172  37.683  1.00  0.00     0.000 A 
ENDBRANCH  67  80
ENDBRANCH  41  42
ENDBRANCH  33  36
ENDBRANCH  31  32
ENDBRANCH  30  31
ENDBRANCH  29  30
ENDBRANCH  28  29
ENDBRANCH   1  28
TORSDOF 17
ENDMDL
MODEL 2
REMARK VINA RESULT:     -11.3      2.898      4.493
REMARK SMILES COc1ccccc1OC1CCN(c2cccc(C(=O)NCCCCCCNC(=O)c3ccc(-c4c5nc(c(-c6ccccc6)c6ccc([nH]6)c(-c6ccccc6)c6nc(c(-c7ccccc7)c7ccc4[nH]7)C=C6)C=C5)cc3)n2)CC1
REMARK SMILES IDX 23 1 22 2 21 3 19 4 20 5 18 7 14 8 15 9 79 10 16 11 17 12
REMARK SMILES IDX 13 13 10 14 11 15 81 16 12 17 80 18 9 19 8 20 3 21 4 22 5 23
REMARK SMILES IDX 7 24 6 25 2 26 1 27 24 28 25 29 26 30 27 31 28 32 29 33
REMARK SMILES IDX 30 35 31 36 32 37 78 38 33 39 77 40 34 41 35 42 36 43 71 44
REMARK SMILES IDX 37 45 76 46 70 47 72 48 38 49 75 50 69 51 68 52 39 54 61 55
REMARK SMILES IDX 46 56 60 57 47 58 50 59 59 60 73 61 48 62 49 63 58 65 74 66
REMARK SMILES IDX 51 67 40 68 41 69 45 70 42 71 44 72 43 73 62 74 63 75 67 76
REMARK SMILES IDX 64 77 66 78 65 79 52 80 53 81 57 82 54 83 56 84 55 85
REMARK H PARENT 21 6 28 34 72 53 50 64
REMARK Flexibility Score: inf
ROOT
ATOM      1  C   UNL A   1      38.121  23.870  26.008  1.00  0.00     0.021 C 
ENDROOT
BRANCH   1   2
ATOM      2  C   UNL A   1      37.183  22.806  25.458  1.00  0.00     0.116 C 
BRANCH   2   3
ATOM      3  N   UNL A   1      36.306  22.259  26.464  1.00  0.00    -0.351 N 
ATOM      4  C   UNL A   1      34.952  22.017  26.467  1.00  0.00     0.269 C 
ATOM      5  O   UNL A   1      34.472  21.620  27.531  1.00  0.00    -0.268 OA
ATOM      6  H   UNL A   1      36.760  22.017  27.304  1.00  0.00     0.163 HD
BRANCH   4   7
ATOM      7  C   UNL A   1      34.064  22.208  25.266  1.00  0.00     0.130 A 
ATOM      8  C   UNL A   1      32.835  23.785  24.096  1.00  0.00     0.129 A 
ATOM      9  C   UNL A   1      32.317  22.810  23.256  1.00  0.00     0.047 A 
ATOM     10  N   UNL A   1      33.757  23.505  25.029  1.00  0.00    -0.226 NA
ATOM     11  C   UNL A   1      32.665  21.486  23.462  1.00  0.00     0.006 A 
ATOM     12  C   UNL A   1      33.490  21.173  24.536  1.00  0.00     0.034 A 
BRANCH   8  13
ATOM     13  N   UNL A   1      32.271  25.043  24.108  1.00  0.00    -0.356 N 
ATOM     14  C   UNL A   1      30.016  27.826  22.856  1.00  0.00     0.177 C 
ATOM     15  C   UNL A   1      29.368  26.525  24.148  1.00  0.00     0.066 C 
ATOM     16  C   UNL A   1      31.732  27.478  22.011  1.00  0.00     0.066 C 
ATOM     17  C   UNL A   1      30.619  25.238  24.897  1.00  0.00     0.122 C 
ATOM     18  C   UNL A   1      32.934  26.191  22.825  1.00  0.00     0.122 C 
BRANCH  14  19
ATOM     19  O   UNL A   1      30.189  29.073  23.594  1.00  0.00    -0.486 OA
BRANCH  19  20
ATOM     20  C   UNL A   1      29.417  30.046  22.991  1.00  0.00     0.161 A 
ATOM     21  C   UNL A   1      29.302  31.311  23.588  1.00  0.00     0.160 A 
ATOM     22  C   UNL A   1      28.528  32.293  22.975  1.00  0.00     0.050 A 
ATOM     23  C   UNL A   1      27.899  32.016  21.759  1.00  0.00     0.004 A 
ATOM     24  C   UNL A   1      28.786  29.762  21.788  1.00  0.00     0.050 A 
ATOM     25  C   UNL A   1      28.030  30.756  21.167  1.00  0.00     0.004 A 
BRANCH  21  26
ATOM     26  O   UNL A   1      30.063  31.391  24.740  1.00  0.00    -0.493 OA
ATOM     27  C   UNL A   1      31.133  31.598  26.236  1.00  0.00     0.278 C 
ENDBRANCH  21  26
ENDBRANCH  19  20
ENDBRANCH  14  19
ENDBRANCH   8  13
ENDBRANCH   4   7
ENDBRANCH   2   3
ENDBRANCH   1   2
BRANCH   1  28
ATOM     28  C   UNL A   1      39.258  23.350  26.886  1.00  0.00     0.002 C 
BRANCH  28  29
ATOM     29  C   UNL A   1      40.546  24.180  26.863  1.00  0.00     0.002 C 
BRANCH  29  30
ATOM     30  C   UNL A   1      41.846  23.389  26.687  1.00  0.00     0.021 C 
BRANCH  30  31
ATOM     31  C   UNL A   1      42.938  24.117  25.914  1.00  0.00     0.116 C 
BRANCH  31  32
ATOM     32  N   UNL A   1      44.116  24.350  26.730  1.00  0.00    -0.352 N 
ATOM     33  C   UNL A   1      44.401  25.400  27.563  1.00  0.00     0.251 C 
ATOM     34  H   UNL A   1      44.808  23.652  26.678  1.00  0.00     0.163 HD
ATOM     35  O   UNL A   1      45.538  25.553  27.997  1.00  0.00    -0.269 OA
BRANCH  33  36
ATOM     36  C   UNL A   1      43.336  26.358  27.928  1.00  0.00     0.039 A 
ATOM     37  C   UNL A   1      42.570  26.111  29.069  1.00  0.00     0.014 A 
ATOM     38  C   UNL A   1      43.079  27.481  27.137  1.00  0.00     0.014 A 
ATOM     39  C   UNL A   1      41.574  27.015  29.440  1.00  0.00     0.010 A 
ATOM     40  C   UNL A   1      42.144  28.422  27.552  1.00  0.00     0.010 A 
ATOM     41  C   UNL A   1      41.371  28.192  28.699  1.00  0.00    -0.014 A 
BRANCH  41  42
ATOM     42  C   UNL A   1      40.345  29.184  29.105  1.00  0.00     0.031 A 
ATOM     43  C   UNL A   1      40.674  30.235  30.129  1.00  0.00     0.074 A 
ATOM     44  C   UNL A   1      39.104  29.108  28.587  1.00  0.00     0.049 A 
ATOM     45  N   UNL A   1      39.904  31.166  30.633  1.00  0.00    -0.248 NA
ATOM     46  C   UNL A   1      42.040  30.226  30.677  1.00  0.00     0.031 C 
ATOM     47  C   UNL A   1      38.652  28.114  27.611  1.00  0.00     0.029 A 
ATOM     48  N   UNL A   1      37.995  29.883  28.811  1.00  0.00    -0.354 N 
ATOM     49  C   UNL A   1      40.686  31.840  31.563  1.00  0.00     0.074 A 
ATOM     50  C   UNL A   1      41.970  31.175  31.598  1.00  0.00     0.031 C 
ATOM     51  C   UNL A   1      37.372  28.365  27.291  1.00  0.00     0.029 A 
ATOM     52  C   UNL A   1      36.901  29.503  28.072  1.00  0.00     0.049 A 
ATOM     53  H   UNL A   1      37.984  30.640  29.440  1.00  0.00     0.167 HD
ATOM     54  C   UNL A   1      40.372  32.928  32.307  1.00  0.00     0.031 A 
ATOM     55  C   UNL A   1      35.657  30.014  28.030  1.00  0.00     0.031 A 
ATOM     56  C   UNL A   1      39.095  33.588  32.270  1.00  0.00     0.049 A 
ATOM     57  C   UNL A   1      35.323  31.200  28.891  1.00  0.00     0.074 A 
ATOM     58  C   UNL A   1      38.692  34.726  32.948  1.00  0.00     0.029 A 
ATOM     59  N   UNL A   1      38.009  33.164  31.519  1.00  0.00    -0.354 N 
ATOM     60  N   UNL A   1      36.095  31.869  29.714  1.00  0.00    -0.248 NA
ATOM     61  C   UNL A   1      33.946  31.709  28.808  1.00  0.00     0.031 C 
ATOM     62  C   UNL A   1      37.344  34.954  32.654  1.00  0.00     0.029 A 
ATOM     63  C   UNL A   1      36.926  34.000  31.740  1.00  0.00     0.049 A 
ATOM     64  H   UNL A   1      38.007  32.384  30.917  1.00  0.00     0.167 HD
ATOM     65  C   UNL A   1      35.309  32.896  30.220  1.00  0.00     0.074 A 
ATOM     66  C   UNL A   1      34.006  32.771  29.599  1.00  0.00     0.031 C 
ATOM     67  C   UNL A   1      35.636  33.860  31.116  1.00  0.00     0.031 A 
BRANCH  54  68
ATOM     68  C   UNL A   1      41.430  33.458  33.237  1.00  0.00    -0.014 A 
ATOM     69  C   UNL A   1      42.338  34.448  32.824  1.00  0.00     0.009 A 
ATOM     70  C   UNL A   1      41.506  32.980  34.555  1.00  0.00     0.009 A 
ATOM     71  C   UNL A   1      43.325  34.914  33.695  1.00  0.00     0.001 A 
ATOM     72  C   UNL A   1      42.471  33.472  35.435  1.00  0.00     0.001 A 
ATOM     73  C   UNL A   1      43.387  34.429  35.001  1.00  0.00     0.000 A 
ENDBRANCH  54  68
BRANCH  55  74
ATOM     74  C   UNL A   1      34.635  29.422  27.126  1.00  0.00    -0.014 A 
ATOM     75  C   UNL A   1      34.649  29.707  25.752  1.00  0.00     0.009 A 
ATOM     76  C   UNL A   1      33.634  28.578  27.631  1.00  0.00     0.009 A 
ATOM     77  C   UNL A   1      33.664  29.186  24.909  1.00  0.00     0.001 A 
ATOM     78  C   UNL A   1      32.670  28.031  26.782  1.00  0.00     0.001 A 
ATOM     79  C   UNL A   1      32.679  28.344  25.424  1.00  0.00     0.000 A 
ENDBRANCH  55  74
BRANCH  67  80
ATOM     80  C   UNL A   1      34.581  34.880  31.445  1.00  0.00    -0.014 A 
ATOM     81  C   UNL A   1      33.960  34.913  32.703  1.00  0.00     0.009 A 
ATOM     82  C   UNL A   1      34.231  35.846  30.488  1.00  0.00     0.009 A 
ATOM     83  C   UNL A   1      32.980  35.870  32.980  1.00  0.00     0.001 A 
ATOM     84  C   UNL A   1      33.278  36.823  30.780  1.00  0.00     0.001 A 
ATOM     85  C   UNL A   1      32.645  36.826  32.022  1.00  0.00     0.000 A 
ENDBRANCH  67  80
ENDBRANCH  41  42
ENDBRANCH  33  36
ENDBRANCH  31  32
ENDBRANCH  30  31
ENDBRANCH  29  30
ENDBRANCH  28  29
ENDBRANCH   1  28
TORSDOF 17
ENDMDL
MODEL 3
REMARK VINA RESULT:     -11.2      2.653      8.871
REMARK SMILES COc1ccccc1OC1CCN(c2cccc(C(=O)NCCCCCCNC(=O)c3ccc(-c4c5nc(c(-c6ccccc6)c6ccc([nH]6)c(-c6ccccc6)c6nc(c(-c7ccccc7)c7ccc4[nH]7)C=C6)C=C5)cc3)n2)CC1
REMARK SMILES IDX 23 1 22 2 21 3 19 4 20 5 18 7 14 8 15 9 79 10 16 11 17 12
REMARK SMILES IDX 13 13 10 14 11 15 81 16 12 17 80 18 9 19 8 20 3 21 4 22 5 23
REMARK SMILES IDX 7 24 6 25 2 26 1 27 24 28 25 29 26 30 27 31 28 32 29 33
REMARK SMILES IDX 30 35 31 36 32 37 78 38 33 39 77 40 34 41 35 42 36 43 71 44
REMARK SMILES IDX 37 45 76 46 70 47 72 48 38 49 75 50 69 51 68 52 39 54 61 55
REMARK SMILES IDX 46 56 60 57 47 58 50 59 59 60 73 61 48 62 49 63 58 65 74 66
REMARK SMILES IDX 51 67 40 68 41 69 45 70 42 71 44 72 43 73 62 74 63 75 67 76
REMARK SMILES IDX 64 77 66 78 65 79 52 80 53 81 57 82 54 83 56 84 55 85
REMARK H PARENT 21 6 28 34 72 53 50 64
REMARK Flexibility Score: inf
ROOT
ATOM      1  C   UNL A   1      35.277  29.618  27.357  1.00  0.00     0.021 C 
ENDROOT
BRANCH   1   2
ATOM      2  C   UNL A   1      33.911  29.011  27.077  1.00  0.00     0.116 C 
BRANCH   2   3
ATOM      3  N   UNL A   1      32.869  30.003  26.974  1.00  0.00    -0.351 N 
ATOM      4  C   UNL A   1      31.835  30.157  26.081  1.00  0.00     0.269 C 
ATOM      5  O   UNL A   1      31.152  31.177  26.209  1.00  0.00    -0.268 OA
ATOM      6  H   UNL A   1      32.905  30.697  27.672  1.00  0.00     0.163 HD
BRANCH   4   7
ATOM      7  C   UNL A   1      31.512  29.168  24.993  1.00  0.00     0.130 A 
ATOM      8  C   UNL A   1      31.648  26.928  24.418  1.00  0.00     0.129 A 
ATOM      9  C   UNL A   1      31.182  27.192  23.138  1.00  0.00     0.047 A 
ATOM     10  N   UNL A   1      31.731  27.882  25.357  1.00  0.00    -0.226 NA
ATOM     11  C   UNL A   1      30.910  28.500  22.774  1.00  0.00     0.006 A 
ATOM     12  C   UNL A   1      31.157  29.512  23.693  1.00  0.00     0.034 A 
BRANCH   8  13
ATOM     13  N   UNL A   1      32.210  25.701  24.698  1.00  0.00    -0.356 N 
ATOM     14  C   UNL A   1      32.788  21.980  24.227  1.00  0.00     0.177 C 
ATOM     15  C   UNL A   1      33.871  23.284  23.274  1.00  0.00     0.066 C 
ATOM     16  C   UNL A   1      31.223  22.633  25.179  1.00  0.00     0.066 C 
ATOM     17  C   UNL A   1      33.661  25.171  23.696  1.00  0.00     0.122 C 
ATOM     18  C   UNL A   1      31.091  24.527  25.577  1.00  0.00     0.122 C 
BRANCH  14  19
ATOM     19  O   UNL A   1      33.656  21.406  25.249  1.00  0.00    -0.486 OA
BRANCH  19  20
ATOM     20  C   UNL A   1      33.809  20.060  24.984  1.00  0.00     0.161 A 
ATOM     21  C   UNL A   1      35.095  19.532  24.787  1.00  0.00     0.160 A 
ATOM     22  C   UNL A   1      35.247  18.173  24.527  1.00  0.00     0.050 A 
ATOM     23  C   UNL A   1      34.122  17.346  24.493  1.00  0.00     0.004 A 
ATOM     24  C   UNL A   1      32.686  19.245  24.941  1.00  0.00     0.050 A 
ATOM     25  C   UNL A   1      32.846  17.880  24.701  1.00  0.00     0.004 A 
BRANCH  21  26
ATOM     26  O   UNL A   1      36.063  20.506  24.939  1.00  0.00    -0.493 OA
ATOM     27  C   UNL A   1      37.363  21.822  25.019  1.00  0.00     0.278 C 
ENDBRANCH  21  26
ENDBRANCH  19  20
ENDBRANCH  14  19
ENDBRANCH   8  13
ENDBRANCH   4   7
ENDBRANCH   2   3
ENDBRANCH   1   2
BRANCH   1  28
ATOM     28  C   UNL A   1      35.295  30.741  28.394  1.00  0.00     0.002 C 
BRANCH  28  29
ATOM     29  C   UNL A   1      35.272  32.166  27.830  1.00  0.00     0.002 C 
BRANCH  29  30
ATOM     30  C   UNL A   1      34.043  33.006  28.190  1.00  0.00     0.021 C 
BRANCH  30  31
ATOM     31  C   UNL A   1      34.336  34.468  28.499  1.00  0.00     0.116 C 
BRANCH  31  32
ATOM     32  N   UNL A   1      33.828  34.859  29.801  1.00  0.00    -0.352 N 
ATOM     33  C   UNL A   1      34.178  34.398  31.043  1.00  0.00     0.251 C 
ATOM     34  H   UNL A   1      33.134  35.556  29.790  1.00  0.00     0.163 HD
ATOM     35  O   UNL A   1      33.487  34.670  32.020  1.00  0.00    -0.269 OA
BRANCH  33  36
ATOM     36  C   UNL A   1      35.385  33.561  31.202  1.00  0.00     0.039 A 
ATOM     37  C   UNL A   1      36.609  34.048  30.739  1.00  0.00     0.014 A 
ATOM     38  C   UNL A   1      35.307  32.292  31.784  1.00  0.00     0.014 A 
ATOM     39  C   UNL A   1      37.762  33.279  30.899  1.00  0.00     0.010 A 
ATOM     40  C   UNL A   1      36.468  31.563  32.017  1.00  0.00     0.010 A 
ATOM     41  C   UNL A   1      37.706  32.042  31.564  1.00  0.00    -0.014 A 
BRANCH  41  42
ATOM     42  C   UNL A   1      38.930  31.233  31.780  1.00  0.00     0.031 A 
ATOM     43  C   UNL A   1      39.832  31.524  32.948  1.00  0.00     0.074 A 
ATOM     44  C   UNL A   1      39.254  30.268  30.898  1.00  0.00     0.049 A 
ATOM     45  N   UNL A   1      40.958  30.948  33.285  1.00  0.00    -0.248 NA
ATOM     46  C   UNL A   1      39.428  32.621  33.843  1.00  0.00     0.031 C 
ATOM     47  C   UNL A   1      38.480  29.912  29.708  1.00  0.00     0.029 A 
ATOM     48  N   UNL A   1      40.323  29.409  30.868  1.00  0.00    -0.354 N 
ATOM     49  C   UNL A   1      41.402  31.620  34.417  1.00  0.00     0.074 A 
ATOM     50  C   UNL A   1      40.456  32.684  34.676  1.00  0.00     0.031 C 
ATOM     51  C   UNL A   1      39.078  28.883  29.086  1.00  0.00     0.029 A 
ATOM     52  C   UNL A   1      40.299  28.539  29.805  1.00  0.00     0.049 A 
ATOM     53  H   UNL A   1      41.039  29.415  31.544  1.00  0.00     0.167 HD
ATOM     54  C   UNL A   1      42.487  31.364  35.186  1.00  0.00     0.031 A 
ATOM     55  C   UNL A   1      41.167  27.573  29.449  1.00  0.00     0.031 A 
ATOM     56  C   UNL A   1      43.425  30.305  34.927  1.00  0.00     0.049 A 
ATOM     57  C   UNL A   1      42.382  27.332  30.300  1.00  0.00     0.074 A 
ATOM     58  C   UNL A   1      44.530  29.931  35.673  1.00  0.00     0.029 A 
ATOM     59  N   UNL A   1      43.374  29.455  33.833  1.00  0.00    -0.354 N 
ATOM     60  N   UNL A   1      42.751  27.931  31.406  1.00  0.00    -0.248 NA
ATOM     61  C   UNL A   1      43.297  26.269  29.856  1.00  0.00     0.031 C 
ATOM     62  C   UNL A   1      45.181  28.894  34.996  1.00  0.00     0.029 A 
ATOM     63  C   UNL A   1      44.444  28.576  33.867  1.00  0.00     0.049 A 
ATOM     64  H   UNL A   1      42.679  29.472  33.136  1.00  0.00     0.167 HD
ATOM     65  C   UNL A   1      43.919  27.296  31.810  1.00  0.00     0.074 A 
ATOM     66  C   UNL A   1      44.188  26.257  30.837  1.00  0.00     0.031 C 
ATOM     67  C   UNL A   1      44.699  27.549  32.890  1.00  0.00     0.031 A 
BRANCH  54  68
ATOM     68  C   UNL A   1      42.721  32.260  36.373  1.00  0.00    -0.014 A 
ATOM     69  C   UNL A   1      42.255  31.917  37.653  1.00  0.00     0.009 A 
ATOM     70  C   UNL A   1      43.443  33.454  36.214  1.00  0.00     0.009 A 
ATOM     71  C   UNL A   1      42.465  32.771  38.737  1.00  0.00     0.001 A 
ATOM     72  C   UNL A   1      43.682  34.290  37.307  1.00  0.00     0.001 A 
ATOM     73  C   UNL A   1      43.183  33.954  38.565  1.00  0.00     0.000 A 
ENDBRANCH  54  68
BRANCH  55  74
ATOM     74  C   UNL A   1      40.911  26.747  28.240  1.00  0.00    -0.014 A 
ATOM     75  C   UNL A   1      40.117  25.592  28.322  1.00  0.00     0.009 A 
ATOM     76  C   UNL A   1      41.465  27.100  27.000  1.00  0.00     0.009 A 
ATOM     77  C   UNL A   1      39.912  24.791  27.196  1.00  0.00     0.001 A 
ATOM     78  C   UNL A   1      41.230  26.316  25.868  1.00  0.00     0.001 A 
ATOM     79  C   UNL A   1      40.463  25.157  25.970  1.00  0.00     0.000 A 
ENDBRANCH  55  74
BRANCH  67  80
ATOM     80  C   UNL A   1      45.892  26.658  33.100  1.00  0.00    -0.014 A 
ATOM     81  C   UNL A   1      45.797  25.467  33.836  1.00  0.00     0.009 A 
ATOM     82  C   UNL A   1      47.124  27.003  32.521  1.00  0.00     0.009 A 
ATOM     83  C   UNL A   1      46.922  24.659  34.019  1.00  0.00     0.001 A 
ATOM     84  C   UNL A   1      48.238  26.176  32.676  1.00  0.00     0.001 A 
ATOM     85  C   UNL A   1      48.139  25.011  33.435  1.00  0.00     0.000 A 
ENDBRANCH  67  80
ENDBRANCH  41  42
ENDBRANCH  33  36
ENDBRANCH  31  32
ENDBRANCH  30  31
ENDBRANCH  29  30
ENDBRANCH  28  29
ENDBRANCH   1  28
TORSDOF 17
ENDMDL
