MODEL 1
REMARK VINA RESULT:     -12.5      0.000      0.000
REMARK SMILES COc1cc(Cl)c(C)cc1N1C(=O)C[C@H](Nc2cc(C(=O)NCCCCCCNC(=O)c3ccc(-c4c5nc(c(-c6ccccc6)c6ccc([nH]6)c(-c6ccccc6)c6nc(c(-c7ccccc7)c7ccc4[nH]7)C=C6)C=C5)cc3)ccc2C)C1=O
REMARK SMILES IDX 24 1 23 2 22 3 20 4 21 5 19 7 17 8 18 9 82 10 81 11 83 12
REMARK SMILES IDX 80 13 16 14 15 16 11 17 12 18 84 19 13 20 14 21 85 22 10 23
REMARK SMILES IDX 3 24 4 25 5 26 9 27 6 28 7 29 8 30 2 31 1 32 25 33 26 34
REMARK SMILES IDX 27 35 28 36 29 37 30 38 31 40 32 41 33 42 79 43 34 44 78 45
REMARK SMILES IDX 35 46 36 47 37 48 72 49 38 50 77 51 71 52 73 53 39 54 76 55
REMARK SMILES IDX 70 56 69 57 40 59 62 60 47 61 61 62 48 63 51 64 60 65 74 66
REMARK SMILES IDX 49 67 50 68 59 70 75 71 52 72 41 73 42 74 46 75 43 76 45 77
REMARK SMILES IDX 44 78 63 79 64 80 68 81 65 82 67 83 66 84 53 85 54 86 58 87
REMARK SMILES IDX 55 88 57 89 56 90
REMARK H PARENT 22 6 16 15 29 39 73 58 51 69
REMARK Flexibility Score: inf
ROOT
ATOM      1  C   UNL A   1      34.764  29.691  27.562  1.00  0.00     0.021 C 
ENDROOT
BRANCH   1   2
ATOM      2  C   UNL A   1      33.651  29.426  26.552  1.00  0.00     0.116 C 
BRANCH   2   3
ATOM      3  N   UNL A   1      34.073  29.415  25.165  1.00  0.00    -0.352 N 
ATOM      4  C   UNL A   1      33.415  28.998  24.029  1.00  0.00     0.251 C 
ATOM      5  O   UNL A   1      33.995  29.113  22.948  1.00  0.00    -0.269 OA
ATOM      6  H   UNL A   1      34.980  29.763  25.009  1.00  0.00     0.163 HD
BRANCH   4   7
ATOM      7  C   UNL A   1      32.060  28.375  24.054  1.00  0.00     0.041 A 
ATOM      8  C   UNL A   1      30.522  26.530  24.513  1.00  0.00     0.038 A 
ATOM      9  C   UNL A   1      31.787  27.126  24.622  1.00  0.00     0.039 A 
ATOM     10  C   UNL A   1      29.481  27.249  23.896  1.00  0.00    -0.028 A 
ATOM     11  C   UNL A   1      29.724  28.548  23.424  1.00  0.00     0.006 A 
ATOM     12  C   UNL A   1      28.076  26.712  23.817  1.00  0.00     0.046 C 
ATOM     13  C   UNL A   1      31.004  29.098  23.487  1.00  0.00     0.014 A 
BRANCH   8  14
ATOM     14  N   UNL A   1      30.319  25.206  24.878  1.00  0.00    -0.373 N 
ATOM     15  H   UNL A   1      30.004  25.012  25.790  1.00  0.00     0.161 HD
BRANCH  14  16
ATOM     16  C   UNL A   1      30.553  24.093  23.967  1.00  0.00     0.179 C 
ATOM     17  N   UNL A   1      32.247  22.482  23.863  1.00  0.00    -0.245 N 
ATOM     18  C   UNL A   1      32.556  23.391  22.876  1.00  0.00     0.236 C 
ATOM     19  C   UNL A   1      31.178  22.877  24.635  1.00  0.00     0.256 C 
ATOM     20  O   UNL A   1      33.438  23.331  22.050  1.00  0.00    -0.274 OA
ATOM     21  C   UNL A   1      31.574  24.521  22.930  1.00  0.00     0.136 C 
ATOM     22  O   UNL A   1      30.791  22.390  25.692  1.00  0.00    -0.272 OA
BRANCH  17  23
ATOM     23  C   UNL A   1      32.956  21.268  24.025  1.00  0.00     0.094 A 
ATOM     24  C   UNL A   1      34.122  21.188  24.803  1.00  0.00     0.144 A 
ATOM     25  C   UNL A   1      34.774  19.965  24.982  1.00  0.00     0.069 A 
ATOM     26  C   UNL A   1      34.268  18.805  24.392  1.00  0.00     0.047 A 
ATOM     27  C   UNL A   1      32.456  20.088  23.446  1.00  0.00     0.035 A 
ATOM     28  Cl  UNL A   1      35.095  17.318  24.690  1.00  0.00    -0.084 Cl
ATOM     29  C   UNL A   1      33.114  18.855  23.599  1.00  0.00    -0.030 A 
ATOM     30  C   UNL A   1      32.562  17.634  22.915  1.00  0.00     0.046 C 
BRANCH  24  31
ATOM     31  O   UNL A   1      34.673  22.269  25.445  1.00  0.00    -0.495 OA
ATOM     32  C   UNL A   1      34.339  22.292  26.834  1.00  0.00     0.278 C 
ENDBRANCH  24  31
ENDBRANCH  17  23
ENDBRANCH  14  16
ENDBRANCH   8  14
ENDBRANCH   4   7
ENDBRANCH   2   3
ENDBRANCH   1   2
BRANCH   1  33
ATOM     33  C   UNL A   1      35.348  31.106  27.646  1.00  0.00     0.002 C 
BRANCH  33  34
ATOM     34  C   UNL A   1      34.957  31.990  28.837  1.00  0.00     0.002 C 
BRANCH  34  35
ATOM     35  C   UNL A   1      34.262  33.316  28.536  1.00  0.00     0.021 C 
BRANCH  35  36
ATOM     36  C   UNL A   1      34.429  34.405  29.584  1.00  0.00     0.116 C 
BRANCH  36  37
ATOM     37  N   UNL A   1      33.617  34.234  30.785  1.00  0.00    -0.352 N 
ATOM     38  C   UNL A   1      34.005  33.863  32.061  1.00  0.00     0.251 C 
ATOM     39  H   UNL A   1      32.655  34.406  30.670  1.00  0.00     0.163 HD
ATOM     40  O   UNL A   1      33.161  33.722  32.942  1.00  0.00    -0.269 OA
BRANCH  38  41
ATOM     41  C   UNL A   1      35.447  33.794  32.408  1.00  0.00     0.039 A 
ATOM     42  C   UNL A   1      36.350  34.409  31.531  1.00  0.00     0.014 A 
ATOM     43  C   UNL A   1      35.914  32.930  33.392  1.00  0.00     0.014 A 
ATOM     44  C   UNL A   1      37.651  33.925  31.443  1.00  0.00     0.010 A 
ATOM     45  C   UNL A   1      37.160  32.365  33.232  1.00  0.00     0.010 A 
ATOM     46  C   UNL A   1      37.995  32.810  32.204  1.00  0.00    -0.014 A 
BRANCH  46  47
ATOM     47  C   UNL A   1      39.144  31.969  31.916  1.00  0.00     0.031 A 
ATOM     48  C   UNL A   1      38.976  30.704  31.186  1.00  0.00     0.074 A 
ATOM     49  C   UNL A   1      40.384  32.376  32.263  1.00  0.00     0.049 A 
ATOM     50  N   UNL A   1      39.787  29.708  31.288  1.00  0.00    -0.248 NA
ATOM     51  C   UNL A   1      37.839  30.439  30.314  1.00  0.00     0.031 C 
ATOM     52  C   UNL A   1      41.662  31.823  31.823  1.00  0.00     0.029 A 
ATOM     53  N   UNL A   1      40.736  33.272  33.258  1.00  0.00    -0.354 N 
ATOM     54  C   UNL A   1      39.483  28.835  30.273  1.00  0.00     0.074 A 
ATOM     55  C   UNL A   1      38.199  29.272  29.773  1.00  0.00     0.031 C 
ATOM     56  C   UNL A   1      42.621  32.207  32.681  1.00  0.00     0.029 A 
ATOM     57  C   UNL A   1      41.974  32.890  33.788  1.00  0.00     0.049 A 
ATOM     58  H   UNL A   1      40.204  34.047  33.547  1.00  0.00     0.167 HD
ATOM     59  C   UNL A   1      40.424  27.939  29.864  1.00  0.00     0.031 A 
ATOM     60  C   UNL A   1      42.081  32.523  35.102  1.00  0.00     0.031 A 
ATOM     61  C   UNL A   1      41.645  28.008  30.672  1.00  0.00     0.049 A 
ATOM     62  C   UNL A   1      42.455  31.066  35.316  1.00  0.00     0.074 A 
ATOM     63  C   UNL A   1      42.925  28.494  30.451  1.00  0.00     0.029 A 
ATOM     64  N   UNL A   1      41.559  27.783  32.039  1.00  0.00    -0.354 N 
ATOM     65  N   UNL A   1      42.602  30.190  34.361  1.00  0.00    -0.248 NA
ATOM     66  C   UNL A   1      42.602  30.457  36.639  1.00  0.00     0.031 C 
ATOM     67  C   UNL A   1      43.613  28.528  31.698  1.00  0.00     0.029 A 
ATOM     68  C   UNL A   1      42.757  28.053  32.671  1.00  0.00     0.049 A 
ATOM     69  H   UNL A   1      40.747  27.471  32.498  1.00  0.00     0.167 HD
ATOM     70  C   UNL A   1      42.780  28.939  34.894  1.00  0.00     0.074 A 
ATOM     71  C   UNL A   1      42.781  29.161  36.328  1.00  0.00     0.031 C 
ATOM     72  C   UNL A   1      42.861  27.825  34.106  1.00  0.00     0.031 A 
BRANCH  59  73
ATOM     73  C   UNL A   1      40.335  27.185  28.559  1.00  0.00    -0.014 A 
ATOM     74  C   UNL A   1      39.698  25.932  28.520  1.00  0.00     0.009 A 
ATOM     75  C   UNL A   1      40.890  27.624  27.345  1.00  0.00     0.009 A 
ATOM     76  C   UNL A   1      39.710  25.122  27.376  1.00  0.00     0.001 A 
ATOM     77  C   UNL A   1      40.943  26.807  26.207  1.00  0.00     0.001 A 
ATOM     78  C   UNL A   1      40.362  25.548  26.227  1.00  0.00     0.000 A 
ENDBRANCH  59  73
BRANCH  60  79
ATOM     79  C   UNL A   1      41.184  33.316  35.993  1.00  0.00    -0.014 A 
ATOM     80  C   UNL A   1      39.932  32.764  36.330  1.00  0.00     0.009 A 
ATOM     81  C   UNL A   1      41.698  34.346  36.793  1.00  0.00     0.009 A 
ATOM     82  C   UNL A   1      39.278  33.139  37.507  1.00  0.00     0.001 A 
ATOM     83  C   UNL A   1      41.033  34.727  37.966  1.00  0.00     0.001 A 
ATOM     84  C   UNL A   1      39.846  34.097  38.342  1.00  0.00     0.000 A 
ENDBRANCH  60  79
BRANCH  72  85
ATOM     85  C   UNL A   1      43.005  26.397  34.589  1.00  0.00    -0.014 A 
ATOM     86  C   UNL A   1      44.158  25.622  34.427  1.00  0.00     0.009 A 
ATOM     87  C   UNL A   1      41.887  25.740  35.157  1.00  0.00     0.009 A 
ATOM     88  C   UNL A   1      44.213  24.292  34.880  1.00  0.00     0.001 A 
ATOM     89  C   UNL A   1      41.928  24.413  35.591  1.00  0.00     0.001 A 
ATOM     90  C   UNL A   1      43.102  23.692  35.466  1.00  0.00     0.000 A 
ENDBRANCH  72  85
ENDBRANCH  46  47
ENDBRANCH  38  41
ENDBRANCH  36  37
ENDBRANCH  35  36
ENDBRANCH  34  35
ENDBRANCH  33  34
ENDBRANCH   1  33
TORSDOF 17
ENDMDL
MODEL 2
REMARK VINA RESULT:     -11.6      4.222      9.466
REMARK SMILES COc1cc(Cl)c(C)cc1N1C(=O)C[C@H](Nc2cc(C(=O)NCCCCCCNC(=O)c3ccc(-c4c5nc(c(-c6ccccc6)c6ccc([nH]6)c(-c6ccccc6)c6nc(c(-c7ccccc7)c7ccc4[nH]7)C=C6)C=C5)cc3)ccc2C)C1=O
REMARK SMILES IDX 24 1 23 2 22 3 20 4 21 5 19 7 17 8 18 9 82 10 81 11 83 12
REMARK SMILES IDX 80 13 16 14 15 16 11 17 12 18 84 19 13 20 14 21 85 22 10 23
REMARK SMILES IDX 3 24 4 25 5 26 9 27 6 28 7 29 8 30 2 31 1 32 25 33 26 34
REMARK SMILES IDX 27 35 28 36 29 37 30 38 31 40 32 41 33 42 79 43 34 44 78 45
REMARK SMILES IDX 35 46 36 47 37 48 72 49 38 50 77 51 71 52 73 53 39 54 76 55
REMARK SMILES IDX 70 56 69 57 40 59 62 60 47 61 61 62 48 63 51 64 60 65 74 66
REMARK SMILES IDX 49 67 50 68 59 70 75 71 52 72 41 73 42 74 46 75 43 76 45 77
REMARK SMILES IDX 44 78 63 79 64 80 68 81 65 82 67 83 66 84 53 85 54 86 58 87
REMARK SMILES IDX 55 88 57 89 56 90
REMARK H PARENT 22 6 16 15 29 39 73 58 51 69
REMARK Flexibility Score: inf
ROOT
ATOM      1  C   UNL A   1      39.330  27.336  28.278  1.00  0.00     0.021 C 
ENDROOT
BRANCH   1   2
ATOM      2  C   UNL A   1      40.024  26.106  27.695  1.00  0.00     0.116 C 
BRANCH   2   3
ATOM      3  N   UNL A   1      41.461  26.069  27.882  1.00  0.00    -0.352 N 
ATOM      4  C   UNL A   1      42.370  25.059  27.658  1.00  0.00     0.251 C 
ATOM      5  O   UNL A   1      43.559  25.289  27.884  1.00  0.00    -0.269 OA
ATOM      6  H   UNL A   1      41.853  26.904  28.227  1.00  0.00     0.163 HD
BRANCH   4   7
ATOM      7  C   UNL A   1      41.976  23.694  27.204  1.00  0.00     0.041 A 
ATOM      8  C   UNL A   1      40.325  21.999  26.586  1.00  0.00     0.038 A 
ATOM      9  C   UNL A   1      40.663  23.325  26.891  1.00  0.00     0.039 A 
ATOM     10  C   UNL A   1      41.349  21.037  26.505  1.00  0.00    -0.028 A 
ATOM     11  C   UNL A   1      42.681  21.426  26.710  1.00  0.00     0.006 A 
ATOM     12  C   UNL A   1      41.077  19.611  26.100  1.00  0.00     0.046 C 
ATOM     13  C   UNL A   1      42.989  22.737  27.073  1.00  0.00     0.014 A 
BRANCH   8  14
ATOM     14  N   UNL A   1      38.999  21.599  26.497  1.00  0.00    -0.373 N 
ATOM     15  H   UNL A   1      38.616  21.069  27.232  1.00  0.00     0.161 HD
BRANCH  14  16
ATOM     16  C   UNL A   1      38.150  21.931  25.360  1.00  0.00     0.179 C 
ATOM     17  N   UNL A   1      35.943  22.698  25.222  1.00  0.00    -0.245 N 
ATOM     18  C   UNL A   1      35.876  21.356  24.917  1.00  0.00     0.236 C 
ATOM     19  C   UNL A   1      37.200  23.090  25.623  1.00  0.00     0.256 C 
ATOM     20  O   UNL A   1      34.917  20.719  24.545  1.00  0.00    -0.274 OA
ATOM     21  C   UNL A   1      37.237  20.752  25.075  1.00  0.00     0.136 C 
ATOM     22  O   UNL A   1      37.530  24.154  26.136  1.00  0.00    -0.272 OA
BRANCH  17  23
ATOM     23  C   UNL A   1      34.828  23.560  25.102  1.00  0.00     0.094 A 
ATOM     24  C   UNL A   1      33.945  23.784  26.170  1.00  0.00     0.144 A 
ATOM     25  C   UNL A   1      32.879  24.678  26.035  1.00  0.00     0.069 A 
ATOM     26  C   UNL A   1      32.683  25.363  24.834  1.00  0.00     0.047 A 
ATOM     27  C   UNL A   1      34.620  24.265  23.902  1.00  0.00     0.035 A 
ATOM     28  Cl  UNL A   1      31.374  26.486  24.747  1.00  0.00    -0.084 Cl
ATOM     29  C   UNL A   1      33.538  25.150  23.744  1.00  0.00    -0.030 A 
ATOM     30  C   UNL A   1      33.335  25.839  22.423  1.00  0.00     0.046 C 
BRANCH  24  31
ATOM     31  O   UNL A   1      34.079  23.180  27.395  1.00  0.00    -0.495 OA
ATOM     32  C   UNL A   1      33.193  22.070  27.544  1.00  0.00     0.278 C 
ENDBRANCH  24  31
ENDBRANCH  17  23
ENDBRANCH  14  16
ENDBRANCH   8  14
ENDBRANCH   4   7
ENDBRANCH   2   3
ENDBRANCH   1   2
BRANCH   1  33
ATOM     33  C   UNL A   1      39.258  28.604  27.422  1.00  0.00     0.002 C 
BRANCH  33  34
ATOM     34  C   UNL A   1      38.399  29.774  27.917  1.00  0.00     0.002 C 
BRANCH  34  35
ATOM     35  C   UNL A   1      36.884  29.581  27.940  1.00  0.00     0.021 C 
BRANCH  35  36
ATOM     36  C   UNL A   1      36.052  30.842  27.767  1.00  0.00     0.116 C 
BRANCH  36  37
ATOM     37  N   UNL A   1      35.338  31.277  28.963  1.00  0.00    -0.352 N 
ATOM     38  C   UNL A   1      35.838  31.800  30.143  1.00  0.00     0.251 C 
ATOM     39  H   UNL A   1      34.359  31.184  28.925  1.00  0.00     0.163 HD
ATOM     40  O   UNL A   1      35.076  32.066  31.068  1.00  0.00    -0.269 OA
BRANCH  38  41
ATOM     41  C   UNL A   1      37.268  32.193  30.233  1.00  0.00     0.039 A 
ATOM     42  C   UNL A   1      38.148  31.288  30.839  1.00  0.00     0.014 A 
ATOM     43  C   UNL A   1      37.675  33.500  29.990  1.00  0.00     0.014 A 
ATOM     44  C   UNL A   1      39.291  31.767  31.469  1.00  0.00     0.010 A 
ATOM     45  C   UNL A   1      38.738  34.000  30.709  1.00  0.00     0.010 A 
ATOM     46  C   UNL A   1      39.495  33.144  31.513  1.00  0.00    -0.014 A 
BRANCH  46  47
ATOM     47  C   UNL A   1      40.388  33.791  32.459  1.00  0.00     0.031 A 
ATOM     48  C   UNL A   1      39.851  34.445  33.660  1.00  0.00     0.074 A 
ATOM     49  C   UNL A   1      41.725  33.739  32.271  1.00  0.00     0.049 A 
ATOM     50  N   UNL A   1      40.450  35.403  34.280  1.00  0.00    -0.248 NA
ATOM     51  C   UNL A   1      38.557  34.102  34.236  1.00  0.00     0.031 C 
ATOM     52  C   UNL A   1      42.775  34.074  33.228  1.00  0.00     0.029 A 
ATOM     53  N   UNL A   1      42.408  33.553  31.081  1.00  0.00    -0.354 N 
ATOM     54  C   UNL A   1      39.814  35.564  35.485  1.00  0.00     0.074 A 
ATOM     55  C   UNL A   1      38.581  34.821  35.362  1.00  0.00     0.031 C 
ATOM     56  C   UNL A   1      43.918  34.295  32.560  1.00  0.00     0.029 A 
ATOM     57  C   UNL A   1      43.613  34.262  31.141  1.00  0.00     0.049 A 
ATOM     58  H   UNL A   1      42.098  33.013  30.319  1.00  0.00     0.167 HD
ATOM     59  C   UNL A   1      40.476  36.175  36.508  1.00  0.00     0.031 A 
ATOM     60  C   UNL A   1      43.858  35.285  30.266  1.00  0.00     0.031 A 
ATOM     61  C   UNL A   1      41.801  36.654  36.105  1.00  0.00     0.049 A 
ATOM     62  C   UNL A   1      43.960  36.654  30.918  1.00  0.00     0.074 A 
ATOM     63  C   UNL A   1      43.099  36.235  36.356  1.00  0.00     0.029 A 
ATOM     64  N   UNL A   1      41.896  37.570  35.067  1.00  0.00    -0.354 N 
ATOM     65  N   UNL A   1      43.769  36.888  32.186  1.00  0.00    -0.248 NA
ATOM     66  C   UNL A   1      44.196  37.889  30.167  1.00  0.00     0.031 C 
ATOM     67  C   UNL A   1      43.974  36.934  35.478  1.00  0.00     0.029 A 
ATOM     68  C   UNL A   1      43.211  37.785  34.702  1.00  0.00     0.049 A 
ATOM     69  H   UNL A   1      41.124  38.011  34.646  1.00  0.00     0.167 HD
ATOM     70  C   UNL A   1      43.776  38.239  32.422  1.00  0.00     0.074 A 
ATOM     71  C   UNL A   1      44.057  38.824  31.123  1.00  0.00     0.031 C 
ATOM     72  C   UNL A   1      43.500  38.757  33.657  1.00  0.00     0.031 A 
BRANCH  59  73
ATOM     73  C   UNL A   1      40.024  36.098  37.947  1.00  0.00    -0.014 A 
ATOM     74  C   UNL A   1      39.594  34.868  38.477  1.00  0.00     0.009 A 
ATOM     75  C   UNL A   1      39.955  37.196  38.821  1.00  0.00     0.009 A 
ATOM     76  C   UNL A   1      39.030  34.762  39.755  1.00  0.00     0.001 A 
ATOM     77  C   UNL A   1      39.356  37.109  40.086  1.00  0.00     0.001 A 
ATOM     78  C   UNL A   1      38.881  35.891  40.548  1.00  0.00     0.000 A 
ENDBRANCH  59  73
BRANCH  60  79
ATOM     79  C   UNL A   1      43.298  35.024  28.907  1.00  0.00    -0.014 A 
ATOM     80  C   UNL A   1      42.160  35.756  28.510  1.00  0.00     0.009 A 
ATOM     81  C   UNL A   1      44.077  34.410  27.917  1.00  0.00     0.009 A 
ATOM     82  C   UNL A   1      41.888  35.977  27.157  1.00  0.00     0.001 A 
ATOM     83  C   UNL A   1      43.793  34.626  26.562  1.00  0.00     0.001 A 
ATOM     84  C   UNL A   1      42.725  35.439  26.184  1.00  0.00     0.000 A 
ENDBRANCH  60  79
BRANCH  72  85
ATOM     85  C   UNL A   1      43.431  40.226  34.015  1.00  0.00    -0.014 A 
ATOM     86  C   UNL A   1      44.217  40.837  34.998  1.00  0.00     0.009 A 
ATOM     87  C   UNL A   1      42.450  41.044  33.404  1.00  0.00     0.009 A 
ATOM     88  C   UNL A   1      44.082  42.204  35.295  1.00  0.00     0.001 A 
ATOM     89  C   UNL A   1      42.296  42.398  33.709  1.00  0.00     0.001 A 
ATOM     90  C   UNL A   1      43.127  42.984  34.648  1.00  0.00     0.000 A 
ENDBRANCH  72  85
ENDBRANCH  46  47
ENDBRANCH  38  41
ENDBRANCH  36  37
ENDBRANCH  35  36
ENDBRANCH  34  35
ENDBRANCH  33  34
ENDBRANCH   1  33
TORSDOF 17
ENDMDL
MODEL 3
REMARK VINA RESULT:     -11.2      4.095      9.167
REMARK SMILES COc1cc(Cl)c(C)cc1N1C(=O)C[C@H](Nc2cc(C(=O)NCCCCCCNC(=O)c3ccc(-c4c5nc(c(-c6ccccc6)c6ccc([nH]6)c(-c6ccccc6)c6nc(c(-c7ccccc7)c7ccc4[nH]7)C=C6)C=C5)cc3)ccc2C)C1=O
REMARK SMILES IDX 24 1 23 2 22 3 20 4 21 5 19 7 17 8 18 9 82 10 81 11 83 12
REMARK SMILES IDX 80 13 16 14 15 16 11 17 12 18 84 19 13 20 14 21 85 22 10 23
REMARK SMILES IDX 3 24 4 25 5 26 9 27 6 28 7 29 8 30 2 31 1 32 25 33 26 34
REMARK SMILES IDX 27 35 28 36 29 37 30 38 31 40 32 41 33 42 79 43 34 44 78 45
REMARK SMILES IDX 35 46 36 47 37 48 72 49 38 50 77 51 71 52 73 53 39 54 76 55
REMARK SMILES IDX 70 56 69 57 40 59 62 60 47 61 61 62 48 63 51 64 60 65 74 66
REMARK SMILES IDX 49 67 50 68 59 70 75 71 52 72 41 73 42 74 46 75 43 76 45 77
REMARK SMILES IDX 44 78 63 79 64 80 68 81 65 82 67 83 66 84 53 85 54 86 58 87
REMARK SMILES IDX 55 88 57 89 56 90
REMARK H PARENT 22 6 16 15 29 39 73 58 51 69
REMARK Flexibility Score: inf
ROOT
ATOM      1  C   UNL A   1      37.901  33.736  33.062  1.00  0.00     0.021 C 
ENDROOT
BRANCH   1   2
ATOM      2  C   UNL A   1      37.010  32.496  33.063  1.00  0.00     0.116 C 
BRANCH   2   3
ATOM      3  N   UNL A   1      35.659  32.714  33.541  1.00  0.00    -0.352 N 
ATOM      4  C   UNL A   1      34.517  33.088  32.867  1.00  0.00     0.251 C 
ATOM      5  O   UNL A   1      33.472  33.188  33.510  1.00  0.00    -0.269 OA
ATOM      6  H   UNL A   1      35.536  32.571  34.507  1.00  0.00     0.163 HD
BRANCH   4   7
ATOM      7  C   UNL A   1      34.501  33.420  31.413  1.00  0.00     0.041 A 
ATOM      8  C   UNL A   1      34.539  32.818  29.043  1.00  0.00     0.038 A 
ATOM      9  C   UNL A   1      34.428  32.463  30.395  1.00  0.00     0.039 A 
ATOM     10  C   UNL A   1      34.635  34.180  28.703  1.00  0.00    -0.028 A 
ATOM     11  C   UNL A   1      34.597  35.150  29.716  1.00  0.00     0.006 A 
ATOM     12  C   UNL A   1      34.671  34.647  27.270  1.00  0.00     0.046 C 
ATOM     13  C   UNL A   1      34.548  34.773  31.058  1.00  0.00     0.014 A 
BRANCH   8  14
ATOM     14  N   UNL A   1      34.690  31.853  28.058  1.00  0.00    -0.373 N 
ATOM     15  H   UNL A   1      35.390  31.979  27.378  1.00  0.00     0.161 HD
BRANCH  14  16
ATOM     16  C   UNL A   1      33.854  30.661  27.987  1.00  0.00     0.179 C 
ATOM     17  N   UNL A   1      33.516  29.081  26.294  1.00  0.00    -0.245 N 
ATOM     18  C   UNL A   1      32.406  29.897  26.251  1.00  0.00     0.236 C 
ATOM     19  C   UNL A   1      34.471  29.529  27.178  1.00  0.00     0.256 C 
ATOM     20  O   UNL A   1      31.411  29.774  25.573  1.00  0.00    -0.274 OA
ATOM     21  C   UNL A   1      32.579  31.006  27.242  1.00  0.00     0.136 C 
ATOM     22  O   UNL A   1      35.627  29.139  27.300  1.00  0.00    -0.272 OA
BRANCH  17  23
ATOM     23  C   UNL A   1      33.623  27.904  25.517  1.00  0.00     0.094 A 
ATOM     24  C   UNL A   1      33.743  27.946  24.118  1.00  0.00     0.144 A 
ATOM     25  C   UNL A   1      33.895  26.767  23.383  1.00  0.00     0.069 A 
ATOM     26  C   UNL A   1      33.931  25.532  24.033  1.00  0.00     0.047 A 
ATOM     27  C   UNL A   1      33.670  26.651  26.155  1.00  0.00     0.035 A 
ATOM     28  Cl  UNL A   1      34.165  24.117  23.071  1.00  0.00    -0.084 Cl
ATOM     29  C   UNL A   1      33.798  25.456  25.426  1.00  0.00    -0.030 A 
ATOM     30  C   UNL A   1      33.793  24.141  26.158  1.00  0.00     0.046 C 
BRANCH  24  31
ATOM     31  O   UNL A   1      33.750  29.115  23.399  1.00  0.00    -0.495 OA
ATOM     32  C   UNL A   1      32.705  29.150  22.426  1.00  0.00     0.278 C 
ENDBRANCH  24  31
ENDBRANCH  17  23
ENDBRANCH  14  16
ENDBRANCH   8  14
ENDBRANCH   4   7
ENDBRANCH   2   3
ENDBRANCH   1   2
BRANCH   1  33
ATOM     33  C   UNL A   1      37.972  34.579  31.783  1.00  0.00     0.002 C 
BRANCH  33  34
ATOM     34  C   UNL A   1      39.010  34.206  30.717  1.00  0.00     0.002 C 
BRANCH  34  35
ATOM     35  C   UNL A   1      38.550  33.324  29.559  1.00  0.00     0.021 C 
BRANCH  35  36
ATOM     36  C   UNL A   1      38.745  31.827  29.746  1.00  0.00     0.116 C 
BRANCH  36  37
ATOM     37  N   UNL A   1      37.558  31.102  30.187  1.00  0.00    -0.352 N 
ATOM     38  C   UNL A   1      37.344  29.737  30.271  1.00  0.00     0.251 C 
ATOM     39  H   UNL A   1      36.800  31.666  30.465  1.00  0.00     0.163 HD
ATOM     40  O   UNL A   1      36.249  29.308  30.624  1.00  0.00    -0.269 OA
BRANCH  38  41
ATOM     41  C   UNL A   1      38.479  28.796  30.094  1.00  0.00     0.039 A 
ATOM     42  C   UNL A   1      39.247  28.493  31.225  1.00  0.00     0.014 A 
ATOM     43  C   UNL A   1      38.940  28.449  28.829  1.00  0.00     0.014 A 
ATOM     44  C   UNL A   1      40.582  28.137  31.067  1.00  0.00     0.010 A 
ATOM     45  C   UNL A   1      40.287  28.212  28.663  1.00  0.00     0.010 A 
ATOM     46  C   UNL A   1      41.120  28.138  29.783  1.00  0.00    -0.014 A 
BRANCH  46  47
ATOM     47  C   UNL A   1      42.546  28.193  29.513  1.00  0.00     0.031 A 
ATOM     48  C   UNL A   1      43.165  29.437  29.033  1.00  0.00     0.074 A 
ATOM     49  C   UNL A   1      43.324  27.117  29.763  1.00  0.00     0.049 A 
ATOM     50  N   UNL A   1      44.253  29.473  28.344  1.00  0.00    -0.248 NA
ATOM     51  C   UNL A   1      42.571  30.750  29.249  1.00  0.00     0.031 C 
ATOM     52  C   UNL A   1      44.781  27.063  29.824  1.00  0.00     0.029 A 
ATOM     53  N   UNL A   1      42.940  25.788  29.822  1.00  0.00    -0.354 N 
ATOM     54  C   UNL A   1      44.673  30.779  28.321  1.00  0.00     0.074 A 
ATOM     55  C   UNL A   1      43.542  31.546  28.791  1.00  0.00     0.031 C 
ATOM     56  C   UNL A   1      45.176  25.788  29.680  1.00  0.00     0.029 A 
ATOM     57  C   UNL A   1      44.001  24.995  29.367  1.00  0.00     0.049 A 
ATOM     58  H   UNL A   1      42.067  25.455  30.130  1.00  0.00     0.167 HD
ATOM     59  C   UNL A   1      45.983  31.051  28.061  1.00  0.00     0.031 A 
ATOM     60  C   UNL A   1      43.856  24.222  28.247  1.00  0.00     0.031 A 
ATOM     61  C   UNL A   1      46.751  29.841  27.755  1.00  0.00     0.049 A 
ATOM     62  C   UNL A   1      44.736  24.639  27.081  1.00  0.00     0.074 A 
ATOM     63  C   UNL A   1      47.699  29.097  28.441  1.00  0.00     0.029 A 
ATOM     64  N   UNL A   1      46.365  29.056  26.678  1.00  0.00    -0.354 N 
ATOM     65  N   UNL A   1      45.523  25.679  27.081  1.00  0.00    -0.248 NA
ATOM     66  C   UNL A   1      44.726  23.965  25.782  1.00  0.00     0.031 C 
ATOM     67  C   UNL A   1      47.897  27.871  27.745  1.00  0.00     0.029 A 
ATOM     68  C   UNL A   1      47.080  27.875  26.632  1.00  0.00     0.049 A 
ATOM     69  H   UNL A   1      45.669  29.309  26.029  1.00  0.00     0.167 HD
ATOM     70  C   UNL A   1      46.053  25.868  25.831  1.00  0.00     0.074 A 
ATOM     71  C   UNL A   1      45.529  24.760  25.052  1.00  0.00     0.031 C 
ATOM     72  C   UNL A   1      46.837  26.948  25.535  1.00  0.00     0.031 A 
BRANCH  59  73
ATOM     73  C   UNL A   1      46.622  32.389  28.348  1.00  0.00    -0.014 A 
ATOM     74  C   UNL A   1      46.743  33.338  27.317  1.00  0.00     0.009 A 
ATOM     75  C   UNL A   1      47.162  32.765  29.590  1.00  0.00     0.009 A 
ATOM     76  C   UNL A   1      47.453  34.535  27.484  1.00  0.00     0.001 A 
ATOM     77  C   UNL A   1      47.908  33.939  29.757  1.00  0.00     0.001 A 
ATOM     78  C   UNL A   1      48.064  34.821  28.697  1.00  0.00     0.000 A 
ENDBRANCH  59  73
BRANCH  60  79
ATOM     79  C   UNL A   1      42.484  23.648  28.121  1.00  0.00    -0.014 A 
ATOM     80  C   UNL A   1      41.586  24.272  27.232  1.00  0.00     0.009 A 
ATOM     81  C   UNL A   1      42.219  22.332  28.526  1.00  0.00     0.009 A 
ATOM     82  C   UNL A   1      40.529  23.556  26.662  1.00  0.00     0.001 A 
ATOM     83  C   UNL A   1      41.150  21.622  27.960  1.00  0.00     0.001 A 
ATOM     84  C   UNL A   1      40.332  22.221  27.003  1.00  0.00     0.000 A 
ENDBRANCH  60  79
BRANCH  72  85
ATOM     85  C   UNL A   1      47.428  27.280  24.181  1.00  0.00    -0.014 A 
ATOM     86  C   UNL A   1      46.870  28.190  23.277  1.00  0.00     0.009 A 
ATOM     87  C   UNL A   1      48.566  26.570  23.728  1.00  0.00     0.009 A 
ATOM     88  C   UNL A   1      47.462  28.432  22.025  1.00  0.00     0.001 A 
ATOM     89  C   UNL A   1      49.148  26.790  22.478  1.00  0.00     0.001 A 
ATOM     90  C   UNL A   1      48.602  27.737  21.629  1.00  0.00     0.000 A 
ENDBRANCH  72  85
ENDBRANCH  46  47
ENDBRANCH  38  41
ENDBRANCH  36  37
ENDBRANCH  35  36
ENDBRANCH  34  35
ENDBRANCH  33  34
ENDBRANCH   1  33
TORSDOF 17
ENDMDL
