MODEL 1
REMARK VINA RESULT:     -12.4      0.000      0.000
REMARK SMILES Cc1c(CC(=O)NCCCCCCNC(=O)c2ccc(-c3c4nc(c(-c5ccccc5)c5ccc([nH]5)c(-c5ccccc5)c5nc(c(-c6ccccc6)c6ccc3[nH]6)C=C5)C=C4)cc2)c2cc(O)ccc2n1C(=O)c1ccc(Cl)cc1
REMARK SMILES IDX 10 1 9 2 8 3 7 4 5 5 6 6 4 8 3 9 1 10 2 11 72 12 65 13 71 14
REMARK SMILES IDX 66 15 70 16 67 17 69 18 73 19 74 20 75 21 76 22 81 23 77 24
REMARK SMILES IDX 80 25 78 26 79 27 68 28 11 30 12 31 13 32 14 33 15 34 16 36
REMARK SMILES IDX 17 37 18 38 64 39 19 40 63 41 20 42 21 43 22 44 57 45 23 46
REMARK SMILES IDX 62 47 56 48 58 49 24 50 61 51 55 52 54 53 25 55 47 56 32 57
REMARK SMILES IDX 46 58 33 59 36 60 45 61 59 62 34 63 35 64 44 66 60 67 37 68
REMARK SMILES IDX 26 69 27 70 31 71 28 72 30 73 29 74 48 75 49 76 53 77 50 78
REMARK SMILES IDX 52 79 51 80 38 81 39 82 43 83 40 84 42 85 41 86
REMARK H PARENT 7 7 68 29 14 35 58 54 36 65
REMARK Flexibility Score: inf
ROOT
ATOM      1  C   UNL A   1      31.730  27.238  26.828  1.00  0.00     0.002 C 
ENDROOT
BRANCH   1   2
ATOM      2  C   UNL A   1      30.894  27.118  25.547  1.00  0.00     0.021 C 
BRANCH   2   3
ATOM      3  C   UNL A   1      29.972  25.900  25.537  1.00  0.00     0.116 C 
BRANCH   3   4
ATOM      4  N   UNL A   1      30.407  24.915  26.504  1.00  0.00    -0.356 N 
ATOM      5  C   UNL A   1      30.965  23.688  26.280  1.00  0.00     0.224 C 
ATOM      6  O   UNL A   1      31.186  22.962  27.251  1.00  0.00    -0.275 OA
ATOM      7  H   UNL A   1      30.285  25.160  27.449  1.00  0.00     0.163 HD
BRANCH   5   8
ATOM      8  C   UNL A   1      31.371  23.277  24.874  1.00  0.00     0.138 C 
BRANCH   8   9
ATOM      9  C   UNL A   1      32.744  22.671  24.779  1.00  0.00    -0.009 A 
ATOM     10  C   UNL A   1      34.191  24.805  25.073  1.00  0.00     0.065 C 
ATOM     11  C   UNL A   1      33.958  23.346  24.839  1.00  0.00     0.028 A 
ATOM     12  N   UNL A   1      34.991  22.431  24.596  1.00  0.00    -0.280 N 
ATOM     13  C   UNL A   1      33.044  21.282  24.687  1.00  0.00     0.008 A 
ATOM     14  C   UNL A   1      34.438  21.144  24.685  1.00  0.00     0.057 A 
ATOM     15  C   UNL A   1      32.235  20.124  24.640  1.00  0.00     0.056 A 
ATOM     16  C   UNL A   1      35.020  19.858  24.731  1.00  0.00     0.031 A 
ATOM     17  C   UNL A   1      32.829  18.867  24.613  1.00  0.00     0.116 A 
ATOM     18  C   UNL A   1      34.202  18.727  24.675  1.00  0.00     0.048 A 
BRANCH  12  19
ATOM     19  C   UNL A   1      36.343  22.774  24.296  1.00  0.00     0.262 C 
ATOM     20  O   UNL A   1      36.633  23.126  23.162  1.00  0.00    -0.268 OA
BRANCH  19  21
ATOM     21  C   UNL A   1      37.458  22.721  25.258  1.00  0.00     0.040 A 
ATOM     22  C   UNL A   1      37.772  23.830  26.050  1.00  0.00     0.015 A 
ATOM     23  C   UNL A   1      38.206  21.542  25.339  1.00  0.00     0.015 A 
ATOM     24  C   UNL A   1      38.902  23.780  26.871  1.00  0.00     0.021 A 
ATOM     25  C   UNL A   1      39.327  21.497  26.167  1.00  0.00     0.021 A 
ATOM     26  C   UNL A   1      39.681  22.622  26.914  1.00  0.00     0.041 A 
ATOM     27  Cl  UNL A   1      41.103  22.588  27.881  1.00  0.00    -0.084 Cl
ENDBRANCH  19  21
ENDBRANCH  12  19
BRANCH  17  28
ATOM     28  O   UNL A   1      32.008  17.780  24.544  1.00  0.00    -0.508 OA
ATOM     29  H   UNL A   1      32.174  17.033  25.085  1.00  0.00     0.293 HD
ENDBRANCH  17  28
ENDBRANCH   8   9
ENDBRANCH   5   8
ENDBRANCH   3   4
ENDBRANCH   2   3
ENDBRANCH   1   2
BRANCH   1  30
ATOM     30  C   UNL A   1      31.725  28.628  27.469  1.00  0.00     0.002 C 
BRANCH  30  31
ATOM     31  C   UNL A   1      32.111  29.773  26.530  1.00  0.00     0.021 C 
BRANCH  31  32
ATOM     32  C   UNL A   1      33.526  30.315  26.746  1.00  0.00     0.116 C 
BRANCH  32  33
ATOM     33  N   UNL A   1      33.664  31.194  27.890  1.00  0.00    -0.352 N 
ATOM     34  C   UNL A   1      34.721  31.600  28.658  1.00  0.00     0.251 C 
ATOM     35  H   UNL A   1      32.808  31.586  28.178  1.00  0.00     0.163 HD
ATOM     36  O   UNL A   1      34.496  32.464  29.508  1.00  0.00    -0.269 OA
BRANCH  34  37
ATOM     37  C   UNL A   1      36.080  31.001  28.592  1.00  0.00     0.039 A 
ATOM     38  C   UNL A   1      36.354  29.674  28.266  1.00  0.00     0.014 A 
ATOM     39  C   UNL A   1      37.150  31.840  28.954  1.00  0.00     0.014 A 
ATOM     40  C   UNL A   1      37.620  29.148  28.470  1.00  0.00     0.010 A 
ATOM     41  C   UNL A   1      38.435  31.332  29.105  1.00  0.00     0.010 A 
ATOM     42  C   UNL A   1      38.649  29.967  28.932  1.00  0.00    -0.014 A 
BRANCH  42  43
ATOM     43  C   UNL A   1      39.945  29.336  29.151  1.00  0.00     0.031 A 
ATOM     44  C   UNL A   1      40.245  28.955  30.561  1.00  0.00     0.074 A 
ATOM     45  C   UNL A   1      40.796  29.041  28.150  1.00  0.00     0.049 A 
ATOM     46  N   UNL A   1      41.247  29.310  31.297  1.00  0.00    -0.248 NA
ATOM     47  C   UNL A   1      39.242  28.136  31.259  1.00  0.00     0.031 C 
ATOM     48  C   UNL A   1      40.533  29.084  26.709  1.00  0.00     0.029 A 
ATOM     49  N   UNL A   1      42.050  28.513  28.225  1.00  0.00    -0.354 N 
ATOM     50  C   UNL A   1      41.085  28.643  32.512  1.00  0.00     0.074 A 
ATOM     51  C   UNL A   1      39.783  28.030  32.472  1.00  0.00     0.031 C 
ATOM     52  C   UNL A   1      41.483  28.371  26.068  1.00  0.00     0.029 A 
ATOM     53  C   UNL A   1      42.486  27.956  27.033  1.00  0.00     0.049 A 
ATOM     54  H   UNL A   1      42.594  28.525  29.046  1.00  0.00     0.167 HD
ATOM     55  C   UNL A   1      42.104  28.484  33.400  1.00  0.00     0.031 A 
ATOM     56  C   UNL A   1      43.547  27.132  26.871  1.00  0.00     0.031 A 
ATOM     57  C   UNL A   1      43.179  29.407  33.170  1.00  0.00     0.049 A 
ATOM     58  C   UNL A   1      44.440  27.290  28.038  1.00  0.00     0.074 A 
ATOM     59  C   UNL A   1      43.334  30.774  33.251  1.00  0.00     0.029 A 
ATOM     60  N   UNL A   1      44.269  28.934  32.486  1.00  0.00    -0.354 N 
ATOM     61  N   UNL A   1      45.127  28.366  28.290  1.00  0.00    -0.248 NA
ATOM     62  C   UNL A   1      44.317  26.356  29.145  1.00  0.00     0.031 C 
ATOM     63  C   UNL A   1      44.290  31.101  32.248  1.00  0.00     0.029 A 
ATOM     64  C   UNL A   1      44.686  29.914  31.626  1.00  0.00     0.049 A 
ATOM     65  H   UNL A   1      44.681  28.046  32.594  1.00  0.00     0.167 HD
ATOM     66  C   UNL A   1      45.161  28.448  29.673  1.00  0.00     0.074 A 
ATOM     67  C   UNL A   1      44.779  27.119  30.138  1.00  0.00     0.031 C 
ATOM     68  C   UNL A   1      45.218  29.658  30.304  1.00  0.00     0.031 A 
BRANCH  55  69
ATOM     69  C   UNL A   1      42.287  27.243  34.244  1.00  0.00    -0.014 A 
ATOM     70  C   UNL A   1      43.102  26.161  33.861  1.00  0.00     0.009 A 
ATOM     71  C   UNL A   1      41.865  27.265  35.588  1.00  0.00     0.009 A 
ATOM     72  C   UNL A   1      43.497  25.171  34.764  1.00  0.00     0.001 A 
ATOM     73  C   UNL A   1      42.294  26.297  36.506  1.00  0.00     0.001 A 
ATOM     74  C   UNL A   1      43.117  25.254  36.094  1.00  0.00     0.000 A 
ENDBRANCH  55  69
BRANCH  56  75
ATOM     75  C   UNL A   1      43.649  25.977  25.956  1.00  0.00    -0.014 A 
ATOM     76  C   UNL A   1      42.571  25.080  25.829  1.00  0.00     0.009 A 
ATOM     77  C   UNL A   1      44.889  25.592  25.427  1.00  0.00     0.009 A 
ATOM     78  C   UNL A   1      42.735  23.827  25.231  1.00  0.00     0.001 A 
ATOM     79  C   UNL A   1      45.055  24.334  24.834  1.00  0.00     0.001 A 
ATOM     80  C   UNL A   1      43.982  23.448  24.751  1.00  0.00     0.000 A 
ENDBRANCH  56  75
BRANCH  68  81
ATOM     81  C   UNL A   1      45.570  30.874  29.481  1.00  0.00    -0.014 A 
ATOM     82  C   UNL A   1      44.593  31.399  28.619  1.00  0.00     0.009 A 
ATOM     83  C   UNL A   1      46.872  31.397  29.410  1.00  0.00     0.009 A 
ATOM     84  C   UNL A   1      44.909  32.410  27.709  1.00  0.00     0.001 A 
ATOM     85  C   UNL A   1      47.181  32.429  28.517  1.00  0.00     0.001 A 
ATOM     86  C   UNL A   1      46.201  32.927  27.660  1.00  0.00     0.000 A 
ENDBRANCH  68  81
ENDBRANCH  42  43
ENDBRANCH  34  37
ENDBRANCH  32  33
ENDBRANCH  31  32
ENDBRANCH  30  31
ENDBRANCH   1  30
TORSDOF 17
ENDMDL
MODEL 2
REMARK VINA RESULT:     -12.3      2.526      7.759
REMARK SMILES Cc1c(CC(=O)NCCCCCCNC(=O)c2ccc(-c3c4nc(c(-c5ccccc5)c5ccc([nH]5)c(-c5ccccc5)c5nc(c(-c6ccccc6)c6ccc3[nH]6)C=C5)C=C4)cc2)c2cc(O)ccc2n1C(=O)c1ccc(Cl)cc1
REMARK SMILES IDX 10 1 9 2 8 3 7 4 5 5 6 6 4 8 3 9 1 10 2 11 72 12 65 13 71 14
REMARK SMILES IDX 66 15 70 16 67 17 69 18 73 19 74 20 75 21 76 22 81 23 77 24
REMARK SMILES IDX 80 25 78 26 79 27 68 28 11 30 12 31 13 32 14 33 15 34 16 36
REMARK SMILES IDX 17 37 18 38 64 39 19 40 63 41 20 42 21 43 22 44 57 45 23 46
REMARK SMILES IDX 62 47 56 48 58 49 24 50 61 51 55 52 54 53 25 55 47 56 32 57
REMARK SMILES IDX 46 58 33 59 36 60 45 61 59 62 34 63 35 64 44 66 60 67 37 68
REMARK SMILES IDX 26 69 27 70 31 71 28 72 30 73 29 74 48 75 49 76 53 77 50 78
REMARK SMILES IDX 52 79 51 80 38 81 39 82 43 83 40 84 42 85 41 86
REMARK H PARENT 7 7 68 29 14 35 58 54 36 65
REMARK Flexibility Score: inf
ROOT
ATOM      1  C   UNL A   1      33.512  22.115  24.051  1.00  0.00     0.002 C 
ENDROOT
BRANCH   1   2
ATOM      2  C   UNL A   1      32.586  22.878  23.095  1.00  0.00     0.021 C 
BRANCH   2   3
ATOM      3  C   UNL A   1      31.289  23.346  23.752  1.00  0.00     0.116 C 
BRANCH   3   4
ATOM      4  N   UNL A   1      31.418  23.367  25.194  1.00  0.00    -0.356 N 
ATOM      5  C   UNL A   1      31.174  24.396  26.057  1.00  0.00     0.224 C 
ATOM      6  O   UNL A   1      31.432  24.230  27.251  1.00  0.00    -0.275 OA
ATOM      7  H   UNL A   1      31.722  22.527  25.607  1.00  0.00     0.163 HD
BRANCH   5   8
ATOM      8  C   UNL A   1      30.528  25.678  25.557  1.00  0.00     0.138 C 
BRANCH   8   9
ATOM      9  C   UNL A   1      31.480  26.833  25.406  1.00  0.00    -0.009 A 
ATOM     10  C   UNL A   1      31.416  27.776  27.823  1.00  0.00     0.065 C 
ATOM     11  C   UNL A   1      31.835  27.751  26.387  1.00  0.00     0.028 A 
ATOM     12  N   UNL A   1      32.653  28.729  25.807  1.00  0.00    -0.280 N 
ATOM     13  C   UNL A   1      32.245  27.143  24.247  1.00  0.00     0.008 A 
ATOM     14  C   UNL A   1      33.046  28.253  24.546  1.00  0.00     0.057 A 
ATOM     15  C   UNL A   1      32.345  26.544  22.970  1.00  0.00     0.056 A 
ATOM     16  C   UNL A   1      34.007  28.702  23.615  1.00  0.00     0.031 A 
ATOM     17  C   UNL A   1      33.248  27.047  22.039  1.00  0.00     0.116 A 
ATOM     18  C   UNL A   1      34.083  28.101  22.356  1.00  0.00     0.048 A 
BRANCH  12  19
ATOM     19  C   UNL A   1      32.992  29.982  26.402  1.00  0.00     0.262 C 
ATOM     20  O   UNL A   1      32.208  30.916  26.316  1.00  0.00    -0.268 OA
BRANCH  19  21
ATOM     21  C   UNL A   1      34.249  30.261  27.118  1.00  0.00     0.040 A 
ATOM     22  C   UNL A   1      34.514  31.535  27.629  1.00  0.00     0.015 A 
ATOM     23  C   UNL A   1      35.178  29.223  27.250  1.00  0.00     0.015 A 
ATOM     24  C   UNL A   1      35.762  31.791  28.205  1.00  0.00     0.021 A 
ATOM     25  C   UNL A   1      36.418  29.484  27.833  1.00  0.00     0.021 A 
ATOM     26  C   UNL A   1      36.711  30.770  28.290  1.00  0.00     0.041 A 
ATOM     27  Cl  UNL A   1      38.265  31.106  28.946  1.00  0.00    -0.084 Cl
ENDBRANCH  19  21
ENDBRANCH  12  19
BRANCH  17  28
ATOM     28  O   UNL A   1      33.292  26.450  20.814  1.00  0.00    -0.508 OA
ATOM     29  H   UNL A   1      32.988  26.911  20.057  1.00  0.00     0.293 HD
ENDBRANCH  17  28
ENDBRANCH   8   9
ENDBRANCH   5   8
ENDBRANCH   3   4
ENDBRANCH   2   3
ENDBRANCH   1   2
BRANCH   1  30
ATOM     30  C   UNL A   1      34.809  22.846  24.407  1.00  0.00     0.002 C 
BRANCH  30  31
ATOM     31  C   UNL A   1      35.516  22.332  25.663  1.00  0.00     0.021 C 
BRANCH  31  32
ATOM     32  C   UNL A   1      36.763  23.129  26.054  1.00  0.00     0.116 C 
BRANCH  32  33
ATOM     33  N   UNL A   1      37.990  22.357  26.067  1.00  0.00    -0.352 N 
ATOM     34  C   UNL A   1      39.245  22.570  26.569  1.00  0.00     0.251 C 
ATOM     35  H   UNL A   1      37.901  21.488  25.614  1.00  0.00     0.163 HD
ATOM     36  O   UNL A   1      40.042  21.633  26.498  1.00  0.00    -0.269 OA
BRANCH  34  37
ATOM     37  C   UNL A   1      39.721  23.875  27.101  1.00  0.00     0.039 A 
ATOM     38  C   UNL A   1      40.904  24.064  27.813  1.00  0.00     0.014 A 
ATOM     39  C   UNL A   1      38.864  24.974  26.915  1.00  0.00     0.014 A 
ATOM     40  C   UNL A   1      41.141  25.257  28.476  1.00  0.00     0.010 A 
ATOM     41  C   UNL A   1      39.125  26.194  27.530  1.00  0.00     0.010 A 
ATOM     42  C   UNL A   1      40.229  26.306  28.370  1.00  0.00    -0.014 A 
BRANCH  42  43
ATOM     43  C   UNL A   1      40.531  27.520  29.121  1.00  0.00     0.031 A 
ATOM     44  C   UNL A   1      41.541  28.424  28.503  1.00  0.00     0.074 A 
ATOM     45  C   UNL A   1      39.896  27.854  30.260  1.00  0.00     0.049 A 
ATOM     46  N   UNL A   1      42.653  28.856  29.005  1.00  0.00    -0.248 NA
ATOM     47  C   UNL A   1      41.313  28.827  27.107  1.00  0.00     0.031 C 
ATOM     48  C   UNL A   1      38.700  27.232  30.835  1.00  0.00     0.029 A 
ATOM     49  N   UNL A   1      40.124  28.916  31.083  1.00  0.00    -0.354 N 
ATOM     50  C   UNL A   1      43.201  29.707  28.045  1.00  0.00     0.074 A 
ATOM     51  C   UNL A   1      42.396  29.562  26.860  1.00  0.00     0.031 C 
ATOM     52  C   UNL A   1      38.166  28.069  31.749  1.00  0.00     0.029 A 
ATOM     53  C   UNL A   1      39.059  29.202  31.923  1.00  0.00     0.049 A 
ATOM     54  H   UNL A   1      40.963  29.431  31.081  1.00  0.00     0.167 HD
ATOM     55  C   UNL A   1      44.172  30.614  28.341  1.00  0.00     0.031 A 
ATOM     56  C   UNL A   1      38.881  30.336  32.639  1.00  0.00     0.031 A 
ATOM     57  C   UNL A   1      44.846  30.311  29.572  1.00  0.00     0.049 A 
ATOM     58  C   UNL A   1      40.189  31.012  32.770  1.00  0.00     0.074 A 
ATOM     59  C   UNL A   1      45.668  29.298  30.018  1.00  0.00     0.029 A 
ATOM     60  N   UNL A   1      44.451  31.007  30.686  1.00  0.00    -0.354 N 
ATOM     61  N   UNL A   1      41.182  30.550  33.472  1.00  0.00    -0.248 NA
ATOM     62  C   UNL A   1      40.529  32.066  31.828  1.00  0.00     0.031 C 
ATOM     63  C   UNL A   1      45.389  29.176  31.409  1.00  0.00     0.029 A 
ATOM     64  C   UNL A   1      44.431  30.137  31.742  1.00  0.00     0.049 A 
ATOM     65  H   UNL A   1      44.223  31.965  30.720  1.00  0.00     0.167 HD
ATOM     66  C   UNL A   1      42.316  30.939  32.779  1.00  0.00     0.074 A 
ATOM     67  C   UNL A   1      41.861  31.985  31.869  1.00  0.00     0.031 C 
ATOM     68  C   UNL A   1      43.453  30.183  32.809  1.00  0.00     0.031 A 
BRANCH  55  69
ATOM     69  C   UNL A   1      44.257  31.982  27.704  1.00  0.00    -0.014 A 
ATOM     70  C   UNL A   1      44.579  32.184  26.349  1.00  0.00     0.009 A 
ATOM     71  C   UNL A   1      43.727  33.089  28.395  1.00  0.00     0.009 A 
ATOM     72  C   UNL A   1      44.364  33.407  25.707  1.00  0.00     0.001 A 
ATOM     73  C   UNL A   1      43.470  34.304  27.744  1.00  0.00     0.001 A 
ATOM     74  C   UNL A   1      43.783  34.459  26.398  1.00  0.00     0.000 A 
ENDBRANCH  55  69
BRANCH  56  75
ATOM     75  C   UNL A   1      37.606  31.034  32.903  1.00  0.00    -0.014 A 
ATOM     76  C   UNL A   1      36.581  31.021  31.939  1.00  0.00     0.009 A 
ATOM     77  C   UNL A   1      37.498  31.945  33.964  1.00  0.00     0.009 A 
ATOM     78  C   UNL A   1      35.506  31.911  32.008  1.00  0.00     0.001 A 
ATOM     79  C   UNL A   1      36.423  32.841  34.031  1.00  0.00     0.001 A 
ATOM     80  C   UNL A   1      35.438  32.833  33.045  1.00  0.00     0.000 A 
ENDBRANCH  56  75
BRANCH  68  81
ATOM     81  C   UNL A   1      43.561  29.101  33.857  1.00  0.00    -0.014 A 
ATOM     82  C   UNL A   1      44.370  29.341  34.980  1.00  0.00     0.009 A 
ATOM     83  C   UNL A   1      43.032  27.812  33.681  1.00  0.00     0.009 A 
ATOM     84  C   UNL A   1      44.649  28.323  35.894  1.00  0.00     0.001 A 
ATOM     85  C   UNL A   1      43.290  26.799  34.611  1.00  0.00     0.001 A 
ATOM     86  C   UNL A   1      44.106  27.053  35.711  1.00  0.00     0.000 A 
ENDBRANCH  68  81
ENDBRANCH  42  43
ENDBRANCH  34  37
ENDBRANCH  32  33
ENDBRANCH  31  32
ENDBRANCH  30  31
ENDBRANCH   1  30
TORSDOF 17
ENDMDL
MODEL 3
REMARK VINA RESULT:     -12.0      1.814      5.317
REMARK SMILES Cc1c(CC(=O)NCCCCCCNC(=O)c2ccc(-c3c4nc(c(-c5ccccc5)c5ccc([nH]5)c(-c5ccccc5)c5nc(c(-c6ccccc6)c6ccc3[nH]6)C=C5)C=C4)cc2)c2cc(O)ccc2n1C(=O)c1ccc(Cl)cc1
REMARK SMILES IDX 10 1 9 2 8 3 7 4 5 5 6 6 4 8 3 9 1 10 2 11 72 12 65 13 71 14
REMARK SMILES IDX 66 15 70 16 67 17 69 18 73 19 74 20 75 21 76 22 81 23 77 24
REMARK SMILES IDX 80 25 78 26 79 27 68 28 11 30 12 31 13 32 14 33 15 34 16 36
REMARK SMILES IDX 17 37 18 38 64 39 19 40 63 41 20 42 21 43 22 44 57 45 23 46
REMARK SMILES IDX 62 47 56 48 58 49 24 50 61 51 55 52 54 53 25 55 47 56 32 57
REMARK SMILES IDX 46 58 33 59 36 60 45 61 59 62 34 63 35 64 44 66 60 67 37 68
REMARK SMILES IDX 26 69 27 70 31 71 28 72 30 73 29 74 48 75 49 76 53 77 50 78
REMARK SMILES IDX 52 79 51 80 38 81 39 82 43 83 40 84 42 85 41 86
REMARK H PARENT 7 7 68 29 14 35 58 54 36 65
REMARK Flexibility Score: inf
ROOT
ATOM      1  C   UNL A   1      32.262  26.832  26.117  1.00  0.00     0.002 C 
ENDROOT
BRANCH   1   2
ATOM      2  C   UNL A   1      31.187  26.692  25.031  1.00  0.00     0.021 C 
BRANCH   2   3
ATOM      3  C   UNL A   1      30.266  25.491  25.243  1.00  0.00     0.116 C 
BRANCH   3   4
ATOM      4  N   UNL A   1      30.434  24.518  24.183  1.00  0.00    -0.356 N 
ATOM      5  C   UNL A   1      31.237  23.414  24.159  1.00  0.00     0.224 C 
ATOM      6  O   UNL A   1      31.297  22.759  23.116  1.00  0.00    -0.275 OA
ATOM      7  H   UNL A   1      29.899  24.673  23.372  1.00  0.00     0.163 HD
BRANCH   5   8
ATOM      8  C   UNL A   1      31.968  22.971  25.417  1.00  0.00     0.138 C 
BRANCH   8   9
ATOM      9  C   UNL A   1      33.222  22.183  25.157  1.00  0.00    -0.009 A 
ATOM     10  C   UNL A   1      34.994  24.048  25.500  1.00  0.00     0.065 C 
ATOM     11  C   UNL A   1      34.525  22.666  25.169  1.00  0.00     0.028 A 
ATOM     12  N   UNL A   1      35.387  21.637  24.766  1.00  0.00    -0.280 N 
ATOM     13  C   UNL A   1      33.300  20.780  24.928  1.00  0.00     0.008 A 
ATOM     14  C   UNL A   1      34.653  20.441  24.796  1.00  0.00     0.057 A 
ATOM     15  C   UNL A   1      32.323  19.761  24.855  1.00  0.00     0.056 A 
ATOM     16  C   UNL A   1      35.034  19.086  24.688  1.00  0.00     0.031 A 
ATOM     17  C   UNL A   1      32.715  18.439  24.676  1.00  0.00     0.116 A 
ATOM     18  C   UNL A   1      34.051  18.096  24.609  1.00  0.00     0.048 A 
BRANCH  12  19
ATOM     19  C   UNL A   1      36.751  21.806  24.381  1.00  0.00     0.262 C 
ATOM     20  O   UNL A   1      37.009  22.349  23.317  1.00  0.00    -0.268 OA
BRANCH  19  21
ATOM     21  C   UNL A   1      37.910  21.352  25.170  1.00  0.00     0.040 A 
ATOM     22  C   UNL A   1      38.586  22.234  26.020  1.00  0.00     0.015 A 
ATOM     23  C   UNL A   1      38.328  20.025  25.027  1.00  0.00     0.015 A 
ATOM     24  C   UNL A   1      39.745  21.798  26.668  1.00  0.00     0.021 A 
ATOM     25  C   UNL A   1      39.481  19.596  25.684  1.00  0.00     0.021 A 
ATOM     26  C   UNL A   1      40.194  20.489  26.485  1.00  0.00     0.041 A 
ATOM     27  Cl  UNL A   1      41.653  19.976  27.238  1.00  0.00    -0.084 Cl
ENDBRANCH  19  21
ENDBRANCH  12  19
BRANCH  17  28
ATOM     28  O   UNL A   1      31.735  17.495  24.588  1.00  0.00    -0.508 OA
ATOM     29  H   UNL A   1      31.310  17.334  23.769  1.00  0.00     0.293 HD
ENDBRANCH  17  28
ENDBRANCH   8   9
ENDBRANCH   5   8
ENDBRANCH   3   4
ENDBRANCH   2   3
ENDBRANCH   1   2
BRANCH   1  30
ATOM     30  C   UNL A   1      32.163  28.110  26.955  1.00  0.00     0.002 C 
BRANCH  30  31
ATOM     31  C   UNL A   1      33.211  29.178  26.629  1.00  0.00     0.021 C 
BRANCH  31  32
ATOM     32  C   UNL A   1      34.577  28.937  27.277  1.00  0.00     0.116 C 
BRANCH  32  33
ATOM     33  N   UNL A   1      34.901  29.850  28.354  1.00  0.00    -0.352 N 
ATOM     34  C   UNL A   1      36.059  30.194  28.996  1.00  0.00     0.251 C 
ATOM     35  H   UNL A   1      34.114  30.328  28.702  1.00  0.00     0.163 HD
ATOM     36  O   UNL A   1      35.993  31.112  29.816  1.00  0.00    -0.269 OA
BRANCH  34  37
ATOM     37  C   UNL A   1      37.350  29.475  28.832  1.00  0.00     0.039 A 
ATOM     38  C   UNL A   1      37.883  28.570  29.748  1.00  0.00     0.014 A 
ATOM     39  C   UNL A   1      38.104  29.800  27.690  1.00  0.00     0.014 A 
ATOM     40  C   UNL A   1      39.196  28.142  29.628  1.00  0.00     0.010 A 
ATOM     41  C   UNL A   1      39.403  29.328  27.534  1.00  0.00     0.010 A 
ATOM     42  C   UNL A   1      39.969  28.557  28.545  1.00  0.00    -0.014 A 
BRANCH  42  43
ATOM     43  C   UNL A   1      41.350  28.090  28.505  1.00  0.00     0.031 A 
ATOM     44  C   UNL A   1      41.575  26.808  27.779  1.00  0.00     0.074 A 
ATOM     45  C   UNL A   1      42.377  28.793  29.018  1.00  0.00     0.049 A 
ATOM     46  N   UNL A   1      42.114  25.716  28.217  1.00  0.00    -0.248 NA
ATOM     47  C   UNL A   1      41.048  26.714  26.409  1.00  0.00     0.031 C 
ATOM     48  C   UNL A   1      42.363  30.179  29.497  1.00  0.00     0.029 A 
ATOM     49  N   UNL A   1      43.692  28.446  29.100  1.00  0.00    -0.354 N 
ATOM     50  C   UNL A   1      42.131  24.837  27.134  1.00  0.00     0.074 A 
ATOM     51  C   UNL A   1      41.363  25.461  26.087  1.00  0.00     0.031 C 
ATOM     52  C   UNL A   1      43.634  30.629  29.573  1.00  0.00     0.029 A 
ATOM     53  C   UNL A   1      44.537  29.527  29.294  1.00  0.00     0.049 A 
ATOM     54  H   UNL A   1      44.011  27.517  29.028  1.00  0.00     0.167 HD
ATOM     55  C   UNL A   1      42.927  23.734  27.101  1.00  0.00     0.031 A 
ATOM     56  C   UNL A   1      45.882  29.534  29.143  1.00  0.00     0.031 A 
ATOM     57  C   UNL A   1      43.387  23.352  28.406  1.00  0.00     0.049 A 
ATOM     58  C   UNL A   1      46.363  28.138  29.207  1.00  0.00     0.074 A 
ATOM     59  C   UNL A   1      42.793  22.878  29.556  1.00  0.00     0.029 A 
ATOM     60  N   UNL A   1      44.656  23.733  28.755  1.00  0.00    -0.354 N 
ATOM     61  N   UNL A   1      46.341  27.407  30.283  1.00  0.00    -0.248 NA
ATOM     62  C   UNL A   1      46.569  27.411  27.964  1.00  0.00     0.031 C 
ATOM     63  C   UNL A   1      43.585  23.389  30.623  1.00  0.00     0.029 A 
ATOM     64  C   UNL A   1      44.634  24.126  30.066  1.00  0.00     0.049 A 
ATOM     65  H   UNL A   1      45.447  23.725  28.167  1.00  0.00     0.167 HD
ATOM     66  C   UNL A   1      46.106  26.119  29.830  1.00  0.00     0.074 A 
ATOM     67  C   UNL A   1      46.402  26.161  28.403  1.00  0.00     0.031 C 
ATOM     68  C   UNL A   1      45.424  25.217  30.598  1.00  0.00     0.031 A 
BRANCH  55  69
ATOM     69  C   UNL A   1      43.592  23.223  25.842  1.00  0.00    -0.014 A 
ATOM     70  C   UNL A   1      44.439  24.012  25.042  1.00  0.00     0.009 A 
ATOM     71  C   UNL A   1      43.605  21.836  25.593  1.00  0.00     0.009 A 
ATOM     72  C   UNL A   1      45.272  23.455  24.067  1.00  0.00     0.001 A 
ATOM     73  C   UNL A   1      44.469  21.271  24.647  1.00  0.00     0.001 A 
ATOM     74  C   UNL A   1      45.308  22.081  23.889  1.00  0.00     0.000 A 
ENDBRANCH  55  69
BRANCH  56  75
ATOM     75  C   UNL A   1      46.713  30.626  28.599  1.00  0.00    -0.014 A 
ATOM     76  C   UNL A   1      46.310  31.308  27.435  1.00  0.00     0.009 A 
ATOM     77  C   UNL A   1      48.030  30.813  29.046  1.00  0.00     0.009 A 
ATOM     78  C   UNL A   1      47.199  32.115  26.721  1.00  0.00     0.001 A 
ATOM     79  C   UNL A   1      48.923  31.616  28.326  1.00  0.00     0.001 A 
ATOM     80  C   UNL A   1      48.511  32.253  27.157  1.00  0.00     0.000 A 
ENDBRANCH  56  75
BRANCH  68  81
ATOM     81  C   UNL A   1      45.218  25.537  32.058  1.00  0.00    -0.014 A 
ATOM     82  C   UNL A   1      44.201  26.442  32.404  1.00  0.00     0.009 A 
ATOM     83  C   UNL A   1      46.099  25.110  33.066  1.00  0.00     0.009 A 
ATOM     84  C   UNL A   1      44.073  26.911  33.713  1.00  0.00     0.001 A 
ATOM     85  C   UNL A   1      45.953  25.558  34.383  1.00  0.00     0.001 A 
ATOM     86  C   UNL A   1      44.947  26.466  34.703  1.00  0.00     0.000 A 
ENDBRANCH  68  81
ENDBRANCH  42  43
ENDBRANCH  34  37
ENDBRANCH  32  33
ENDBRANCH  31  32
ENDBRANCH  30  31
ENDBRANCH   1  30
TORSDOF 17
ENDMDL
