MODEL 1
REMARK VINA RESULT:     -13.0      0.000      0.000
REMARK SMILES Cc1ccc(NC(=O)c2cnn3c2NC2=C(C(=O)CCC2)[C@H]3c2ccc(C(=O)NCCCCCCNC(=O)c3ccc(-c4c5nc(c(-c6ccccc6)c6ccc([nH]6)c(-c6ccccc6)c6nc(c(-c7ccccc7)c7ccc4[nH]7)C=C6)C=C5)cc3)cc2)cc1
REMARK SMILES IDX 32 1 31 2 30 3 29 4 27 5 28 6 26 8 23 9 24 10 88 11 25 12
REMARK SMILES IDX 87 13 22 14 9 15 10 16 13 17 11 18 12 19 14 20 15 21 16 23
REMARK SMILES IDX 21 24 17 25 20 26 18 27 19 28 7 29 6 30 8 32 5 33 1 34 2 35
REMARK SMILES IDX 3 36 90 37 4 38 89 39 33 40 34 41 35 42 36 43 37 44 38 46
REMARK SMILES IDX 39 47 40 48 86 49 41 50 85 51 42 52 43 53 44 54 79 55 45 56
REMARK SMILES IDX 84 57 78 58 80 59 46 60 83 61 77 62 76 63 47 65 69 66 54 67
REMARK SMILES IDX 68 68 55 69 58 70 67 71 81 72 56 73 57 74 66 76 82 77 59 78
REMARK SMILES IDX 48 79 49 80 53 81 50 82 52 83 51 84 70 85 71 86 75 87 72 88
REMARK SMILES IDX 74 89 73 90 60 91 61 92 65 93 62 94 64 95 63 96
REMARK H PARENT 29 7 14 22 6 31 36 45 80 64 58 75
REMARK Flexibility Score: inf
ROOT
ATOM      1  C   UNL A   1      42.157  20.072  26.544  1.00  0.00     0.002 C 
ENDROOT
BRANCH   1   2
ATOM      2  C   UNL A   1      41.308  21.290  26.129  1.00  0.00     0.021 C 
BRANCH   2   3
ATOM      3  C   UNL A   1      39.954  21.424  26.836  1.00  0.00     0.116 C 
BRANCH   3   4
ATOM      4  N   UNL A   1      39.599  22.816  27.048  1.00  0.00    -0.352 N 
ATOM      5  C   UNL A   1      38.540  23.606  26.672  1.00  0.00     0.251 C 
ATOM      6  O   UNL A   1      38.513  24.745  27.143  1.00  0.00    -0.269 OA
ATOM      7  H   UNL A   1      40.268  23.303  27.580  1.00  0.00     0.163 HD
BRANCH   5   8
ATOM      8  C   UNL A   1      37.406  23.171  25.797  1.00  0.00     0.039 A 
ATOM      9  C   UNL A   1      35.281  22.690  23.954  1.00  0.00    -0.019 A 
ATOM     10  C   UNL A   1      36.578  22.962  23.495  1.00  0.00     0.007 A 
ATOM     11  C   UNL A   1      35.138  22.442  25.333  1.00  0.00     0.007 A 
ATOM     12  C   UNL A   1      37.616  23.216  24.408  1.00  0.00     0.014 A 
ATOM     13  C   UNL A   1      36.179  22.695  26.247  1.00  0.00     0.014 A 
BRANCH   9  14
ATOM     14  C   UNL A   1      34.046  22.860  23.001  1.00  0.00     0.175 C 
ATOM     15  C   UNL A   1      31.450  23.292  25.416  1.00  0.00     0.102 A 
ATOM     16  C   UNL A   1      31.035  22.150  24.665  1.00  0.00     0.151 A 
ATOM     17  C   UNL A   1      32.455  23.828  24.640  1.00  0.00     0.142 A 
ATOM     18  N   UNL A   1      31.891  21.819  23.693  1.00  0.00    -0.178 NA
ATOM     19  N   UNL A   1      32.808  22.794  23.788  1.00  0.00    -0.237 N 
ATOM     20  N   UNL A   1      33.150  25.007  24.529  1.00  0.00    -0.343 N 
ATOM     21  C   UNL A   1      33.812  25.293  23.319  1.00  0.00     0.026 C 
ATOM     22  H   UNL A   1      33.185  25.640  25.282  1.00  0.00     0.168 HD
ATOM     23  C   UNL A   1      33.996  24.271  22.446  1.00  0.00     0.044 C 
ATOM     24  C   UNL A   1      33.953  26.707  22.828  1.00  0.00     0.055 C 
ATOM     25  C   UNL A   1      33.253  24.501  21.169  1.00  0.00     0.163 C 
ATOM     26  C   UNL A   1      33.115  26.960  21.572  1.00  0.00     0.014 C 
ATOM     27  O   UNL A   1      33.260  23.655  20.281  1.00  0.00    -0.294 OA
ATOM     28  C   UNL A   1      32.340  25.723  21.131  1.00  0.00     0.081 C 
BRANCH  15  29
ATOM     29  C   UNL A   1      30.897  23.807  26.647  1.00  0.00     0.261 C 
ATOM     30  N   UNL A   1      30.638  25.164  26.755  1.00  0.00    -0.322 N 
ATOM     31  H   UNL A   1      30.551  25.483  27.682  1.00  0.00     0.170 HD
ATOM     32  O   UNL A   1      30.680  23.077  27.613  1.00  0.00    -0.269 OA
BRANCH  30  33
ATOM     33  C   UNL A   1      30.477  26.177  25.779  1.00  0.00     0.041 A 
ATOM     34  C   UNL A   1      30.283  29.262  22.745  1.00  0.00     0.044 C 
ATOM     35  C   UNL A   1      30.325  28.226  23.830  1.00  0.00    -0.051 A 
ATOM     36  C   UNL A   1      29.505  27.102  23.744  1.00  0.00     0.005 A 
ATOM     37  C   UNL A   1      31.197  28.336  24.917  1.00  0.00     0.005 A 
ATOM     38  C   UNL A   1      29.559  26.114  24.731  1.00  0.00     0.026 A 
ATOM     39  C   UNL A   1      31.266  27.324  25.887  1.00  0.00     0.026 A 
ENDBRANCH  30  33
ENDBRANCH  15  29
ENDBRANCH   9  14
ENDBRANCH   5   8
ENDBRANCH   3   4
ENDBRANCH   2   3
ENDBRANCH   1   2
BRANCH   1  40
ATOM     40  C   UNL A   1      42.854  19.284  25.420  1.00  0.00     0.002 C 
BRANCH  40  41
ATOM     41  C   UNL A   1      44.270  18.789  25.718  1.00  0.00     0.021 C 
BRANCH  41  42
ATOM     42  C   UNL A   1      45.373  19.604  25.055  1.00  0.00     0.116 C 
BRANCH  42  43
ATOM     43  N   UNL A   1      44.929  20.403  23.920  1.00  0.00    -0.352 N 
ATOM     44  C   UNL A   1      44.687  21.766  23.812  1.00  0.00     0.251 C 
ATOM     45  H   UNL A   1      44.775  19.892  23.092  1.00  0.00     0.163 HD
ATOM     46  O   UNL A   1      44.222  22.214  22.781  1.00  0.00    -0.269 OA
BRANCH  44  47
ATOM     47  C   UNL A   1      45.135  22.695  24.885  1.00  0.00     0.039 A 
ATOM     48  C   UNL A   1      44.627  22.492  26.179  1.00  0.00     0.014 A 
ATOM     49  C   UNL A   1      45.840  23.855  24.598  1.00  0.00     0.014 A 
ATOM     50  C   UNL A   1      44.586  23.554  27.078  1.00  0.00     0.010 A 
ATOM     51  C   UNL A   1      45.685  24.941  25.426  1.00  0.00     0.010 A 
ATOM     52  C   UNL A   1      45.006  24.803  26.640  1.00  0.00    -0.014 A 
BRANCH  52  53
ATOM     53  C   UNL A   1      44.731  26.062  27.312  1.00  0.00     0.031 A 
ATOM     54  C   UNL A   1      43.389  26.663  27.211  1.00  0.00     0.074 A 
ATOM     55  C   UNL A   1      45.629  26.512  28.215  1.00  0.00     0.049 A 
ATOM     56  N   UNL A   1      43.093  27.844  27.628  1.00  0.00    -0.248 NA
ATOM     57  C   UNL A   1      42.264  25.980  26.578  1.00  0.00     0.031 C 
ATOM     58  C   UNL A   1      45.398  27.430  29.325  1.00  0.00     0.029 A 
ATOM     59  N   UNL A   1      47.014  26.366  28.174  1.00  0.00    -0.354 N 
ATOM     60  C   UNL A   1      41.723  27.959  27.607  1.00  0.00     0.074 A 
ATOM     61  C   UNL A   1      41.259  26.813  26.864  1.00  0.00     0.031 C 
ATOM     62  C   UNL A   1      46.572  27.952  29.715  1.00  0.00     0.029 A 
ATOM     63  C   UNL A   1      47.569  27.525  28.748  1.00  0.00     0.049 A 
ATOM     64  H   UNL A   1      47.511  25.597  27.812  1.00  0.00     0.167 HD
ATOM     65  C   UNL A   1      41.138  28.942  28.345  1.00  0.00     0.031 A 
ATOM     66  C   UNL A   1      48.319  28.385  27.992  1.00  0.00     0.031 A 
ATOM     67  C   UNL A   1      42.138  29.831  28.931  1.00  0.00     0.049 A 
ATOM     68  C   UNL A   1      47.718  29.770  27.871  1.00  0.00     0.074 A 
ATOM     69  C   UNL A   1      42.700  29.927  30.193  1.00  0.00     0.029 A 
ATOM     70  N   UNL A   1      42.938  30.587  28.083  1.00  0.00    -0.354 N 
ATOM     71  N   UNL A   1      46.460  30.041  28.090  1.00  0.00    -0.248 NA
ATOM     72  C   UNL A   1      48.478  30.955  27.481  1.00  0.00     0.031 C 
ATOM     73  C   UNL A   1      43.890  30.695  30.083  1.00  0.00     0.029 A 
ATOM     74  C   UNL A   1      44.026  31.091  28.764  1.00  0.00     0.049 A 
ATOM     75  H   UNL A   1      42.754  30.741  27.129  1.00  0.00     0.167 HD
ATOM     76  C   UNL A   1      46.233  31.379  27.899  1.00  0.00     0.074 A 
ATOM     77  C   UNL A   1      47.529  31.910  27.518  1.00  0.00     0.031 C 
ATOM     78  C   UNL A   1      44.994  31.929  28.069  1.00  0.00     0.031 A 
BRANCH  65  79
ATOM     79  C   UNL A   1      39.683  28.960  28.745  1.00  0.00    -0.014 A 
ATOM     80  C   UNL A   1      38.728  29.452  27.836  1.00  0.00     0.009 A 
ATOM     81  C   UNL A   1      39.187  28.568  30.000  1.00  0.00     0.009 A 
ATOM     82  C   UNL A   1      37.379  29.610  28.183  1.00  0.00     0.001 A 
ATOM     83  C   UNL A   1      37.845  28.744  30.363  1.00  0.00     0.001 A 
ATOM     84  C   UNL A   1      36.941  29.273  29.455  1.00  0.00     0.000 A 
ENDBRANCH  65  79
BRANCH  66  85
ATOM     85  C   UNL A   1      49.099  27.691  26.929  1.00  0.00    -0.014 A 
ATOM     86  C   UNL A   1      48.468  27.471  25.686  1.00  0.00     0.009 A 
ATOM     87  C   UNL A   1      50.500  27.654  26.984  1.00  0.00     0.009 A 
ATOM     88  C   UNL A   1      49.220  27.356  24.513  1.00  0.00     0.001 A 
ATOM     89  C   UNL A   1      51.248  27.525  25.806  1.00  0.00     0.001 A 
ATOM     90  C   UNL A   1      50.609  27.418  24.570  1.00  0.00     0.000 A 
ENDBRANCH  66  85
BRANCH  78  91
ATOM     91  C   UNL A   1      44.547  33.314  27.655  1.00  0.00    -0.014 A 
ATOM     92  C   UNL A   1      44.610  34.448  28.470  1.00  0.00     0.009 A 
ATOM     93  C   UNL A   1      44.170  33.529  26.307  1.00  0.00     0.009 A 
ATOM     94  C   UNL A   1      44.285  35.721  27.976  1.00  0.00     0.001 A 
ATOM     95  C   UNL A   1      43.896  34.799  25.796  1.00  0.00     0.001 A 
ATOM     96  C   UNL A   1      43.944  35.898  26.638  1.00  0.00     0.000 A 
ENDBRANCH  78  91
ENDBRANCH  52  53
ENDBRANCH  44  47
ENDBRANCH  42  43
ENDBRANCH  41  42
ENDBRANCH  40  41
ENDBRANCH   1  40
TORSDOF 16
ENDMDL
MODEL 2
REMARK VINA RESULT:     -12.2      5.132      8.123
REMARK SMILES Cc1ccc(NC(=O)c2cnn3c2NC2=C(C(=O)CCC2)[C@H]3c2ccc(C(=O)NCCCCCCNC(=O)c3ccc(-c4c5nc(c(-c6ccccc6)c6ccc([nH]6)c(-c6ccccc6)c6nc(c(-c7ccccc7)c7ccc4[nH]7)C=C6)C=C5)cc3)cc2)cc1
REMARK SMILES IDX 32 1 31 2 30 3 29 4 27 5 28 6 26 8 23 9 24 10 88 11 25 12
REMARK SMILES IDX 87 13 22 14 9 15 10 16 13 17 11 18 12 19 14 20 15 21 16 23
REMARK SMILES IDX 21 24 17 25 20 26 18 27 19 28 7 29 6 30 8 32 5 33 1 34 2 35
REMARK SMILES IDX 3 36 90 37 4 38 89 39 33 40 34 41 35 42 36 43 37 44 38 46
REMARK SMILES IDX 39 47 40 48 86 49 41 50 85 51 42 52 43 53 44 54 79 55 45 56
REMARK SMILES IDX 84 57 78 58 80 59 46 60 83 61 77 62 76 63 47 65 69 66 54 67
REMARK SMILES IDX 68 68 55 69 58 70 67 71 81 72 56 73 57 74 66 76 82 77 59 78
REMARK SMILES IDX 48 79 49 80 53 81 50 82 52 83 51 84 70 85 71 86 75 87 72 88
REMARK SMILES IDX 74 89 73 90 60 91 61 92 65 93 62 94 64 95 63 96
REMARK H PARENT 29 7 14 22 6 31 36 45 80 64 58 75
REMARK Flexibility Score: inf
ROOT
ATOM      1  C   UNL A   1      39.240  25.630  27.502  1.00  0.00     0.002 C 
ENDROOT
BRANCH   1   2
ATOM      2  C   UNL A   1      39.599  24.137  27.638  1.00  0.00     0.021 C 
BRANCH   2   3
ATOM      3  C   UNL A   1      40.362  23.529  26.454  1.00  0.00     0.116 C 
BRANCH   3   4
ATOM      4  N   UNL A   1      40.092  22.109  26.319  1.00  0.00    -0.352 N 
ATOM      5  C   UNL A   1      39.044  21.373  25.820  1.00  0.00     0.251 C 
ATOM      6  O   UNL A   1      39.213  20.153  25.758  1.00  0.00    -0.269 OA
ATOM      7  H   UNL A   1      40.823  21.548  26.662  1.00  0.00     0.163 HD
BRANCH   5   8
ATOM      8  C   UNL A   1      37.761  21.941  25.298  1.00  0.00     0.039 A 
ATOM      9  C   UNL A   1      35.273  22.682  24.114  1.00  0.00    -0.019 A 
ATOM     10  C   UNL A   1      35.364  21.552  24.941  1.00  0.00     0.007 A 
ATOM     11  C   UNL A   1      36.391  23.539  24.091  1.00  0.00     0.007 A 
ATOM     12  C   UNL A   1      36.595  21.182  25.506  1.00  0.00     0.014 A 
ATOM     13  C   UNL A   1      37.625  23.168  24.658  1.00  0.00     0.014 A 
BRANCH   9  14
ATOM     14  C   UNL A   1      34.067  22.852  23.125  1.00  0.00     0.175 C 
ATOM     15  C   UNL A   1      31.393  23.250  25.460  1.00  0.00     0.102 A 
ATOM     16  C   UNL A   1      31.010  22.112  24.688  1.00  0.00     0.151 A 
ATOM     17  C   UNL A   1      32.419  23.799  24.720  1.00  0.00     0.142 A 
ATOM     18  N   UNL A   1      31.898  21.794  23.740  1.00  0.00    -0.178 NA
ATOM     19  N   UNL A   1      32.806  22.773  23.871  1.00  0.00    -0.237 N 
ATOM     20  N   UNL A   1      33.110  24.982  24.640  1.00  0.00    -0.343 N 
ATOM     21  C   UNL A   1      33.808  25.281  23.453  1.00  0.00     0.026 C 
ATOM     22  H   UNL A   1      33.118  25.610  25.398  1.00  0.00     0.168 HD
ATOM     23  C   UNL A   1      34.026  24.268  22.579  1.00  0.00     0.044 C 
ATOM     24  C   UNL A   1      33.957  26.700  22.978  1.00  0.00     0.055 C 
ATOM     25  C   UNL A   1      33.323  24.502  21.281  1.00  0.00     0.163 C 
ATOM     26  C   UNL A   1      33.156  26.958  21.698  1.00  0.00     0.014 C 
ATOM     27  O   UNL A   1      33.363  23.664  20.387  1.00  0.00    -0.294 OA
ATOM     28  C   UNL A   1      32.404  25.720  21.223  1.00  0.00     0.081 C 
BRANCH  15  29
ATOM     29  C   UNL A   1      30.799  23.753  26.676  1.00  0.00     0.261 C 
ATOM     30  N   UNL A   1      30.535  25.108  26.789  1.00  0.00    -0.322 N 
ATOM     31  H   UNL A   1      30.416  25.418  27.716  1.00  0.00     0.170 HD
ATOM     32  O   UNL A   1      30.552  23.013  27.628  1.00  0.00    -0.269 OA
BRANCH  30  33
ATOM     33  C   UNL A   1      30.404  26.130  25.818  1.00  0.00     0.041 A 
ATOM     34  C   UNL A   1      30.305  29.244  22.809  1.00  0.00     0.044 C 
ATOM     35  C   UNL A   1      30.312  28.198  23.885  1.00  0.00    -0.051 A 
ATOM     36  C   UNL A   1      29.498  27.073  23.761  1.00  0.00     0.005 A 
ATOM     37  C   UNL A   1      31.148  28.298  25.002  1.00  0.00     0.005 A 
ATOM     38  C   UNL A   1      29.521  26.075  24.740  1.00  0.00     0.026 A 
ATOM     39  C   UNL A   1      31.187  27.277  25.964  1.00  0.00     0.026 A 
ENDBRANCH  30  33
ENDBRANCH  15  29
ENDBRANCH   9  14
ENDBRANCH   5   8
ENDBRANCH   3   4
ENDBRANCH   2   3
ENDBRANCH   1   2
BRANCH   1  40
ATOM     40  C   UNL A   1      39.834  26.595  28.543  1.00  0.00     0.002 C 
BRANCH  40  41
ATOM     41  C   UNL A   1      38.833  27.441  29.332  1.00  0.00     0.021 C 
BRANCH  41  42
ATOM     42  C   UNL A   1      38.170  28.547  28.524  1.00  0.00     0.116 C 
BRANCH  42  43
ATOM     43  N   UNL A   1      37.141  29.284  29.246  1.00  0.00    -0.352 N 
ATOM     44  C   UNL A   1      37.246  30.327  30.157  1.00  0.00     0.251 C 
ATOM     45  H   UNL A   1      36.219  28.995  29.058  1.00  0.00     0.163 HD
ATOM     46  O   UNL A   1      36.248  30.735  30.721  1.00  0.00    -0.269 OA
BRANCH  44  47
ATOM     47  C   UNL A   1      38.538  31.047  30.328  1.00  0.00     0.039 A 
ATOM     48  C   UNL A   1      39.512  30.453  31.148  1.00  0.00     0.014 A 
ATOM     49  C   UNL A   1      38.707  32.354  29.896  1.00  0.00     0.014 A 
ATOM     50  C   UNL A   1      40.486  31.248  31.745  1.00  0.00     0.010 A 
ATOM     51  C   UNL A   1      39.579  33.166  30.581  1.00  0.00     0.010 A 
ATOM     52  C   UNL A   1      40.427  32.621  31.549  1.00  0.00    -0.014 A 
BRANCH  52  53
ATOM     53  C   UNL A   1      41.140  33.611  32.338  1.00  0.00     0.031 A 
ATOM     54  C   UNL A   1      40.465  34.253  33.481  1.00  0.00     0.074 A 
ATOM     55  C   UNL A   1      42.474  33.728  32.164  1.00  0.00     0.049 A 
ATOM     56  N   UNL A   1      40.945  35.251  34.137  1.00  0.00    -0.248 NA
ATOM     57  C   UNL A   1      39.147  33.837  33.954  1.00  0.00     0.031 C 
ATOM     58  C   UNL A   1      43.456  34.256  33.104  1.00  0.00     0.029 A 
ATOM     59  N   UNL A   1      43.188  33.562  30.979  1.00  0.00    -0.354 N 
ATOM     60  C   UNL A   1      40.182  35.406  35.270  1.00  0.00     0.074 A 
ATOM     61  C   UNL A   1      39.027  34.567  35.067  1.00  0.00     0.031 C 
ATOM     62  C   UNL A   1      44.569  34.594  32.432  1.00  0.00     0.029 A 
ATOM     63  C   UNL A   1      44.267  34.465  31.016  1.00  0.00     0.049 A 
ATOM     64  H   UNL A   1      42.978  32.932  30.252  1.00  0.00     0.167 HD
ATOM     65  C   UNL A   1      40.693  36.124  36.309  1.00  0.00     0.031 A 
ATOM     66  C   UNL A   1      44.343  35.497  30.121  1.00  0.00     0.031 A 
ATOM     67  C   UNL A   1      41.960  36.753  35.944  1.00  0.00     0.049 A 
ATOM     68  C   UNL A   1      44.288  36.866  30.765  1.00  0.00     0.074 A 
ATOM     69  C   UNL A   1      43.284  36.431  36.187  1.00  0.00     0.029 A 
ATOM     70  N   UNL A   1      41.964  37.714  34.941  1.00  0.00    -0.354 N 
ATOM     71  N   UNL A   1      43.819  37.091  31.962  1.00  0.00    -0.248 NA
ATOM     72  C   UNL A   1      44.743  38.091  30.112  1.00  0.00     0.031 C 
ATOM     73  C   UNL A   1      44.086  37.159  35.268  1.00  0.00     0.029 A 
ATOM     74  C   UNL A   1      43.249  37.946  34.497  1.00  0.00     0.049 A 
ATOM     75  H   UNL A   1      41.161  38.167  34.595  1.00  0.00     0.167 HD
ATOM     76  C   UNL A   1      43.910  38.427  32.253  1.00  0.00     0.074 A 
ATOM     77  C   UNL A   1      44.495  39.013  31.061  1.00  0.00     0.031 C 
ATOM     78  C   UNL A   1      43.489  38.931  33.451  1.00  0.00     0.031 A 
BRANCH  65  79
ATOM     79  C   UNL A   1      40.182  36.058  37.727  1.00  0.00    -0.014 A 
ATOM     80  C   UNL A   1      39.625  34.855  38.200  1.00  0.00     0.009 A 
ATOM     81  C   UNL A   1      40.165  37.135  38.628  1.00  0.00     0.009 A 
ATOM     82  C   UNL A   1      39.024  34.756  39.462  1.00  0.00     0.001 A 
ATOM     83  C   UNL A   1      39.546  37.052  39.883  1.00  0.00     0.001 A 
ATOM     84  C   UNL A   1      38.968  35.862  40.297  1.00  0.00     0.000 A 
ENDBRANCH  65  79
BRANCH  66  85
ATOM     85  C   UNL A   1      43.769  35.150  28.789  1.00  0.00    -0.014 A 
ATOM     86  C   UNL A   1      42.487  35.646  28.475  1.00  0.00     0.009 A 
ATOM     87  C   UNL A   1      44.606  34.742  27.739  1.00  0.00     0.009 A 
ATOM     88  C   UNL A   1      42.108  35.857  27.145  1.00  0.00     0.001 A 
ATOM     89  C   UNL A   1      44.214  34.943  26.409  1.00  0.00     0.001 A 
ATOM     90  C   UNL A   1      42.987  35.537  26.114  1.00  0.00     0.000 A 
ENDBRANCH  66  85
BRANCH  78  91
ATOM     91  C   UNL A   1      43.295  40.389  33.808  1.00  0.00    -0.014 A 
ATOM     92  C   UNL A   1      43.926  41.039  34.874  1.00  0.00     0.009 A 
ATOM     93  C   UNL A   1      42.539  41.206  32.934  1.00  0.00     0.009 A 
ATOM     94  C   UNL A   1      43.785  42.421  35.071  1.00  0.00     0.001 A 
ATOM     95  C   UNL A   1      42.437  42.589  33.095  1.00  0.00     0.001 A 
ATOM     96  C   UNL A   1      43.056  43.197  34.174  1.00  0.00     0.000 A 
ENDBRANCH  78  91
ENDBRANCH  52  53
ENDBRANCH  44  47
ENDBRANCH  42  43
ENDBRANCH  41  42
ENDBRANCH  40  41
ENDBRANCH   1  40
TORSDOF 16
ENDMDL
MODEL 3
REMARK VINA RESULT:     -12.2      4.272      9.280
REMARK SMILES Cc1ccc(NC(=O)c2cnn3c2NC2=C(C(=O)CCC2)[C@H]3c2ccc(C(=O)NCCCCCCNC(=O)c3ccc(-c4c5nc(c(-c6ccccc6)c6ccc([nH]6)c(-c6ccccc6)c6nc(c(-c7ccccc7)c7ccc4[nH]7)C=C6)C=C5)cc3)cc2)cc1
REMARK SMILES IDX 32 1 31 2 30 3 29 4 27 5 28 6 26 8 23 9 24 10 88 11 25 12
REMARK SMILES IDX 87 13 22 14 9 15 10 16 13 17 11 18 12 19 14 20 15 21 16 23
REMARK SMILES IDX 21 24 17 25 20 26 18 27 19 28 7 29 6 30 8 32 5 33 1 34 2 35
REMARK SMILES IDX 3 36 90 37 4 38 89 39 33 40 34 41 35 42 36 43 37 44 38 46
REMARK SMILES IDX 39 47 40 48 86 49 41 50 85 51 42 52 43 53 44 54 79 55 45 56
REMARK SMILES IDX 84 57 78 58 80 59 46 60 83 61 77 62 76 63 47 65 69 66 54 67
REMARK SMILES IDX 68 68 55 69 58 70 67 71 81 72 56 73 57 74 66 76 82 77 59 78
REMARK SMILES IDX 48 79 49 80 53 81 50 82 52 83 51 84 70 85 71 86 75 87 72 88
REMARK SMILES IDX 74 89 73 90 60 91 61 92 65 93 62 94 64 95 63 96
REMARK H PARENT 29 7 14 22 6 31 36 45 80 64 58 75
REMARK Flexibility Score: inf
ROOT
ATOM      1  C   UNL A   1      37.421  29.821  27.657  1.00  0.00     0.002 C 
ENDROOT
BRANCH   1   2
ATOM      2  C   UNL A   1      36.810  31.045  28.367  1.00  0.00     0.021 C 
BRANCH   2   3
ATOM      3  C   UNL A   1      35.470  30.801  29.071  1.00  0.00     0.116 C 
BRANCH   3   4
ATOM      4  N   UNL A   1      34.374  31.443  28.367  1.00  0.00    -0.352 N 
ATOM      5  C   UNL A   1      33.385  31.001  27.523  1.00  0.00     0.251 C 
ATOM      6  O   UNL A   1      32.532  31.830  27.198  1.00  0.00    -0.269 OA
ATOM      7  H   UNL A   1      34.331  32.412  28.532  1.00  0.00     0.163 HD
BRANCH   5   8
ATOM      8  C   UNL A   1      33.236  29.597  27.027  1.00  0.00     0.039 A 
ATOM      9  C   UNL A   1      32.975  27.072  25.722  1.00  0.00    -0.019 A 
ATOM     10  C   UNL A   1      34.108  27.872  25.513  1.00  0.00     0.007 A 
ATOM     11  C   UNL A   1      32.108  27.464  26.762  1.00  0.00     0.007 A 
ATOM     12  C   UNL A   1      34.222  29.121  26.144  1.00  0.00     0.014 A 
ATOM     13  C   UNL A   1      32.224  28.716  27.395  1.00  0.00     0.014 A 
BRANCH   9  14
ATOM     14  C   UNL A   1      32.606  25.930  24.711  1.00  0.00     0.175 C 
ATOM     15  C   UNL A   1      35.547  23.916  24.944  1.00  0.00     0.102 A 
ATOM     16  C   UNL A   1      35.473  24.260  23.560  1.00  0.00     0.151 A 
ATOM     17  C   UNL A   1      34.299  24.260  25.418  1.00  0.00     0.142 A 
ATOM     18  N   UNL A   1      34.420  25.028  23.263  1.00  0.00    -0.178 NA
ATOM     19  N   UNL A   1      33.793  25.109  24.446  1.00  0.00    -0.237 N 
ATOM     20  N   UNL A   1      33.517  24.020  26.520  1.00  0.00    -0.343 N 
ATOM     21  C   UNL A   1      32.125  24.221  26.421  1.00  0.00     0.026 C 
ATOM     22  H   UNL A   1      33.920  23.714  27.364  1.00  0.00     0.168 HD
ATOM     23  C   UNL A   1      31.666  24.931  25.361  1.00  0.00     0.044 C 
ATOM     24  C   UNL A   1      31.162  23.372  27.204  1.00  0.00     0.055 C 
ATOM     25  C   UNL A   1      30.804  24.094  24.472  1.00  0.00     0.163 C 
ATOM     26  C   UNL A   1      30.348  22.449  26.293  1.00  0.00     0.014 C 
ATOM     27  O   UNL A   1      30.342  24.555  23.434  1.00  0.00    -0.294 OA
ATOM     28  C   UNL A   1      30.715  22.611  24.822  1.00  0.00     0.081 C 
BRANCH  15  29
ATOM     29  C   UNL A   1      36.633  23.286  25.657  1.00  0.00     0.261 C 
ATOM     30  N   UNL A   1      36.494  21.973  26.077  1.00  0.00    -0.322 N 
ATOM     31  H   UNL A   1      37.120  21.711  26.789  1.00  0.00     0.170 HD
ATOM     32  O   UNL A   1      37.667  23.895  25.930  1.00  0.00    -0.269 OA
BRANCH  30  33
ATOM     33  C   UNL A   1      35.617  20.939  25.670  1.00  0.00     0.041 A 
ATOM     34  C   UNL A   1      32.748  17.989  24.317  1.00  0.00     0.044 C 
ATOM     35  C   UNL A   1      33.741  18.988  24.835  1.00  0.00    -0.051 A 
ATOM     36  C   UNL A   1      35.079  18.895  24.455  1.00  0.00     0.005 A 
ATOM     37  C   UNL A   1      33.353  20.045  25.666  1.00  0.00     0.005 A 
ATOM     38  C   UNL A   1      36.006  19.840  24.904  1.00  0.00     0.026 A 
ATOM     39  C   UNL A   1      34.286  21.006  26.086  1.00  0.00     0.026 A 
ENDBRANCH  30  33
ENDBRANCH  15  29
ENDBRANCH   9  14
ENDBRANCH   5   8
ENDBRANCH   3   4
ENDBRANCH   2   3
ENDBRANCH   1   2
BRANCH   1  40
ATOM     40  C   UNL A   1      38.271  28.862  28.511  1.00  0.00     0.002 C 
BRANCH  40  41
ATOM     41  C   UNL A   1      39.424  28.158  27.795  1.00  0.00     0.021 C 
BRANCH  41  42
ATOM     42  C   UNL A   1      39.333  26.638  27.801  1.00  0.00     0.116 C 
BRANCH  42  43
ATOM     43  N   UNL A   1      40.168  25.983  26.801  1.00  0.00    -0.352 N 
ATOM     44  C   UNL A   1      41.543  25.800  26.750  1.00  0.00     0.251 C 
ATOM     45  H   UNL A   1      39.675  25.609  26.035  1.00  0.00     0.163 HD
ATOM     46  O   UNL A   1      42.047  25.304  25.761  1.00  0.00    -0.269 OA
BRANCH  44  47
ATOM     47  C   UNL A   1      42.381  26.063  27.953  1.00  0.00     0.039 A 
ATOM     48  C   UNL A   1      42.990  27.323  28.061  1.00  0.00     0.014 A 
ATOM     49  C   UNL A   1      42.743  25.046  28.824  1.00  0.00     0.014 A 
ATOM     50  C   UNL A   1      44.135  27.470  28.840  1.00  0.00     0.010 A 
ATOM     51  C   UNL A   1      43.943  25.146  29.487  1.00  0.00     0.010 A 
ATOM     52  C   UNL A   1      44.668  26.340  29.445  1.00  0.00    -0.014 A 
BRANCH  52  53
ATOM     53  C   UNL A   1      46.005  26.243  30.007  1.00  0.00     0.031 A 
ATOM     54  C   UNL A   1      47.121  25.798  29.153  1.00  0.00     0.074 A 
ATOM     55  C   UNL A   1      46.233  26.803  31.214  1.00  0.00     0.049 A 
ATOM     56  N   UNL A   1      48.300  25.523  29.589  1.00  0.00    -0.248 NA
ATOM     57  C   UNL A   1      46.978  25.582  27.715  1.00  0.00     0.031 C 
ATOM     58  C   UNL A   1      47.506  27.258  31.763  1.00  0.00     0.029 A 
ATOM     59  N   UNL A   1      45.347  26.889  32.286  1.00  0.00    -0.354 N 
ATOM     60  C   UNL A   1      49.127  25.402  28.498  1.00  0.00     0.074 A 
ATOM     61  C   UNL A   1      48.245  25.356  27.358  1.00  0.00     0.031 C 
ATOM     62  C   UNL A   1      47.399  27.353  33.098  1.00  0.00     0.029 A 
ATOM     63  C   UNL A   1      46.111  26.786  33.463  1.00  0.00     0.049 A 
ATOM     64  H   UNL A   1      44.371  27.001  32.231  1.00  0.00     0.167 HD
ATOM     65  C   UNL A   1      50.473  25.494  28.684  1.00  0.00     0.031 A 
ATOM     66  C   UNL A   1      45.958  25.716  34.302  1.00  0.00     0.031 A 
ATOM     67  C   UNL A   1      50.808  25.557  30.104  1.00  0.00     0.049 A 
ATOM     68  C   UNL A   1      47.204  24.867  34.439  1.00  0.00     0.074 A 
ATOM     69  C   UNL A   1      51.137  26.599  30.956  1.00  0.00     0.029 A 
ATOM     70  N   UNL A   1      50.511  24.465  30.910  1.00  0.00    -0.354 N 
ATOM     71  N   UNL A   1      48.187  24.871  33.582  1.00  0.00    -0.248 NA
ATOM     72  C   UNL A   1      47.437  23.937  35.542  1.00  0.00     0.031 C 
ATOM     73  C   UNL A   1      50.967  26.140  32.290  1.00  0.00     0.029 A 
ATOM     74  C   UNL A   1      50.572  24.815  32.243  1.00  0.00     0.049 A 
ATOM     75  H   UNL A   1      50.289  23.567  30.576  1.00  0.00     0.167 HD
ATOM     76  C   UNL A   1      49.163  23.998  33.989  1.00  0.00     0.074 A 
ATOM     77  C   UNL A   1      48.646  23.436  35.224  1.00  0.00     0.031 C 
ATOM     78  C   UNL A   1      50.309  23.814  33.268  1.00  0.00     0.031 A 
BRANCH  65  79
ATOM     79  C   UNL A   1      51.471  25.778  27.588  1.00  0.00    -0.014 A 
ATOM     80  C   UNL A   1      52.349  26.869  27.726  1.00  0.00     0.009 A 
ATOM     81  C   UNL A   1      51.569  25.063  26.383  1.00  0.00     0.009 A 
ATOM     82  C   UNL A   1      53.217  27.264  26.699  1.00  0.00     0.001 A 
ATOM     83  C   UNL A   1      52.418  25.464  25.341  1.00  0.00     0.001 A 
ATOM     84  C   UNL A   1      53.237  26.571  25.497  1.00  0.00     0.000 A 
ENDBRANCH  65  79
BRANCH  66  85
ATOM     85  C   UNL A   1      44.559  25.201  34.331  1.00  0.00    -0.014 A 
ATOM     86  C   UNL A   1      44.329  23.891  33.860  1.00  0.00     0.009 A 
ATOM     87  C   UNL A   1      43.603  25.786  35.175  1.00  0.00     0.009 A 
ATOM     88  C   UNL A   1      43.246  23.142  34.329  1.00  0.00     0.001 A 
ATOM     89  C   UNL A   1      42.512  25.034  35.631  1.00  0.00     0.001 A 
ATOM     90  C   UNL A   1      42.358  23.704  35.242  1.00  0.00     0.000 A 
ENDBRANCH  66  85
BRANCH  78  91
ATOM     91  C   UNL A   1      51.337  22.721  33.456  1.00  0.00    -0.014 A 
ATOM     92  C   UNL A   1      51.083  21.354  33.311  1.00  0.00     0.009 A 
ATOM     93  C   UNL A   1      52.690  23.091  33.653  1.00  0.00     0.009 A 
ATOM     94  C   UNL A   1      52.117  20.408  33.388  1.00  0.00     0.001 A 
ATOM     95  C   UNL A   1      53.729  22.158  33.678  1.00  0.00     0.001 A 
ATOM     96  C   UNL A   1      53.439  20.810  33.554  1.00  0.00     0.000 A 
ENDBRANCH  78  91
ENDBRANCH  52  53
ENDBRANCH  44  47
ENDBRANCH  42  43
ENDBRANCH  41  42
ENDBRANCH  40  41
ENDBRANCH   1  40
TORSDOF 16
ENDMDL
