MODEL 1
REMARK VINA RESULT:     -10.2      0.000      0.000
REMARK SMILES O=C(NC[C@@H]1CCOC1)NC[C@@H]1CC[C@H](C(=O)NCCCCCCNC(=O)c2ccc(-c3c4nc(c(-c5ccccc5)c5ccc([nH]5)c(-c5ccccc5)c5nc(c(-c6ccccc6)c6ccc3[nH]6)C=C5)C=C4)cc2)O1
REMARK SMILES IDX 20 1 19 2 18 3 16 4 17 5 15 7 12 8 13 9 76 10 14 11 11 12
REMARK SMILES IDX 10 13 1 14 2 15 3 16 4 19 5 20 6 21 9 22 7 23 8 24 21 25
REMARK SMILES IDX 22 26 23 27 24 28 25 29 26 30 27 32 28 33 29 34 75 35 30 36
REMARK SMILES IDX 74 37 31 38 32 39 33 40 68 41 34 42 73 43 67 44 69 45 35 46
REMARK SMILES IDX 72 47 66 48 65 49 36 51 58 52 43 53 57 54 44 55 47 56 56 57
REMARK SMILES IDX 70 58 45 59 46 60 55 62 71 63 48 64 37 65 38 66 42 67 39 68
REMARK SMILES IDX 41 69 40 70 59 71 60 72 64 73 61 74 63 75 62 76 49 77 50 78
REMARK SMILES IDX 54 79 51 80 53 81 52 82
REMARK H PARENT 18 6 3 17 10 18 25 31 69 50 47 61
REMARK Flexibility Score: inf
ROOT
ATOM      1  C   UNL A   1      34.735  21.427  26.731  1.00  0.00     0.021 C 
ENDROOT
BRANCH   1   2
ATOM      2  C   UNL A   1      34.267  22.816  27.155  1.00  0.00     0.116 C 
BRANCH   2   3
ATOM      3  N   UNL A   1      32.897  23.063  26.766  1.00  0.00    -0.354 N 
ATOM      4  C   UNL A   1      32.395  23.416  25.547  1.00  0.00     0.249 C 
ATOM      5  O   UNL A   1      31.175  23.570  25.449  1.00  0.00    -0.272 OA
ATOM      6  H   UNL A   1      32.230  22.963  27.483  1.00  0.00     0.163 HD
BRANCH   4   7
ATOM      7  C   UNL A   1      33.321  23.662  24.338  1.00  0.00     0.207 C 
ATOM      8  C   UNL A   1      33.421  24.987  22.426  1.00  0.00     0.138 C 
ATOM      9  C   UNL A   1      32.771  23.686  21.990  1.00  0.00     0.037 C 
ATOM     10  O   UNL A   1      33.328  25.012  23.865  1.00  0.00    -0.363 OA
ATOM     11  C   UNL A   1      33.021  22.752  23.151  1.00  0.00     0.045 C 
BRANCH   8  12
ATOM     12  C   UNL A   1      32.737  26.228  21.850  1.00  0.00     0.149 C 
BRANCH  12  13
ATOM     13  N   UNL A   1      32.773  27.329  22.794  1.00  0.00    -0.336 N 
ATOM     14  O   UNL A   1      34.518  28.395  21.804  1.00  0.00    -0.249 OA
ATOM     15  C   UNL A   1      33.653  28.352  22.670  1.00  0.00     0.314 C 
ATOM     16  N   UNL A   1      33.556  29.359  23.568  1.00  0.00    -0.338 N 
ATOM     17  H   UNL A   1      34.240  30.060  23.464  1.00  0.00     0.165 HD
ATOM     18  H   UNL A   1      32.139  27.334  23.547  1.00  0.00     0.165 HD
BRANCH  16  19
ATOM     19  C   UNL A   1      32.628  29.593  24.655  1.00  0.00     0.123 C 
BRANCH  19  20
ATOM     20  C   UNL A   1      33.214  29.400  26.070  1.00  0.00     0.036 C 
ATOM     21  C   UNL A   1      33.793  28.000  26.224  1.00  0.00     0.036 C 
ATOM     22  C   UNL A   1      32.203  29.379  27.208  1.00  0.00     0.165 C 
ATOM     23  C   UNL A   1      32.571  27.172  26.579  1.00  0.00     0.160 C 
ATOM     24  O   UNL A   1      31.648  28.056  27.232  1.00  0.00    -0.381 OA
ENDBRANCH  19  20
ENDBRANCH  16  19
ENDBRANCH  12  13
ENDBRANCH   8  12
ENDBRANCH   4   7
ENDBRANCH   2   3
ENDBRANCH   1   2
BRANCH   1  25
ATOM     25  C   UNL A   1      35.902  21.453  25.743  1.00  0.00     0.002 C 
BRANCH  25  26
ATOM     26  C   UNL A   1      36.128  20.143  24.976  1.00  0.00     0.002 C 
BRANCH  26  27
ATOM     27  C   UNL A   1      37.586  19.825  24.631  1.00  0.00     0.021 C 
BRANCH  27  28
ATOM     28  C   UNL A   1      38.605  20.294  25.667  1.00  0.00     0.116 C 
BRANCH  28  29
ATOM     29  N   UNL A   1      39.737  19.387  25.765  1.00  0.00    -0.352 N 
ATOM     30  C   UNL A   1      41.048  19.649  26.069  1.00  0.00     0.251 C 
ATOM     31  H   UNL A   1      39.532  18.440  25.586  1.00  0.00     0.163 HD
ATOM     32  O   UNL A   1      41.904  18.788  25.893  1.00  0.00    -0.269 OA
BRANCH  30  33
ATOM     33  C   UNL A   1      41.435  20.971  26.603  1.00  0.00     0.039 A 
ATOM     34  C   UNL A   1      41.955  21.926  25.726  1.00  0.00     0.014 A 
ATOM     35  C   UNL A   1      41.320  21.256  27.966  1.00  0.00     0.014 A 
ATOM     36  C   UNL A   1      42.313  23.187  26.208  1.00  0.00     0.010 A 
ATOM     37  C   UNL A   1      41.616  22.533  28.435  1.00  0.00     0.010 A 
ATOM     38  C   UNL A   1      42.121  23.509  27.562  1.00  0.00    -0.014 A 
BRANCH  38  39
ATOM     39  C   UNL A   1      42.445  24.859  28.083  1.00  0.00     0.031 A 
ATOM     40  C   UNL A   1      43.846  25.188  28.517  1.00  0.00     0.074 A 
ATOM     41  C   UNL A   1      41.462  25.769  28.226  1.00  0.00     0.049 A 
ATOM     42  N   UNL A   1      44.306  26.290  29.053  1.00  0.00    -0.248 NA
ATOM     43  C   UNL A   1      44.858  24.133  28.348  1.00  0.00     0.031 C 
ATOM     44  C   UNL A   1      40.054  25.558  27.881  1.00  0.00     0.029 A 
ATOM     45  N   UNL A   1      41.497  27.052  28.711  1.00  0.00    -0.354 N 
ATOM     46  C   UNL A   1      45.652  26.054  29.304  1.00  0.00     0.074 A 
ATOM     47  C   UNL A   1      45.924  24.691  28.902  1.00  0.00     0.031 C 
ATOM     48  C   UNL A   1      39.365  26.681  28.143  1.00  0.00     0.029 A 
ATOM     49  C   UNL A   1      40.272  27.674  28.711  1.00  0.00     0.049 A 
ATOM     50  H   UNL A   1      42.322  27.485  29.029  1.00  0.00     0.167 HD
ATOM     51  C   UNL A   1      46.582  26.900  29.808  1.00  0.00     0.031 A 
ATOM     52  C   UNL A   1      39.916  28.903  29.127  1.00  0.00     0.031 A 
ATOM     53  C   UNL A   1      46.314  28.260  30.195  1.00  0.00     0.049 A 
ATOM     54  C   UNL A   1      40.966  29.821  29.687  1.00  0.00     0.074 A 
ATOM     55  C   UNL A   1      47.202  29.214  30.658  1.00  0.00     0.029 A 
ATOM     56  N   UNL A   1      45.063  28.855  30.166  1.00  0.00    -0.354 N 
ATOM     57  N   UNL A   1      42.248  29.607  29.853  1.00  0.00    -0.248 NA
ATOM     58  C   UNL A   1      40.519  31.157  30.108  1.00  0.00     0.031 C 
ATOM     59  C   UNL A   1      46.479  30.375  30.955  1.00  0.00     0.029 A 
ATOM     60  C   UNL A   1      45.150  30.159  30.626  1.00  0.00     0.049 A 
ATOM     61  H   UNL A   1      44.234  28.418  29.863  1.00  0.00     0.167 HD
ATOM     62  C   UNL A   1      42.767  30.786  30.371  1.00  0.00     0.074 A 
ATOM     63  C   UNL A   1      41.663  31.718  30.477  1.00  0.00     0.031 C 
ATOM     64  C   UNL A   1      44.042  31.072  30.726  1.00  0.00     0.031 A 
BRANCH  51  65
ATOM     65  C   UNL A   1      47.979  26.372  29.977  1.00  0.00    -0.014 A 
ATOM     66  C   UNL A   1      48.388  25.769  31.177  1.00  0.00     0.009 A 
ATOM     67  C   UNL A   1      48.889  26.449  28.911  1.00  0.00     0.009 A 
ATOM     68  C   UNL A   1      49.691  25.286  31.316  1.00  0.00     0.001 A 
ATOM     69  C   UNL A   1      50.182  25.939  29.043  1.00  0.00     0.001 A 
ATOM     70  C   UNL A   1      50.585  25.366  30.249  1.00  0.00     0.000 A 
ENDBRANCH  51  65
BRANCH  52  71
ATOM     71  C   UNL A   1      38.502  29.345  29.015  1.00  0.00    -0.014 A 
ATOM     72  C   UNL A   1      37.641  29.255  30.119  1.00  0.00     0.009 A 
ATOM     73  C   UNL A   1      38.007  29.858  27.807  1.00  0.00     0.009 A 
ATOM     74  C   UNL A   1      36.304  29.645  30.007  1.00  0.00     0.001 A 
ATOM     75  C   UNL A   1      36.678  30.273  27.705  1.00  0.00     0.001 A 
ATOM     76  C   UNL A   1      35.825  30.159  28.802  1.00  0.00     0.000 A 
ENDBRANCH  52  71
BRANCH  64  77
ATOM     77  C   UNL A   1      44.318  32.460  31.233  1.00  0.00    -0.014 A 
ATOM     78  C   UNL A   1      44.647  33.504  30.356  1.00  0.00     0.009 A 
ATOM     79  C   UNL A   1      44.209  32.731  32.606  1.00  0.00     0.009 A 
ATOM     80  C   UNL A   1      44.893  34.787  30.848  1.00  0.00     0.001 A 
ATOM     81  C   UNL A   1      44.427  34.020  33.092  1.00  0.00     0.001 A 
ATOM     82  C   UNL A   1      44.777  35.045  32.215  1.00  0.00     0.000 A 
ENDBRANCH  64  77
ENDBRANCH  38  39
ENDBRANCH  30  33
ENDBRANCH  28  29
ENDBRANCH  27  28
ENDBRANCH  26  27
ENDBRANCH  25  26
ENDBRANCH   1  25
TORSDOF 17
ENDMDL
MODEL 2
REMARK VINA RESULT:     -10.1      2.230      6.440
REMARK SMILES O=C(NC[C@@H]1CCOC1)NC[C@@H]1CC[C@H](C(=O)NCCCCCCNC(=O)c2ccc(-c3c4nc(c(-c5ccccc5)c5ccc([nH]5)c(-c5ccccc5)c5nc(c(-c6ccccc6)c6ccc3[nH]6)C=C5)C=C4)cc2)O1
REMARK SMILES IDX 20 1 19 2 18 3 16 4 17 5 15 7 12 8 13 9 76 10 14 11 11 12
REMARK SMILES IDX 10 13 1 14 2 15 3 16 4 19 5 20 6 21 9 22 7 23 8 24 21 25
REMARK SMILES IDX 22 26 23 27 24 28 25 29 26 30 27 32 28 33 29 34 75 35 30 36
REMARK SMILES IDX 74 37 31 38 32 39 33 40 68 41 34 42 73 43 67 44 69 45 35 46
REMARK SMILES IDX 72 47 66 48 65 49 36 51 58 52 43 53 57 54 44 55 47 56 56 57
REMARK SMILES IDX 70 58 45 59 46 60 55 62 71 63 48 64 37 65 38 66 42 67 39 68
REMARK SMILES IDX 41 69 40 70 59 71 60 72 64 73 61 74 63 75 62 76 49 77 50 78
REMARK SMILES IDX 54 79 51 80 53 81 52 82
REMARK H PARENT 18 6 3 17 10 18 25 31 69 50 47 61
REMARK Flexibility Score: inf
ROOT
ATOM      1  C   UNL A   1      36.419  22.524  23.515  1.00  0.00     0.021 C 
ENDROOT
BRANCH   1   2
ATOM      2  C   UNL A   1      34.987  22.986  23.772  1.00  0.00     0.116 C 
BRANCH   2   3
ATOM      3  N   UNL A   1      34.611  22.825  25.157  1.00  0.00    -0.354 N 
ATOM      4  C   UNL A   1      33.431  23.126  25.773  1.00  0.00     0.249 C 
ATOM      5  O   UNL A   1      33.335  22.895  26.982  1.00  0.00    -0.272 OA
ATOM      6  H   UNL A   1      35.305  22.443  25.742  1.00  0.00     0.163 HD
BRANCH   4   7
ATOM      7  C   UNL A   1      32.266  23.780  25.000  1.00  0.00     0.207 C 
ATOM      8  C   UNL A   1      31.176  25.830  24.846  1.00  0.00     0.138 C 
ATOM      9  C   UNL A   1      30.387  25.024  25.862  1.00  0.00     0.037 C 
ATOM     10  O   UNL A   1      32.451  25.170  24.720  1.00  0.00    -0.363 OA
ATOM     11  C   UNL A   1      30.916  23.617  25.691  1.00  0.00     0.045 C 
BRANCH   8  12
ATOM     12  C   UNL A   1      31.395  27.285  25.268  1.00  0.00     0.149 C 
BRANCH  12  13
ATOM     13  N   UNL A   1      30.737  28.199  24.354  1.00  0.00    -0.336 N 
ATOM     14  O   UNL A   1      31.450  30.086  25.396  1.00  0.00    -0.249 OA
ATOM     15  C   UNL A   1      30.848  29.543  24.478  1.00  0.00     0.314 C 
ATOM     16  N   UNL A   1      30.248  30.300  23.532  1.00  0.00    -0.338 N 
ATOM     17  H   UNL A   1      30.321  31.271  23.685  1.00  0.00     0.165 HD
ATOM     18  H   UNL A   1      30.193  27.831  23.621  1.00  0.00     0.165 HD
BRANCH  16  19
ATOM     19  C   UNL A   1      29.514  29.943  22.336  1.00  0.00     0.123 C 
BRANCH  19  20
ATOM     20  C   UNL A   1      28.044  30.414  22.301  1.00  0.00     0.036 C 
ATOM     21  C   UNL A   1      27.792  31.292  21.083  1.00  0.00     0.036 C 
ATOM     22  C   UNL A   1      27.634  31.385  23.400  1.00  0.00     0.165 C 
ATOM     23  C   UNL A   1      28.255  32.658  21.558  1.00  0.00     0.160 C 
ATOM     24  O   UNL A   1      28.084  32.682  22.982  1.00  0.00    -0.381 OA
ENDBRANCH  19  20
ENDBRANCH  16  19
ENDBRANCH  12  13
ENDBRANCH   8  12
ENDBRANCH   4   7
ENDBRANCH   2   3
ENDBRANCH   1   2
BRANCH   1  25
ATOM     25  C   UNL A   1      37.091  21.912  24.746  1.00  0.00     0.002 C 
BRANCH  25  26
ATOM     26  C   UNL A   1      36.830  20.413  24.945  1.00  0.00     0.002 C 
BRANCH  26  27
ATOM     27  C   UNL A   1      38.076  19.523  24.955  1.00  0.00     0.021 C 
BRANCH  27  28
ATOM     28  C   UNL A   1      39.218  20.033  25.831  1.00  0.00     0.116 C 
BRANCH  28  29
ATOM     29  N   UNL A   1      40.313  19.078  25.907  1.00  0.00    -0.352 N 
ATOM     30  C   UNL A   1      41.652  19.293  26.106  1.00  0.00     0.251 C 
ATOM     31  H   UNL A   1      40.053  18.134  25.799  1.00  0.00     0.163 HD
ATOM     32  O   UNL A   1      42.454  18.381  25.924  1.00  0.00    -0.269 OA
BRANCH  30  33
ATOM     33  C   UNL A   1      42.135  20.622  26.532  1.00  0.00     0.039 A 
ATOM     34  C   UNL A   1      42.622  21.505  25.565  1.00  0.00     0.014 A 
ATOM     35  C   UNL A   1      42.141  20.985  27.882  1.00  0.00     0.014 A 
ATOM     36  C   UNL A   1      43.068  22.772  25.945  1.00  0.00     0.010 A 
ATOM     37  C   UNL A   1      42.526  22.270  28.253  1.00  0.00     0.010 A 
ATOM     38  C   UNL A   1      42.999  23.173  27.289  1.00  0.00    -0.014 A 
BRANCH  38  39
ATOM     39  C   UNL A   1      43.419  24.533  27.706  1.00  0.00     0.031 A 
ATOM     40  C   UNL A   1      42.389  25.578  28.035  1.00  0.00     0.074 A 
ATOM     41  C   UNL A   1      44.729  24.847  27.724  1.00  0.00     0.049 A 
ATOM     42  N   UNL A   1      42.562  26.834  28.358  1.00  0.00    -0.248 NA
ATOM     43  C   UNL A   1      40.978  25.162  27.970  1.00  0.00     0.031 C 
ATOM     44  C   UNL A   1      45.825  23.936  27.387  1.00  0.00     0.029 A 
ATOM     45  N   UNL A   1      45.360  26.026  28.033  1.00  0.00    -0.354 N 
ATOM     46  C   UNL A   1      41.286  27.363  28.514  1.00  0.00     0.074 A 
ATOM     47  C   UNL A   1      40.350  26.303  28.208  1.00  0.00     0.031 C 
ATOM     48  C   UNL A   1      46.993  24.583  27.528  1.00  0.00     0.029 A 
ATOM     49  C   UNL A   1      46.728  25.961  27.927  1.00  0.00     0.049 A 
ATOM     50  H   UNL A   1      44.878  26.841  28.303  1.00  0.00     0.167 HD
ATOM     51  C   UNL A   1      40.927  28.612  28.894  1.00  0.00     0.031 A 
ATOM     52  C   UNL A   1      47.665  26.908  28.122  1.00  0.00     0.031 A 
ATOM     53  C   UNL A   1      41.859  29.662  29.210  1.00  0.00     0.049 A 
ATOM     54  C   UNL A   1      47.240  28.288  28.538  1.00  0.00     0.074 A 
ATOM     55  C   UNL A   1      41.593  30.941  29.664  1.00  0.00     0.029 A 
ATOM     56  N   UNL A   1      43.236  29.551  29.104  1.00  0.00    -0.354 N 
ATOM     57  N   UNL A   1      46.032  28.752  28.749  1.00  0.00    -0.248 NA
ATOM     58  C   UNL A   1      48.310  29.272  28.754  1.00  0.00     0.031 C 
ATOM     59  C   UNL A   1      42.809  31.622  29.787  1.00  0.00     0.029 A 
ATOM     60  C   UNL A   1      43.834  30.748  29.461  1.00  0.00     0.049 A 
ATOM     61  H   UNL A   1      43.719  28.742  28.818  1.00  0.00     0.167 HD
ATOM     62  C   UNL A   1      46.197  30.071  29.147  1.00  0.00     0.074 A 
ATOM     63  C   UNL A   1      47.623  30.329  29.164  1.00  0.00     0.031 C 
ATOM     64  C   UNL A   1      45.254  30.988  29.470  1.00  0.00     0.031 A 
BRANCH  51  65
ATOM     65  C   UNL A   1      39.457  28.914  28.978  1.00  0.00    -0.014 A 
ATOM     66  C   UNL A   1      38.742  28.720  30.171  1.00  0.00     0.009 A 
ATOM     67  C   UNL A   1      38.785  29.432  27.860  1.00  0.00     0.009 A 
ATOM     68  C   UNL A   1      37.375  29.005  30.230  1.00  0.00     0.001 A 
ATOM     69  C   UNL A   1      37.425  29.743  27.930  1.00  0.00     0.001 A 
ATOM     70  C   UNL A   1      36.720  29.520  29.113  1.00  0.00     0.000 A 
ENDBRANCH  51  65
BRANCH  52  71
ATOM     71  C   UNL A   1      49.103  26.578  27.942  1.00  0.00    -0.014 A 
ATOM     72  C   UNL A   1      49.676  26.578  26.661  1.00  0.00     0.009 A 
ATOM     73  C   UNL A   1      49.907  26.261  29.047  1.00  0.00     0.009 A 
ATOM     74  C   UNL A   1      51.021  26.242  26.489  1.00  0.00     0.001 A 
ATOM     75  C   UNL A   1      51.258  25.953  28.875  1.00  0.00     0.001 A 
ATOM     76  C   UNL A   1      51.812  25.935  27.596  1.00  0.00     0.000 A 
ENDBRANCH  52  71
BRANCH  64  77
ATOM     77  C   UNL A   1      45.734  32.345  29.901  1.00  0.00    -0.014 A 
ATOM     78  C   UNL A   1      45.847  33.402  28.985  1.00  0.00     0.009 A 
ATOM     79  C   UNL A   1      46.040  32.577  31.251  1.00  0.00     0.009 A 
ATOM     80  C   UNL A   1      46.288  34.657  29.409  1.00  0.00     0.001 A 
ATOM     81  C   UNL A   1      46.454  33.839  31.677  1.00  0.00     0.001 A 
ATOM     82  C   UNL A   1      46.586  34.876  30.754  1.00  0.00     0.000 A 
ENDBRANCH  64  77
ENDBRANCH  38  39
ENDBRANCH  30  33
ENDBRANCH  28  29
ENDBRANCH  27  28
ENDBRANCH  26  27
ENDBRANCH  25  26
ENDBRANCH   1  25
TORSDOF 17
ENDMDL
MODEL 3
REMARK VINA RESULT:     -10.1      1.778      6.249
REMARK SMILES O=C(NC[C@@H]1CCOC1)NC[C@@H]1CC[C@H](C(=O)NCCCCCCNC(=O)c2ccc(-c3c4nc(c(-c5ccccc5)c5ccc([nH]5)c(-c5ccccc5)c5nc(c(-c6ccccc6)c6ccc3[nH]6)C=C5)C=C4)cc2)O1
REMARK SMILES IDX 20 1 19 2 18 3 16 4 17 5 15 7 12 8 13 9 76 10 14 11 11 12
REMARK SMILES IDX 10 13 1 14 2 15 3 16 4 19 5 20 6 21 9 22 7 23 8 24 21 25
REMARK SMILES IDX 22 26 23 27 24 28 25 29 26 30 27 32 28 33 29 34 75 35 30 36
REMARK SMILES IDX 74 37 31 38 32 39 33 40 68 41 34 42 73 43 67 44 69 45 35 46
REMARK SMILES IDX 72 47 66 48 65 49 36 51 58 52 43 53 57 54 44 55 47 56 56 57
REMARK SMILES IDX 70 58 45 59 46 60 55 62 71 63 48 64 37 65 38 66 42 67 39 68
REMARK SMILES IDX 41 69 40 70 59 71 60 72 64 73 61 74 63 75 62 76 49 77 50 78
REMARK SMILES IDX 54 79 51 80 53 81 52 82
REMARK H PARENT 18 6 3 17 10 18 25 31 69 50 47 61
REMARK Flexibility Score: inf
ROOT
ATOM      1  C   UNL A   1      34.144  21.095  26.578  1.00  0.00     0.021 C 
ENDROOT
BRANCH   1   2
ATOM      2  C   UNL A   1      33.893  22.190  27.611  1.00  0.00     0.116 C 
BRANCH   2   3
ATOM      3  N   UNL A   1      32.482  22.411  27.828  1.00  0.00    -0.354 N 
ATOM      4  C   UNL A   1      31.577  23.061  27.038  1.00  0.00     0.249 C 
ATOM      5  O   UNL A   1      30.408  23.121  27.431  1.00  0.00    -0.272 OA
ATOM      6  H   UNL A   1      32.120  22.040  28.665  1.00  0.00     0.163 HD
BRANCH   4   7
ATOM      7  C   UNL A   1      32.003  23.741  25.720  1.00  0.00     0.207 C 
ATOM      8  C   UNL A   1      31.059  24.937  23.962  1.00  0.00     0.138 C 
ATOM      9  C   UNL A   1      31.063  23.487  23.514  1.00  0.00     0.037 C 
ATOM     10  O   UNL A   1      31.250  24.911  25.390  1.00  0.00    -0.363 OA
ATOM     11  C   UNL A   1      31.965  22.804  24.518  1.00  0.00     0.045 C 
BRANCH   8  12
ATOM     12  C   UNL A   1      29.753  25.667  23.636  1.00  0.00     0.149 C 
BRANCH  12  13
ATOM     13  N   UNL A   1      29.943  27.104  23.640  1.00  0.00    -0.336 N 
ATOM     14  O   UNL A   1      31.118  27.165  21.697  1.00  0.00    -0.249 OA
ATOM     15  C   UNL A   1      30.592  27.745  22.638  1.00  0.00     0.314 C 
ATOM     16  N   UNL A   1      30.655  29.094  22.710  1.00  0.00    -0.338 N 
ATOM     17  H   UNL A   1      31.170  29.514  21.982  1.00  0.00     0.165 HD
ATOM     18  H   UNL A   1      29.591  27.631  24.393  1.00  0.00     0.165 HD
BRANCH  16  19
ATOM     19  C   UNL A   1      30.105  30.034  23.664  1.00  0.00     0.123 C 
BRANCH  19  20
ATOM     20  C   UNL A   1      29.106  31.055  23.079  1.00  0.00     0.036 C 
ATOM     21  C   UNL A   1      27.684  30.722  23.511  1.00  0.00     0.036 C 
ATOM     22  C   UNL A   1      28.926  31.014  21.568  1.00  0.00     0.165 C 
ATOM     23  C   UNL A   1      27.265  29.677  22.492  1.00  0.00     0.160 C 
ATOM     24  O   UNL A   1      28.018  29.936  21.298  1.00  0.00    -0.381 OA
ENDBRANCH  19  20
ENDBRANCH  16  19
ENDBRANCH  12  13
ENDBRANCH   8  12
ENDBRANCH   4   7
ENDBRANCH   2   3
ENDBRANCH   1   2
BRANCH   1  25
ATOM     25  C   UNL A   1      35.320  21.394  25.647  1.00  0.00     0.002 C 
BRANCH  25  26
ATOM     26  C   UNL A   1      35.947  20.160  24.982  1.00  0.00     0.002 C 
BRANCH  26  27
ATOM     27  C   UNL A   1      37.396  20.328  24.516  1.00  0.00     0.021 C 
BRANCH  27  28
ATOM     28  C   UNL A   1      38.393  20.644  25.628  1.00  0.00     0.116 C 
BRANCH  28  29
ATOM     29  N   UNL A   1      39.451  19.649  25.708  1.00  0.00    -0.352 N 
ATOM     30  C   UNL A   1      40.775  19.801  26.032  1.00  0.00     0.251 C 
ATOM     31  H   UNL A   1      39.176  18.728  25.496  1.00  0.00     0.163 HD
ATOM     32  O   UNL A   1      41.564  18.881  25.836  1.00  0.00    -0.269 OA
BRANCH  30  33
ATOM     33  C   UNL A   1      41.256  21.071  26.611  1.00  0.00     0.039 A 
ATOM     34  C   UNL A   1      41.797  22.038  25.760  1.00  0.00     0.014 A 
ATOM     35  C   UNL A   1      41.207  21.296  27.989  1.00  0.00     0.014 A 
ATOM     36  C   UNL A   1      42.243  23.252  26.286  1.00  0.00     0.010 A 
ATOM     37  C   UNL A   1      41.592  22.530  28.505  1.00  0.00     0.010 A 
ATOM     38  C   UNL A   1      42.120  23.517  27.659  1.00  0.00    -0.014 A 
BRANCH  38  39
ATOM     39  C   UNL A   1      42.539  24.821  28.229  1.00  0.00     0.031 A 
ATOM     40  C   UNL A   1      41.530  25.915  28.444  1.00  0.00     0.074 A 
ATOM     41  C   UNL A   1      43.841  25.042  28.492  1.00  0.00     0.049 A 
ATOM     42  N   UNL A   1      41.717  27.137  28.873  1.00  0.00    -0.248 NA
ATOM     43  C   UNL A   1      40.131  25.601  28.112  1.00  0.00     0.031 C 
ATOM     44  C   UNL A   1      44.924  24.077  28.289  1.00  0.00     0.029 A 
ATOM     45  N   UNL A   1      44.476  26.157  28.980  1.00  0.00    -0.354 N 
ATOM     46  C   UNL A   1      40.467  27.743  28.842  1.00  0.00     0.074 A 
ATOM     47  C   UNL A   1      39.538  26.769  28.312  1.00  0.00     0.031 C 
ATOM     48  C   UNL A   1      46.086  24.633  28.670  1.00  0.00     0.029 A 
ATOM     49  C   UNL A   1      45.836  26.003  29.106  1.00  0.00     0.049 A 
ATOM     50  H   UNL A   1      44.003  26.987  29.217  1.00  0.00     0.167 HD
ATOM     51  C   UNL A   1      40.120  28.991  29.236  1.00  0.00     0.031 A 
ATOM     52  C   UNL A   1      46.778  26.871  29.520  1.00  0.00     0.031 A 
ATOM     53  C   UNL A   1      41.042  29.956  29.775  1.00  0.00     0.049 A 
ATOM     54  C   UNL A   1      46.368  28.253  29.946  1.00  0.00     0.074 A 
ATOM     55  C   UNL A   1      40.777  31.224  30.259  1.00  0.00     0.029 A 
ATOM     56  N   UNL A   1      42.408  29.757  29.899  1.00  0.00    -0.354 N 
ATOM     57  N   UNL A   1      45.171  28.787  29.977  1.00  0.00    -0.248 NA
ATOM     58  C   UNL A   1      47.439  29.147  30.406  1.00  0.00     0.031 C 
ATOM     59  C   UNL A   1      41.990  31.812  30.632  1.00  0.00     0.029 A 
ATOM     60  C   UNL A   1      43.003  30.888  30.431  1.00  0.00     0.049 A 
ATOM     61  H   UNL A   1      42.885  28.933  29.648  1.00  0.00     0.167 HD
ATOM     62  C   UNL A   1      45.341  30.068  30.482  1.00  0.00     0.074 A 
ATOM     63  C   UNL A   1      46.754  30.226  30.760  1.00  0.00     0.031 C 
ATOM     64  C   UNL A   1      44.411  31.029  30.699  1.00  0.00     0.031 A 
BRANCH  51  65
ATOM     65  C   UNL A   1      38.678  29.389  29.087  1.00  0.00    -0.014 A 
ATOM     66  C   UNL A   1      38.189  29.914  27.880  1.00  0.00     0.009 A 
ATOM     67  C   UNL A   1      37.789  29.205  30.156  1.00  0.00     0.009 A 
ATOM     68  C   UNL A   1      36.846  30.279  27.760  1.00  0.00     0.001 A 
ATOM     69  C   UNL A   1      36.441  29.544  30.025  1.00  0.00     0.001 A 
ATOM     70  C   UNL A   1      35.973  30.090  28.830  1.00  0.00     0.000 A 
ENDBRANCH  51  65
BRANCH  52  71
ATOM     71  C   UNL A   1      48.203  26.453  29.568  1.00  0.00    -0.014 A 
ATOM     72  C   UNL A   1      48.728  25.848  30.720  1.00  0.00     0.009 A 
ATOM     73  C   UNL A   1      49.045  26.657  28.464  1.00  0.00     0.009 A 
ATOM     74  C   UNL A   1      50.074  25.479  30.775  1.00  0.00     0.001 A 
ATOM     75  C   UNL A   1      50.383  26.262  28.512  1.00  0.00     0.001 A 
ATOM     76  C   UNL A   1      50.899  25.682  29.669  1.00  0.00     0.000 A 
ENDBRANCH  52  71
BRANCH  64  77
ATOM     77  C   UNL A   1      44.887  32.325  31.292  1.00  0.00    -0.014 A 
ATOM     78  C   UNL A   1      44.845  32.551  32.676  1.00  0.00     0.009 A 
ATOM     79  C   UNL A   1      45.422  33.317  30.455  1.00  0.00     0.009 A 
ATOM     80  C   UNL A   1      45.299  33.760  33.207  1.00  0.00     0.001 A 
ATOM     81  C   UNL A   1      45.902  34.512  30.991  1.00  0.00     0.001 A 
ATOM     82  C   UNL A   1      45.832  34.736  32.365  1.00  0.00     0.000 A 
ENDBRANCH  64  77
ENDBRANCH  38  39
ENDBRANCH  30  33
ENDBRANCH  28  29
ENDBRANCH  27  28
ENDBRANCH  26  27
ENDBRANCH  25  26
ENDBRANCH   1  25
TORSDOF 17
ENDMDL
