MODEL 1
REMARK VINA RESULT:     -10.1      0.000      0.000
REMARK SMILES C[C@@](NC(=O)COc1ccccc1C#N)(C(=O)NCCCCCCNC(=O)c1ccc(-c2c3nc(c(-c4ccccc4)c4ccc([nH]4)c(-c4ccccc4)c4nc(c(-c5ccccc5)c5ccc2[nH]5)C=C4)C=C3)cc1)C1CC1
REMARK SMILES IDX 20 1 19 2 18 3 16 4 17 5 2 7 1 8 3 9 4 10 5 12 6 13 7 14
REMARK SMILES IDX 8 15 9 16 13 17 10 18 12 19 11 20 14 21 15 22 76 23 77 24
REMARK SMILES IDX 78 25 21 26 22 27 23 28 24 29 25 30 26 31 27 33 28 34 29 35
REMARK SMILES IDX 75 36 30 37 74 38 31 39 32 40 33 41 68 42 34 43 73 44 67 45
REMARK SMILES IDX 69 46 35 47 72 48 66 49 65 50 36 52 58 53 43 54 57 55 44 56
REMARK SMILES IDX 47 57 56 58 70 59 45 60 46 61 55 63 71 64 48 65 37 66 38 67
REMARK SMILES IDX 42 68 39 69 41 70 40 71 59 72 60 73 64 74 61 75 63 76 62 77
REMARK SMILES IDX 49 78 50 79 54 80 51 81 53 82 52 83
REMARK H PARENT 18 6 3 11 25 32 69 51 47 62
REMARK Flexibility Score: inf
ROOT
ATOM      1  C   UNL A   1      35.701  23.353  25.533  1.00  0.00     0.021 C 
ENDROOT
BRANCH   1   2
ATOM      2  C   UNL A   1      35.081  24.653  25.010  1.00  0.00     0.116 C 
BRANCH   2   3
ATOM      3  N   UNL A   1      34.009  25.248  25.775  1.00  0.00    -0.354 N 
ATOM      4  C   UNL A   1      32.916  25.910  25.269  1.00  0.00     0.245 C 
ATOM      5  O   UNL A   1      31.838  25.610  25.801  1.00  0.00    -0.272 OA
ATOM      6  H   UNL A   1      34.068  25.171  26.755  1.00  0.00     0.163 HD
BRANCH   4   7
ATOM      7  C   UNL A   1      32.951  26.939  24.046  1.00  0.00     0.119 C 
ATOM      8  C   UNL A   1      33.935  28.094  24.326  1.00  0.00     0.046 C 
BRANCH   7   9
ATOM      9  N   UNL A   1      33.337  26.393  22.719  1.00  0.00    -0.339 N 
ATOM     10  C   UNL A   1      32.762  25.348  22.046  1.00  0.00     0.258 C 
ATOM     11  H   UNL A   1      34.094  26.834  22.271  1.00  0.00     0.164 HD
ATOM     12  O   UNL A   1      32.175  25.570  20.987  1.00  0.00    -0.271 OA
BRANCH  10  13
ATOM     13  C   UNL A   1      33.111  23.931  22.484  1.00  0.00     0.329 C 
BRANCH  13  14
ATOM     14  O   UNL A   1      32.067  23.350  23.290  1.00  0.00    -0.482 OA
BRANCH  14  15
ATOM     15  C   UNL A   1      32.111  21.988  23.422  1.00  0.00     0.137 A 
ATOM     16  C   UNL A   1      32.107  21.195  22.284  1.00  0.00     0.048 A 
ATOM     17  C   UNL A   1      32.313  21.370  24.658  1.00  0.00     0.094 A 
ATOM     18  C   UNL A   1      32.159  19.797  22.379  1.00  0.00     0.004 A 
ATOM     19  C   UNL A   1      32.473  19.972  24.733  1.00  0.00     0.023 A 
ATOM     20  C   UNL A   1      32.373  19.181  23.597  1.00  0.00     0.002 A 
BRANCH  17  21
ATOM     21  C   UNL A   1      32.327  22.111  25.876  1.00  0.00     0.103 C 
ATOM     22  N   UNL A   1      32.324  22.628  26.921  1.00  0.00    -0.192 NA
ENDBRANCH  17  21
ENDBRANCH  14  15
ENDBRANCH  13  14
ENDBRANCH  10  13
ENDBRANCH   7   9
BRANCH   7  23
ATOM     23  C   UNL A   1      31.509  27.496  23.872  1.00  0.00     0.024 C 
ATOM     24  C   UNL A   1      31.123  28.856  24.419  1.00  0.00     0.007 C 
ATOM     25  C   UNL A   1      31.091  28.620  22.936  1.00  0.00     0.007 C 
ENDBRANCH   7  23
ENDBRANCH   4   7
ENDBRANCH   2   3
ENDBRANCH   1   2
BRANCH   1  26
ATOM     26  C   UNL A   1      35.880  22.163  24.561  1.00  0.00     0.002 C 
BRANCH  26  27
ATOM     27  C   UNL A   1      36.066  20.692  25.002  1.00  0.00     0.002 C 
BRANCH  27  28
ATOM     28  C   UNL A   1      37.393  19.916  24.898  1.00  0.00     0.021 C 
BRANCH  28  29
ATOM     29  C   UNL A   1      38.649  20.513  25.518  1.00  0.00     0.116 C 
BRANCH  29  30
ATOM     30  N   UNL A   1      39.637  19.483  25.765  1.00  0.00    -0.352 N 
ATOM     31  C   UNL A   1      40.976  19.654  26.029  1.00  0.00     0.251 C 
ATOM     32  H   UNL A   1      39.313  18.554  25.742  1.00  0.00     0.163 HD
ATOM     33  O   UNL A   1      41.768  18.741  25.821  1.00  0.00    -0.269 OA
BRANCH  31  34
ATOM     34  C   UNL A   1      41.463  20.940  26.586  1.00  0.00     0.039 A 
ATOM     35  C   UNL A   1      41.339  21.188  27.956  1.00  0.00     0.014 A 
ATOM     36  C   UNL A   1      41.975  21.930  25.741  1.00  0.00     0.014 A 
ATOM     37  C   UNL A   1      41.736  22.423  28.479  1.00  0.00     0.010 A 
ATOM     38  C   UNL A   1      42.428  23.137  26.272  1.00  0.00     0.010 A 
ATOM     39  C   UNL A   1      42.288  23.407  27.642  1.00  0.00    -0.014 A 
BRANCH  39  40
ATOM     40  C   UNL A   1      42.674  24.741  28.174  1.00  0.00     0.031 A 
ATOM     41  C   UNL A   1      41.617  25.796  28.392  1.00  0.00     0.074 A 
ATOM     42  C   UNL A   1      43.969  25.021  28.427  1.00  0.00     0.049 A 
ATOM     43  N   UNL A   1      41.756  27.033  28.798  1.00  0.00    -0.248 NA
ATOM     44  C   UNL A   1      40.224  25.418  28.096  1.00  0.00     0.031 C 
ATOM     45  C   UNL A   1      45.086  24.093  28.247  1.00  0.00     0.029 A 
ATOM     46  N   UNL A   1      44.563  26.170  28.888  1.00  0.00    -0.354 N 
ATOM     47  C   UNL A   1      40.479  27.582  28.785  1.00  0.00     0.074 A 
ATOM     48  C   UNL A   1      39.582  26.562  28.291  1.00  0.00     0.031 C 
ATOM     49  C   UNL A   1      46.226  24.699  28.619  1.00  0.00     0.029 A 
ATOM     50  C   UNL A   1      45.929  26.072  29.015  1.00  0.00     0.049 A 
ATOM     51  H   UNL A   1      44.060  26.986  29.108  1.00  0.00     0.167 HD
ATOM     52  C   UNL A   1      40.086  28.822  29.163  1.00  0.00     0.031 A 
ATOM     53  C   UNL A   1      46.841  26.992  29.390  1.00  0.00     0.031 A 
ATOM     54  C   UNL A   1      40.976  29.829  29.671  1.00  0.00     0.049 A 
ATOM     55  C   UNL A   1      46.374  28.375  29.762  1.00  0.00     0.074 A 
ATOM     56  C   UNL A   1      40.663  31.093  30.140  1.00  0.00     0.029 A 
ATOM     57  N   UNL A   1      42.351  29.692  29.771  1.00  0.00    -0.354 N 
ATOM     58  N   UNL A   1      45.152  28.850  29.816  1.00  0.00    -0.248 NA
ATOM     59  C   UNL A   1      47.412  29.348  30.133  1.00  0.00     0.031 C 
ATOM     60  C   UNL A   1      41.855  31.752  30.446  1.00  0.00     0.029 A 
ATOM     61  C   UNL A   1      42.903  30.866  30.253  1.00  0.00     0.049 A 
ATOM     62  H   UNL A   1      42.858  28.883  29.535  1.00  0.00     0.167 HD
ATOM     63  C   UNL A   1      45.275  30.158  30.270  1.00  0.00     0.074 A 
ATOM     64  C   UNL A   1      46.685  30.396  30.491  1.00  0.00     0.031 C 
ATOM     65  C   UNL A   1      44.307  31.081  30.487  1.00  0.00     0.031 A 
BRANCH  52  66
ATOM     66  C   UNL A   1      38.631  29.182  29.024  1.00  0.00    -0.014 A 
ATOM     67  C   UNL A   1      37.747  29.103  30.111  1.00  0.00     0.009 A 
ATOM     68  C   UNL A   1      38.162  29.697  27.804  1.00  0.00     0.009 A 
ATOM     69  C   UNL A   1      36.419  29.513  29.973  1.00  0.00     0.001 A 
ATOM     70  C   UNL A   1      36.843  30.136  27.678  1.00  0.00     0.001 A 
ATOM     71  C   UNL A   1      35.971  30.038  28.760  1.00  0.00     0.000 A 
ENDBRANCH  52  66
BRANCH  53  72
ATOM     72  C   UNL A   1      48.294  26.659  29.420  1.00  0.00    -0.014 A 
ATOM     73  C   UNL A   1      49.096  26.842  28.281  1.00  0.00     0.009 A 
ATOM     74  C   UNL A   1      48.872  26.090  30.565  1.00  0.00     0.009 A 
ATOM     75  C   UNL A   1      50.424  26.410  28.270  1.00  0.00     0.001 A 
ATOM     76  C   UNL A   1      50.213  25.698  30.566  1.00  0.00     0.001 A 
ATOM     77  C   UNL A   1      50.981  25.839  29.413  1.00  0.00     0.000 A 
ENDBRANCH  53  72
BRANCH  65  78
ATOM     78  C   UNL A   1      44.723  32.412  31.052  1.00  0.00    -0.014 A 
ATOM     79  C   UNL A   1      45.029  33.502  30.225  1.00  0.00     0.009 A 
ATOM     80  C   UNL A   1      44.746  32.588  32.446  1.00  0.00     0.009 A 
ATOM     81  C   UNL A   1      45.383  34.732  30.784  1.00  0.00     0.001 A 
ATOM     82  C   UNL A   1      45.062  33.827  33.000  1.00  0.00     0.001 A 
ATOM     83  C   UNL A   1      45.391  34.896  32.169  1.00  0.00     0.000 A 
ENDBRANCH  65  78
ENDBRANCH  39  40
ENDBRANCH  31  34
ENDBRANCH  29  30
ENDBRANCH  28  29
ENDBRANCH  27  28
ENDBRANCH  26  27
ENDBRANCH   1  26
TORSDOF 19
ENDMDL
MODEL 2
REMARK VINA RESULT:     -10.1      0.287      5.845
REMARK SMILES C[C@@](NC(=O)COc1ccccc1C#N)(C(=O)NCCCCCCNC(=O)c1ccc(-c2c3nc(c(-c4ccccc4)c4ccc([nH]4)c(-c4ccccc4)c4nc(c(-c5ccccc5)c5ccc2[nH]5)C=C4)C=C3)cc1)C1CC1
REMARK SMILES IDX 20 1 19 2 18 3 16 4 17 5 2 7 1 8 3 9 4 10 5 12 6 13 7 14
REMARK SMILES IDX 8 15 9 16 13 17 10 18 12 19 11 20 14 21 15 22 76 23 77 24
REMARK SMILES IDX 78 25 21 26 22 27 23 28 24 29 25 30 26 31 27 33 28 34 29 35
REMARK SMILES IDX 75 36 30 37 74 38 31 39 32 40 33 41 68 42 34 43 73 44 67 45
REMARK SMILES IDX 69 46 35 47 72 48 66 49 65 50 36 52 58 53 43 54 57 55 44 56
REMARK SMILES IDX 47 57 56 58 70 59 45 60 46 61 55 63 71 64 48 65 37 66 38 67
REMARK SMILES IDX 42 68 39 69 41 70 40 71 59 72 60 73 64 74 61 75 63 76 62 77
REMARK SMILES IDX 49 78 50 79 54 80 51 81 53 82 52 83
REMARK H PARENT 18 6 3 11 25 32 69 51 47 62
REMARK Flexibility Score: inf
ROOT
ATOM      1  C   UNL A   1      35.774  23.216  25.534  1.00  0.00     0.021 C 
ENDROOT
BRANCH   1   2
ATOM      2  C   UNL A   1      35.150  24.521  25.030  1.00  0.00     0.116 C 
BRANCH   2   3
ATOM      3  N   UNL A   1      34.085  25.108  25.811  1.00  0.00    -0.354 N 
ATOM      4  C   UNL A   1      32.987  25.775  25.323  1.00  0.00     0.245 C 
ATOM      5  O   UNL A   1      31.914  25.470  25.863  1.00  0.00    -0.272 OA
ATOM      6  H   UNL A   1      34.154  25.023  26.790  1.00  0.00     0.163 HD
BRANCH   4   7
ATOM      7  C   UNL A   1      33.009  26.815  24.109  1.00  0.00     0.119 C 
ATOM      8  C   UNL A   1      33.993  27.969  24.391  1.00  0.00     0.046 C 
BRANCH   7   9
ATOM      9  N   UNL A   1      33.385  26.282  22.774  1.00  0.00    -0.339 N 
ATOM     10  C   UNL A   1      32.805  25.243  22.095  1.00  0.00     0.258 C 
ATOM     11  H   UNL A   1      34.137  26.728  22.324  1.00  0.00     0.164 HD
ATOM     12  O   UNL A   1      32.209  25.475  21.044  1.00  0.00    -0.271 OA
BRANCH  10  13
ATOM     13  C   UNL A   1      33.159  23.822  22.517  1.00  0.00     0.329 C 
BRANCH  13  14
ATOM     14  O   UNL A   1      32.132  23.241  23.344  1.00  0.00    -0.482 OA
BRANCH  14  15
ATOM     15  C   UNL A   1      32.151  21.874  23.435  1.00  0.00     0.137 A 
ATOM     16  C   UNL A   1      32.135  21.116  22.273  1.00  0.00     0.048 A 
ATOM     17  C   UNL A   1      32.336  21.216  24.653  1.00  0.00     0.094 A 
ATOM     18  C   UNL A   1      32.161  19.715  22.327  1.00  0.00     0.004 A 
ATOM     19  C   UNL A   1      32.470  19.813  24.686  1.00  0.00     0.023 A 
ATOM     20  C   UNL A   1      32.359  19.059  23.526  1.00  0.00     0.002 A 
BRANCH  17  21
ATOM     21  C   UNL A   1      32.360  21.919  25.892  1.00  0.00     0.103 C 
ATOM     22  N   UNL A   1      32.477  22.517  26.886  1.00  0.00    -0.192 NA
ENDBRANCH  17  21
ENDBRANCH  14  15
ENDBRANCH  13  14
ENDBRANCH  10  13
ENDBRANCH   7   9
BRANCH   7  23
ATOM     23  C   UNL A   1      31.564  27.370  23.953  1.00  0.00     0.024 C 
ATOM     24  C   UNL A   1      31.218  28.784  24.375  1.00  0.00     0.007 C 
ATOM     25  C   UNL A   1      31.107  28.398  22.928  1.00  0.00     0.007 C 
ENDBRANCH   7  23
ENDBRANCH   4   7
ENDBRANCH   2   3
ENDBRANCH   1   2
BRANCH   1  26
ATOM     26  C   UNL A   1      35.928  22.030  24.553  1.00  0.00     0.002 C 
BRANCH  26  27
ATOM     27  C   UNL A   1      36.059  20.550  24.981  1.00  0.00     0.002 C 
BRANCH  27  28
ATOM     28  C   UNL A   1      37.362  19.732  24.890  1.00  0.00     0.021 C 
BRANCH  28  29
ATOM     29  C   UNL A   1      38.672  20.379  25.321  1.00  0.00     0.116 C 
BRANCH  29  30
ATOM     30  N   UNL A   1      39.645  19.370  25.686  1.00  0.00    -0.352 N 
ATOM     31  C   UNL A   1      40.960  19.565  26.042  1.00  0.00     0.251 C 
ATOM     32  H   UNL A   1      39.330  18.438  25.679  1.00  0.00     0.163 HD
ATOM     33  O   UNL A   1      41.770  18.652  25.933  1.00  0.00    -0.269 OA
BRANCH  31  34
ATOM     34  C   UNL A   1      41.395  20.879  26.577  1.00  0.00     0.039 A 
ATOM     35  C   UNL A   1      41.177  21.180  27.924  1.00  0.00     0.014 A 
ATOM     36  C   UNL A   1      41.952  21.841  25.728  1.00  0.00     0.014 A 
ATOM     37  C   UNL A   1      41.526  22.439  28.422  1.00  0.00     0.010 A 
ATOM     38  C   UNL A   1      42.356  23.074  26.238  1.00  0.00     0.010 A 
ATOM     39  C   UNL A   1      42.123  23.397  27.584  1.00  0.00    -0.014 A 
BRANCH  39  40
ATOM     40  C   UNL A   1      42.458  24.756  28.086  1.00  0.00     0.031 A 
ATOM     41  C   UNL A   1      43.876  25.079  28.486  1.00  0.00     0.074 A 
ATOM     42  C   UNL A   1      41.491  25.687  28.217  1.00  0.00     0.049 A 
ATOM     43  N   UNL A   1      44.360  26.185  28.992  1.00  0.00    -0.248 NA
ATOM     44  C   UNL A   1      44.880  24.014  28.313  1.00  0.00     0.031 C 
ATOM     45  C   UNL A   1      40.081  25.496  27.876  1.00  0.00     0.029 A 
ATOM     46  N   UNL A   1      41.549  26.980  28.675  1.00  0.00    -0.354 N 
ATOM     47  C   UNL A   1      45.710  25.941  29.217  1.00  0.00     0.074 A 
ATOM     48  C   UNL A   1      45.964  24.571  28.834  1.00  0.00     0.031 C 
ATOM     49  C   UNL A   1      39.413  26.638  28.110  1.00  0.00     0.029 A 
ATOM     50  C   UNL A   1      40.335  27.624  28.665  1.00  0.00     0.049 A 
ATOM     51  H   UNL A   1      42.382  27.406  28.980  1.00  0.00     0.167 HD
ATOM     52  C   UNL A   1      46.657  26.786  29.689  1.00  0.00     0.031 A 
ATOM     53  C   UNL A   1      39.999  28.864  29.075  1.00  0.00     0.031 A 
ATOM     54  C   UNL A   1      46.407  28.155  30.052  1.00  0.00     0.049 A 
ATOM     55  C   UNL A   1      41.069  29.764  29.636  1.00  0.00     0.074 A 
ATOM     56  C   UNL A   1      47.314  29.108  30.480  1.00  0.00     0.029 A 
ATOM     57  N   UNL A   1      45.162  28.761  30.039  1.00  0.00    -0.354 N 
ATOM     58  N   UNL A   1      42.355  29.539  29.768  1.00  0.00    -0.248 NA
ATOM     59  C   UNL A   1      40.643  31.093  30.097  1.00  0.00     0.031 C 
ATOM     60  C   UNL A   1      46.607  30.267  30.804  1.00  0.00     0.029 A 
ATOM     61  C   UNL A   1      45.272  30.063  30.493  1.00  0.00     0.049 A 
ATOM     62  H   UNL A   1      44.325  28.330  29.750  1.00  0.00     0.167 HD
ATOM     63  C   UNL A   1      42.893  30.713  30.282  1.00  0.00     0.074 A 
ATOM     64  C   UNL A   1      41.800  31.650  30.424  1.00  0.00     0.031 C 
ATOM     65  C   UNL A   1      44.178  30.992  30.608  1.00  0.00     0.031 A 
BRANCH  52  66
ATOM     66  C   UNL A   1      48.056  26.261  29.867  1.00  0.00    -0.014 A 
ATOM     67  C   UNL A   1      49.002  26.321  28.831  1.00  0.00     0.009 A 
ATOM     68  C   UNL A   1      48.459  25.784  31.126  1.00  0.00     0.009 A 
ATOM     69  C   UNL A   1      50.314  25.895  29.047  1.00  0.00     0.001 A 
ATOM     70  C   UNL A   1      49.778  25.389  31.348  1.00  0.00     0.001 A 
ATOM     71  C   UNL A   1      50.704  25.439  30.307  1.00  0.00     0.000 A 
ENDBRANCH  52  66
BRANCH  53  72
ATOM     72  C   UNL A   1      38.588  29.338  28.997  1.00  0.00    -0.014 A 
ATOM     73  C   UNL A   1      37.744  29.270  30.117  1.00  0.00     0.009 A 
ATOM     74  C   UNL A   1      38.056  29.796  27.781  1.00  0.00     0.009 A 
ATOM     75  C   UNL A   1      36.389  29.592  30.008  1.00  0.00     0.001 A 
ATOM     76  C   UNL A   1      36.710  30.159  27.685  1.00  0.00     0.001 A 
ATOM     77  C   UNL A   1      35.874  30.037  28.792  1.00  0.00     0.000 A 
ENDBRANCH  53  72
BRANCH  65  78
ATOM     78  C   UNL A   1      44.493  32.383  31.086  1.00  0.00    -0.014 A 
ATOM     79  C   UNL A   1      44.498  32.712  32.449  1.00  0.00     0.009 A 
ATOM     80  C   UNL A   1      44.852  33.365  30.147  1.00  0.00     0.009 A 
ATOM     81  C   UNL A   1      44.823  34.007  32.859  1.00  0.00     0.001 A 
ATOM     82  C   UNL A   1      45.215  34.645  30.562  1.00  0.00     0.001 A 
ATOM     83  C   UNL A   1      45.189  34.969  31.917  1.00  0.00     0.000 A 
ENDBRANCH  65  78
ENDBRANCH  39  40
ENDBRANCH  31  34
ENDBRANCH  29  30
ENDBRANCH  28  29
ENDBRANCH  27  28
ENDBRANCH  26  27
ENDBRANCH   1  26
TORSDOF 19
ENDMDL
MODEL 3
REMARK VINA RESULT:      -9.7      1.522      6.667
REMARK SMILES C[C@@](NC(=O)COc1ccccc1C#N)(C(=O)NCCCCCCNC(=O)c1ccc(-c2c3nc(c(-c4ccccc4)c4ccc([nH]4)c(-c4ccccc4)c4nc(c(-c5ccccc5)c5ccc2[nH]5)C=C4)C=C3)cc1)C1CC1
REMARK SMILES IDX 20 1 19 2 18 3 16 4 17 5 2 7 1 8 3 9 4 10 5 12 6 13 7 14
REMARK SMILES IDX 8 15 9 16 13 17 10 18 12 19 11 20 14 21 15 22 76 23 77 24
REMARK SMILES IDX 78 25 21 26 22 27 23 28 24 29 25 30 26 31 27 33 28 34 29 35
REMARK SMILES IDX 75 36 30 37 74 38 31 39 32 40 33 41 68 42 34 43 73 44 67 45
REMARK SMILES IDX 69 46 35 47 72 48 66 49 65 50 36 52 58 53 43 54 57 55 44 56
REMARK SMILES IDX 47 57 56 58 70 59 45 60 46 61 55 63 71 64 48 65 37 66 38 67
REMARK SMILES IDX 42 68 39 69 41 70 40 71 59 72 60 73 64 74 61 75 63 76 62 77
REMARK SMILES IDX 49 78 50 79 54 80 51 81 53 82 52 83
REMARK H PARENT 18 6 3 11 25 32 69 51 47 62
REMARK Flexibility Score: inf
ROOT
ATOM      1  C   UNL A   1      36.114  21.964  25.277  1.00  0.00     0.021 C 
ENDROOT
BRANCH   1   2
ATOM      2  C   UNL A   1      35.084  21.239  26.149  1.00  0.00     0.116 C 
BRANCH   2   3
ATOM      3  N   UNL A   1      34.532  21.952  27.278  1.00  0.00    -0.354 N 
ATOM      4  C   UNL A   1      33.327  22.613  27.316  1.00  0.00     0.245 C 
ATOM      5  O   UNL A   1      32.660  22.415  28.342  1.00  0.00    -0.272 OA
ATOM      6  H   UNL A   1      35.072  21.965  28.102  1.00  0.00     0.163 HD
BRANCH   4   7
ATOM      7  C   UNL A   1      32.741  23.520  26.138  1.00  0.00     0.119 C 
ATOM      8  C   UNL A   1      32.001  22.657  25.095  1.00  0.00     0.046 C 
BRANCH   7   9
ATOM      9  N   UNL A   1      31.785  24.590  26.526  1.00  0.00    -0.339 N 
ATOM     10  C   UNL A   1      30.489  24.744  26.111  1.00  0.00     0.258 C 
ATOM     11  H   UNL A   1      32.123  25.268  27.155  1.00  0.00     0.164 HD
ATOM     12  O   UNL A   1      29.580  24.623  26.932  1.00  0.00    -0.271 OA
BRANCH  10  13
ATOM     13  C   UNL A   1      30.241  25.329  24.726  1.00  0.00     0.329 C 
BRANCH  13  14
ATOM     14  O   UNL A   1      30.030  26.754  24.781  1.00  0.00    -0.482 OA
BRANCH  14  15
ATOM     15  C   UNL A   1      31.110  27.524  24.437  1.00  0.00     0.137 A 
ATOM     16  C   UNL A   1      31.428  27.689  23.097  1.00  0.00     0.048 A 
ATOM     17  C   UNL A   1      31.816  28.272  25.382  1.00  0.00     0.094 A 
ATOM     18  C   UNL A   1      32.521  28.476  22.708  1.00  0.00     0.004 A 
ATOM     19  C   UNL A   1      32.843  29.145  24.970  1.00  0.00     0.023 A 
ATOM     20  C   UNL A   1      33.213  29.230  23.635  1.00  0.00     0.002 A 
BRANCH  17  21
ATOM     21  C   UNL A   1      31.555  28.159  26.779  1.00  0.00     0.103 C 
ATOM     22  N   UNL A   1      31.264  28.004  27.897  1.00  0.00    -0.192 NA
ENDBRANCH  17  21
ENDBRANCH  14  15
ENDBRANCH  13  14
ENDBRANCH  10  13
ENDBRANCH   7   9
BRANCH   7  23
ATOM     23  C   UNL A   1      33.944  24.247  25.474  1.00  0.00     0.024 C 
ATOM     24  C   UNL A   1      33.777  25.016  24.178  1.00  0.00     0.007 C 
ATOM     25  C   UNL A   1      34.166  25.752  25.428  1.00  0.00     0.007 C 
ENDBRANCH   7  23
ENDBRANCH   4   7
ENDBRANCH   2   3
ENDBRANCH   1   2
BRANCH   1  26
ATOM     26  C   UNL A   1      37.260  21.147  24.636  1.00  0.00     0.002 C 
BRANCH  26  27
ATOM     27  C   UNL A   1      37.452  19.622  24.807  1.00  0.00     0.002 C 
BRANCH  27  28
ATOM     28  C   UNL A   1      38.743  18.962  25.329  1.00  0.00     0.021 C 
BRANCH  28  29
ATOM     29  C   UNL A   1      39.755  19.814  26.083  1.00  0.00     0.116 C 
BRANCH  29  30
ATOM     30  N   UNL A   1      41.061  19.187  26.071  1.00  0.00    -0.352 N 
ATOM     31  C   UNL A   1      42.288  19.810  26.059  1.00  0.00     0.251 C 
ATOM     32  H   UNL A   1      41.072  18.203  26.072  1.00  0.00     0.163 HD
ATOM     33  O   UNL A   1      43.278  19.213  25.648  1.00  0.00    -0.269 OA
BRANCH  31  34
ATOM     34  C   UNL A   1      42.418  21.199  26.562  1.00  0.00     0.039 A 
ATOM     35  C   UNL A   1      42.684  22.235  25.661  1.00  0.00     0.014 A 
ATOM     36  C   UNL A   1      42.350  21.466  27.933  1.00  0.00     0.014 A 
ATOM     37  C   UNL A   1      42.872  23.538  26.135  1.00  0.00     0.010 A 
ATOM     38  C   UNL A   1      42.477  22.774  28.397  1.00  0.00     0.010 A 
ATOM     39  C   UNL A   1      42.766  23.820  27.507  1.00  0.00    -0.014 A 
BRANCH  39  40
ATOM     40  C   UNL A   1      43.007  25.190  28.031  1.00  0.00     0.031 A 
ATOM     41  C   UNL A   1      44.406  25.616  28.400  1.00  0.00     0.074 A 
ATOM     42  C   UNL A   1      41.974  26.039  28.211  1.00  0.00     0.049 A 
ATOM     43  N   UNL A   1      44.816  26.746  28.920  1.00  0.00    -0.248 NA
ATOM     44  C   UNL A   1      45.485  24.638  28.176  1.00  0.00     0.031 C 
ATOM     45  C   UNL A   1      40.574  25.744  27.903  1.00  0.00     0.029 A 
ATOM     46  N   UNL A   1      41.943  27.322  28.697  1.00  0.00    -0.354 N 
ATOM     47  C   UNL A   1      46.187  26.605  29.103  1.00  0.00     0.074 A 
ATOM     48  C   UNL A   1      46.537  25.268  28.680  1.00  0.00     0.031 C 
ATOM     49  C   UNL A   1      39.825  26.824  28.182  1.00  0.00     0.029 A 
ATOM     50  C   UNL A   1      40.682  27.868  28.736  1.00  0.00     0.049 A 
ATOM     51  H   UNL A   1      42.748  27.806  28.990  1.00  0.00     0.167 HD
ATOM     52  C   UNL A   1      47.078  27.512  29.569  1.00  0.00     0.031 A 
ATOM     53  C   UNL A   1      40.262  29.068  29.184  1.00  0.00     0.031 A 
ATOM     54  C   UNL A   1      46.731  28.849  29.971  1.00  0.00     0.049 A 
ATOM     55  C   UNL A   1      41.274  30.038  29.737  1.00  0.00     0.074 A 
ATOM     56  C   UNL A   1      47.573  29.861  30.396  1.00  0.00     0.029 A 
ATOM     57  N   UNL A   1      45.443  29.354  30.006  1.00  0.00    -0.354 N 
ATOM     58  N   UNL A   1      42.576  29.913  29.829  1.00  0.00    -0.248 NA
ATOM     59  C   UNL A   1      40.758  31.319  30.241  1.00  0.00     0.031 C 
ATOM     60  C   UNL A   1      46.786  30.953  30.768  1.00  0.00     0.029 A 
ATOM     61  C   UNL A   1      45.462  30.651  30.487  1.00  0.00     0.049 A 
ATOM     62  H   UNL A   1      44.635  28.865  29.729  1.00  0.00     0.167 HD
ATOM     63  C   UNL A   1      43.034  31.114  30.357  1.00  0.00     0.074 A 
ATOM     64  C   UNL A   1      41.876  31.959  30.550  1.00  0.00     0.031 C 
ATOM     65  C   UNL A   1      44.303  31.488  30.655  1.00  0.00     0.031 A 
BRANCH  52  66
ATOM     66  C   UNL A   1      48.518  27.097  29.697  1.00  0.00    -0.014 A 
ATOM     67  C   UNL A   1      49.443  27.322  28.665  1.00  0.00     0.009 A 
ATOM     68  C   UNL A   1      48.974  26.554  30.909  1.00  0.00     0.009 A 
ATOM     69  C   UNL A   1      50.789  26.993  28.839  1.00  0.00     0.001 A 
ATOM     70  C   UNL A   1      50.326  26.257  31.092  1.00  0.00     0.001 A 
ATOM     71  C   UNL A   1      51.231  26.471  30.054  1.00  0.00     0.000 A 
ENDBRANCH  52  66
BRANCH  53  72
ATOM     72  C   UNL A   1      38.816  29.431  29.155  1.00  0.00    -0.014 A 
ATOM     73  C   UNL A   1      37.983  29.148  30.250  1.00  0.00     0.009 A 
ATOM     74  C   UNL A   1      38.246  29.997  28.005  1.00  0.00     0.009 A 
ATOM     75  C   UNL A   1      36.605  29.369  30.171  1.00  0.00     0.001 A 
ATOM     76  C   UNL A   1      36.874  30.258  27.944  1.00  0.00     0.001 A 
ATOM     77  C   UNL A   1      36.053  29.924  29.018  1.00  0.00     0.000 A 
ENDBRANCH  53  72
BRANCH  65  78
ATOM     78  C   UNL A   1      44.521  32.888  31.156  1.00  0.00    -0.014 A 
ATOM     79  C   UNL A   1      44.538  33.188  32.526  1.00  0.00     0.009 A 
ATOM     80  C   UNL A   1      44.776  33.916  30.232  1.00  0.00     0.009 A 
ATOM     81  C   UNL A   1      44.772  34.495  32.958  1.00  0.00     0.001 A 
ATOM     82  C   UNL A   1      45.048  35.211  30.668  1.00  0.00     0.001 A 
ATOM     83  C   UNL A   1      45.035  35.503  32.030  1.00  0.00     0.000 A 
ENDBRANCH  65  78
ENDBRANCH  39  40
ENDBRANCH  31  34
ENDBRANCH  29  30
ENDBRANCH  28  29
ENDBRANCH  27  28
ENDBRANCH  26  27
ENDBRANCH   1  26
TORSDOF 19
ENDMDL
