MODEL 1
REMARK VINA RESULT:     -12.9      0.000      0.000
REMARK SMILES COc1cc2ccccc2cc1C(=O)Nc1cc(C(=O)NCCCCCCNC(=O)c2ccc(-c3c4nc(c(-c5ccccc5)c5ccc([nH]5)c(-c5ccccc5)c5nc(c(-c6ccccc6)c6ccc3[nH]6)C=C5)C=C4)cc2)ccc1C
REMARK SMILES IDX 24 1 23 2 22 3 21 4 19 5 20 6 18 8 16 9 17 10 81 11 80 12
REMARK SMILES IDX 82 13 79 14 15 15 13 16 14 17 12 19 3 20 4 21 5 22 11 23
REMARK SMILES IDX 6 24 10 25 7 26 9 27 8 28 2 29 1 30 25 31 26 32 27 33 28 34
REMARK SMILES IDX 29 35 30 37 31 38 32 39 78 40 33 41 77 42 34 43 35 44 36 45
REMARK SMILES IDX 71 46 37 47 76 48 70 49 72 50 38 51 75 52 69 53 68 54 39 56
REMARK SMILES IDX 61 57 46 58 60 59 47 60 50 61 59 62 73 63 48 64 49 65 58 67
REMARK SMILES IDX 74 68 51 69 40 70 41 71 45 72 42 73 44 74 43 75 62 76 63 77
REMARK SMILES IDX 67 78 64 79 66 80 65 81 52 82 53 83 57 84 54 85 56 86 55 87
REMARK H PARENT 21 7 15 18 28 36 72 55 50 66
REMARK Flexibility Score: inf
ROOT
ATOM      1  C   UNL A   1      32.440  28.724  25.456  1.00  0.00     0.002 C 
ENDROOT
BRANCH   1   2
ATOM      2  C   UNL A   1      32.323  28.214  24.012  1.00  0.00     0.021 C 
BRANCH   2   3
ATOM      3  C   UNL A   1      33.659  28.162  23.269  1.00  0.00     0.116 C 
BRANCH   3   4
ATOM      4  N   UNL A   1      33.578  27.303  22.107  1.00  0.00    -0.352 N 
ATOM      5  C   UNL A   1      33.188  26.004  21.902  1.00  0.00     0.251 C 
ATOM      6  O   UNL A   1      33.256  25.595  20.740  1.00  0.00    -0.269 OA
ATOM      7  H   UNL A   1      33.868  27.749  21.280  1.00  0.00     0.163 HD
BRANCH   5   8
ATOM      8  C   UNL A   1      32.642  25.089  22.950  1.00  0.00     0.041 A 
ATOM      9  C   UNL A   1      32.679  23.941  25.097  1.00  0.00     0.045 A 
ATOM     10  C   UNL A   1      33.343  24.606  24.055  1.00  0.00     0.040 A 
ATOM     11  C   UNL A   1      31.352  23.511  24.934  1.00  0.00    -0.027 A 
ATOM     12  C   UNL A   1      30.663  23.927  23.788  1.00  0.00     0.006 A 
ATOM     13  C   UNL A   1      30.571  22.784  25.995  1.00  0.00     0.046 C 
ATOM     14  C   UNL A   1      31.289  24.731  22.831  1.00  0.00     0.014 A 
BRANCH   9  15
ATOM     15  N   UNL A   1      33.311  23.777  26.340  1.00  0.00    -0.322 N 
ATOM     16  C   UNL A   1      33.916  22.666  26.898  1.00  0.00     0.259 C 
ATOM     17  O   UNL A   1      34.251  22.739  28.084  1.00  0.00    -0.269 OA
ATOM     18  H   UNL A   1      33.327  24.582  26.905  1.00  0.00     0.170 HD
BRANCH  16  19
ATOM     19  C   UNL A   1      34.255  21.410  26.155  1.00  0.00     0.082 A 
ATOM     20  C   UNL A   1      35.477  21.107  25.540  1.00  0.00     0.132 A 
ATOM     21  C   UNL A   1      35.627  19.939  24.777  1.00  0.00     0.056 A 
ATOM     22  C   UNL A   1      34.617  18.972  24.734  1.00  0.00    -0.015 A 
ATOM     23  C   UNL A   1      33.262  20.409  26.151  1.00  0.00     0.026 A 
ATOM     24  C   UNL A   1      34.774  17.788  23.999  1.00  0.00     0.009 A 
ATOM     25  C   UNL A   1      33.437  19.185  25.475  1.00  0.00    -0.017 A 
ATOM     26  C   UNL A   1      33.798  16.793  24.040  1.00  0.00     0.001 A 
ATOM     27  C   UNL A   1      32.471  18.165  25.519  1.00  0.00     0.009 A 
ATOM     28  C   UNL A   1      32.656  16.973  24.815  1.00  0.00     0.001 A 
BRANCH  20  29
ATOM     29  O   UNL A   1      36.586  21.906  25.572  1.00  0.00    -0.496 OA
ATOM     30  C   UNL A   1      37.744  21.206  25.126  1.00  0.00     0.278 C 
ENDBRANCH  20  29
ENDBRANCH  16  19
ENDBRANCH   9  15
ENDBRANCH   5   8
ENDBRANCH   3   4
ENDBRANCH   2   3
ENDBRANCH   1   2
BRANCH   1  31
ATOM     31  C   UNL A   1      31.796  30.093  25.745  1.00  0.00     0.002 C 
BRANCH  31  32
ATOM     32  C   UNL A   1      32.315  30.824  26.986  1.00  0.00     0.021 C 
BRANCH  32  33
ATOM     33  C   UNL A   1      33.764  30.498  27.325  1.00  0.00     0.116 C 
BRANCH  33  34
ATOM     34  N   UNL A   1      34.360  31.421  28.282  1.00  0.00    -0.352 N 
ATOM     35  C   UNL A   1      35.504  31.289  29.055  1.00  0.00     0.251 C 
ATOM     36  H   UNL A   1      33.874  32.271  28.399  1.00  0.00     0.163 HD
ATOM     37  O   UNL A   1      35.823  32.161  29.834  1.00  0.00    -0.269 OA
BRANCH  35  38
ATOM     38  C   UNL A   1      36.410  30.136  28.810  1.00  0.00     0.039 A 
ATOM     39  C   UNL A   1      36.651  29.274  29.886  1.00  0.00     0.014 A 
ATOM     40  C   UNL A   1      37.172  30.043  27.650  1.00  0.00     0.014 A 
ATOM     41  C   UNL A   1      37.818  28.519  29.903  1.00  0.00     0.010 A 
ATOM     42  C   UNL A   1      38.375  29.367  27.701  1.00  0.00     0.010 A 
ATOM     43  C   UNL A   1      38.730  28.673  28.861  1.00  0.00    -0.014 A 
BRANCH  43  44
ATOM     44  C   UNL A   1      40.131  28.290  28.977  1.00  0.00     0.031 A 
ATOM     45  C   UNL A   1      40.621  27.015  28.433  1.00  0.00     0.074 A 
ATOM     46  C   UNL A   1      41.006  29.144  29.553  1.00  0.00     0.049 A 
ATOM     47  N   UNL A   1      41.667  26.406  28.879  1.00  0.00    -0.248 NA
ATOM     48  C   UNL A   1      39.941  26.297  27.362  1.00  0.00     0.031 C 
ATOM     49  C   UNL A   1      42.463  29.080  29.533  1.00  0.00     0.029 A 
ATOM     50  N   UNL A   1      40.719  30.144  30.477  1.00  0.00    -0.354 N 
ATOM     51  C   UNL A   1      41.969  25.412  27.984  1.00  0.00     0.074 A 
ATOM     52  C   UNL A   1      40.821  25.325  27.106  1.00  0.00     0.031 C 
ATOM     53  C   UNL A   1      42.944  29.814  30.550  1.00  0.00     0.029 A 
ATOM     54  C   UNL A   1      41.812  30.245  31.353  1.00  0.00     0.049 A 
ATOM     55  H   UNL A   1      39.898  30.684  30.510  1.00  0.00     0.167 HD
ATOM     56  C   UNL A   1      43.211  24.858  27.981  1.00  0.00     0.031 A 
ATOM     57  C   UNL A   1      41.653  29.986  32.685  1.00  0.00     0.031 A 
ATOM     58  C   UNL A   1      44.077  25.399  29.026  1.00  0.00     0.049 A 
ATOM     59  C   UNL A   1      42.429  28.784  33.192  1.00  0.00     0.074 A 
ATOM     60  C   UNL A   1      45.138  26.289  29.044  1.00  0.00     0.029 A 
ATOM     61  N   UNL A   1      43.701  25.232  30.348  1.00  0.00    -0.354 N 
ATOM     62  N   UNL A   1      43.162  28.004  32.445  1.00  0.00    -0.248 NA
ATOM     63  C   UNL A   1      42.348  28.304  34.574  1.00  0.00     0.031 C 
ATOM     64  C   UNL A   1      45.406  26.639  30.398  1.00  0.00     0.029 A 
ATOM     65  C   UNL A   1      44.514  25.953  31.199  1.00  0.00     0.049 A 
ATOM     66  H   UNL A   1      42.949  24.671  30.644  1.00  0.00     0.167 HD
ATOM     67  C   UNL A   1      43.574  26.924  33.179  1.00  0.00     0.074 A 
ATOM     68  C   UNL A   1      43.052  27.161  34.511  1.00  0.00     0.031 C 
ATOM     69  C   UNL A   1      44.265  25.884  32.628  1.00  0.00     0.031 A 
BRANCH  56  70
ATOM     70  C   UNL A   1      43.699  24.002  26.844  1.00  0.00    -0.014 A 
ATOM     71  C   UNL A   1      44.488  24.569  25.828  1.00  0.00     0.009 A 
ATOM     72  C   UNL A   1      43.379  22.641  26.700  1.00  0.00     0.009 A 
ATOM     73  C   UNL A   1      44.844  23.849  24.682  1.00  0.00     0.001 A 
ATOM     74  C   UNL A   1      43.694  21.928  25.536  1.00  0.00     0.001 A 
ATOM     75  C   UNL A   1      44.417  22.538  24.521  1.00  0.00     0.000 A 
ENDBRANCH  56  70
BRANCH  57  76
ATOM     76  C   UNL A   1      40.320  30.406  33.204  1.00  0.00    -0.014 A 
ATOM     77  C   UNL A   1      40.041  31.785  33.297  1.00  0.00     0.009 A 
ATOM     78  C   UNL A   1      39.249  29.502  33.255  1.00  0.00     0.009 A 
ATOM     79  C   UNL A   1      38.723  32.249  33.321  1.00  0.00     0.001 A 
ATOM     80  C   UNL A   1      37.931  29.971  33.294  1.00  0.00     0.001 A 
ATOM     81  C   UNL A   1      37.668  31.341  33.291  1.00  0.00     0.000 A 
ENDBRANCH  57  76
BRANCH  69  82
ATOM     82  C   UNL A   1      44.736  24.676  33.391  1.00  0.00    -0.014 A 
ATOM     83  C   UNL A   1      46.080  24.464  33.725  1.00  0.00     0.009 A 
ATOM     84  C   UNL A   1      43.831  23.635  33.687  1.00  0.00     0.009 A 
ATOM     85  C   UNL A   1      46.487  23.291  34.377  1.00  0.00     0.001 A 
ATOM     86  C   UNL A   1      44.236  22.455  34.316  1.00  0.00     0.001 A 
ATOM     87  C   UNL A   1      45.566  22.289  34.672  1.00  0.00     0.000 A 
ENDBRANCH  69  82
ENDBRANCH  43  44
ENDBRANCH  35  38
ENDBRANCH  33  34
ENDBRANCH  32  33
ENDBRANCH  31  32
ENDBRANCH   1  31
TORSDOF 16
ENDMDL
MODEL 2
REMARK VINA RESULT:     -12.6      2.006      2.970
REMARK SMILES COc1cc2ccccc2cc1C(=O)Nc1cc(C(=O)NCCCCCCNC(=O)c2ccc(-c3c4nc(c(-c5ccccc5)c5ccc([nH]5)c(-c5ccccc5)c5nc(c(-c6ccccc6)c6ccc3[nH]6)C=C5)C=C4)cc2)ccc1C
REMARK SMILES IDX 24 1 23 2 22 3 21 4 19 5 20 6 18 8 16 9 17 10 81 11 80 12
REMARK SMILES IDX 82 13 79 14 15 15 13 16 14 17 12 19 3 20 4 21 5 22 11 23
REMARK SMILES IDX 6 24 10 25 7 26 9 27 8 28 2 29 1 30 25 31 26 32 27 33 28 34
REMARK SMILES IDX 29 35 30 37 31 38 32 39 78 40 33 41 77 42 34 43 35 44 36 45
REMARK SMILES IDX 71 46 37 47 76 48 70 49 72 50 38 51 75 52 69 53 68 54 39 56
REMARK SMILES IDX 61 57 46 58 60 59 47 60 50 61 59 62 73 63 48 64 49 65 58 67
REMARK SMILES IDX 74 68 51 69 40 70 41 71 45 72 42 73 44 74 43 75 62 76 63 77
REMARK SMILES IDX 67 78 64 79 66 80 65 81 52 82 53 83 57 84 54 85 56 86 55 87
REMARK H PARENT 21 7 15 18 28 36 72 55 50 66
REMARK Flexibility Score: inf
ROOT
ATOM      1  C   UNL A   1      33.829  28.311  25.296  1.00  0.00     0.002 C 
ENDROOT
BRANCH   1   2
ATOM      2  C   UNL A   1      33.181  29.339  24.358  1.00  0.00     0.021 C 
BRANCH   2   3
ATOM      3  C   UNL A   1      32.627  28.730  23.069  1.00  0.00     0.116 C 
BRANCH   3   4
ATOM      4  N   UNL A   1      31.186  28.854  23.008  1.00  0.00    -0.352 N 
ATOM      5  C   UNL A   1      30.139  28.047  23.374  1.00  0.00     0.251 C 
ATOM      6  O   UNL A   1      29.010  28.496  23.164  1.00  0.00    -0.269 OA
ATOM      7  H   UNL A   1      30.892  29.707  22.616  1.00  0.00     0.163 HD
BRANCH   5   8
ATOM      8  C   UNL A   1      30.266  26.719  24.048  1.00  0.00     0.041 A 
ATOM      9  C   UNL A   1      30.479  24.294  24.098  1.00  0.00     0.045 A 
ATOM     10  C   UNL A   1      30.118  25.476  23.433  1.00  0.00     0.040 A 
ATOM     11  C   UNL A   1      30.743  24.306  25.477  1.00  0.00    -0.027 A 
ATOM     12  C   UNL A   1      30.818  25.548  26.120  1.00  0.00     0.006 A 
ATOM     13  C   UNL A   1      31.127  23.085  26.267  1.00  0.00     0.046 C 
ATOM     14  C   UNL A   1      30.617  26.734  25.408  1.00  0.00     0.014 A 
BRANCH   9  15
ATOM     15  N   UNL A   1      30.661  23.107  23.370  1.00  0.00    -0.322 N 
ATOM     16  C   UNL A   1      31.819  22.477  22.956  1.00  0.00     0.259 C 
ATOM     17  O   UNL A   1      31.701  21.526  22.178  1.00  0.00    -0.269 OA
ATOM     18  H   UNL A   1      29.828  22.650  23.112  1.00  0.00     0.170 HD
BRANCH  16  19
ATOM     19  C   UNL A   1      33.198  22.818  23.434  1.00  0.00     0.082 A 
ATOM     20  C   UNL A   1      33.798  24.085  23.421  1.00  0.00     0.132 A 
ATOM     21  C   UNL A   1      35.141  24.247  23.794  1.00  0.00     0.056 A 
ATOM     22  C   UNL A   1      35.873  23.183  24.331  1.00  0.00    -0.015 A 
ATOM     23  C   UNL A   1      33.924  21.764  24.025  1.00  0.00     0.026 A 
ATOM     24  C   UNL A   1      37.207  23.347  24.735  1.00  0.00     0.009 A 
ATOM     25  C   UNL A   1      35.240  21.935  24.500  1.00  0.00    -0.017 A 
ATOM     26  C   UNL A   1      37.894  22.304  25.354  1.00  0.00     0.001 A 
ATOM     27  C   UNL A   1      35.941  20.900  25.140  1.00  0.00     0.009 A 
ATOM     28  C   UNL A   1      37.256  21.088  25.574  1.00  0.00     0.001 A 
BRANCH  20  29
ATOM     29  O   UNL A   1      33.182  25.235  23.013  1.00  0.00    -0.496 OA
ATOM     30  C   UNL A   1      33.279  25.404  21.602  1.00  0.00     0.278 C 
ENDBRANCH  20  29
ENDBRANCH  16  19
ENDBRANCH   9  15
ENDBRANCH   5   8
ENDBRANCH   3   4
ENDBRANCH   2   3
ENDBRANCH   1   2
BRANCH   1  31
ATOM     31  C   UNL A   1      34.227  28.826  26.693  1.00  0.00     0.002 C 
BRANCH  31  32
ATOM     32  C   UNL A   1      34.201  30.345  26.875  1.00  0.00     0.021 C 
BRANCH  32  33
ATOM     33  C   UNL A   1      34.288  30.786  28.331  1.00  0.00     0.116 C 
BRANCH  33  34
ATOM     34  N   UNL A   1      35.344  31.757  28.582  1.00  0.00    -0.352 N 
ATOM     35  C   UNL A   1      36.710  31.571  28.735  1.00  0.00     0.251 C 
ATOM     36  H   UNL A   1      35.042  32.693  28.655  1.00  0.00     0.163 HD
ATOM     37  O   UNL A   1      37.435  32.510  28.981  1.00  0.00    -0.269 OA
BRANCH  35  38
ATOM     38  C   UNL A   1      37.290  30.232  28.449  1.00  0.00     0.039 A 
ATOM     39  C   UNL A   1      37.354  29.324  29.512  1.00  0.00     0.014 A 
ATOM     40  C   UNL A   1      37.958  29.968  27.258  1.00  0.00     0.014 A 
ATOM     41  C   UNL A   1      38.297  28.303  29.478  1.00  0.00     0.010 A 
ATOM     42  C   UNL A   1      38.956  29.015  27.255  1.00  0.00     0.010 A 
ATOM     43  C   UNL A   1      39.175  28.239  28.398  1.00  0.00    -0.014 A 
BRANCH  43  44
ATOM     44  C   UNL A   1      40.441  27.520  28.454  1.00  0.00     0.031 A 
ATOM     45  C   UNL A   1      40.498  26.062  28.268  1.00  0.00     0.074 A 
ATOM     46  C   UNL A   1      41.589  28.210  28.632  1.00  0.00     0.049 A 
ATOM     47  N   UNL A   1      41.438  25.320  28.746  1.00  0.00    -0.248 NA
ATOM     48  C   UNL A   1      39.469  25.313  27.556  1.00  0.00     0.031 C 
ATOM     49  C   UNL A   1      42.956  27.733  28.455  1.00  0.00     0.029 A 
ATOM     50  N   UNL A   1      41.735  29.455  29.235  1.00  0.00    -0.354 N 
ATOM     51  C   UNL A   1      41.313  24.084  28.166  1.00  0.00     0.074 A 
ATOM     52  C   UNL A   1      40.027  24.099  27.504  1.00  0.00     0.031 C 
ATOM     53  C   UNL A   1      43.788  28.539  29.134  1.00  0.00     0.029 A 
ATOM     54  C   UNL A   1      42.973  29.467  29.900  1.00  0.00     0.049 A 
ATOM     55  H   UNL A   1      41.088  30.195  29.202  1.00  0.00     0.167 HD
ATOM     56  C   UNL A   1      42.364  23.220  28.181  1.00  0.00     0.031 A 
ATOM     57  C   UNL A   1      43.024  29.620  31.256  1.00  0.00     0.031 A 
ATOM     58  C   UNL A   1      43.522  23.746  28.899  1.00  0.00     0.049 A 
ATOM     59  C   UNL A   1      43.580  28.422  32.006  1.00  0.00     0.074 A 
ATOM     60  C   UNL A   1      44.746  24.272  28.515  1.00  0.00     0.029 A 
ATOM     61  N   UNL A   1      43.389  24.043  30.244  1.00  0.00    -0.354 N 
ATOM     62  N   UNL A   1      43.945  27.301  31.448  1.00  0.00    -0.248 NA
ATOM     63  C   UNL A   1      43.664  28.363  33.468  1.00  0.00     0.031 C 
ATOM     64  C   UNL A   1      45.352  24.872  29.656  1.00  0.00     0.029 A 
ATOM     65  C   UNL A   1      44.500  24.700  30.730  1.00  0.00     0.049 A 
ATOM     66  H   UNL A   1      42.599  23.815  30.786  1.00  0.00     0.167 HD
ATOM     67  C   UNL A   1      44.228  26.378  32.420  1.00  0.00     0.074 A 
ATOM     68  C   UNL A   1      44.051  27.092  33.670  1.00  0.00     0.031 C 
ATOM     69  C   UNL A   1      44.531  25.079  32.131  1.00  0.00     0.031 A 
BRANCH  56  70
ATOM     70  C   UNL A   1      42.400  21.995  27.308  1.00  0.00    -0.014 A 
ATOM     71  C   UNL A   1      41.593  20.888  27.620  1.00  0.00     0.009 A 
ATOM     72  C   UNL A   1      43.241  21.859  26.190  1.00  0.00     0.009 A 
ATOM     73  C   UNL A   1      41.696  19.679  26.924  1.00  0.00     0.001 A 
ATOM     74  C   UNL A   1      43.382  20.638  25.517  1.00  0.00     0.001 A 
ATOM     75  C   UNL A   1      42.617  19.543  25.894  1.00  0.00     0.000 A 
ENDBRANCH  56  70
BRANCH  57  76
ATOM     76  C   UNL A   1      41.958  30.521  31.781  1.00  0.00    -0.014 A 
ATOM     77  C   UNL A   1      42.183  31.912  31.753  1.00  0.00     0.009 A 
ATOM     78  C   UNL A   1      40.646  30.058  31.956  1.00  0.00     0.009 A 
ATOM     79  C   UNL A   1      41.112  32.811  31.781  1.00  0.00     0.001 A 
ATOM     80  C   UNL A   1      39.578  30.963  31.998  1.00  0.00     0.001 A 
ATOM     81  C   UNL A   1      39.809  32.332  31.875  1.00  0.00     0.000 A 
ENDBRANCH  57  76
BRANCH  69  82
ATOM     82  C   UNL A   1      44.846  24.030  33.163  1.00  0.00    -0.014 A 
ATOM     83  C   UNL A   1      43.895  23.114  33.631  1.00  0.00     0.009 A 
ATOM     84  C   UNL A   1      46.107  24.023  33.795  1.00  0.00     0.009 A 
ATOM     85  C   UNL A   1      44.212  22.197  34.644  1.00  0.00     0.001 A 
ATOM     86  C   UNL A   1      46.419  23.127  34.820  1.00  0.00     0.001 A 
ATOM     87  C   UNL A   1      45.471  22.204  35.236  1.00  0.00     0.000 A 
ENDBRANCH  69  82
ENDBRANCH  43  44
ENDBRANCH  35  38
ENDBRANCH  33  34
ENDBRANCH  32  33
ENDBRANCH  31  32
ENDBRANCH   1  31
TORSDOF 16
ENDMDL
MODEL 3
REMARK VINA RESULT:     -12.6      1.263      3.553
REMARK SMILES COc1cc2ccccc2cc1C(=O)Nc1cc(C(=O)NCCCCCCNC(=O)c2ccc(-c3c4nc(c(-c5ccccc5)c5ccc([nH]5)c(-c5ccccc5)c5nc(c(-c6ccccc6)c6ccc3[nH]6)C=C5)C=C4)cc2)ccc1C
REMARK SMILES IDX 24 1 23 2 22 3 21 4 19 5 20 6 18 8 16 9 17 10 81 11 80 12
REMARK SMILES IDX 82 13 79 14 15 15 13 16 14 17 12 19 3 20 4 21 5 22 11 23
REMARK SMILES IDX 6 24 10 25 7 26 9 27 8 28 2 29 1 30 25 31 26 32 27 33 28 34
REMARK SMILES IDX 29 35 30 37 31 38 32 39 78 40 33 41 77 42 34 43 35 44 36 45
REMARK SMILES IDX 71 46 37 47 76 48 70 49 72 50 38 51 75 52 69 53 68 54 39 56
REMARK SMILES IDX 61 57 46 58 60 59 47 60 50 61 59 62 73 63 48 64 49 65 58 67
REMARK SMILES IDX 74 68 51 69 40 70 41 71 45 72 42 73 44 74 43 75 62 76 63 77
REMARK SMILES IDX 67 78 64 79 66 80 65 81 52 82 53 83 57 84 54 85 56 86 55 87
REMARK H PARENT 21 7 15 18 28 36 72 55 50 66
REMARK Flexibility Score: inf
ROOT
ATOM      1  C   UNL A   1      33.094  28.182  25.823  1.00  0.00     0.002 C 
ENDROOT
BRANCH   1   2
ATOM      2  C   UNL A   1      33.963  27.238  24.980  1.00  0.00     0.021 C 
BRANCH   2   3
ATOM      3  C   UNL A   1      34.036  25.813  25.532  1.00  0.00     0.116 C 
BRANCH   3   4
ATOM      4  N   UNL A   1      35.364  25.259  25.376  1.00  0.00    -0.352 N 
ATOM      5  C   UNL A   1      35.878  23.987  25.389  1.00  0.00     0.251 C 
ATOM      6  O   UNL A   1      37.097  23.894  25.219  1.00  0.00    -0.269 OA
ATOM      7  H   UNL A   1      36.051  25.947  25.229  1.00  0.00     0.163 HD
BRANCH   5   8
ATOM      8  C   UNL A   1      35.079  22.732  25.532  1.00  0.00     0.041 A 
ATOM      9  C   UNL A   1      33.065  21.457  26.024  1.00  0.00     0.045 A 
ATOM     10  C   UNL A   1      33.830  22.628  26.142  1.00  0.00     0.040 A 
ATOM     11  C   UNL A   1      33.641  20.279  25.523  1.00  0.00    -0.027 A 
ATOM     12  C   UNL A   1      34.929  20.358  24.978  1.00  0.00     0.006 A 
ATOM     13  C   UNL A   1      32.896  18.980  25.372  1.00  0.00     0.046 C 
ATOM     14  C   UNL A   1      35.620  21.573  24.952  1.00  0.00     0.014 A 
BRANCH   9  15
ATOM     15  N   UNL A   1      31.694  21.481  26.328  1.00  0.00    -0.322 N 
ATOM     16  C   UNL A   1      30.710  22.379  25.961  1.00  0.00     0.259 C 
ATOM     17  O   UNL A   1      29.607  22.265  26.504  1.00  0.00    -0.269 OA
ATOM     18  H   UNL A   1      31.384  20.738  26.894  1.00  0.00     0.170 HD
BRANCH  16  19
ATOM     19  C   UNL A   1      30.860  23.433  24.906  1.00  0.00     0.082 A 
ATOM     20  C   UNL A   1      31.377  23.257  23.616  1.00  0.00     0.132 A 
ATOM     21  C   UNL A   1      31.569  24.354  22.763  1.00  0.00     0.056 A 
ATOM     22  C   UNL A   1      31.111  25.628  23.114  1.00  0.00    -0.015 A 
ATOM     23  C   UNL A   1      30.355  24.708  25.233  1.00  0.00     0.026 A 
ATOM     24  C   UNL A   1      31.272  26.724  22.252  1.00  0.00     0.009 A 
ATOM     25  C   UNL A   1      30.446  25.799  24.345  1.00  0.00    -0.017 A 
ATOM     26  C   UNL A   1      30.730  27.967  22.575  1.00  0.00     0.001 A 
ATOM     27  C   UNL A   1      29.891  27.054  24.648  1.00  0.00     0.009 A 
ATOM     28  C   UNL A   1      30.022  28.127  23.763  1.00  0.00     0.001 A 
BRANCH  20  29
ATOM     29  O   UNL A   1      31.780  22.059  23.094  1.00  0.00    -0.496 OA
ATOM     30  C   UNL A   1      32.967  22.203  22.319  1.00  0.00     0.278 C 
ENDBRANCH  20  29
ENDBRANCH  16  19
ENDBRANCH   9  15
ENDBRANCH   5   8
ENDBRANCH   3   4
ENDBRANCH   2   3
ENDBRANCH   1   2
BRANCH   1  31
ATOM     31  C   UNL A   1      32.922  29.612  25.278  1.00  0.00     0.002 C 
BRANCH  31  32
ATOM     32  C   UNL A   1      32.952  30.731  26.322  1.00  0.00     0.021 C 
BRANCH  32  33
ATOM     33  C   UNL A   1      33.516  30.295  27.668  1.00  0.00     0.116 C 
BRANCH  33  34
ATOM     34  N   UNL A   1      34.222  31.355  28.374  1.00  0.00    -0.352 N 
ATOM     35  C   UNL A   1      35.481  31.354  28.956  1.00  0.00     0.251 C 
ATOM     36  H   UNL A   1      33.730  32.205  28.450  1.00  0.00     0.163 HD
ATOM     37  O   UNL A   1      35.888  32.334  29.542  1.00  0.00    -0.269 OA
BRANCH  35  38
ATOM     38  C   UNL A   1      36.380  30.192  28.728  1.00  0.00     0.039 A 
ATOM     39  C   UNL A   1      36.618  29.346  29.818  1.00  0.00     0.014 A 
ATOM     40  C   UNL A   1      37.138  30.075  27.568  1.00  0.00     0.014 A 
ATOM     41  C   UNL A   1      37.781  28.585  29.844  1.00  0.00     0.010 A 
ATOM     42  C   UNL A   1      38.337  29.393  27.627  1.00  0.00     0.010 A 
ATOM     43  C   UNL A   1      38.691  28.716  28.797  1.00  0.00    -0.014 A 
BRANCH  43  44
ATOM     44  C   UNL A   1      40.091  28.327  28.916  1.00  0.00     0.031 A 
ATOM     45  C   UNL A   1      40.577  27.052  28.369  1.00  0.00     0.074 A 
ATOM     46  C   UNL A   1      40.967  29.175  29.498  1.00  0.00     0.049 A 
ATOM     47  N   UNL A   1      41.619  26.437  28.815  1.00  0.00    -0.248 NA
ATOM     48  C   UNL A   1      39.897  26.341  27.293  1.00  0.00     0.031 C 
ATOM     49  C   UNL A   1      42.425  29.106  29.481  1.00  0.00     0.029 A 
ATOM     50  N   UNL A   1      40.682  30.173  30.424  1.00  0.00    -0.354 N 
ATOM     51  C   UNL A   1      41.919  25.445  27.918  1.00  0.00     0.074 A 
ATOM     52  C   UNL A   1      40.774  25.366  27.037  1.00  0.00     0.031 C 
ATOM     53  C   UNL A   1      42.905  29.833  30.503  1.00  0.00     0.029 A 
ATOM     54  C   UNL A   1      41.773  30.266  31.304  1.00  0.00     0.049 A 
ATOM     55  H   UNL A   1      39.863  30.717  30.457  1.00  0.00     0.167 HD
ATOM     56  C   UNL A   1      43.160  24.886  27.916  1.00  0.00     0.031 A 
ATOM     57  C   UNL A   1      41.609  30.004  32.634  1.00  0.00     0.031 A 
ATOM     58  C   UNL A   1      44.024  25.419  28.966  1.00  0.00     0.049 A 
ATOM     59  C   UNL A   1      42.379  28.796  33.139  1.00  0.00     0.074 A 
ATOM     60  C   UNL A   1      45.089  26.305  28.990  1.00  0.00     0.029 A 
ATOM     61  N   UNL A   1      43.644  25.250  30.287  1.00  0.00    -0.354 N 
ATOM     62  N   UNL A   1      43.110  28.016  32.391  1.00  0.00    -0.248 NA
ATOM     63  C   UNL A   1      42.292  28.312  34.520  1.00  0.00     0.031 C 
ATOM     64  C   UNL A   1      45.355  26.649  30.346  1.00  0.00     0.029 A 
ATOM     65  C   UNL A   1      44.458  25.964  31.142  1.00  0.00     0.049 A 
ATOM     66  H   UNL A   1      42.889  24.690  30.578  1.00  0.00     0.167 HD
ATOM     67  C   UNL A   1      43.516  26.931  33.123  1.00  0.00     0.074 A 
ATOM     68  C   UNL A   1      42.991  27.166  34.454  1.00  0.00     0.031 C 
ATOM     69  C   UNL A   1      44.204  25.891  32.570  1.00  0.00     0.031 A 
BRANCH  56  70
ATOM     70  C   UNL A   1      43.647  24.032  26.778  1.00  0.00    -0.014 A 
ATOM     71  C   UNL A   1      43.636  22.631  26.899  1.00  0.00     0.009 A 
ATOM     72  C   UNL A   1      44.166  24.551  25.580  1.00  0.00     0.009 A 
ATOM     73  C   UNL A   1      44.209  21.802  25.928  1.00  0.00     0.001 A 
ATOM     74  C   UNL A   1      44.781  23.730  24.625  1.00  0.00     0.001 A 
ATOM     75  C   UNL A   1      44.812  22.355  24.807  1.00  0.00     0.000 A 
ENDBRANCH  56  70
BRANCH  57  76
ATOM     76  C   UNL A   1      40.276  30.427  33.151  1.00  0.00    -0.014 A 
ATOM     77  C   UNL A   1      39.999  31.807  33.239  1.00  0.00     0.009 A 
ATOM     78  C   UNL A   1      39.204  29.524  33.205  1.00  0.00     0.009 A 
ATOM     79  C   UNL A   1      38.681  32.272  33.260  1.00  0.00     0.001 A 
ATOM     80  C   UNL A   1      37.886  29.996  33.241  1.00  0.00     0.001 A 
ATOM     81  C   UNL A   1      37.626  31.366  33.233  1.00  0.00     0.000 A 
ENDBRANCH  57  76
BRANCH  69  82
ATOM     82  C   UNL A   1      44.668  24.678  33.330  1.00  0.00    -0.014 A 
ATOM     83  C   UNL A   1      46.006  24.473  33.692  1.00  0.00     0.009 A 
ATOM     84  C   UNL A   1      43.765  23.626  33.594  1.00  0.00     0.009 A 
ATOM     85  C   UNL A   1      46.408  23.296  34.340  1.00  0.00     0.001 A 
ATOM     86  C   UNL A   1      44.166  22.443  34.218  1.00  0.00     0.001 A 
ATOM     87  C   UNL A   1      45.489  22.284  34.603  1.00  0.00     0.000 A 
ENDBRANCH  69  82
ENDBRANCH  43  44
ENDBRANCH  35  38
ENDBRANCH  33  34
ENDBRANCH  32  33
ENDBRANCH  31  32
ENDBRANCH   1  31
TORSDOF 16
ENDMDL
