MODEL 1
REMARK VINA RESULT:     -10.6      0.000      0.000
REMARK SMILES COc1ccc(C(=O)NCCCCCCNC(=O)c2ccc(-c3c4nc(c(-c5ccccc5)c5ccc([nH]5)c(-c5ccccc5)c5nc(c(-c6ccccc6)c6ccc3[nH]6)C=C5)C=C4)cc2)cc1CN1CC(=O)N(C)CC1=O
REMARK SMILES IDX 12 1 11 2 10 3 9 4 7 5 8 6 6 8 3 9 4 10 68 11 5 12 67 13
REMARK SMILES IDX 2 14 1 15 69 16 70 17 71 18 77 19 72 20 76 21 78 22 73 23
REMARK SMILES IDX 74 24 75 25 13 26 14 27 15 28 16 29 17 30 18 32 19 33 20 34
REMARK SMILES IDX 66 35 21 36 65 37 22 38 23 39 24 40 59 41 25 42 64 43 58 44
REMARK SMILES IDX 60 45 26 46 63 47 57 48 56 49 27 51 49 52 34 53 48 54 35 55
REMARK SMILES IDX 38 56 47 57 61 58 36 59 37 60 46 62 62 63 39 64 28 65 29 66
REMARK SMILES IDX 33 67 30 68 32 69 31 70 50 71 51 72 55 73 52 74 54 75 53 76
REMARK SMILES IDX 40 77 41 78 45 79 42 80 44 81 43 82
REMARK H PARENT 9 7 16 31 60 50 38 61
REMARK Flexibility Score: inf
ROOT
ATOM      1  C   UNL A   1      35.909  21.393  24.643  1.00  0.00     0.002 C 
ENDROOT
BRANCH   1   2
ATOM      2  C   UNL A   1      35.463  21.022  26.063  1.00  0.00     0.021 C 
BRANCH   2   3
ATOM      3  C   UNL A   1      34.526  22.052  26.701  1.00  0.00     0.116 C 
BRANCH   3   4
ATOM      4  N   UNL A   1      33.136  21.717  26.435  1.00  0.00    -0.352 N 
ATOM      5  C   UNL A   1      32.243  22.113  25.472  1.00  0.00     0.251 C 
ATOM      6  O   UNL A   1      31.133  21.578  25.477  1.00  0.00    -0.269 OA
ATOM      7  H   UNL A   1      32.759  21.075  27.079  1.00  0.00     0.163 HD
BRANCH   5   8
ATOM      8  C   UNL A   1      32.546  23.120  24.413  1.00  0.00     0.040 A 
ATOM      9  C   UNL A   1      33.157  24.905  22.326  1.00  0.00     0.123 A 
ATOM     10  C   UNL A   1      33.210  23.527  22.108  1.00  0.00     0.047 A 
ATOM     11  C   UNL A   1      32.754  25.416  23.563  1.00  0.00     0.014 A 
ATOM     12  C   UNL A   1      32.924  22.642  23.150  1.00  0.00     0.017 A 
ATOM     13  C   UNL A   1      32.424  24.500  24.585  1.00  0.00     0.023 A 
BRANCH   9  14
ATOM     14  O   UNL A   1      33.411  25.748  21.277  1.00  0.00    -0.496 OA
ATOM     15  C   UNL A   1      32.555  25.449  20.173  1.00  0.00     0.278 C 
ENDBRANCH   9  14
BRANCH  11  16
ATOM     16  C   UNL A   1      32.711  26.903  23.848  1.00  0.00     0.159 C 
BRANCH  16  17
ATOM     17  N   UNL A   1      31.432  27.489  23.477  1.00  0.00    -0.327 N 
ATOM     18  C   UNL A   1      30.262  26.626  23.497  1.00  0.00     0.220 C 
ATOM     19  C   UNL A   1      31.383  28.674  22.764  1.00  0.00     0.242 C 
ATOM     20  C   UNL A   1      28.898  27.316  23.543  1.00  0.00     0.242 C 
ATOM     21  C   UNL A   1      30.057  29.417  22.905  1.00  0.00     0.219 C 
ATOM     22  O   UNL A   1      32.380  29.233  22.308  1.00  0.00    -0.273 OA
ATOM     23  O   UNL A   1      27.882  26.676  23.812  1.00  0.00    -0.273 OA
ATOM     24  N   UNL A   1      28.856  28.610  23.048  1.00  0.00    -0.335 N 
ATOM     25  C   UNL A   1      27.580  29.284  22.906  1.00  0.00     0.147 C 
ENDBRANCH  16  17
ENDBRANCH  11  16
ENDBRANCH   5   8
ENDBRANCH   3   4
ENDBRANCH   2   3
ENDBRANCH   1   2
BRANCH   1  26
ATOM     26  C   UNL A   1      37.429  21.399  24.427  1.00  0.00     0.002 C 
BRANCH  26  27
ATOM     27  C   UNL A   1      38.146  20.073  24.706  1.00  0.00     0.021 C 
BRANCH  27  28
ATOM     28  C   UNL A   1      38.918  20.013  26.024  1.00  0.00     0.116 C 
BRANCH  28  29
ATOM     29  N   UNL A   1      40.148  19.247  25.899  1.00  0.00    -0.352 N 
ATOM     30  C   UNL A   1      41.453  19.647  26.000  1.00  0.00     0.251 C 
ATOM     31  H   UNL A   1      40.023  18.288  25.711  1.00  0.00     0.163 HD
ATOM     32  O   UNL A   1      42.352  18.877  25.648  1.00  0.00    -0.269 OA
BRANCH  30  33
ATOM     33  C   UNL A   1      41.813  20.985  26.517  1.00  0.00     0.039 A 
ATOM     34  C   UNL A   1      41.798  21.193  27.900  1.00  0.00     0.014 A 
ATOM     35  C   UNL A   1      42.091  22.053  25.656  1.00  0.00     0.014 A 
ATOM     36  C   UNL A   1      42.101  22.453  28.422  1.00  0.00     0.010 A 
ATOM     37  C   UNL A   1      42.443  23.300  26.180  1.00  0.00     0.010 A 
ATOM     38  C   UNL A   1      42.446  23.513  27.566  1.00  0.00    -0.014 A 
BRANCH  38  39
ATOM     39  C   UNL A   1      42.811  24.841  28.122  1.00  0.00     0.031 A 
ATOM     40  C   UNL A   1      41.761  25.895  28.345  1.00  0.00     0.074 A 
ATOM     41  C   UNL A   1      44.100  25.105  28.410  1.00  0.00     0.049 A 
ATOM     42  N   UNL A   1      41.899  27.105  28.828  1.00  0.00    -0.248 NA
ATOM     43  C   UNL A   1      40.382  25.553  27.966  1.00  0.00     0.031 C 
ATOM     44  C   UNL A   1      45.220  24.183  28.210  1.00  0.00     0.029 A 
ATOM     45  N   UNL A   1      44.685  26.229  28.938  1.00  0.00    -0.354 N 
ATOM     46  C   UNL A   1      40.630  27.669  28.807  1.00  0.00     0.074 A 
ATOM     47  C   UNL A   1      39.741  26.685  28.225  1.00  0.00     0.031 C 
ATOM     48  C   UNL A   1      46.351  24.767  28.638  1.00  0.00     0.029 A 
ATOM     49  C   UNL A   1      46.041  26.111  29.116  1.00  0.00     0.049 A 
ATOM     50  H   UNL A   1      44.180  27.042  29.167  1.00  0.00     0.167 HD
ATOM     51  C   UNL A   1      40.234  28.886  29.250  1.00  0.00     0.031 A 
ATOM     52  C   UNL A   1      46.936  26.985  29.613  1.00  0.00     0.031 A 
ATOM     53  C   UNL A   1      41.109  29.866  29.836  1.00  0.00     0.049 A 
ATOM     54  C   UNL A   1      46.469  28.328  30.094  1.00  0.00     0.074 A 
ATOM     55  C   UNL A   1      40.790  31.116  30.340  1.00  0.00     0.029 A 
ATOM     56  N   UNL A   1      42.474  29.704  30.001  1.00  0.00    -0.354 N 
ATOM     57  N   UNL A   1      45.255  28.824  30.110  1.00  0.00    -0.248 NA
ATOM     58  C   UNL A   1      47.497  29.227  30.638  1.00  0.00     0.031 C 
ATOM     59  C   UNL A   1      41.970  31.725  30.782  1.00  0.00     0.029 A 
ATOM     60  C   UNL A   1      43.015  30.836  30.589  1.00  0.00     0.049 A 
ATOM     61  H   UNL A   1      42.985  28.905  29.739  1.00  0.00     0.167 HD
ATOM     62  C   UNL A   1      45.371  30.081  30.687  1.00  0.00     0.074 A 
ATOM     63  C   UNL A   1      46.768  30.265  31.024  1.00  0.00     0.031 C 
ATOM     64  C   UNL A   1      44.405  31.004  30.917  1.00  0.00     0.031 A 
BRANCH  51  65
ATOM     65  C   UNL A   1      38.775  29.227  29.123  1.00  0.00    -0.014 A 
ATOM     66  C   UNL A   1      37.890  29.006  30.190  1.00  0.00     0.009 A 
ATOM     67  C   UNL A   1      38.292  29.822  27.949  1.00  0.00     0.009 A 
ATOM     68  C   UNL A   1      36.543  29.352  30.073  1.00  0.00     0.001 A 
ATOM     69  C   UNL A   1      36.948  30.188  27.844  1.00  0.00     0.001 A 
ATOM     70  C   UNL A   1      36.075  29.947  28.903  1.00  0.00     0.000 A 
ENDBRANCH  51  65
BRANCH  52  71
ATOM     71  C   UNL A   1      48.371  26.613  29.705  1.00  0.00    -0.014 A 
ATOM     72  C   UNL A   1      49.241  26.865  28.632  1.00  0.00     0.009 A 
ATOM     73  C   UNL A   1      48.871  25.981  30.853  1.00  0.00     0.009 A 
ATOM     74  C   UNL A   1      50.576  26.462  28.696  1.00  0.00     0.001 A 
ATOM     75  C   UNL A   1      50.214  25.603  30.924  1.00  0.00     0.001 A 
ATOM     76  C   UNL A   1      51.062  25.833  29.842  1.00  0.00     0.000 A 
ENDBRANCH  52  71
BRANCH  64  77
ATOM     77  C   UNL A   1      44.829  32.278  31.587  1.00  0.00    -0.014 A 
ATOM     78  C   UNL A   1      45.226  33.396  30.836  1.00  0.00     0.009 A 
ATOM     79  C   UNL A   1      44.817  32.366  32.987  1.00  0.00     0.009 A 
ATOM     80  C   UNL A   1      45.640  34.564  31.476  1.00  0.00     0.001 A 
ATOM     81  C   UNL A   1      45.208  33.544  33.624  1.00  0.00     0.001 A 
ATOM     82  C   UNL A   1      45.628  34.638  32.869  1.00  0.00     0.000 A 
ENDBRANCH  64  77
ENDBRANCH  38  39
ENDBRANCH  30  33
ENDBRANCH  28  29
ENDBRANCH  27  28
ENDBRANCH  26  27
ENDBRANCH   1  26
TORSDOF 16
ENDMDL
MODEL 2
REMARK VINA RESULT:     -10.6      3.099      8.991
REMARK SMILES COc1ccc(C(=O)NCCCCCCNC(=O)c2ccc(-c3c4nc(c(-c5ccccc5)c5ccc([nH]5)c(-c5ccccc5)c5nc(c(-c6ccccc6)c6ccc3[nH]6)C=C5)C=C4)cc2)cc1CN1CC(=O)N(C)CC1=O
REMARK SMILES IDX 12 1 11 2 10 3 9 4 7 5 8 6 6 8 3 9 4 10 68 11 5 12 67 13
REMARK SMILES IDX 2 14 1 15 69 16 70 17 71 18 77 19 72 20 76 21 78 22 73 23
REMARK SMILES IDX 74 24 75 25 13 26 14 27 15 28 16 29 17 30 18 32 19 33 20 34
REMARK SMILES IDX 66 35 21 36 65 37 22 38 23 39 24 40 59 41 25 42 64 43 58 44
REMARK SMILES IDX 60 45 26 46 63 47 57 48 56 49 27 51 49 52 34 53 48 54 35 55
REMARK SMILES IDX 38 56 47 57 61 58 36 59 37 60 46 62 62 63 39 64 28 65 29 66
REMARK SMILES IDX 33 67 30 68 32 69 31 70 50 71 51 72 55 73 52 74 54 75 53 76
REMARK SMILES IDX 40 77 41 78 45 79 42 80 44 81 43 82
REMARK H PARENT 9 7 16 31 60 50 38 61
REMARK Flexibility Score: inf
ROOT
ATOM      1  C   UNL A   1      31.563  30.051  25.142  1.00  0.00     0.002 C 
ENDROOT
BRANCH   1   2
ATOM      2  C   UNL A   1      32.011  28.606  24.890  1.00  0.00     0.021 C 
BRANCH   2   3
ATOM      3  C   UNL A   1      33.519  28.462  24.661  1.00  0.00     0.116 C 
BRANCH   3   4
ATOM      4  N   UNL A   1      33.785  27.796  23.397  1.00  0.00    -0.352 N 
ATOM      5  C   UNL A   1      33.490  26.545  22.914  1.00  0.00     0.251 C 
ATOM      6  O   UNL A   1      33.799  26.304  21.746  1.00  0.00    -0.269 OA
ATOM      7  H   UNL A   1      34.280  28.356  22.756  1.00  0.00     0.163 HD
BRANCH   5   8
ATOM      8  C   UNL A   1      32.798  25.486  23.705  1.00  0.00     0.040 A 
ATOM      9  C   UNL A   1      31.365  23.528  25.129  1.00  0.00     0.123 A 
ATOM     10  C   UNL A   1      30.726  24.290  24.150  1.00  0.00     0.047 A 
ATOM     11  C   UNL A   1      32.730  23.689  25.381  1.00  0.00     0.014 A 
ATOM     12  C   UNL A   1      31.435  25.274  23.456  1.00  0.00     0.017 A 
ATOM     13  C   UNL A   1      33.434  24.658  24.633  1.00  0.00     0.023 A 
BRANCH   9  14
ATOM     14  O   UNL A   1      30.654  22.548  25.769  1.00  0.00    -0.496 OA
ATOM     15  C   UNL A   1      29.967  23.084  26.901  1.00  0.00     0.278 C 
ENDBRANCH   9  14
BRANCH  11  16
ATOM     16  C   UNL A   1      33.454  22.903  26.454  1.00  0.00     0.159 C 
BRANCH  16  17
ATOM     17  N   UNL A   1      33.827  21.574  25.993  1.00  0.00    -0.327 N 
ATOM     18  C   UNL A   1      32.882  20.492  26.213  1.00  0.00     0.220 C 
ATOM     19  C   UNL A   1      35.151  21.270  25.726  1.00  0.00     0.242 C 
ATOM     20  C   UNL A   1      33.064  19.235  25.362  1.00  0.00     0.242 C 
ATOM     21  C   UNL A   1      35.325  20.081  24.784  1.00  0.00     0.219 C 
ATOM     22  O   UNL A   1      36.085  22.034  25.966  1.00  0.00    -0.273 OA
ATOM     23  O   UNL A   1      32.176  18.385  25.303  1.00  0.00    -0.273 OA
ATOM     24  N   UNL A   1      34.342  19.014  24.872  1.00  0.00    -0.335 N 
ATOM     25  C   UNL A   1      34.645  17.771  24.190  1.00  0.00     0.147 C 
ENDBRANCH  16  17
ENDBRANCH  11  16
ENDBRANCH   5   8
ENDBRANCH   3   4
ENDBRANCH   2   3
ENDBRANCH   1   2
BRANCH   1  26
ATOM     26  C   UNL A   1      31.616  30.495  26.610  1.00  0.00     0.002 C 
BRANCH  26  27
ATOM     27  C   UNL A   1      31.360  31.985  26.865  1.00  0.00     0.021 C 
BRANCH  27  28
ATOM     28  C   UNL A   1      32.610  32.863  26.912  1.00  0.00     0.116 C 
BRANCH  28  29
ATOM     29  N   UNL A   1      32.423  34.028  27.763  1.00  0.00    -0.352 N 
ATOM     30  C   UNL A   1      33.146  34.461  28.842  1.00  0.00     0.251 C 
ATOM     31  H   UNL A   1      31.655  34.597  27.525  1.00  0.00     0.163 HD
ATOM     32  O   UNL A   1      32.691  35.361  29.555  1.00  0.00    -0.269 OA
BRANCH  30  33
ATOM     33  C   UNL A   1      34.458  33.869  29.179  1.00  0.00     0.039 A 
ATOM     34  C   UNL A   1      34.531  32.969  30.248  1.00  0.00     0.014 A 
ATOM     35  C   UNL A   1      35.627  34.245  28.507  1.00  0.00     0.014 A 
ATOM     36  C   UNL A   1      35.760  32.416  30.615  1.00  0.00     0.010 A 
ATOM     37  C   UNL A   1      36.847  33.652  28.841  1.00  0.00     0.010 A 
ATOM     38  C   UNL A   1      36.926  32.738  29.901  1.00  0.00    -0.014 A 
BRANCH  38  39
ATOM     39  C   UNL A   1      38.225  32.116  30.263  1.00  0.00     0.031 A 
ATOM     40  C   UNL A   1      39.156  32.789  31.234  1.00  0.00     0.074 A 
ATOM     41  C   UNL A   1      38.578  30.945  29.697  1.00  0.00     0.049 A 
ATOM     42  N   UNL A   1      40.324  32.387  31.668  1.00  0.00    -0.248 NA
ATOM     43  C   UNL A   1      38.726  34.087  31.778  1.00  0.00     0.031 C 
ATOM     44  C   UNL A   1      37.783  30.204  28.716  1.00  0.00     0.029 A 
ATOM     45  N   UNL A   1      39.697  30.170  29.872  1.00  0.00    -0.354 N 
ATOM     46  C   UNL A   1      40.771  33.381  32.531  1.00  0.00     0.074 A 
ATOM     47  C   UNL A   1      39.767  34.425  32.526  1.00  0.00     0.031 C 
ATOM     48  C   UNL A   1      38.425  29.068  28.398  1.00  0.00     0.029 A 
ATOM     49  C   UNL A   1      39.686  29.014  29.130  1.00  0.00     0.049 A 
ATOM     50  H   UNL A   1      40.437  30.419  30.471  1.00  0.00     0.167 HD
ATOM     51  C   UNL A   1      41.902  33.413  33.276  1.00  0.00     0.031 A 
ATOM     52  C   UNL A   1      40.589  28.018  29.052  1.00  0.00     0.031 A 
ATOM     53  C   UNL A   1      42.899  32.377  33.292  1.00  0.00     0.049 A 
ATOM     54  C   UNL A   1      41.835  28.083  29.887  1.00  0.00     0.074 A 
ATOM     55  C   UNL A   1      44.064  32.313  34.038  1.00  0.00     0.029 A 
ATOM     56  N   UNL A   1      42.847  31.222  32.529  1.00  0.00    -0.354 N 
ATOM     57  N   UNL A   1      42.215  29.009  30.734  1.00  0.00    -0.248 NA
ATOM     58  C   UNL A   1      42.770  26.956  29.764  1.00  0.00     0.031 C 
ATOM     59  C   UNL A   1      44.735  31.130  33.702  1.00  0.00     0.029 A 
ATOM     60  C   UNL A   1      43.965  30.443  32.779  1.00  0.00     0.049 A 
ATOM     61  H   UNL A   1      42.124  30.990  31.903  1.00  0.00     0.167 HD
ATOM     62  C   UNL A   1      43.420  28.564  31.261  1.00  0.00     0.074 A 
ATOM     63  C   UNL A   1      43.698  27.279  30.654  1.00  0.00     0.031 C 
ATOM     64  C   UNL A   1      44.227  29.168  32.167  1.00  0.00     0.031 A 
BRANCH  51  65
ATOM     65  C   UNL A   1      42.119  34.617  34.149  1.00  0.00    -0.014 A 
ATOM     66  C   UNL A   1      41.547  34.690  35.429  1.00  0.00     0.009 A 
ATOM     67  C   UNL A   1      42.946  35.664  33.711  1.00  0.00     0.009 A 
ATOM     68  C   UNL A   1      41.779  35.799  36.244  1.00  0.00     0.001 A 
ATOM     69  C   UNL A   1      43.193  36.761  34.538  1.00  0.00     0.001 A 
ATOM     70  C   UNL A   1      42.605  36.831  35.800  1.00  0.00     0.000 A 
ENDBRANCH  51  65
BRANCH  52  71
ATOM     71  C   UNL A   1      40.341  26.854  28.164  1.00  0.00    -0.014 A 
ATOM     72  C   UNL A   1      39.634  25.737  28.637  1.00  0.00     0.009 A 
ATOM     73  C   UNL A   1      40.832  26.843  26.850  1.00  0.00     0.009 A 
ATOM     74  C   UNL A   1      39.452  24.619  27.821  1.00  0.00     0.001 A 
ATOM     75  C   UNL A   1      40.625  25.734  26.027  1.00  0.00     0.001 A 
ATOM     76  C   UNL A   1      39.946  24.619  26.517  1.00  0.00     0.000 A 
ENDBRANCH  52  71
BRANCH  64  77
ATOM     77  C   UNL A   1      45.468  28.427  32.571  1.00  0.00    -0.014 A 
ATOM     78  C   UNL A   1      45.455  27.522  33.645  1.00  0.00     0.009 A 
ATOM     79  C   UNL A   1      46.661  28.625  31.861  1.00  0.00     0.009 A 
ATOM     80  C   UNL A   1      46.624  26.859  34.022  1.00  0.00     0.001 A 
ATOM     81  C   UNL A   1      47.822  27.943  32.225  1.00  0.00     0.001 A 
ATOM     82  C   UNL A   1      47.805  27.069  33.311  1.00  0.00     0.000 A 
ENDBRANCH  64  77
ENDBRANCH  38  39
ENDBRANCH  30  33
ENDBRANCH  28  29
ENDBRANCH  27  28
ENDBRANCH  26  27
ENDBRANCH   1  26
TORSDOF 16
ENDMDL
MODEL 3
REMARK VINA RESULT:     -10.5      4.711      9.593
REMARK SMILES COc1ccc(C(=O)NCCCCCCNC(=O)c2ccc(-c3c4nc(c(-c5ccccc5)c5ccc([nH]5)c(-c5ccccc5)c5nc(c(-c6ccccc6)c6ccc3[nH]6)C=C5)C=C4)cc2)cc1CN1CC(=O)N(C)CC1=O
REMARK SMILES IDX 12 1 11 2 10 3 9 4 7 5 8 6 6 8 3 9 4 10 68 11 5 12 67 13
REMARK SMILES IDX 2 14 1 15 69 16 70 17 71 18 77 19 72 20 76 21 78 22 73 23
REMARK SMILES IDX 74 24 75 25 13 26 14 27 15 28 16 29 17 30 18 32 19 33 20 34
REMARK SMILES IDX 66 35 21 36 65 37 22 38 23 39 24 40 59 41 25 42 64 43 58 44
REMARK SMILES IDX 60 45 26 46 63 47 57 48 56 49 27 51 49 52 34 53 48 54 35 55
REMARK SMILES IDX 38 56 47 57 61 58 36 59 37 60 46 62 62 63 39 64 28 65 29 66
REMARK SMILES IDX 33 67 30 68 32 69 31 70 50 71 51 72 55 73 52 74 54 75 53 76
REMARK SMILES IDX 40 77 41 78 45 79 42 80 44 81 43 82
REMARK H PARENT 9 7 16 31 60 50 38 61
REMARK Flexibility Score: inf
ROOT
ATOM      1  C   UNL A   1      34.883  32.381  27.884  1.00  0.00     0.002 C 
ENDROOT
BRANCH   1   2
ATOM      2  C   UNL A   1      34.834  30.860  28.072  1.00  0.00     0.021 C 
BRANCH   2   3
ATOM      3  C   UNL A   1      33.980  30.139  27.023  1.00  0.00     0.116 C 
BRANCH   3   4
ATOM      4  N   UNL A   1      32.836  29.495  27.646  1.00  0.00    -0.352 N 
ATOM      5  C   UNL A   1      32.092  28.387  27.324  1.00  0.00     0.251 C 
ATOM      6  O   UNL A   1      31.208  28.051  28.113  1.00  0.00    -0.269 OA
ATOM      7  H   UNL A   1      32.530  29.946  28.465  1.00  0.00     0.163 HD
BRANCH   5   8
ATOM      8  C   UNL A   1      32.312  27.558  26.102  1.00  0.00     0.040 A 
ATOM      9  C   UNL A   1      32.850  25.941  23.863  1.00  0.00     0.123 A 
ATOM     10  C   UNL A   1      33.644  25.841  25.007  1.00  0.00     0.047 A 
ATOM     11  C   UNL A   1      31.752  26.805  23.830  1.00  0.00     0.014 A 
ATOM     12  C   UNL A   1      33.387  26.658  26.112  1.00  0.00     0.017 A 
ATOM     13  C   UNL A   1      31.485  27.585  24.977  1.00  0.00     0.023 A 
BRANCH   9  14
ATOM     14  O   UNL A   1      33.106  25.105  22.809  1.00  0.00    -0.496 OA
ATOM     15  C   UNL A   1      32.796  23.754  23.152  1.00  0.00     0.278 C 
ENDBRANCH   9  14
BRANCH  11  16
ATOM     16  C   UNL A   1      30.884  26.965  22.599  1.00  0.00     0.159 C 
BRANCH  16  17
ATOM     17  N   UNL A   1      30.021  28.132  22.694  1.00  0.00    -0.327 N 
ATOM     18  C   UNL A   1      28.584  27.911  22.697  1.00  0.00     0.220 C 
ATOM     19  C   UNL A   1      30.508  29.392  22.394  1.00  0.00     0.242 C 
ATOM     20  C   UNL A   1      27.713  29.050  23.230  1.00  0.00     0.242 C 
ATOM     21  C   UNL A   1      29.700  30.524  23.023  1.00  0.00     0.219 C 
ATOM     22  O   UNL A   1      31.630  29.593  21.929  1.00  0.00    -0.273 OA
ATOM     23  O   UNL A   1      26.528  28.858  23.500  1.00  0.00    -0.273 OA
ATOM     24  N   UNL A   1      28.268  30.318  23.164  1.00  0.00    -0.335 N 
ATOM     25  C   UNL A   1      27.458  31.474  23.498  1.00  0.00     0.147 C 
ENDBRANCH  16  17
ENDBRANCH  11  16
ENDBRANCH   5   8
ENDBRANCH   3   4
ENDBRANCH   2   3
ENDBRANCH   1   2
BRANCH   1  26
ATOM     26  C   UNL A   1      34.260  33.191  29.029  1.00  0.00     0.002 C 
BRANCH  26  27
ATOM     27  C   UNL A   1      33.238  34.256  28.613  1.00  0.00     0.021 C 
BRANCH  27  28
ATOM     28  C   UNL A   1      33.462  35.645  29.210  1.00  0.00     0.116 C 
BRANCH  28  29
ATOM     29  N   UNL A   1      32.664  35.856  30.408  1.00  0.00    -0.352 N 
ATOM     30  C   UNL A   1      32.829  35.370  31.677  1.00  0.00     0.251 C 
ATOM     31  H   UNL A   1      31.881  36.441  30.288  1.00  0.00     0.163 HD
ATOM     32  O   UNL A   1      31.917  35.500  32.499  1.00  0.00    -0.269 OA
BRANCH  30  33
ATOM     33  C   UNL A   1      34.074  34.685  32.086  1.00  0.00     0.039 A 
ATOM     34  C   UNL A   1      33.988  33.375  32.571  1.00  0.00     0.014 A 
ATOM     35  C   UNL A   1      35.311  35.339  32.068  1.00  0.00     0.014 A 
ATOM     36  C   UNL A   1      35.140  32.709  32.996  1.00  0.00     0.010 A 
ATOM     37  C   UNL A   1      36.469  34.655  32.445  1.00  0.00     0.010 A 
ATOM     38  C   UNL A   1      36.394  33.337  32.918  1.00  0.00    -0.014 A 
BRANCH  38  39
ATOM     39  C   UNL A   1      37.625  32.614  33.328  1.00  0.00     0.031 A 
ATOM     40  C   UNL A   1      38.216  31.545  32.451  1.00  0.00     0.074 A 
ATOM     41  C   UNL A   1      38.203  32.910  34.509  1.00  0.00     0.049 A 
ATOM     42  N   UNL A   1      39.288  30.818  32.647  1.00  0.00    -0.248 NA
ATOM     43  C   UNL A   1      37.507  31.244  31.197  1.00  0.00     0.031 C 
ATOM     44  C   UNL A   1      37.713  33.901  35.468  1.00  0.00     0.029 A 
ATOM     45  N   UNL A   1      39.334  32.405  35.100  1.00  0.00    -0.354 N 
ATOM     46  C   UNL A   1      39.380  29.973  31.549  1.00  0.00     0.074 A 
ATOM     47  C   UNL A   1      38.232  30.247  30.709  1.00  0.00     0.031 C 
ATOM     48  C   UNL A   1      38.554  33.953  36.514  1.00  0.00     0.029 A 
ATOM     49  C   UNL A   1      39.625  32.983  36.311  1.00  0.00     0.049 A 
ATOM     50  H   UNL A   1      39.884  31.697  34.695  1.00  0.00     0.167 HD
ATOM     51  C   UNL A   1      40.341  29.065  31.254  1.00  0.00     0.031 A 
ATOM     52  C   UNL A   1      40.644  32.761  37.163  1.00  0.00     0.031 A 
ATOM     53  C   UNL A   1      41.487  28.792  32.078  1.00  0.00     0.049 A 
ATOM     54  C   UNL A   1      41.693  31.747  36.810  1.00  0.00     0.074 A 
ATOM     55  C   UNL A   1      42.528  27.909  31.844  1.00  0.00     0.029 A 
ATOM     56  N   UNL A   1      41.746  29.402  33.295  1.00  0.00    -0.354 N 
ATOM     57  N   UNL A   1      41.788  30.992  35.743  1.00  0.00    -0.248 NA
ATOM     58  C   UNL A   1      42.785  31.564  37.778  1.00  0.00     0.031 C 
ATOM     59  C   UNL A   1      43.402  27.962  32.937  1.00  0.00     0.029 A 
ATOM     60  C   UNL A   1      42.924  28.908  33.829  1.00  0.00     0.049 A 
ATOM     61  H   UNL A   1      41.177  30.085  33.717  1.00  0.00     0.167 HD
ATOM     62  C   UNL A   1      42.960  30.265  35.899  1.00  0.00     0.074 A 
ATOM     63  C   UNL A   1      43.551  30.681  37.154  1.00  0.00     0.031 C 
ATOM     64  C   UNL A   1      43.499  29.332  35.077  1.00  0.00     0.031 A 
BRANCH  51  65
ATOM     65  C   UNL A   1      40.196  28.298  29.969  1.00  0.00    -0.014 A 
ATOM     66  C   UNL A   1      40.789  28.762  28.784  1.00  0.00     0.009 A 
ATOM     67  C   UNL A   1      39.507  27.076  29.954  1.00  0.00     0.009 A 
ATOM     68  C   UNL A   1      40.673  28.028  27.603  1.00  0.00     0.001 A 
ATOM     69  C   UNL A   1      39.413  26.333  28.775  1.00  0.00     0.001 A 
ATOM     70  C   UNL A   1      39.990  26.812  27.600  1.00  0.00     0.000 A 
ENDBRANCH  51  65
BRANCH  52  71
ATOM     71  C   UNL A   1      40.740  33.531  38.430  1.00  0.00    -0.014 A 
ATOM     72  C   UNL A   1      40.119  33.057  39.596  1.00  0.00     0.009 A 
ATOM     73  C   UNL A   1      41.428  34.752  38.471  1.00  0.00     0.009 A 
ATOM     74  C   UNL A   1      40.160  33.809  40.772  1.00  0.00     0.001 A 
ATOM     75  C   UNL A   1      41.489  35.489  39.655  1.00  0.00     0.001 A 
ATOM     76  C   UNL A   1      40.846  35.024  40.801  1.00  0.00     0.000 A 
ENDBRANCH  52  71
BRANCH  64  77
ATOM     77  C   UNL A   1      44.804  28.725  35.501  1.00  0.00    -0.014 A 
ATOM     78  C   UNL A   1      46.028  29.306  35.133  1.00  0.00     0.009 A 
ATOM     79  C   UNL A   1      44.810  27.566  36.292  1.00  0.00     0.009 A 
ATOM     80  C   UNL A   1      47.232  28.715  35.516  1.00  0.00     0.001 A 
ATOM     81  C   UNL A   1      46.016  26.991  36.694  1.00  0.00     0.001 A 
ATOM     82  C   UNL A   1      47.225  27.560  36.298  1.00  0.00     0.000 A 
ENDBRANCH  64  77
ENDBRANCH  38  39
ENDBRANCH  30  33
ENDBRANCH  28  29
ENDBRANCH  27  28
ENDBRANCH  26  27
ENDBRANCH   1  26
TORSDOF 16
ENDMDL
