MODEL 1
REMARK VINA RESULT:     -11.8      0.000      0.000
REMARK SMILES O=C(NCCCCCCNC(=O)c1ccc2c(=O)[nH]c(N3CC[NH2+]CC3)nc2c1)c1ccc(-c2c3nc(c(-c4ccccc4)c4ccc([nH]4)c(-c4ccccc4)c4nc(c(-c5ccccc5)c5ccc2[nH]5)C=C4)C=C3)cc1
REMARK SMILES IDX 6 1 5 2 4 3 3 4 1 5 2 6 30 8 31 9 77 10 32 11 76 12 33 13
REMARK SMILES IDX 34 14 35 15 70 16 36 17 75 18 69 19 71 20 37 21 74 22 68 23
REMARK SMILES IDX 67 24 38 26 60 27 45 28 59 29 46 30 49 31 58 32 72 33 47 34
REMARK SMILES IDX 48 35 57 37 73 38 50 39 39 40 40 41 44 42 41 43 43 44 42 45
REMARK SMILES IDX 61 46 62 47 66 48 63 49 65 50 64 51 51 52 52 53 56 54 53 55
REMARK SMILES IDX 55 56 54 57 7 58 8 59 9 60 10 61 11 62 12 64 13 65 14 66
REMARK SMILES IDX 29 67 15 68 28 69 16 70 27 71 17 72 20 73 18 74 19 75 21 77
REMARK SMILES IDX 22 78 26 79 23 80 25 81 24 82
REMARK H PARENT 3 7 71 25 49 36 10 63 19 76 24 83 24 84
REMARK Flexibility Score: inf
ROOT
ATOM      1  C   UNL A   1      32.307  28.970  25.080  1.00  0.00     0.002 C 
ENDROOT
BRANCH   1   2
ATOM      2  C   UNL A   1      32.386  28.297  26.449  1.00  0.00     0.021 C 
BRANCH   2   3
ATOM      3  C   UNL A   1      33.613  28.661  27.273  1.00  0.00     0.116 C 
BRANCH   3   4
ATOM      4  N   UNL A   1      33.629  30.057  27.680  1.00  0.00    -0.352 N 
ATOM      5  O   UNL A   1      34.428  31.916  28.686  1.00  0.00    -0.269 OA
ATOM      6  C   UNL A   1      34.635  30.777  28.280  1.00  0.00     0.251 C 
ATOM      7  H   UNL A   1      32.801  30.558  27.501  1.00  0.00     0.163 HD
BRANCH   6   8
ATOM      8  C   UNL A   1      35.965  30.157  28.468  1.00  0.00     0.039 A 
ATOM      9  C   UNL A   1      36.305  29.558  29.681  1.00  0.00     0.014 A 
ATOM     10  C   UNL A   1      36.893  30.201  27.423  1.00  0.00     0.014 A 
ATOM     11  C   UNL A   1      37.618  29.165  29.911  1.00  0.00     0.010 A 
ATOM     12  C   UNL A   1      38.187  29.708  27.622  1.00  0.00     0.010 A 
ATOM     13  C   UNL A   1      38.573  29.227  28.883  1.00  0.00    -0.014 A 
BRANCH  13  14
ATOM     14  C   UNL A   1      39.953  28.746  29.150  1.00  0.00     0.031 A 
ATOM     15  C   UNL A   1      40.411  27.384  28.699  1.00  0.00     0.074 A 
ATOM     16  C   UNL A   1      40.818  29.574  29.768  1.00  0.00     0.049 A 
ATOM     17  N   UNL A   1      41.600  26.842  28.796  1.00  0.00    -0.248 NA
ATOM     18  C   UNL A   1      39.408  26.514  28.065  1.00  0.00     0.031 C 
ATOM     19  C   UNL A   1      40.496  30.917  30.257  1.00  0.00     0.029 A 
ATOM     20  N   UNL A   1      42.148  29.425  30.062  1.00  0.00    -0.354 N 
ATOM     21  C   UNL A   1      41.482  25.564  28.263  1.00  0.00     0.074 A 
ATOM     22  C   UNL A   1      40.101  25.401  27.865  1.00  0.00     0.031 C 
ATOM     23  C   UNL A   1      41.611  31.494  30.726  1.00  0.00     0.029 A 
ATOM     24  C   UNL A   1      42.709  30.540  30.636  1.00  0.00     0.049 A 
ATOM     25  H   UNL A   1      42.653  28.600  29.880  1.00  0.00     0.167 HD
ATOM     26  C   UNL A   1      42.438  24.614  28.117  1.00  0.00     0.031 A 
ATOM     27  C   UNL A   1      43.966  30.771  31.056  1.00  0.00     0.031 A 
ATOM     28  C   UNL A   1      43.815  24.780  28.509  1.00  0.00     0.049 A 
ATOM     29  C   UNL A   1      44.996  29.691  30.907  1.00  0.00     0.074 A 
ATOM     30  C   UNL A   1      44.867  23.890  28.362  1.00  0.00     0.029 A 
ATOM     31  N   UNL A   1      44.330  25.905  29.134  1.00  0.00    -0.354 N 
ATOM     32  N   UNL A   1      44.876  28.506  30.360  1.00  0.00    -0.248 NA
ATOM     33  C   UNL A   1      46.335  29.985  31.432  1.00  0.00     0.031 C 
ATOM     34  C   UNL A   1      46.004  24.454  28.951  1.00  0.00     0.029 A 
ATOM     35  C   UNL A   1      45.676  25.720  29.406  1.00  0.00     0.049 A 
ATOM     36  H   UNL A   1      43.815  26.714  29.353  1.00  0.00     0.167 HD
ATOM     37  C   UNL A   1      46.131  27.921  30.452  1.00  0.00     0.074 A 
ATOM     38  C   UNL A   1      47.000  28.890  31.089  1.00  0.00     0.031 C 
ATOM     39  C   UNL A   1      46.529  26.691  30.044  1.00  0.00     0.031 A 
BRANCH  26  40
ATOM     40  C   UNL A   1      42.021  23.288  27.537  1.00  0.00    -0.014 A 
ATOM     41  C   UNL A   1      42.198  22.991  26.177  1.00  0.00     0.009 A 
ATOM     42  C   UNL A   1      41.481  22.303  28.380  1.00  0.00     0.009 A 
ATOM     43  C   UNL A   1      41.808  21.750  25.667  1.00  0.00     0.001 A 
ATOM     44  C   UNL A   1      41.120  21.053  27.873  1.00  0.00     0.001 A 
ATOM     45  C   UNL A   1      41.274  20.780  26.515  1.00  0.00     0.000 A 
ENDBRANCH  26  40
BRANCH  27  46
ATOM     46  C   UNL A   1      44.317  32.084  31.657  1.00  0.00    -0.014 A 
ATOM     47  C   UNL A   1      44.186  32.295  33.038  1.00  0.00     0.009 A 
ATOM     48  C   UNL A   1      44.792  33.132  30.852  1.00  0.00     0.009 A 
ATOM     49  C   UNL A   1      44.500  33.536  33.596  1.00  0.00     0.001 A 
ATOM     50  C   UNL A   1      45.136  34.361  31.417  1.00  0.00     0.001 A 
ATOM     51  C   UNL A   1      44.980  34.565  32.787  1.00  0.00     0.000 A 
ENDBRANCH  27  46
BRANCH  39  52
ATOM     52  C   UNL A   1      47.978  26.344  30.240  1.00  0.00    -0.014 A 
ATOM     53  C   UNL A   1      48.926  26.556  29.227  1.00  0.00     0.009 A 
ATOM     54  C   UNL A   1      48.401  25.807  31.466  1.00  0.00     0.009 A 
ATOM     55  C   UNL A   1      50.260  26.196  29.424  1.00  0.00     0.001 A 
ATOM     56  C   UNL A   1      49.741  25.479  31.671  1.00  0.00     0.001 A 
ATOM     57  C   UNL A   1      50.668  25.662  30.646  1.00  0.00     0.000 A 
ENDBRANCH  39  52
ENDBRANCH  13  14
ENDBRANCH   6   8
ENDBRANCH   3   4
ENDBRANCH   2   3
ENDBRANCH   1   2
BRANCH   1  58
ATOM     58  C   UNL A   1      31.159  28.500  24.182  1.00  0.00     0.002 C 
BRANCH  58  59
ATOM     59  C   UNL A   1      30.570  27.126  24.523  1.00  0.00     0.021 C 
BRANCH  59  60
ATOM     60  C   UNL A   1      30.605  26.108  23.387  1.00  0.00     0.116 C 
BRANCH  60  61
ATOM     61  N   UNL A   1      31.789  26.261  22.560  1.00  0.00    -0.352 N 
ATOM     62  C   UNL A   1      33.039  25.726  22.738  1.00  0.00     0.251 C 
ATOM     63  H   UNL A   1      31.679  26.828  21.762  1.00  0.00     0.163 HD
ATOM     64  O   UNL A   1      33.983  26.095  22.049  1.00  0.00    -0.269 OA
BRANCH  62  65
ATOM     65  C   UNL A   1      33.242  24.693  23.772  1.00  0.00     0.041 A 
ATOM     66  C   UNL A   1      33.608  25.065  25.073  1.00  0.00     0.015 A 
ATOM     67  C   UNL A   1      33.033  23.350  23.440  1.00  0.00     0.043 A 
ATOM     68  C   UNL A   1      33.822  24.082  26.032  1.00  0.00     0.017 A 
ATOM     69  C   UNL A   1      33.235  22.357  24.398  1.00  0.00     0.081 A 
ATOM     70  C   UNL A   1      33.632  22.742  25.683  1.00  0.00     0.066 A 
ATOM     71  N   UNL A   1      33.018  21.013  24.047  1.00  0.00    -0.214 NA
ATOM     72  C   UNL A   1      33.820  21.678  26.678  1.00  0.00     0.260 A 
ATOM     73  C   UNL A   1      33.104  20.109  24.973  1.00  0.00     0.206 A 
ATOM     74  O   UNL A   1      34.253  21.900  27.797  1.00  0.00    -0.269 OA
ATOM     75  N   UNL A   1      33.483  20.422  26.251  1.00  0.00    -0.292 N 
ATOM     76  H   UNL A   1      33.514  19.691  26.911  1.00  0.00     0.173 HD
BRANCH  73  77
ATOM     77  N   UNL A   1      32.867  18.783  24.747  1.00  0.00    -0.331 N 
ATOM     78  C   UNL A   1      32.615  18.263  23.403  1.00  0.00     0.181 C 
ATOM     79  C   UNL A   1      32.556  17.839  25.824  1.00  0.00     0.181 C 
ATOM     80  C   UNL A   1      33.397  16.938  23.225  1.00  0.00     0.282 C 
ATOM     81  C   UNL A   1      33.326  16.523  25.604  1.00  0.00     0.282 C 
ATOM     82  N   UNL A   1      33.107  15.928  24.269  1.00  0.00    -0.343 N 
ATOM     83  H   UNL A   1      33.726  15.126  24.148  1.00  0.00     0.346 HD
ATOM     84  H   UNL A   1      32.137  15.622  24.188  1.00  0.00     0.346 HD
ENDBRANCH  73  77
ENDBRANCH  62  65
ENDBRANCH  60  61
ENDBRANCH  59  60
ENDBRANCH  58  59
ENDBRANCH   1  58
TORSDOF 14
ENDMDL
MODEL 2
REMARK VINA RESULT:     -11.7      2.735      8.509
REMARK SMILES O=C(NCCCCCCNC(=O)c1ccc2c(=O)[nH]c(N3CC[NH2+]CC3)nc2c1)c1ccc(-c2c3nc(c(-c4ccccc4)c4ccc([nH]4)c(-c4ccccc4)c4nc(c(-c5ccccc5)c5ccc2[nH]5)C=C4)C=C3)cc1
REMARK SMILES IDX 6 1 5 2 4 3 3 4 1 5 2 6 30 8 31 9 77 10 32 11 76 12 33 13
REMARK SMILES IDX 34 14 35 15 70 16 36 17 75 18 69 19 71 20 37 21 74 22 68 23
REMARK SMILES IDX 67 24 38 26 60 27 45 28 59 29 46 30 49 31 58 32 72 33 47 34
REMARK SMILES IDX 48 35 57 37 73 38 50 39 39 40 40 41 44 42 41 43 43 44 42 45
REMARK SMILES IDX 61 46 62 47 66 48 63 49 65 50 64 51 51 52 52 53 56 54 53 55
REMARK SMILES IDX 55 56 54 57 7 58 8 59 9 60 10 61 11 62 12 64 13 65 14 66
REMARK SMILES IDX 29 67 15 68 28 69 16 70 27 71 17 72 20 73 18 74 19 75 21 77
REMARK SMILES IDX 22 78 26 79 23 80 25 81 24 82
REMARK H PARENT 3 7 71 25 49 36 10 63 19 76 24 83 24 84
REMARK Flexibility Score: inf
ROOT
ATOM      1  C   UNL A   1      35.049  23.572  23.847  1.00  0.00     0.002 C 
ENDROOT
BRANCH   1   2
ATOM      2  C   UNL A   1      36.549  23.293  23.912  1.00  0.00     0.021 C 
BRANCH   2   3
ATOM      3  C   UNL A   1      37.191  23.545  25.269  1.00  0.00     0.116 C 
BRANCH   3   4
ATOM      4  N   UNL A   1      38.330  22.678  25.528  1.00  0.00    -0.352 N 
ATOM      5  O   UNL A   1      40.429  22.148  26.175  1.00  0.00    -0.269 OA
ATOM      6  C   UNL A   1      39.513  22.964  26.169  1.00  0.00     0.251 C 
ATOM      7  H   UNL A   1      38.241  21.755  25.197  1.00  0.00     0.163 HD
BRANCH   6   8
ATOM      8  C   UNL A   1      39.690  24.278  26.823  1.00  0.00     0.039 A 
ATOM      9  C   UNL A   1      40.348  25.317  26.164  1.00  0.00     0.014 A 
ATOM     10  C   UNL A   1      39.215  24.464  28.125  1.00  0.00     0.014 A 
ATOM     11  C   UNL A   1      40.686  26.470  26.861  1.00  0.00     0.010 A 
ATOM     12  C   UNL A   1      39.465  25.667  28.790  1.00  0.00     0.010 A 
ATOM     13  C   UNL A   1      40.243  26.664  28.179  1.00  0.00    -0.014 A 
BRANCH  13  14
ATOM     14  C   UNL A   1      40.577  27.934  28.874  1.00  0.00     0.031 A 
ATOM     15  C   UNL A   1      39.565  29.040  29.019  1.00  0.00     0.074 A 
ATOM     16  C   UNL A   1      41.800  28.069  29.423  1.00  0.00     0.049 A 
ATOM     17  N   UNL A   1      39.678  30.180  29.654  1.00  0.00    -0.248 NA
ATOM     18  C   UNL A   1      38.261  28.847  28.365  1.00  0.00     0.031 C 
ATOM     19  C   UNL A   1      42.871  27.071  29.349  1.00  0.00     0.029 A 
ATOM     20  N   UNL A   1      42.340  29.078  30.176  1.00  0.00    -0.354 N 
ATOM     21  C   UNL A   1      38.477  30.851  29.453  1.00  0.00     0.074 A 
ATOM     22  C   UNL A   1      37.657  30.000  28.618  1.00  0.00     0.031 C 
ATOM     23  C   UNL A   1      43.911  27.486  30.085  1.00  0.00     0.029 A 
ATOM     24  C   UNL A   1      43.610  28.807  30.624  1.00  0.00     0.049 A 
ATOM     25  H   UNL A   1      41.865  29.916  30.378  1.00  0.00     0.167 HD
ATOM     26  C   UNL A   1      38.093  32.063  29.922  1.00  0.00     0.031 A 
ATOM     27  C   UNL A   1      44.449  29.541  31.376  1.00  0.00     0.031 A 
ATOM     28  C   UNL A   1      38.909  32.907  30.757  1.00  0.00     0.049 A 
ATOM     29  C   UNL A   1      44.007  30.890  31.858  1.00  0.00     0.074 A 
ATOM     30  C   UNL A   1      38.590  34.133  31.318  1.00  0.00     0.029 A 
ATOM     31  N   UNL A   1      40.208  32.618  31.145  1.00  0.00    -0.354 N 
ATOM     32  N   UNL A   1      42.851  31.487  31.695  1.00  0.00    -0.248 NA
ATOM     33  C   UNL A   1      44.986  31.664  32.631  1.00  0.00     0.031 C 
ATOM     34  C   UNL A   1      39.717  34.612  31.995  1.00  0.00     0.029 A 
ATOM     35  C   UNL A   1      40.716  33.656  31.911  1.00  0.00     0.049 A 
ATOM     36  H   UNL A   1      40.698  31.798  30.909  1.00  0.00     0.167 HD
ATOM     37  C   UNL A   1      42.956  32.698  32.367  1.00  0.00     0.074 A 
ATOM     38  C   UNL A   1      44.279  32.739  32.954  1.00  0.00     0.031 C 
ATOM     39  C   UNL A   1      42.036  33.686  32.486  1.00  0.00     0.031 A 
BRANCH  26  40
ATOM     40  C   UNL A   1      36.736  32.571  29.513  1.00  0.00    -0.014 A 
ATOM     41  C   UNL A   1      36.544  33.272  28.311  1.00  0.00     0.009 A 
ATOM     42  C   UNL A   1      35.621  32.306  30.326  1.00  0.00     0.009 A 
ATOM     43  C   UNL A   1      35.272  33.727  27.953  1.00  0.00     0.001 A 
ATOM     44  C   UNL A   1      34.347  32.736  29.950  1.00  0.00     0.001 A 
ATOM     45  C   UNL A   1      34.175  33.455  28.769  1.00  0.00     0.000 A 
ENDBRANCH  26  40
BRANCH  27  46
ATOM     46  C   UNL A   1      45.793  29.010  31.721  1.00  0.00    -0.014 A 
ATOM     47  C   UNL A   1      45.986  28.258  32.890  1.00  0.00     0.009 A 
ATOM     48  C   UNL A   1      46.891  29.246  30.878  1.00  0.00     0.009 A 
ATOM     49  C   UNL A   1      47.255  27.777  33.219  1.00  0.00     0.001 A 
ATOM     50  C   UNL A   1      48.151  28.736  31.192  1.00  0.00     0.001 A 
ATOM     51  C   UNL A   1      48.334  28.011  32.368  1.00  0.00     0.000 A 
ENDBRANCH  27  46
BRANCH  39  52
ATOM     52  C   UNL A   1      42.421  34.877  33.318  1.00  0.00    -0.014 A 
ATOM     53  C   UNL A   1      43.066  35.989  32.754  1.00  0.00     0.009 A 
ATOM     54  C   UNL A   1      42.122  34.887  34.690  1.00  0.00     0.009 A 
ATOM     55  C   UNL A   1      43.441  37.068  33.556  1.00  0.00     0.001 A 
ATOM     56  C   UNL A   1      42.469  35.982  35.482  1.00  0.00     0.001 A 
ATOM     57  C   UNL A   1      43.139  37.066  34.918  1.00  0.00     0.000 A 
ENDBRANCH  39  52
ENDBRANCH  13  14
ENDBRANCH   6   8
ENDBRANCH   3   4
ENDBRANCH   2   3
ENDBRANCH   1   2
BRANCH   1  58
ATOM     58  C   UNL A   1      34.159  22.553  24.564  1.00  0.00     0.002 C 
BRANCH  58  59
ATOM     59  C   UNL A   1      32.965  22.031  23.757  1.00  0.00     0.021 C 
BRANCH  59  60
ATOM     60  C   UNL A   1      31.693  22.868  23.870  1.00  0.00     0.116 C 
BRANCH  60  61
ATOM     61  N   UNL A   1      31.089  22.757  25.186  1.00  0.00    -0.352 N 
ATOM     62  C   UNL A   1      31.045  23.686  26.194  1.00  0.00     0.251 C 
ATOM     63  H   UNL A   1      30.652  21.897  25.382  1.00  0.00     0.163 HD
ATOM     64  O   UNL A   1      30.655  23.378  27.314  1.00  0.00    -0.269 OA
BRANCH  62  65
ATOM     65  C   UNL A   1      31.475  25.071  25.919  1.00  0.00     0.041 A 
ATOM     66  C   UNL A   1      32.748  25.503  26.315  1.00  0.00     0.015 A 
ATOM     67  C   UNL A   1      30.605  25.927  25.234  1.00  0.00     0.043 A 
ATOM     68  C   UNL A   1      33.131  26.817  26.074  1.00  0.00     0.017 A 
ATOM     69  C   UNL A   1      30.985  27.244  24.979  1.00  0.00     0.081 A 
ATOM     70  C   UNL A   1      32.246  27.670  25.409  1.00  0.00     0.066 A 
ATOM     71  N   UNL A   1      30.100  28.090  24.286  1.00  0.00    -0.214 NA
ATOM     72  C   UNL A   1      32.628  29.056  25.111  1.00  0.00     0.260 A 
ATOM     73  C   UNL A   1      30.505  29.278  23.960  1.00  0.00     0.206 A 
ATOM     74  O   UNL A   1      33.665  29.551  25.522  1.00  0.00    -0.269 OA
ATOM     75  N   UNL A   1      31.730  29.752  24.346  1.00  0.00    -0.292 N 
ATOM     76  H   UNL A   1      31.984  30.657  24.053  1.00  0.00     0.173 HD
BRANCH  73  77
ATOM     77  N   UNL A   1      29.741  30.159  23.249  1.00  0.00    -0.331 N 
ATOM     78  C   UNL A   1      29.672  30.116  21.788  1.00  0.00     0.181 C 
ATOM     79  C   UNL A   1      29.177  31.375  23.841  1.00  0.00     0.181 C 
ATOM     80  C   UNL A   1      28.199  30.316  21.352  1.00  0.00     0.282 C 
ATOM     81  C   UNL A   1      27.723  31.561  23.367  1.00  0.00     0.282 C 
ATOM     82  N   UNL A   1      27.576  31.545  21.896  1.00  0.00    -0.343 N 
ATOM     83  H   UNL A   1      26.585  31.560  21.653  1.00  0.00     0.346 HD
ATOM     84  H   UNL A   1      28.035  32.365  21.499  1.00  0.00     0.346 HD
ENDBRANCH  73  77
ENDBRANCH  62  65
ENDBRANCH  60  61
ENDBRANCH  59  60
ENDBRANCH  58  59
ENDBRANCH   1  58
TORSDOF 14
ENDMDL
MODEL 3
REMARK VINA RESULT:     -11.5      0.618      5.856
REMARK SMILES O=C(NCCCCCCNC(=O)c1ccc2c(=O)[nH]c(N3CC[NH2+]CC3)nc2c1)c1ccc(-c2c3nc(c(-c4ccccc4)c4ccc([nH]4)c(-c4ccccc4)c4nc(c(-c5ccccc5)c5ccc2[nH]5)C=C4)C=C3)cc1
REMARK SMILES IDX 6 1 5 2 4 3 3 4 1 5 2 6 30 8 31 9 77 10 32 11 76 12 33 13
REMARK SMILES IDX 34 14 35 15 70 16 36 17 75 18 69 19 71 20 37 21 74 22 68 23
REMARK SMILES IDX 67 24 38 26 60 27 45 28 59 29 46 30 49 31 58 32 72 33 47 34
REMARK SMILES IDX 48 35 57 37 73 38 50 39 39 40 40 41 44 42 41 43 43 44 42 45
REMARK SMILES IDX 61 46 62 47 66 48 63 49 65 50 64 51 51 52 52 53 56 54 53 55
REMARK SMILES IDX 55 56 54 57 7 58 8 59 9 60 10 61 11 62 12 64 13 65 14 66
REMARK SMILES IDX 29 67 15 68 28 69 16 70 27 71 17 72 20 73 18 74 19 75 21 77
REMARK SMILES IDX 22 78 26 79 23 80 25 81 24 82
REMARK H PARENT 3 7 71 25 49 36 10 63 19 76 24 83 24 84
REMARK Flexibility Score: inf
ROOT
ATOM      1  C   UNL A   1      31.774  29.234  25.336  1.00  0.00     0.002 C 
ENDROOT
BRANCH   1   2
ATOM      2  C   UNL A   1      33.272  29.078  25.588  1.00  0.00     0.021 C 
BRANCH   2   3
ATOM      3  C   UNL A   1      33.674  29.016  27.055  1.00  0.00     0.116 C 
BRANCH   3   4
ATOM      4  N   UNL A   1      33.615  30.311  27.714  1.00  0.00    -0.352 N 
ATOM      5  O   UNL A   1      34.303  31.983  29.069  1.00  0.00    -0.269 OA
ATOM      6  C   UNL A   1      34.573  30.950  28.466  1.00  0.00     0.251 C 
ATOM      7  H   UNL A   1      32.767  30.800  27.608  1.00  0.00     0.163 HD
BRANCH   6   8
ATOM      8  C   UNL A   1      35.927  30.365  28.572  1.00  0.00     0.039 A 
ATOM      9  C   UNL A   1      36.344  29.748  29.752  1.00  0.00     0.014 A 
ATOM     10  C   UNL A   1      36.801  30.459  27.484  1.00  0.00     0.014 A 
ATOM     11  C   UNL A   1      37.677  29.388  29.907  1.00  0.00     0.010 A 
ATOM     12  C   UNL A   1      38.115  30.000  27.607  1.00  0.00     0.010 A 
ATOM     13  C   UNL A   1      38.578  29.501  28.836  1.00  0.00    -0.014 A 
BRANCH  13  14
ATOM     14  C   UNL A   1      39.982  29.055  29.023  1.00  0.00     0.031 A 
ATOM     15  C   UNL A   1      41.003  29.934  29.694  1.00  0.00     0.074 A 
ATOM     16  C   UNL A   1      40.325  27.815  28.620  1.00  0.00     0.049 A 
ATOM     17  N   UNL A   1      42.250  29.666  29.992  1.00  0.00    -0.248 NA
ATOM     18  C   UNL A   1      40.576  31.289  30.075  1.00  0.00     0.031 C 
ATOM     19  C   UNL A   1      39.428  26.867  27.954  1.00  0.00     0.029 A 
ATOM     20  N   UNL A   1      41.504  27.126  28.740  1.00  0.00    -0.354 N 
ATOM     21  C   UNL A   1      42.763  30.823  30.568  1.00  0.00     0.074 A 
ATOM     22  C   UNL A   1      41.700  31.804  30.556  1.00  0.00     0.031 C 
ATOM     23  C   UNL A   1      40.066  25.700  27.787  1.00  0.00     0.029 A 
ATOM     24  C   UNL A   1      41.435  25.838  28.268  1.00  0.00     0.049 A 
ATOM     25  H   UNL A   1      42.321  27.517  29.127  1.00  0.00     0.167 HD
ATOM     26  C   UNL A   1      44.005  31.047  31.061  1.00  0.00     0.031 A 
ATOM     27  C   UNL A   1      42.370  24.873  28.217  1.00  0.00     0.031 A 
ATOM     28  C   UNL A   1      45.063  30.068  31.076  1.00  0.00     0.049 A 
ATOM     29  C   UNL A   1      43.744  25.159  28.745  1.00  0.00     0.074 A 
ATOM     30  C   UNL A   1      46.342  30.187  31.594  1.00  0.00     0.029 A 
ATOM     31  N   UNL A   1      44.967  28.792  30.542  1.00  0.00    -0.354 N 
ATOM     32  N   UNL A   1      44.196  26.244  29.326  1.00  0.00    -0.248 NA
ATOM     33  C   UNL A   1      44.735  24.083  28.613  1.00  0.00     0.031 C 
ATOM     34  C   UNL A   1      47.039  29.005  31.320  1.00  0.00     0.029 A 
ATOM     35  C   UNL A   1      46.173  28.125  30.690  1.00  0.00     0.049 A 
ATOM     36  H   UNL A   1      44.162  28.416  30.118  1.00  0.00     0.167 HD
ATOM     37  C   UNL A   1      45.518  25.972  29.651  1.00  0.00     0.074 A 
ATOM     38  C   UNL A   1      45.787  24.615  29.221  1.00  0.00     0.031 C 
ATOM     39  C   UNL A   1      46.429  26.777  30.253  1.00  0.00     0.031 A 
BRANCH  26  40
ATOM     40  C   UNL A   1      44.306  32.422  31.597  1.00  0.00    -0.014 A 
ATOM     41  C   UNL A   1      44.798  33.443  30.769  1.00  0.00     0.009 A 
ATOM     42  C   UNL A   1      44.051  32.711  32.948  1.00  0.00     0.009 A 
ATOM     43  C   UNL A   1      45.063  34.712  31.292  1.00  0.00     0.001 A 
ATOM     44  C   UNL A   1      44.288  33.988  33.460  1.00  0.00     0.001 A 
ATOM     45  C   UNL A   1      44.803  34.985  32.634  1.00  0.00     0.000 A 
ENDBRANCH  26  40
BRANCH  27  46
ATOM     46  C   UNL A   1      42.034  23.545  27.642  1.00  0.00    -0.014 A 
ATOM     47  C   UNL A   1      42.291  23.265  26.291  1.00  0.00     0.009 A 
ATOM     48  C   UNL A   1      41.459  22.546  28.444  1.00  0.00     0.009 A 
ATOM     49  C   UNL A   1      41.956  22.021  25.751  1.00  0.00     0.001 A 
ATOM     50  C   UNL A   1      41.156  21.293  27.910  1.00  0.00     0.001 A 
ATOM     51  C   UNL A   1      41.395  21.036  26.562  1.00  0.00     0.000 A 
ENDBRANCH  27  46
BRANCH  39  52
ATOM     52  C   UNL A   1      47.786  26.189  30.517  1.00  0.00    -0.014 A 
ATOM     53  C   UNL A   1      48.760  26.109  29.509  1.00  0.00     0.009 A 
ATOM     54  C   UNL A   1      48.098  25.719  31.802  1.00  0.00     0.009 A 
ATOM     55  C   UNL A   1      50.002  25.529  29.773  1.00  0.00     0.001 A 
ATOM     56  C   UNL A   1      49.352  25.170  32.071  1.00  0.00     0.001 A 
ATOM     57  C   UNL A   1      50.299  25.064  31.053  1.00  0.00     0.000 A 
ENDBRANCH  39  52
ENDBRANCH  13  14
ENDBRANCH   6   8
ENDBRANCH   3   4
ENDBRANCH   2   3
ENDBRANCH   1   2
BRANCH   1  58
ATOM     58  C   UNL A   1      31.181  28.285  24.291  1.00  0.00     0.002 C 
BRANCH  58  59
ATOM     59  C   UNL A   1      31.048  26.821  24.724  1.00  0.00     0.021 C 
BRANCH  59  60
ATOM     60  C   UNL A   1      30.697  25.845  23.604  1.00  0.00     0.116 C 
BRANCH  60  61
ATOM     61  N   UNL A   1      31.529  26.046  22.432  1.00  0.00    -0.352 N 
ATOM     62  C   UNL A   1      32.788  25.566  22.177  1.00  0.00     0.251 C 
ATOM     63  H   UNL A   1      31.136  26.604  21.722  1.00  0.00     0.163 HD
ATOM     64  O   UNL A   1      33.432  25.973  21.217  1.00  0.00    -0.269 OA
BRANCH  62  65
ATOM     65  C   UNL A   1      33.368  24.548  23.074  1.00  0.00     0.041 A 
ATOM     66  C   UNL A   1      34.302  24.923  24.051  1.00  0.00     0.015 A 
ATOM     67  C   UNL A   1      32.949  23.219  22.952  1.00  0.00     0.043 A 
ATOM     68  C   UNL A   1      34.861  23.951  24.872  1.00  0.00     0.017 A 
ATOM     69  C   UNL A   1      33.496  22.238  23.778  1.00  0.00     0.081 A 
ATOM     70  C   UNL A   1      34.451  22.622  24.726  1.00  0.00     0.066 A 
ATOM     71  N   UNL A   1      33.061  20.908  23.644  1.00  0.00    -0.214 NA
ATOM     72  C   UNL A   1      34.998  21.574  25.596  1.00  0.00     0.260 A 
ATOM     73  C   UNL A   1      33.496  20.025  24.488  1.00  0.00     0.206 A 
ATOM     74  O   UNL A   1      35.900  21.787  26.389  1.00  0.00    -0.269 OA
ATOM     75  N   UNL A   1      34.427  20.339  25.442  1.00  0.00    -0.292 N 
ATOM     76  H   UNL A   1      34.704  19.626  26.062  1.00  0.00     0.173 HD
BRANCH  73  77
ATOM     77  N   UNL A   1      33.100  18.717  24.472  1.00  0.00    -0.331 N 
ATOM     78  C   UNL A   1      32.949  17.973  23.222  1.00  0.00     0.181 C 
ATOM     79  C   UNL A   1      32.519  18.052  25.641  1.00  0.00     0.181 C 
ATOM     80  C   UNL A   1      33.546  16.556  23.410  1.00  0.00     0.282 C 
ATOM     81  C   UNL A   1      33.112  16.637  25.785  1.00  0.00     0.282 C 
ATOM     82  N   UNL A   1      32.981  15.817  24.562  1.00  0.00    -0.343 N 
ATOM     83  H   UNL A   1      33.487  14.940  24.685  1.00  0.00     0.346 HD
ATOM     84  H   UNL A   1      31.995  15.618  24.389  1.00  0.00     0.346 HD
ENDBRANCH  73  77
ENDBRANCH  62  65
ENDBRANCH  60  61
ENDBRANCH  59  60
ENDBRANCH  58  59
ENDBRANCH   1  58
TORSDOF 14
ENDMDL
