MODEL 1
REMARK VINA RESULT:     -10.1      0.000      0.000
REMARK SMILES CC(C)C[C@@H](C[NH3+])C(=O)N1CCC(CC(=O)NCCCCCCNC(=O)c2ccc(-c3c4nc(c(-c5ccccc5)c5ccc([nH]5)c(-c5ccccc5)c5nc(c(-c6ccccc6)c6ccc3[nH]6)C=C5)C=C4)cc2)CC1
REMARK SMILES IDX 19 1 18 2 17 3 15 4 16 5 14 7 13 8 8 9 9 10 10 11 11 12
REMARK SMILES IDX 76 13 12 14 75 15 5 16 4 17 2 18 1 19 3 20 6 21 7 22 20 26
REMARK SMILES IDX 21 27 22 28 23 29 24 30 25 31 26 33 27 34 28 35 74 36 29 37
REMARK SMILES IDX 73 38 30 39 31 40 32 41 67 42 33 43 72 44 66 45 68 46 34 47
REMARK SMILES IDX 71 48 65 49 64 50 35 52 57 53 42 54 56 55 43 56 46 57 55 58
REMARK SMILES IDX 69 59 44 60 45 61 54 63 70 64 47 65 36 66 37 67 41 68 38 69
REMARK SMILES IDX 40 70 39 71 58 72 59 73 63 74 60 75 62 76 61 77 48 78 49 79
REMARK SMILES IDX 53 80 50 81 52 82 51 83
REMARK H PARENT 17 6 7 23 7 24 7 25 24 32 68 51 46 62
REMARK Flexibility Score: inf
ROOT
ATOM      1  C   UNL A   1      30.318  29.209  23.803  1.00  0.00     0.021 C 
ENDROOT
BRANCH   1   2
ATOM      2  C   UNL A   1      30.921  29.137  22.395  1.00  0.00     0.116 C 
BRANCH   2   3
ATOM      3  N   UNL A   1      32.369  29.261  22.451  1.00  0.00    -0.356 N 
ATOM      4  C   UNL A   1      33.346  28.318  22.326  1.00  0.00     0.220 C 
ATOM      5  O   UNL A   1      34.513  28.653  22.540  1.00  0.00    -0.275 OA
ATOM      6  H   UNL A   1      32.698  30.176  22.603  1.00  0.00     0.163 HD
BRANCH   4   7
ATOM      7  C   UNL A   1      33.012  26.893  21.924  1.00  0.00     0.103 C 
BRANCH   7   8
ATOM      8  C   UNL A   1      32.628  25.975  23.101  1.00  0.00     0.002 C 
ATOM      9  C   UNL A   1      32.784  21.917  23.747  1.00  0.00     0.231 C 
ATOM     10  O   UNL A   1      32.432  21.491  22.641  1.00  0.00    -0.274 OA
ATOM     11  N   UNL A   1      32.585  23.239  24.092  1.00  0.00    -0.342 N 
ATOM     12  C   UNL A   1      31.339  23.861  23.709  1.00  0.00     0.120 C 
ATOM     13  C   UNL A   1      33.587  24.144  24.632  1.00  0.00     0.120 C 
ATOM     14  C   UNL A   1      31.579  24.942  22.678  1.00  0.00     0.026 C 
ATOM     15  C   UNL A   1      33.889  25.277  23.646  1.00  0.00     0.026 C 
BRANCH   9  16
ATOM     16  C   UNL A   1      33.160  20.919  24.853  1.00  0.00     0.133 C 
BRANCH  16  17
ATOM     17  C   UNL A   1      32.316  19.643  24.930  1.00  0.00     0.022 C 
BRANCH  17  18
ATOM     18  C   UNL A   1      33.008  18.338  24.495  1.00  0.00    -0.016 C 
ATOM     19  C   UNL A   1      32.696  17.157  25.413  1.00  0.00     0.007 C 
ATOM     20  C   UNL A   1      32.584  18.005  23.061  1.00  0.00     0.007 C 
ENDBRANCH  17  18
ENDBRANCH  16  17
BRANCH  16  21
ATOM     21  C   UNL A   1      34.685  20.686  24.795  1.00  0.00     0.272 C 
BRANCH  21  22
ATOM     22  N   UNL A   1      35.454  21.342  25.855  1.00  0.00    -0.357 N 
ATOM     23  H   UNL A   1      36.428  21.425  25.565  1.00  0.00     0.344 HD
ATOM     24  H   UNL A   1      35.399  20.786  26.708  1.00  0.00     0.344 HD
ATOM     25  H   UNL A   1      35.069  22.270  26.028  1.00  0.00     0.344 HD
ENDBRANCH  21  22
ENDBRANCH  16  21
ENDBRANCH   9  16
ENDBRANCH   7   8
ENDBRANCH   4   7
ENDBRANCH   2   3
ENDBRANCH   1   2
BRANCH   1  26
ATOM     26  C   UNL A   1      31.324  29.512  24.912  1.00  0.00     0.002 C 
BRANCH  26  27
ATOM     27  C   UNL A   1      31.623  28.340  25.848  1.00  0.00     0.002 C 
BRANCH  27  28
ATOM     28  C   UNL A   1      33.105  27.989  26.017  1.00  0.00     0.021 C 
BRANCH  28  29
ATOM     29  C   UNL A   1      33.727  28.400  27.351  1.00  0.00     0.116 C 
BRANCH  29  30
ATOM     30  N   UNL A   1      33.618  29.830  27.589  1.00  0.00    -0.352 N 
ATOM     31  C   UNL A   1      34.510  30.695  28.170  1.00  0.00     0.251 C 
ATOM     32  H   UNL A   1      32.776  30.241  27.287  1.00  0.00     0.163 HD
ATOM     33  O   UNL A   1      34.156  31.828  28.480  1.00  0.00    -0.269 OA
BRANCH  31  34
ATOM     34  C   UNL A   1      35.899  30.265  28.433  1.00  0.00     0.039 A 
ATOM     35  C   UNL A   1      36.235  29.815  29.713  1.00  0.00     0.014 A 
ATOM     36  C   UNL A   1      36.878  30.346  27.439  1.00  0.00     0.014 A 
ATOM     37  C   UNL A   1      37.540  29.397  29.982  1.00  0.00     0.010 A 
ATOM     38  C   UNL A   1      38.164  29.871  27.691  1.00  0.00     0.010 A 
ATOM     39  C   UNL A   1      38.509  29.399  28.966  1.00  0.00    -0.014 A 
BRANCH  39  40
ATOM     40  C   UNL A   1      39.889  28.914  29.223  1.00  0.00     0.031 A 
ATOM     41  C   UNL A   1      40.913  29.831  29.836  1.00  0.00     0.074 A 
ATOM     42  C   UNL A   1      40.239  27.670  28.842  1.00  0.00     0.049 A 
ATOM     43  N   UNL A   1      42.179  29.604  30.082  1.00  0.00    -0.248 NA
ATOM     44  C   UNL A   1      40.464  31.185  30.196  1.00  0.00     0.031 C 
ATOM     45  C   UNL A   1      39.354  26.702  28.190  1.00  0.00     0.029 A 
ATOM     46  N   UNL A   1      41.440  27.013  28.934  1.00  0.00    -0.354 N 
ATOM     47  C   UNL A   1      42.681  30.793  30.598  1.00  0.00     0.074 A 
ATOM     48  C   UNL A   1      41.594  31.747  30.601  1.00  0.00     0.031 C 
ATOM     49  C   UNL A   1      40.039  25.571  27.953  1.00  0.00     0.029 A 
ATOM     50  C   UNL A   1      41.416  25.745  28.406  1.00  0.00     0.049 A 
ATOM     51  H   UNL A   1      42.242  27.411  29.342  1.00  0.00     0.167 HD
ATOM     52  C   UNL A   1      43.932  31.062  31.041  1.00  0.00     0.031 A 
ATOM     53  C   UNL A   1      42.394  24.828  28.288  1.00  0.00     0.031 A 
ATOM     54  C   UNL A   1      45.006  30.104  31.068  1.00  0.00     0.049 A 
ATOM     55  C   UNL A   1      43.768  25.145  28.812  1.00  0.00     0.074 A 
ATOM     56  C   UNL A   1      46.283  30.258  31.579  1.00  0.00     0.029 A 
ATOM     57  N   UNL A   1      44.929  28.819  30.560  1.00  0.00    -0.354 N 
ATOM     58  N   UNL A   1      44.200  26.243  29.383  1.00  0.00    -0.248 NA
ATOM     59  C   UNL A   1      44.783  24.090  28.690  1.00  0.00     0.031 C 
ATOM     60  C   UNL A   1      46.995  29.079  31.338  1.00  0.00     0.029 A 
ATOM     61  C   UNL A   1      46.144  28.175  30.722  1.00  0.00     0.049 A 
ATOM     62  H   UNL A   1      44.129  28.421  30.145  1.00  0.00     0.167 HD
ATOM     63  C   UNL A   1      45.527  26.001  29.712  1.00  0.00     0.074 A 
ATOM     64  C   UNL A   1      45.824  24.646  29.294  1.00  0.00     0.031 C 
ATOM     65  C   UNL A   1      46.421  26.826  30.307  1.00  0.00     0.031 A 
BRANCH  52  66
ATOM     66  C   UNL A   1      44.217  32.452  31.533  1.00  0.00    -0.014 A 
ATOM     67  C   UNL A   1      44.657  33.460  30.661  1.00  0.00     0.009 A 
ATOM     68  C   UNL A   1      43.978  32.774  32.879  1.00  0.00     0.009 A 
ATOM     69  C   UNL A   1      44.878  34.756  31.133  1.00  0.00     0.001 A 
ATOM     70  C   UNL A   1      44.176  34.076  33.342  1.00  0.00     0.001 A 
ATOM     71  C   UNL A   1      44.631  35.064  32.470  1.00  0.00     0.000 A 
ENDBRANCH  52  66
BRANCH  53  72
ATOM     72  C   UNL A   1      42.118  23.516  27.648  1.00  0.00    -0.014 A 
ATOM     73  C   UNL A   1      42.341  23.330  26.274  1.00  0.00     0.009 A 
ATOM     74  C   UNL A   1      41.606  22.450  28.403  1.00  0.00     0.009 A 
ATOM     75  C   UNL A   1      42.023  22.114  25.665  1.00  0.00     0.001 A 
ATOM     76  C   UNL A   1      41.317  21.226  27.796  1.00  0.00     0.001 A 
ATOM     77  C   UNL A   1      41.514  21.063  26.426  1.00  0.00     0.000 A 
ENDBRANCH  53  72
BRANCH  65  78
ATOM     78  C   UNL A   1      47.792  26.275  30.575  1.00  0.00    -0.014 A 
ATOM     79  C   UNL A   1      48.137  25.760  31.833  1.00  0.00     0.009 A 
ATOM     80  C   UNL A   1      48.738  26.236  29.538  1.00  0.00     0.009 A 
ATOM     81  C   UNL A   1      49.417  25.246  32.058  1.00  0.00     0.001 A 
ATOM     82  C   UNL A   1      50.006  25.698  29.758  1.00  0.00     0.001 A 
ATOM     83  C   UNL A   1      50.347  25.212  31.020  1.00  0.00     0.000 A 
ENDBRANCH  65  78
ENDBRANCH  39  40
ENDBRANCH  31  34
ENDBRANCH  29  30
ENDBRANCH  28  29
ENDBRANCH  27  28
ENDBRANCH  26  27
ENDBRANCH   1  26
TORSDOF 19
ENDMDL
MODEL 2
REMARK VINA RESULT:      -9.9      2.504      6.803
REMARK SMILES CC(C)C[C@@H](C[NH3+])C(=O)N1CCC(CC(=O)NCCCCCCNC(=O)c2ccc(-c3c4nc(c(-c5ccccc5)c5ccc([nH]5)c(-c5ccccc5)c5nc(c(-c6ccccc6)c6ccc3[nH]6)C=C5)C=C4)cc2)CC1
REMARK SMILES IDX 19 1 18 2 17 3 15 4 16 5 14 7 13 8 8 9 9 10 10 11 11 12
REMARK SMILES IDX 76 13 12 14 75 15 5 16 4 17 2 18 1 19 3 20 6 21 7 22 20 26
REMARK SMILES IDX 21 27 22 28 23 29 24 30 25 31 26 33 27 34 28 35 74 36 29 37
REMARK SMILES IDX 73 38 30 39 31 40 32 41 67 42 33 43 72 44 66 45 68 46 34 47
REMARK SMILES IDX 71 48 65 49 64 50 35 52 57 53 42 54 56 55 43 56 46 57 55 58
REMARK SMILES IDX 69 59 44 60 45 61 54 63 70 64 47 65 36 66 37 67 41 68 38 69
REMARK SMILES IDX 40 70 39 71 58 72 59 73 63 74 60 75 62 76 61 77 48 78 49 79
REMARK SMILES IDX 53 80 50 81 52 82 51 83
REMARK H PARENT 17 6 7 23 7 24 7 25 24 32 68 51 46 62
REMARK Flexibility Score: inf
ROOT
ATOM      1  C   UNL A   1      33.284  29.134  25.290  1.00  0.00     0.021 C 
ENDROOT
BRANCH   1   2
ATOM      2  C   UNL A   1      33.114  27.770  24.610  1.00  0.00     0.116 C 
BRANCH   2   3
ATOM      3  N   UNL A   1      32.332  27.898  23.391  1.00  0.00    -0.356 N 
ATOM      4  C   UNL A   1      31.062  27.491  23.104  1.00  0.00     0.220 C 
ATOM      5  O   UNL A   1      30.661  27.603  21.944  1.00  0.00    -0.275 OA
ATOM      6  H   UNL A   1      32.794  28.355  22.651  1.00  0.00     0.163 HD
BRANCH   4   7
ATOM      7  C   UNL A   1      30.160  26.923  24.184  1.00  0.00     0.103 C 
BRANCH   7   8
ATOM      8  C   UNL A   1      30.190  25.386  24.295  1.00  0.00     0.002 C 
ATOM      9  C   UNL A   1      33.166  22.605  24.852  1.00  0.00     0.231 C 
ATOM     10  O   UNL A   1      34.062  23.077  24.143  1.00  0.00    -0.274 OA
ATOM     11  N   UNL A   1      31.864  23.047  24.734  1.00  0.00    -0.342 N 
ATOM     12  C   UNL A   1      31.349  23.296  23.408  1.00  0.00     0.120 C 
ATOM     13  C   UNL A   1      31.005  23.486  25.823  1.00  0.00     0.120 C 
ATOM     14  C   UNL A   1      31.080  24.771  23.210  1.00  0.00     0.026 C 
ATOM     15  C   UNL A   1      30.680  24.977  25.696  1.00  0.00     0.026 C 
BRANCH   9  16
ATOM     16  C   UNL A   1      33.435  21.319  25.647  1.00  0.00     0.133 C 
BRANCH  16  17
ATOM     17  C   UNL A   1      34.231  20.228  24.923  1.00  0.00     0.022 C 
BRANCH  17  18
ATOM     18  C   UNL A   1      33.441  18.981  24.485  1.00  0.00    -0.016 C 
ATOM     19  C   UNL A   1      32.710  18.296  25.639  1.00  0.00     0.007 C 
ATOM     20  C   UNL A   1      32.435  19.386  23.402  1.00  0.00     0.007 C 
ENDBRANCH  17  18
ENDBRANCH  16  17
BRANCH  16  21
ATOM     21  C   UNL A   1      33.988  21.714  27.033  1.00  0.00     0.272 C 
BRANCH  21  22
ATOM     22  N   UNL A   1      35.206  22.528  27.006  1.00  0.00    -0.357 N 
ATOM     23  H   UNL A   1      35.123  23.239  26.280  1.00  0.00     0.344 HD
ATOM     24  H   UNL A   1      36.009  21.931  26.808  1.00  0.00     0.344 HD
ATOM     25  H   UNL A   1      35.332  22.978  27.912  1.00  0.00     0.344 HD
ENDBRANCH  21  22
ENDBRANCH  16  21
ENDBRANCH   9  16
ENDBRANCH   7   8
ENDBRANCH   4   7
ENDBRANCH   2   3
ENDBRANCH   1   2
BRANCH   1  26
ATOM     26  C   UNL A   1      32.110  29.557  26.169  1.00  0.00     0.002 C 
BRANCH  26  27
ATOM     27  C   UNL A   1      31.192  30.613  25.552  1.00  0.00     0.002 C 
BRANCH  27  28
ATOM     28  C   UNL A   1      31.107  31.942  26.312  1.00  0.00     0.021 C 
BRANCH  28  29
ATOM     29  C   UNL A   1      32.404  32.402  26.974  1.00  0.00     0.116 C 
BRANCH  29  30
ATOM     30  N   UNL A   1      32.304  33.758  27.491  1.00  0.00    -0.352 N 
ATOM     31  C   UNL A   1      33.085  34.407  28.414  1.00  0.00     0.251 C 
ATOM     32  H   UNL A   1      31.564  34.291  27.123  1.00  0.00     0.163 HD
ATOM     33  O   UNL A   1      32.719  35.477  28.886  1.00  0.00    -0.269 OA
BRANCH  31  34
ATOM     34  C   UNL A   1      34.367  33.815  28.851  1.00  0.00     0.039 A 
ATOM     35  C   UNL A   1      35.526  34.107  28.127  1.00  0.00     0.014 A 
ATOM     36  C   UNL A   1      34.422  32.941  29.940  1.00  0.00     0.014 A 
ATOM     37  C   UNL A   1      36.749  33.565  28.527  1.00  0.00     0.010 A 
ATOM     38  C   UNL A   1      35.651  32.450  30.375  1.00  0.00     0.010 A 
ATOM     39  C   UNL A   1      36.825  32.751  29.668  1.00  0.00    -0.014 A 
BRANCH  39  40
ATOM     40  C   UNL A   1      38.126  32.204  30.134  1.00  0.00     0.031 A 
ATOM     41  C   UNL A   1      38.642  30.904  29.581  1.00  0.00     0.074 A 
ATOM     42  C   UNL A   1      38.808  32.844  31.104  1.00  0.00     0.049 A 
ATOM     43  N   UNL A   1      39.725  30.243  29.907  1.00  0.00    -0.248 NA
ATOM     44  C   UNL A   1      37.825  30.247  28.548  1.00  0.00     0.031 C 
ATOM     45  C   UNL A   1      38.388  34.085  31.759  1.00  0.00     0.029 A 
ATOM     46  N   UNL A   1      39.993  32.528  31.719  1.00  0.00    -0.354 N 
ATOM     47  C   UNL A   1      39.704  29.084  29.140  1.00  0.00     0.074 A 
ATOM     48  C   UNL A   1      38.488  29.115  28.357  1.00  0.00     0.031 C 
ATOM     49  C   UNL A   1      39.308  34.431  32.674  1.00  0.00     0.029 A 
ATOM     50  C   UNL A   1      40.363  33.422  32.694  1.00  0.00     0.049 A 
ATOM     51  H   UNL A   1      40.528  31.736  31.483  1.00  0.00     0.167 HD
ATOM     52  C   UNL A   1      40.621  28.089  29.084  1.00  0.00     0.031 A 
ATOM     53  C   UNL A   1      41.426  33.425  33.520  1.00  0.00     0.031 A 
ATOM     54  C   UNL A   1      41.846  28.072  29.838  1.00  0.00     0.049 A 
ATOM     55  C   UNL A   1      42.441  32.320  33.417  1.00  0.00     0.074 A 
ATOM     56  C   UNL A   1      42.878  27.151  29.783  1.00  0.00     0.029 A 
ATOM     57  N   UNL A   1      42.202  29.017  30.785  1.00  0.00    -0.354 N 
ATOM     58  N   UNL A   1      42.452  31.280  32.619  1.00  0.00    -0.248 NA
ATOM     59  C   UNL A   1      43.600  32.400  34.318  1.00  0.00     0.031 C 
ATOM     60  C   UNL A   1      43.838  27.513  30.732  1.00  0.00     0.029 A 
ATOM     61  C   UNL A   1      43.426  28.687  31.341  1.00  0.00     0.049 A 
ATOM     62  H   UNL A   1      41.664  29.805  31.028  1.00  0.00     0.167 HD
ATOM     63  C   UNL A   1      43.628  30.599  32.903  1.00  0.00     0.074 A 
ATOM     64  C   UNL A   1      44.313  31.352  33.932  1.00  0.00     0.031 C 
ATOM     65  C   UNL A   1      44.098  29.450  32.359  1.00  0.00     0.031 A 
BRANCH  52  66
ATOM     66  C   UNL A   1      40.338  26.926  28.176  1.00  0.00    -0.014 A 
ATOM     67  C   UNL A   1      40.851  26.877  26.870  1.00  0.00     0.009 A 
ATOM     68  C   UNL A   1      39.599  25.833  28.657  1.00  0.00     0.009 A 
ATOM     69  C   UNL A   1      40.608  25.769  26.056  1.00  0.00     0.001 A 
ATOM     70  C   UNL A   1      39.379  24.716  27.850  1.00  0.00     0.001 A 
ATOM     71  C   UNL A   1      39.879  24.687  26.549  1.00  0.00     0.000 A 
ENDBRANCH  52  66
BRANCH  53  72
ATOM     72  C   UNL A   1      41.594  34.510  34.521  1.00  0.00    -0.014 A 
ATOM     73  C   UNL A   1      42.265  35.696  34.183  1.00  0.00     0.009 A 
ATOM     74  C   UNL A   1      41.106  34.356  35.827  1.00  0.00     0.009 A 
ATOM     75  C   UNL A   1      42.474  36.689  35.143  1.00  0.00     0.001 A 
ATOM     76  C   UNL A   1      41.291  35.363  36.777  1.00  0.00     0.001 A 
ATOM     77  C   UNL A   1      41.985  36.523  36.437  1.00  0.00     0.000 A 
ENDBRANCH  53  72
BRANCH  65  78
ATOM     78  C   UNL A   1      45.433  28.959  32.841  1.00  0.00    -0.014 A 
ATOM     79  C   UNL A   1      45.534  28.057  33.911  1.00  0.00     0.009 A 
ATOM     80  C   UNL A   1      46.603  29.376  32.186  1.00  0.00     0.009 A 
ATOM     81  C   UNL A   1      46.786  27.609  34.339  1.00  0.00     0.001 A 
ATOM     82  C   UNL A   1      47.849  28.904  32.598  1.00  0.00     0.001 A 
ATOM     83  C   UNL A   1      47.940  28.029  33.679  1.00  0.00     0.000 A 
ENDBRANCH  65  78
ENDBRANCH  39  40
ENDBRANCH  31  34
ENDBRANCH  29  30
ENDBRANCH  28  29
ENDBRANCH  27  28
ENDBRANCH  26  27
ENDBRANCH   1  26
TORSDOF 19
ENDMDL
MODEL 3
REMARK VINA RESULT:      -9.8      2.607      8.355
REMARK SMILES CC(C)C[C@@H](C[NH3+])C(=O)N1CCC(CC(=O)NCCCCCCNC(=O)c2ccc(-c3c4nc(c(-c5ccccc5)c5ccc([nH]5)c(-c5ccccc5)c5nc(c(-c6ccccc6)c6ccc3[nH]6)C=C5)C=C4)cc2)CC1
REMARK SMILES IDX 19 1 18 2 17 3 15 4 16 5 14 7 13 8 8 9 9 10 10 11 11 12
REMARK SMILES IDX 76 13 12 14 75 15 5 16 4 17 2 18 1 19 3 20 6 21 7 22 20 26
REMARK SMILES IDX 21 27 22 28 23 29 24 30 25 31 26 33 27 34 28 35 74 36 29 37
REMARK SMILES IDX 73 38 30 39 31 40 32 41 67 42 33 43 72 44 66 45 68 46 34 47
REMARK SMILES IDX 71 48 65 49 64 50 35 52 57 53 42 54 56 55 43 56 46 57 55 58
REMARK SMILES IDX 69 59 44 60 45 61 54 63 70 64 47 65 36 66 37 67 41 68 38 69
REMARK SMILES IDX 40 70 39 71 58 72 59 73 63 74 60 75 62 76 61 77 48 78 49 79
REMARK SMILES IDX 53 80 50 81 52 82 51 83
REMARK H PARENT 17 6 7 23 7 24 7 25 24 32 68 51 46 62
REMARK Flexibility Score: inf
ROOT
ATOM      1  C   UNL A   1      37.618  23.825  26.151  1.00  0.00     0.021 C 
ENDROOT
BRANCH   1   2
ATOM      2  C   UNL A   1      36.849  22.670  25.498  1.00  0.00     0.116 C 
BRANCH   2   3
ATOM      3  N   UNL A   1      35.966  22.032  26.461  1.00  0.00    -0.356 N 
ATOM      4  C   UNL A   1      34.609  22.083  26.591  1.00  0.00     0.220 C 
ATOM      5  O   UNL A   1      34.097  21.551  27.578  1.00  0.00    -0.275 OA
ATOM      6  H   UNL A   1      36.422  21.470  27.129  1.00  0.00     0.163 HD
BRANCH   4   7
ATOM      7  C   UNL A   1      33.749  22.767  25.545  1.00  0.00     0.103 C 
BRANCH   7   8
ATOM      8  C   UNL A   1      33.854  24.305  25.542  1.00  0.00     0.002 C 
ATOM      9  C   UNL A   1      31.601  27.336  23.918  1.00  0.00     0.231 C 
ATOM     10  O   UNL A   1      31.313  26.849  22.818  1.00  0.00    -0.274 OA
ATOM     11  N   UNL A   1      32.607  26.792  24.690  1.00  0.00    -0.342 N 
ATOM     12  C   UNL A   1      33.812  26.354  24.026  1.00  0.00     0.120 C 
ATOM     13  C   UNL A   1      32.506  26.424  26.094  1.00  0.00     0.120 C 
ATOM     14  C   UNL A   1      33.952  24.851  24.114  1.00  0.00     0.026 C 
ATOM     15  C   UNL A   1      32.640  24.908  26.273  1.00  0.00     0.026 C 
BRANCH   9  16
ATOM     16  C   UNL A   1      31.056  28.722  24.292  1.00  0.00     0.133 C 
BRANCH  16  17
ATOM     17  C   UNL A   1      32.064  29.708  24.892  1.00  0.00     0.022 C 
BRANCH  17  18
ATOM     18  C   UNL A   1      31.824  30.127  26.354  1.00  0.00    -0.016 C 
ATOM     19  C   UNL A   1      33.067  29.986  27.231  1.00  0.00     0.007 C 
ATOM     20  C   UNL A   1      31.334  31.579  26.379  1.00  0.00     0.007 C 
ENDBRANCH  17  18
ENDBRANCH  16  17
BRANCH  16  21
ATOM     21  C   UNL A   1      30.253  29.266  23.091  1.00  0.00     0.272 C 
BRANCH  21  22
ATOM     22  N   UNL A   1      31.063  29.805  21.996  1.00  0.00    -0.357 N 
ATOM     23  H   UNL A   1      30.778  29.371  21.118  1.00  0.00     0.344 HD
ATOM     24  H   UNL A   1      32.047  29.605  22.171  1.00  0.00     0.344 HD
ATOM     25  H   UNL A   1      30.926  30.814  21.938  1.00  0.00     0.344 HD
ENDBRANCH  21  22
ENDBRANCH  16  21
ENDBRANCH   9  16
ENDBRANCH   7   8
ENDBRANCH   4   7
ENDBRANCH   2   3
ENDBRANCH   1   2
BRANCH   1  26
ATOM     26  C   UNL A   1      39.135  23.656  26.156  1.00  0.00     0.002 C 
BRANCH  26  27
ATOM     27  C   UNL A   1      39.641  22.401  26.868  1.00  0.00     0.002 C 
BRANCH  27  28
ATOM     28  C   UNL A   1      40.079  21.252  25.953  1.00  0.00     0.021 C 
BRANCH  28  29
ATOM     29  C   UNL A   1      40.753  20.075  26.656  1.00  0.00     0.116 C 
BRANCH  29  30
ATOM     30  N   UNL A   1      42.013  19.711  26.029  1.00  0.00    -0.352 N 
ATOM     31  C   UNL A   1      43.071  20.502  25.656  1.00  0.00     0.251 C 
ATOM     32  H   UNL A   1      42.125  18.751  25.843  1.00  0.00     0.163 HD
ATOM     33  O   UNL A   1      43.959  20.046  24.943  1.00  0.00    -0.269 OA
BRANCH  31  34
ATOM     34  C   UNL A   1      43.141  21.909  26.102  1.00  0.00     0.039 A 
ATOM     35  C   UNL A   1      43.245  22.179  27.470  1.00  0.00     0.014 A 
ATOM     36  C   UNL A   1      43.061  22.960  25.185  1.00  0.00     0.014 A 
ATOM     37  C   UNL A   1      43.320  23.500  27.913  1.00  0.00     0.010 A 
ATOM     38  C   UNL A   1      43.198  24.276  25.622  1.00  0.00     0.010 A 
ATOM     39  C   UNL A   1      43.322  24.559  26.991  1.00  0.00    -0.014 A 
BRANCH  39  40
ATOM     40  C   UNL A   1      43.448  25.968  27.443  1.00  0.00     0.031 A 
ATOM     41  C   UNL A   1      44.801  26.620  27.524  1.00  0.00     0.074 A 
ATOM     42  C   UNL A   1      42.350  26.639  27.845  1.00  0.00     0.049 A 
ATOM     43  N   UNL A   1      45.114  27.819  27.947  1.00  0.00    -0.248 NA
ATOM     44  C   UNL A   1      45.956  25.814  27.097  1.00  0.00     0.031 C 
ATOM     45  C   UNL A   1      40.987  26.102  27.865  1.00  0.00     0.029 A 
ATOM     46  N   UNL A   1      42.212  27.915  28.330  1.00  0.00    -0.354 N 
ATOM     47  C   UNL A   1      46.499  27.899  27.864  1.00  0.00     0.074 A 
ATOM     48  C   UNL A   1      46.970  26.620  27.381  1.00  0.00     0.031 C 
ATOM     49  C   UNL A   1      40.151  27.046  28.326  1.00  0.00     0.029 A 
ATOM     50  C   UNL A   1      40.919  28.240  28.664  1.00  0.00     0.049 A 
ATOM     51  H   UNL A   1      42.966  28.539  28.429  1.00  0.00     0.167 HD
ATOM     52  C   UNL A   1      47.305  28.948  28.153  1.00  0.00     0.031 A 
ATOM     53  C   UNL A   1      40.410  29.368  29.193  1.00  0.00     0.031 A 
ATOM     54  C   UNL A   1      46.836  30.231  28.604  1.00  0.00     0.049 A 
ATOM     55  C   UNL A   1      41.326  30.526  29.479  1.00  0.00     0.074 A 
ATOM     56  C   UNL A   1      47.569  31.382  28.839  1.00  0.00     0.029 A 
ATOM     57  N   UNL A   1      45.515  30.532  28.891  1.00  0.00    -0.354 N 
ATOM     58  N   UNL A   1      42.622  30.615  29.306  1.00  0.00    -0.248 NA
ATOM     59  C   UNL A   1      40.705  31.744  30.019  1.00  0.00     0.031 C 
ATOM     60  C   UNL A   1      46.697  32.366  29.314  1.00  0.00     0.029 A 
ATOM     61  C   UNL A   1      45.415  31.843  29.326  1.00  0.00     0.049 A 
ATOM     62  H   UNL A   1      44.760  29.907  28.800  1.00  0.00     0.167 HD
ATOM     63  C   UNL A   1      42.966  31.904  29.689  1.00  0.00     0.074 A 
ATOM     64  C   UNL A   1      41.742  32.567  30.085  1.00  0.00     0.031 C 
ATOM     65  C   UNL A   1      44.188  32.488  29.710  1.00  0.00     0.031 A 
BRANCH  52  66
ATOM     66  C   UNL A   1      48.786  28.756  27.995  1.00  0.00    -0.014 A 
ATOM     67  C   UNL A   1      49.434  29.044  26.784  1.00  0.00     0.009 A 
ATOM     68  C   UNL A   1      49.555  28.343  29.095  1.00  0.00     0.009 A 
ATOM     69  C   UNL A   1      50.819  28.897  26.670  1.00  0.00     0.001 A 
ATOM     70  C   UNL A   1      50.941  28.220  28.986  1.00  0.00     0.001 A 
ATOM     71  C   UNL A   1      51.571  28.492  27.772  1.00  0.00     0.000 A 
ENDBRANCH  52  66
BRANCH  53  72
ATOM     72  C   UNL A   1      38.957  29.468  29.487  1.00  0.00    -0.014 A 
ATOM     73  C   UNL A   1      38.458  29.118  30.752  1.00  0.00     0.009 A 
ATOM     74  C   UNL A   1      38.057  29.890  28.496  1.00  0.00     0.009 A 
ATOM     75  C   UNL A   1      37.086  29.155  31.006  1.00  0.00     0.001 A 
ATOM     76  C   UNL A   1      36.688  29.954  28.763  1.00  0.00     0.001 A 
ATOM     77  C   UNL A   1      36.202  29.575  30.013  1.00  0.00     0.000 A 
ENDBRANCH  53  72
BRANCH  65  78
ATOM     78  C   UNL A   1      44.256  33.925  30.143  1.00  0.00    -0.014 A 
ATOM     79  C   UNL A   1      44.091  34.971  29.222  1.00  0.00     0.009 A 
ATOM     80  C   UNL A   1      44.448  34.233  31.499  1.00  0.00     0.009 A 
ATOM     81  C   UNL A   1      44.151  36.300  29.648  1.00  0.00     0.001 A 
ATOM     82  C   UNL A   1      44.480  35.561  31.925  1.00  0.00     0.001 A 
ATOM     83  C   UNL A   1      44.341  36.593  30.998  1.00  0.00     0.000 A 
ENDBRANCH  65  78
ENDBRANCH  39  40
ENDBRANCH  31  34
ENDBRANCH  29  30
ENDBRANCH  28  29
ENDBRANCH  27  28
ENDBRANCH  26  27
ENDBRANCH   1  26
TORSDOF 19
ENDMDL
