MODEL 1
REMARK VINA RESULT:     -11.3      0.000      0.000
REMARK SMILES Cc1ccc(F)cc1S(=O)(=O)Nc1cc(C(=O)NCCCCCCNC(=O)c2ccc(-c3c4nc(c(-c5ccccc5)c5ccc([nH]5)c(-c5ccccc5)c5nc(c(-c6ccccc6)c6ccc3[nH]6)C=C5)C=C4)cc2)ccc1N(C)Cc1ccccc1
REMARK SMILES IDX 21 1 20 2 19 3 18 4 16 5 17 6 15 8 13 9 14 10 78 11 77 12
REMARK SMILES IDX 76 13 12 14 9 16 10 17 11 18 8 19 1 20 2 21 3 22 4 23 7 24
REMARK SMILES IDX 5 25 6 26 79 27 80 28 81 29 82 30 83 31 87 32 84 33 86 34
REMARK SMILES IDX 85 35 22 36 23 37 24 38 25 39 26 40 27 42 28 43 29 44 75 45
REMARK SMILES IDX 30 46 74 47 31 48 32 49 33 50 68 51 34 52 73 53 67 54 69 55
REMARK SMILES IDX 35 56 72 57 66 58 65 59 36 61 58 62 43 63 57 64 44 65 47 66
REMARK SMILES IDX 56 67 70 68 45 69 46 70 55 72 71 73 48 74 37 75 38 76 42 77
REMARK SMILES IDX 39 78 41 79 40 80 59 81 60 82 64 83 61 84 63 85 62 86 49 87
REMARK SMILES IDX 50 88 54 89 51 90 53 91 52 92
REMARK H PARENT 18 7 12 15 25 41 69 60 47 71
REMARK Flexibility Score: inf
ROOT
ATOM      1  C   UNL A   1      42.022  21.517  27.050  1.00  0.00     0.002 C 
ENDROOT
BRANCH   1   2
ATOM      2  C   UNL A   1      41.064  22.122  26.007  1.00  0.00     0.021 C 
BRANCH   2   3
ATOM      3  C   UNL A   1      39.602  22.211  26.450  1.00  0.00     0.116 C 
BRANCH   3   4
ATOM      4  N   UNL A   1      38.836  21.154  25.832  1.00  0.00    -0.352 N 
ATOM      5  C   UNL A   1      37.612  21.070  25.220  1.00  0.00     0.251 C 
ATOM      6  O   UNL A   1      37.190  19.919  25.066  1.00  0.00    -0.269 OA
ATOM      7  H   UNL A   1      39.303  20.288  25.856  1.00  0.00     0.163 HD
BRANCH   5   8
ATOM      8  C   UNL A   1      36.815  22.205  24.628  1.00  0.00     0.042 A 
ATOM      9  C   UNL A   1      35.226  23.968  25.269  1.00  0.00     0.073 A 
ATOM     10  C   UNL A   1      36.303  23.099  25.573  1.00  0.00     0.042 A 
ATOM     11  C   UNL A   1      34.799  24.258  23.967  1.00  0.00     0.061 A 
ATOM     12  C   UNL A   1      35.433  23.424  23.001  1.00  0.00     0.029 A 
ATOM     13  C   UNL A   1      36.379  22.390  23.322  1.00  0.00     0.016 A 
BRANCH   9  14
ATOM     14  N   UNL A   1      34.256  24.117  26.308  1.00  0.00    -0.277 N 
ATOM     15  H   UNL A   1      33.921  24.986  26.626  1.00  0.00     0.180 HD
BRANCH  14  16
ATOM     16  S   UNL A   1      33.741  22.591  26.945  1.00  0.00     0.262 S 
ATOM     17  O   UNL A   1      32.646  22.848  27.846  1.00  0.00    -0.201 OA
ATOM     18  O   UNL A   1      34.942  21.984  27.495  1.00  0.00    -0.201 OA
BRANCH  16  19
ATOM     19  C   UNL A   1      33.114  21.522  25.615  1.00  0.00     0.093 A 
ATOM     20  C   UNL A   1      31.175  23.022  24.953  1.00  0.00     0.046 C 
ATOM     21  C   UNL A   1      32.109  21.881  24.717  1.00  0.00    -0.030 A 
ATOM     22  C   UNL A   1      31.944  21.125  23.525  1.00  0.00     0.008 A 
ATOM     23  C   UNL A   1      32.684  19.972  23.268  1.00  0.00     0.039 A 
ATOM     24  C   UNL A   1      33.750  20.312  25.370  1.00  0.00     0.061 A 
ATOM     25  C   UNL A   1      33.555  19.540  24.235  1.00  0.00     0.124 A 
ATOM     26  F   UNL A   1      34.211  18.380  24.095  1.00  0.00    -0.207 F 
ENDBRANCH  16  19
ENDBRANCH  14  16
ENDBRANCH   9  14
BRANCH  11  27
ATOM     27  N   UNL A   1      33.733  25.157  23.680  1.00  0.00    -0.369 N 
ATOM     28  C   UNL A   1      32.903  24.790  22.523  1.00  0.00     0.144 C 
BRANCH  27  29
ATOM     29  C   UNL A   1      33.671  26.653  24.032  1.00  0.00     0.151 C 
BRANCH  29  30
ATOM     30  C   UNL A   1      33.093  27.255  25.354  1.00  0.00    -0.029 A 
ATOM     31  C   UNL A   1      33.730  28.086  26.299  1.00  0.00     0.005 A 
ATOM     32  C   UNL A   1      31.814  26.813  25.756  1.00  0.00     0.005 A 
ATOM     33  C   UNL A   1      33.025  28.716  27.349  1.00  0.00     0.000 A 
ATOM     34  C   UNL A   1      31.143  27.340  26.875  1.00  0.00     0.000 A 
ATOM     35  C   UNL A   1      31.716  28.358  27.624  1.00  0.00     0.000 A 
ENDBRANCH  29  30
ENDBRANCH  27  29
ENDBRANCH  11  27
ENDBRANCH   5   8
ENDBRANCH   3   4
ENDBRANCH   2   3
ENDBRANCH   1   2
BRANCH   1  36
ATOM     36  C   UNL A   1      41.835  20.025  27.351  1.00  0.00     0.002 C 
BRANCH  36  37
ATOM     37  C   UNL A   1      42.203  19.075  26.210  1.00  0.00     0.021 C 
BRANCH  37  38
ATOM     38  C   UNL A   1      43.690  18.749  26.104  1.00  0.00     0.116 C 
BRANCH  38  39
ATOM     39  N   UNL A   1      44.146  18.721  24.725  1.00  0.00    -0.352 N 
ATOM     40  C   UNL A   1      44.558  19.750  23.918  1.00  0.00     0.251 C 
ATOM     41  H   UNL A   1      44.162  17.830  24.308  1.00  0.00     0.163 HD
ATOM     42  O   UNL A   1      44.691  19.565  22.712  1.00  0.00    -0.269 OA
BRANCH  40  43
ATOM     43  C   UNL A   1      44.830  21.087  24.489  1.00  0.00     0.039 A 
ATOM     44  C   UNL A   1      44.409  22.214  23.780  1.00  0.00     0.014 A 
ATOM     45  C   UNL A   1      45.524  21.237  25.694  1.00  0.00     0.014 A 
ATOM     46  C   UNL A   1      44.643  23.487  24.302  1.00  0.00     0.010 A 
ATOM     47  C   UNL A   1      45.684  22.504  26.254  1.00  0.00     0.010 A 
ATOM     48  C   UNL A   1      45.253  23.642  25.558  1.00  0.00    -0.014 A 
BRANCH  48  49
ATOM     49  C   UNL A   1      45.416  24.995  26.148  1.00  0.00     0.031 A 
ATOM     50  C   UNL A   1      46.745  25.697  26.118  1.00  0.00     0.074 A 
ATOM     51  C   UNL A   1      44.354  25.587  26.726  1.00  0.00     0.049 A 
ATOM     52  N   UNL A   1      47.046  26.906  26.522  1.00  0.00    -0.248 NA
ATOM     53  C   UNL A   1      47.889  24.940  25.589  1.00  0.00     0.031 C 
ATOM     54  C   UNL A   1      43.025  24.988  26.866  1.00  0.00     0.029 A 
ATOM     55  N   UNL A   1      44.218  26.831  27.288  1.00  0.00    -0.354 N 
ATOM     56  C   UNL A   1      48.409  27.053  26.296  1.00  0.00     0.074 A 
ATOM     57  C   UNL A   1      48.887  25.789  25.781  1.00  0.00     0.031 C 
ATOM     58  C   UNL A   1      42.194  25.885  27.419  1.00  0.00     0.029 A 
ATOM     59  C   UNL A   1      42.940  27.104  27.711  1.00  0.00     0.049 A 
ATOM     60  H   UNL A   1      44.965  27.466  27.379  1.00  0.00     0.167 HD
ATOM     61  C   UNL A   1      49.188  28.147  26.479  1.00  0.00     0.031 A 
ATOM     62  C   UNL A   1      42.422  28.217  28.262  1.00  0.00     0.031 A 
ATOM     63  C   UNL A   1      48.711  29.401  27.005  1.00  0.00     0.049 A 
ATOM     64  C   UNL A   1      43.308  29.411  28.470  1.00  0.00     0.074 A 
ATOM     65  C   UNL A   1      49.407  30.584  27.183  1.00  0.00     0.029 A 
ATOM     66  N   UNL A   1      47.416  29.630  27.447  1.00  0.00    -0.354 N 
ATOM     67  N   UNL A   1      44.577  29.561  28.174  1.00  0.00    -0.248 NA
ATOM     68  C   UNL A   1      42.683  30.595  29.074  1.00  0.00     0.031 C 
ATOM     69  C   UNL A   1      48.551  31.507  27.794  1.00  0.00     0.029 A 
ATOM     70  C   UNL A   1      47.301  30.924  27.931  1.00  0.00     0.049 A 
ATOM     71  H   UNL A   1      46.685  28.971  27.423  1.00  0.00     0.167 HD
ATOM     72  C   UNL A   1      44.898  30.862  28.537  1.00  0.00     0.074 A 
ATOM     73  C   UNL A   1      43.681  31.466  29.044  1.00  0.00     0.031 C 
ATOM     74  C   UNL A   1      46.091  31.502  28.459  1.00  0.00     0.031 A 
BRANCH  61  75
ATOM     75  C   UNL A   1      50.645  28.024  26.121  1.00  0.00    -0.014 A 
ATOM     76  C   UNL A   1      51.601  27.623  27.070  1.00  0.00     0.009 A 
ATOM     77  C   UNL A   1      51.068  28.294  24.810  1.00  0.00     0.009 A 
ATOM     78  C   UNL A   1      52.952  27.540  26.726  1.00  0.00     0.001 A 
ATOM     79  C   UNL A   1      52.415  28.176  24.460  1.00  0.00     0.001 A 
ATOM     80  C   UNL A   1      53.358  27.812  25.420  1.00  0.00     0.000 A 
ENDBRANCH  61  75
BRANCH  62  81
ATOM     81  C   UNL A   1      40.981  28.263  28.627  1.00  0.00    -0.014 A 
ATOM     82  C   UNL A   1      40.543  27.764  29.863  1.00  0.00     0.009 A 
ATOM     83  C   UNL A   1      40.038  28.812  27.744  1.00  0.00     0.009 A 
ATOM     84  C   UNL A   1      39.185  27.789  30.196  1.00  0.00     0.001 A 
ATOM     85  C   UNL A   1      38.688  28.867  28.094  1.00  0.00     0.001 A 
ATOM     86  C   UNL A   1      38.261  28.347  29.314  1.00  0.00     0.000 A 
ENDBRANCH  62  81
BRANCH  74  87
ATOM     87  C   UNL A   1      46.125  32.934  28.923  1.00  0.00    -0.014 A 
ATOM     88  C   UNL A   1      45.824  33.993  28.050  1.00  0.00     0.009 A 
ATOM     89  C   UNL A   1      46.465  33.228  30.253  1.00  0.00     0.009 A 
ATOM     90  C   UNL A   1      45.920  35.317  28.485  1.00  0.00     0.001 A 
ATOM     91  C   UNL A   1      46.523  34.550  30.694  1.00  0.00     0.001 A 
ATOM     92  C   UNL A   1      46.267  35.593  29.807  1.00  0.00     0.000 A 
ENDBRANCH  74  87
ENDBRANCH  48  49
ENDBRANCH  40  43
ENDBRANCH  38  39
ENDBRANCH  37  38
ENDBRANCH  36  37
ENDBRANCH   1  36
TORSDOF 19
ENDMDL
MODEL 2
REMARK VINA RESULT:     -11.0      5.002     10.224
REMARK SMILES Cc1ccc(F)cc1S(=O)(=O)Nc1cc(C(=O)NCCCCCCNC(=O)c2ccc(-c3c4nc(c(-c5ccccc5)c5ccc([nH]5)c(-c5ccccc5)c5nc(c(-c6ccccc6)c6ccc3[nH]6)C=C5)C=C4)cc2)ccc1N(C)Cc1ccccc1
REMARK SMILES IDX 21 1 20 2 19 3 18 4 16 5 17 6 15 8 13 9 14 10 78 11 77 12
REMARK SMILES IDX 76 13 12 14 9 16 10 17 11 18 8 19 1 20 2 21 3 22 4 23 7 24
REMARK SMILES IDX 5 25 6 26 79 27 80 28 81 29 82 30 83 31 87 32 84 33 86 34
REMARK SMILES IDX 85 35 22 36 23 37 24 38 25 39 26 40 27 42 28 43 29 44 75 45
REMARK SMILES IDX 30 46 74 47 31 48 32 49 33 50 68 51 34 52 73 53 67 54 69 55
REMARK SMILES IDX 35 56 72 57 66 58 65 59 36 61 58 62 43 63 57 64 44 65 47 66
REMARK SMILES IDX 56 67 70 68 45 69 46 70 55 72 71 73 48 74 37 75 38 76 42 77
REMARK SMILES IDX 39 78 41 79 40 80 59 81 60 82 64 83 61 84 63 85 62 86 49 87
REMARK SMILES IDX 50 88 54 89 51 90 53 91 52 92
REMARK H PARENT 18 7 12 15 25 41 69 60 47 71
REMARK Flexibility Score: inf
ROOT
ATOM      1  C   UNL A   1      32.249  30.329  26.474  1.00  0.00     0.002 C 
ENDROOT
BRANCH   1   2
ATOM      2  C   UNL A   1      32.131  28.905  25.902  1.00  0.00     0.021 C 
BRANCH   2   3
ATOM      3  C   UNL A   1      32.376  27.782  26.913  1.00  0.00     0.116 C 
BRANCH   3   4
ATOM      4  N   UNL A   1      31.208  26.936  26.999  1.00  0.00    -0.352 N 
ATOM      5  C   UNL A   1      30.943  25.615  26.745  1.00  0.00     0.251 C 
ATOM      6  O   UNL A   1      29.742  25.333  26.677  1.00  0.00    -0.269 OA
ATOM      7  H   UNL A   1      30.413  27.424  27.315  1.00  0.00     0.163 HD
BRANCH   5   8
ATOM      8  C   UNL A   1      31.943  24.490  26.663  1.00  0.00     0.042 A 
ATOM      9  C   UNL A   1      33.801  23.676  25.272  1.00  0.00     0.073 A 
ATOM     10  C   UNL A   1      33.005  24.731  25.785  1.00  0.00     0.042 A 
ATOM     11  C   UNL A   1      33.834  22.386  25.816  1.00  0.00     0.061 A 
ATOM     12  C   UNL A   1      32.827  22.201  26.807  1.00  0.00     0.029 A 
ATOM     13  C   UNL A   1      31.873  23.206  27.189  1.00  0.00     0.016 A 
BRANCH   9  14
ATOM     14  N   UNL A   1      34.151  23.798  23.892  1.00  0.00    -0.277 N 
ATOM     15  H   UNL A   1      35.077  23.873  23.564  1.00  0.00     0.180 HD
BRANCH  14  16
ATOM     16  S   UNL A   1      32.759  23.801  22.862  1.00  0.00     0.262 S 
ATOM     17  O   UNL A   1      31.903  22.724  23.292  1.00  0.00    -0.201 OA
ATOM     18  O   UNL A   1      33.287  23.747  21.509  1.00  0.00    -0.201 OA
BRANCH  16  19
ATOM     19  C   UNL A   1      31.826  25.350  23.053  1.00  0.00     0.093 A 
ATOM     20  C   UNL A   1      33.776  26.902  22.565  1.00  0.00     0.046 C 
ATOM     21  C   UNL A   1      32.321  26.617  22.741  1.00  0.00    -0.030 A 
ATOM     22  C   UNL A   1      31.411  27.698  22.597  1.00  0.00     0.008 A 
ATOM     23  C   UNL A   1      30.048  27.563  22.856  1.00  0.00     0.039 A 
ATOM     24  C   UNL A   1      30.484  25.287  23.405  1.00  0.00     0.061 A 
ATOM     25  C   UNL A   1      29.601  26.352  23.319  1.00  0.00     0.124 A 
ATOM     26  F   UNL A   1      28.324  26.193  23.692  1.00  0.00    -0.207 F 
ENDBRANCH  16  19
ENDBRANCH  14  16
ENDBRANCH   9  14
BRANCH  11  27
ATOM     27  N   UNL A   1      34.663  21.347  25.304  1.00  0.00    -0.369 N 
ATOM     28  C   UNL A   1      36.102  21.647  25.295  1.00  0.00     0.144 C 
BRANCH  27  29
ATOM     29  C   UNL A   1      34.255  20.255  24.301  1.00  0.00     0.151 C 
BRANCH  29  30
ATOM     30  C   UNL A   1      33.855  18.788  24.662  1.00  0.00    -0.029 A 
ATOM     31  C   UNL A   1      32.797  18.337  25.481  1.00  0.00     0.005 A 
ATOM     32  C   UNL A   1      34.731  17.762  24.249  1.00  0.00     0.005 A 
ATOM     33  C   UNL A   1      32.434  16.975  25.563  1.00  0.00     0.000 A 
ATOM     34  C   UNL A   1      34.446  16.396  24.433  1.00  0.00     0.000 A 
ATOM     35  C   UNL A   1      33.250  16.000  25.015  1.00  0.00     0.000 A 
ENDBRANCH  29  30
ENDBRANCH  27  29
ENDBRANCH  11  27
ENDBRANCH   5   8
ENDBRANCH   3   4
ENDBRANCH   2   3
ENDBRANCH   1   2
BRANCH   1  36
ATOM     36  C   UNL A   1      31.120  31.301  26.103  1.00  0.00     0.002 C 
BRANCH  36  37
ATOM     37  C   UNL A   1      31.367  32.764  26.476  1.00  0.00     0.021 C 
BRANCH  37  38
ATOM     38  C   UNL A   1      32.636  33.012  27.285  1.00  0.00     0.116 C 
BRANCH  38  39
ATOM     39  N   UNL A   1      32.666  34.346  27.859  1.00  0.00    -0.352 N 
ATOM     40  C   UNL A   1      33.473  34.859  28.841  1.00  0.00     0.251 C 
ATOM     41  H   UNL A   1      32.008  34.977  27.486  1.00  0.00     0.163 HD
ATOM     42  O   UNL A   1      33.200  35.941  29.353  1.00  0.00    -0.269 OA
BRANCH  40  43
ATOM     43  C   UNL A   1      34.664  34.111  29.298  1.00  0.00     0.039 A 
ATOM     44  C   UNL A   1      35.865  34.279  28.607  1.00  0.00     0.014 A 
ATOM     45  C   UNL A   1      34.596  33.223  30.377  1.00  0.00     0.014 A 
ATOM     46  C   UNL A   1      37.006  33.594  29.024  1.00  0.00     0.010 A 
ATOM     47  C   UNL A   1      35.754  32.603  30.844  1.00  0.00     0.010 A 
ATOM     48  C   UNL A   1      36.969  32.776  30.166  1.00  0.00    -0.014 A 
BRANCH  48  49
ATOM     49  C   UNL A   1      38.208  32.122  30.658  1.00  0.00     0.031 A 
ATOM     50  C   UNL A   1      38.698  30.835  30.053  1.00  0.00     0.074 A 
ATOM     51  C   UNL A   1      38.889  32.692  31.669  1.00  0.00     0.049 A 
ATOM     52  N   UNL A   1      39.795  30.169  30.313  1.00  0.00    -0.248 NA
ATOM     53  C   UNL A   1      37.836  30.202  29.043  1.00  0.00     0.031 C 
ATOM     54  C   UNL A   1      38.489  33.912  32.376  1.00  0.00     0.029 A 
ATOM     55  N   UNL A   1      40.070  32.334  32.268  1.00  0.00    -0.354 N 
ATOM     56  C   UNL A   1      39.755  29.042  29.501  1.00  0.00     0.074 A 
ATOM     57  C   UNL A   1      38.496  29.082  28.789  1.00  0.00     0.031 C 
ATOM     58  C   UNL A   1      39.438  34.232  33.270  1.00  0.00     0.029 A 
ATOM     59  C   UNL A   1      40.488  33.221  33.229  1.00  0.00     0.049 A 
ATOM     60  H   UNL A   1      40.570  31.519  32.031  1.00  0.00     0.167 HD
ATOM     61  C   UNL A   1      40.689  28.073  29.345  1.00  0.00     0.031 A 
ATOM     62  C   UNL A   1      41.601  33.229  33.986  1.00  0.00     0.031 A 
ATOM     63  C   UNL A   1      41.936  28.029  30.065  1.00  0.00     0.049 A 
ATOM     64  C   UNL A   1      42.614  32.136  33.807  1.00  0.00     0.074 A 
ATOM     65  C   UNL A   1      42.972  27.118  29.945  1.00  0.00     0.029 A 
ATOM     66  N   UNL A   1      42.311  28.931  31.050  1.00  0.00    -0.354 N 
ATOM     67  N   UNL A   1      42.599  31.122  32.976  1.00  0.00    -0.248 NA
ATOM     68  C   UNL A   1      43.807  32.201  34.662  1.00  0.00     0.031 C 
ATOM     69  C   UNL A   1      43.943  27.432  30.903  1.00  0.00     0.029 A 
ATOM     70  C   UNL A   1      43.547  28.579  31.571  1.00  0.00     0.049 A 
ATOM     71  H   UNL A   1      41.779  29.707  31.338  1.00  0.00     0.167 HD
ATOM     72  C   UNL A   1      43.789  30.438  33.193  1.00  0.00     0.074 A 
ATOM     73  C   UNL A   1      44.513  31.174  34.211  1.00  0.00     0.031 C 
ATOM     74  C   UNL A   1      44.243  29.304  32.604  1.00  0.00     0.031 A 
BRANCH  61  75
ATOM     75  C   UNL A   1      40.384  26.971  28.365  1.00  0.00    -0.014 A 
ATOM     76  C   UNL A   1      40.873  27.007  27.048  1.00  0.00     0.009 A 
ATOM     77  C   UNL A   1      39.613  25.870  28.768  1.00  0.00     0.009 A 
ATOM     78  C   UNL A   1      40.558  25.989  26.146  1.00  0.00     0.001 A 
ATOM     79  C   UNL A   1      39.328  24.836  27.873  1.00  0.00     0.001 A 
ATOM     80  C   UNL A   1      39.789  24.902  26.560  1.00  0.00     0.000 A 
ENDBRANCH  61  75
BRANCH  62  81
ATOM     81  C   UNL A   1      41.827  34.328  34.963  1.00  0.00    -0.014 A 
ATOM     82  C   UNL A   1      41.364  34.215  36.283  1.00  0.00     0.009 A 
ATOM     83  C   UNL A   1      42.512  35.492  34.581  1.00  0.00     0.009 A 
ATOM     84  C   UNL A   1      41.560  35.257  37.193  1.00  0.00     0.001 A 
ATOM     85  C   UNL A   1      42.736  36.517  35.502  1.00  0.00     0.001 A 
ATOM     86  C   UNL A   1      42.251  36.403  36.804  1.00  0.00     0.000 A 
ENDBRANCH  62  81
BRANCH  74  87
ATOM     87  C   UNL A   1      45.593  28.805  33.044  1.00  0.00    -0.014 A 
ATOM     88  C   UNL A   1      46.778  29.319  32.493  1.00  0.00     0.009 A 
ATOM     89  C   UNL A   1      45.681  27.804  34.024  1.00  0.00     0.009 A 
ATOM     90  C   UNL A   1      48.018  28.799  32.871  1.00  0.00     0.001 A 
ATOM     91  C   UNL A   1      46.922  27.313  34.427  1.00  0.00     0.001 A 
ATOM     92  C   UNL A   1      48.089  27.799  33.840  1.00  0.00     0.000 A 
ENDBRANCH  74  87
ENDBRANCH  48  49
ENDBRANCH  40  43
ENDBRANCH  38  39
ENDBRANCH  37  38
ENDBRANCH  36  37
ENDBRANCH   1  36
TORSDOF 19
ENDMDL
MODEL 3
REMARK VINA RESULT:     -10.9      0.523      5.552
REMARK SMILES Cc1ccc(F)cc1S(=O)(=O)Nc1cc(C(=O)NCCCCCCNC(=O)c2ccc(-c3c4nc(c(-c5ccccc5)c5ccc([nH]5)c(-c5ccccc5)c5nc(c(-c6ccccc6)c6ccc3[nH]6)C=C5)C=C4)cc2)ccc1N(C)Cc1ccccc1
REMARK SMILES IDX 21 1 20 2 19 3 18 4 16 5 17 6 15 8 13 9 14 10 78 11 77 12
REMARK SMILES IDX 76 13 12 14 9 16 10 17 11 18 8 19 1 20 2 21 3 22 4 23 7 24
REMARK SMILES IDX 5 25 6 26 79 27 80 28 81 29 82 30 83 31 87 32 84 33 86 34
REMARK SMILES IDX 85 35 22 36 23 37 24 38 25 39 26 40 27 42 28 43 29 44 75 45
REMARK SMILES IDX 30 46 74 47 31 48 32 49 33 50 68 51 34 52 73 53 67 54 69 55
REMARK SMILES IDX 35 56 72 57 66 58 65 59 36 61 58 62 43 63 57 64 44 65 47 66
REMARK SMILES IDX 56 67 70 68 45 69 46 70 55 72 71 73 48 74 37 75 38 76 42 77
REMARK SMILES IDX 39 78 41 79 40 80 59 81 60 82 64 83 61 84 63 85 62 86 49 87
REMARK SMILES IDX 50 88 54 89 51 90 53 91 52 92
REMARK H PARENT 18 7 12 15 25 41 69 60 47 71
REMARK Flexibility Score: inf
ROOT
ATOM      1  C   UNL A   1      41.769  21.828  26.589  1.00  0.00     0.002 C 
ENDROOT
BRANCH   1   2
ATOM      2  C   UNL A   1      40.576  22.482  25.868  1.00  0.00     0.021 C 
BRANCH   2   3
ATOM      3  C   UNL A   1      39.246  22.401  26.620  1.00  0.00     0.116 C 
BRANCH   3   4
ATOM      4  N   UNL A   1      38.421  21.362  26.047  1.00  0.00    -0.352 N 
ATOM      5  C   UNL A   1      37.206  21.325  25.413  1.00  0.00     0.251 C 
ATOM      6  O   UNL A   1      36.708  20.198  25.317  1.00  0.00    -0.269 OA
ATOM      7  H   UNL A   1      38.827  20.470  26.131  1.00  0.00     0.163 HD
BRANCH   5   8
ATOM      8  C   UNL A   1      36.499  22.474  24.739  1.00  0.00     0.042 A 
ATOM      9  C   UNL A   1      34.951  24.322  25.225  1.00  0.00     0.073 A 
ATOM     10  C   UNL A   1      35.967  23.418  25.623  1.00  0.00     0.042 A 
ATOM     11  C   UNL A   1      34.623  24.589  23.890  1.00  0.00     0.061 A 
ATOM     12  C   UNL A   1      35.281  23.701  22.991  1.00  0.00     0.029 A 
ATOM     13  C   UNL A   1      36.158  22.638  23.402  1.00  0.00     0.016 A 
BRANCH   9  14
ATOM     14  N   UNL A   1      33.923  24.543  26.193  1.00  0.00    -0.277 N 
ATOM     15  H   UNL A   1      33.623  25.435  26.481  1.00  0.00     0.180 HD
BRANCH  14  16
ATOM     16  S   UNL A   1      33.269  23.060  26.802  1.00  0.00     0.262 S 
ATOM     17  O   UNL A   1      32.092  23.390  27.567  1.00  0.00    -0.201 OA
ATOM     18  O   UNL A   1      34.370  22.417  27.499  1.00  0.00    -0.201 OA
BRANCH  16  19
ATOM     19  C   UNL A   1      32.747  21.981  25.434  1.00  0.00     0.093 A 
ATOM     20  C   UNL A   1      30.940  23.528  24.546  1.00  0.00     0.046 C 
ATOM     21  C   UNL A   1      31.853  22.352  24.430  1.00  0.00    -0.030 A 
ATOM     22  C   UNL A   1      31.786  21.576  23.242  1.00  0.00     0.008 A 
ATOM     23  C   UNL A   1      32.509  20.394  23.085  1.00  0.00     0.039 A 
ATOM     24  C   UNL A   1      33.363  20.747  25.280  1.00  0.00     0.061 A 
ATOM     25  C   UNL A   1      33.260  19.957  24.146  1.00  0.00     0.124 A 
ATOM     26  F   UNL A   1      33.887  18.773  24.096  1.00  0.00    -0.207 F 
ENDBRANCH  16  19
ENDBRANCH  14  16
ENDBRANCH   9  14
BRANCH  11  27
ATOM     27  N   UNL A   1      33.618  25.524  23.509  1.00  0.00    -0.369 N 
ATOM     28  C   UNL A   1      32.914  25.205  22.258  1.00  0.00     0.144 C 
BRANCH  27  29
ATOM     29  C   UNL A   1      33.555  27.013  23.888  1.00  0.00     0.151 C 
BRANCH  29  30
ATOM     30  C   UNL A   1      32.821  27.606  25.134  1.00  0.00    -0.029 A 
ATOM     31  C   UNL A   1      31.619  27.178  25.738  1.00  0.00     0.005 A 
ATOM     32  C   UNL A   1      33.323  28.814  25.662  1.00  0.00     0.005 A 
ATOM     33  C   UNL A   1      31.174  27.686  26.978  1.00  0.00     0.000 A 
ATOM     34  C   UNL A   1      32.811  29.407  26.831  1.00  0.00     0.000 A 
ATOM     35  C   UNL A   1      31.788  28.792  27.541  1.00  0.00     0.000 A 
ENDBRANCH  29  30
ENDBRANCH  27  29
ENDBRANCH  11  27
ENDBRANCH   5   8
ENDBRANCH   3   4
ENDBRANCH   2   3
ENDBRANCH   1   2
BRANCH   1  36
ATOM     36  C   UNL A   1      41.609  20.345  26.948  1.00  0.00     0.002 C 
BRANCH  36  37
ATOM     37  C   UNL A   1      42.083  19.357  25.880  1.00  0.00     0.021 C 
BRANCH  37  38
ATOM     38  C   UNL A   1      43.437  18.713  26.161  1.00  0.00     0.116 C 
BRANCH  38  39
ATOM     39  N   UNL A   1      44.224  18.547  24.951  1.00  0.00    -0.352 N 
ATOM     40  C   UNL A   1      44.808  19.493  24.150  1.00  0.00     0.251 C 
ATOM     41  H   UNL A   1      44.357  17.615  24.664  1.00  0.00     0.163 HD
ATOM     42  O   UNL A   1      45.241  19.177  23.045  1.00  0.00    -0.269 OA
BRANCH  40  43
ATOM     43  C   UNL A   1      44.907  20.898  24.600  1.00  0.00     0.039 A 
ATOM     44  C   UNL A   1      45.505  21.163  25.834  1.00  0.00     0.014 A 
ATOM     45  C   UNL A   1      44.386  21.947  23.836  1.00  0.00     0.014 A 
ATOM     46  C   UNL A   1      45.622  22.481  26.278  1.00  0.00     0.010 A 
ATOM     47  C   UNL A   1      44.577  23.268  24.241  1.00  0.00     0.010 A 
ATOM     48  C   UNL A   1      45.189  23.547  25.471  1.00  0.00    -0.014 A 
BRANCH  48  49
ATOM     49  C   UNL A   1      45.399  24.950  25.910  1.00  0.00     0.031 A 
ATOM     50  C   UNL A   1      44.281  25.744  26.526  1.00  0.00     0.074 A 
ATOM     51  C   UNL A   1      46.610  25.513  25.736  1.00  0.00     0.049 A 
ATOM     52  N   UNL A   1      44.311  26.953  27.028  1.00  0.00    -0.248 NA
ATOM     53  C   UNL A   1      42.954  25.111  26.565  1.00  0.00     0.031 C 
ATOM     54  C   UNL A   1      47.760  24.865  25.102  1.00  0.00     0.029 A 
ATOM     55  N   UNL A   1      47.081  26.750  26.094  1.00  0.00    -0.354 N 
ATOM     56  C   UNL A   1      43.012  27.224  27.441  1.00  0.00     0.074 A 
ATOM     57  C   UNL A   1      42.207  26.080  27.072  1.00  0.00     0.031 C 
ATOM     58  C   UNL A   1      48.819  25.687  25.169  1.00  0.00     0.029 A 
ATOM     59  C   UNL A   1      48.412  26.932  25.810  1.00  0.00     0.049 A 
ATOM     60  H   UNL A   1      46.518  27.442  26.513  1.00  0.00     0.167 HD
ATOM     61  C   UNL A   1      42.536  28.316  28.088  1.00  0.00     0.031 A 
ATOM     62  C   UNL A   1      49.222  27.980  26.051  1.00  0.00     0.031 A 
ATOM     63  C   UNL A   1      43.337  29.459  28.443  1.00  0.00     0.049 A 
ATOM     64  C   UNL A   1      48.667  29.185  26.755  1.00  0.00     0.074 A 
ATOM     65  C   UNL A   1      42.963  30.594  29.141  1.00  0.00     0.029 A 
ATOM     66  N   UNL A   1      44.676  29.617  28.114  1.00  0.00    -0.354 N 
ATOM     67  N   UNL A   1      47.455  29.391  27.212  1.00  0.00    -0.248 NA
ATOM     68  C   UNL A   1      49.600  30.294  26.989  1.00  0.00     0.031 C 
ATOM     69  C   UNL A   1      44.057  31.466  29.178  1.00  0.00     0.029 A 
ATOM     70  C   UNL A   1      45.133  30.846  28.565  1.00  0.00     0.049 A 
ATOM     71  H   UNL A   1      45.221  28.956  27.631  1.00  0.00     0.167 HD
ATOM     72  C   UNL A   1      47.485  30.646  27.807  1.00  0.00     0.074 A 
ATOM     73  C   UNL A   1      48.844  31.136  27.679  1.00  0.00     0.031 C 
ATOM     74  C   UNL A   1      46.481  31.333  28.405  1.00  0.00     0.031 A 
BRANCH  61  75
ATOM     75  C   UNL A   1      41.071  28.326  28.438  1.00  0.00    -0.014 A 
ATOM     76  C   UNL A   1      40.597  27.734  29.620  1.00  0.00     0.009 A 
ATOM     77  C   UNL A   1      40.152  28.955  27.584  1.00  0.00     0.009 A 
ATOM     78  C   UNL A   1      39.232  27.730  29.916  1.00  0.00     0.001 A 
ATOM     79  C   UNL A   1      38.792  28.980  27.899  1.00  0.00     0.001 A 
ATOM     80  C   UNL A   1      38.331  28.357  29.057  1.00  0.00     0.000 A 
ENDBRANCH  61  75
BRANCH  62  81
ATOM     81  C   UNL A   1      50.652  27.922  25.648  1.00  0.00    -0.014 A 
ATOM     82  C   UNL A   1      51.632  27.495  26.556  1.00  0.00     0.009 A 
ATOM     83  C   UNL A   1      51.042  28.287  24.350  1.00  0.00     0.009 A 
ATOM     84  C   UNL A   1      52.978  27.461  26.181  1.00  0.00     0.001 A 
ATOM     85  C   UNL A   1      52.383  28.219  23.967  1.00  0.00     0.001 A 
ATOM     86  C   UNL A   1      53.350  27.816  24.885  1.00  0.00     0.000 A 
ENDBRANCH  62  81
BRANCH  74  87
ATOM     87  C   UNL A   1      46.827  32.682  28.976  1.00  0.00    -0.014 A 
ATOM     88  C   UNL A   1      47.287  32.822  30.296  1.00  0.00     0.009 A 
ATOM     89  C   UNL A   1      46.689  33.831  28.182  1.00  0.00     0.009 A 
ATOM     90  C   UNL A   1      47.545  34.088  30.825  1.00  0.00     0.001 A 
ATOM     91  C   UNL A   1      46.983  35.092  28.701  1.00  0.00     0.001 A 
ATOM     92  C   UNL A   1      47.395  35.221  30.026  1.00  0.00     0.000 A 
ENDBRANCH  74  87
ENDBRANCH  48  49
ENDBRANCH  40  43
ENDBRANCH  38  39
ENDBRANCH  37  38
ENDBRANCH  36  37
ENDBRANCH   1  36
TORSDOF 19
ENDMDL
