MODEL 1
REMARK VINA RESULT:     -10.7      0.000      0.000
REMARK SMILES C[C@H]1CC[C@@](NC(=O)C(F)(F)F)(C(=O)NCCCCCCNC(=O)c2ccc(-c3c4nc(c(-c5ccccc5)c5ccc([nH]5)c(-c5ccccc5)c5nc(c(-c6ccccc6)c6ccc3[nH]6)C=C5)C=C4)cc2)CC1
REMARK SMILES IDX 18 1 17 2 16 3 15 4 13 5 14 6 5 8 1 9 2 10 74 11 3 12 73 13
REMARK SMILES IDX 4 14 6 15 7 16 8 18 9 19 10 20 11 21 12 22 19 23 20 24 21 25
REMARK SMILES IDX 22 26 23 27 24 29 25 30 26 31 72 32 27 33 71 34 28 35 29 36
REMARK SMILES IDX 30 37 65 38 31 39 70 40 64 41 66 42 32 43 69 44 63 45 62 46
REMARK SMILES IDX 33 48 55 49 40 50 54 51 41 52 44 53 53 54 67 55 42 56 43 57
REMARK SMILES IDX 52 59 68 60 45 61 34 62 35 63 39 64 36 65 38 66 37 67 56 68
REMARK SMILES IDX 57 69 61 70 58 71 60 72 59 73 46 74 47 75 51 76 48 77 50 78
REMARK SMILES IDX 49 79
REMARK H PARENT 15 7 6 17 22 28 66 47 44 58
REMARK Flexibility Score: inf
ROOT
ATOM      1  C   UNL A   1      36.712  21.769  25.623  1.00  0.00     0.002 C 
ENDROOT
BRANCH   1   2
ATOM      2  C   UNL A   1      36.385  22.939  24.685  1.00  0.00     0.021 C 
BRANCH   2   3
ATOM      3  C   UNL A   1      35.862  24.174  25.411  1.00  0.00     0.116 C 
BRANCH   3   4
ATOM      4  N   UNL A   1      34.604  23.871  26.058  1.00  0.00    -0.354 N 
ATOM      5  C   UNL A   1      33.338  24.305  25.835  1.00  0.00     0.245 C 
ATOM      6  O   UNL A   1      32.482  23.887  26.618  1.00  0.00    -0.272 OA
ATOM      7  H   UNL A   1      34.680  23.230  26.800  1.00  0.00     0.163 HD
BRANCH   5   8
ATOM      8  C   UNL A   1      33.006  25.319  24.700  1.00  0.00     0.119 C 
ATOM      9  C   UNL A   1      31.394  28.173  27.621  1.00  0.00     0.007 C 
ATOM     10  C   UNL A   1      31.809  27.631  26.253  1.00  0.00    -0.014 C 
ATOM     11  C   UNL A   1      30.965  26.406  25.869  1.00  0.00     0.006 C 
ATOM     12  C   UNL A   1      33.305  27.326  26.261  1.00  0.00     0.006 C 
ATOM     13  C   UNL A   1      31.492  25.634  24.646  1.00  0.00     0.039 C 
ATOM     14  C   UNL A   1      33.738  26.662  24.963  1.00  0.00     0.039 C 
BRANCH   8  15
ATOM     15  N   UNL A   1      33.481  24.812  23.382  1.00  0.00    -0.334 N 
ATOM     16  C   UNL A   1      33.130  23.711  22.637  1.00  0.00     0.326 C 
ATOM     17  H   UNL A   1      34.177  25.370  22.967  1.00  0.00     0.164 HD
ATOM     18  O   UNL A   1      33.568  23.703  21.477  1.00  0.00    -0.265 OA
BRANCH  16  19
ATOM     19  C   UNL A   1      32.352  22.505  23.223  1.00  0.00     0.471 C 
ATOM     20  F   UNL A   1      32.098  21.555  22.278  1.00  0.00    -0.162 F 
ATOM     21  F   UNL A   1      33.008  21.887  24.238  1.00  0.00    -0.162 F 
ATOM     22  F   UNL A   1      31.134  22.864  23.720  1.00  0.00    -0.162 F 
ENDBRANCH  16  19
ENDBRANCH   8  15
ENDBRANCH   5   8
ENDBRANCH   3   4
ENDBRANCH   2   3
ENDBRANCH   1   2
BRANCH   1  23
ATOM     23  C   UNL A   1      36.519  20.381  25.003  1.00  0.00     0.002 C 
BRANCH  23  24
ATOM     24  C   UNL A   1      37.771  19.498  25.008  1.00  0.00     0.021 C 
BRANCH  24  25
ATOM     25  C   UNL A   1      38.963  20.088  25.752  1.00  0.00     0.116 C 
BRANCH  25  26
ATOM     26  N   UNL A   1      40.111  19.198  25.751  1.00  0.00    -0.352 N 
ATOM     27  C   UNL A   1      41.417  19.464  26.062  1.00  0.00     0.251 C 
ATOM     28  H   UNL A   1      39.922  18.269  25.486  1.00  0.00     0.163 HD
ATOM     29  O   UNL A   1      42.279  18.615  25.867  1.00  0.00    -0.269 OA
BRANCH  27  30
ATOM     30  C   UNL A   1      41.794  20.784  26.609  1.00  0.00     0.039 A 
ATOM     31  C   UNL A   1      42.246  21.760  25.719  1.00  0.00     0.014 A 
ATOM     32  C   UNL A   1      41.729  21.055  27.979  1.00  0.00     0.014 A 
ATOM     33  C   UNL A   1      42.599  23.020  26.199  1.00  0.00     0.010 A 
ATOM     34  C   UNL A   1      42.018  22.334  28.450  1.00  0.00     0.010 A 
ATOM     35  C   UNL A   1      42.465  23.325  27.564  1.00  0.00    -0.014 A 
BRANCH  35  36
ATOM     36  C   UNL A   1      42.792  24.685  28.055  1.00  0.00     0.031 A 
ATOM     37  C   UNL A   1      44.220  25.106  28.256  1.00  0.00     0.074 A 
ATOM     38  C   UNL A   1      41.789  25.541  28.328  1.00  0.00     0.049 A 
ATOM     39  N   UNL A   1      44.690  26.279  28.600  1.00  0.00    -0.248 NA
ATOM     40  C   UNL A   1      45.253  24.076  28.067  1.00  0.00     0.031 C 
ATOM     41  C   UNL A   1      40.361  25.231  28.228  1.00  0.00     0.029 A 
ATOM     42  N   UNL A   1      41.819  26.852  28.729  1.00  0.00    -0.354 N 
ATOM     43  C   UNL A   1      46.069  26.126  28.670  1.00  0.00     0.074 A 
ATOM     44  C   UNL A   1      46.356  24.736  28.388  1.00  0.00     0.031 C 
ATOM     45  C   UNL A   1      39.652  26.335  28.513  1.00  0.00     0.029 A 
ATOM     46  C   UNL A   1      40.573  27.420  28.836  1.00  0.00     0.049 A 
ATOM     47  H   UNL A   1      42.654  27.339  28.921  1.00  0.00     0.167 HD
ATOM     48  C   UNL A   1      47.013  27.063  28.926  1.00  0.00     0.031 A 
ATOM     49  C   UNL A   1      40.214  28.679  29.142  1.00  0.00     0.031 A 
ATOM     50  C   UNL A   1      46.728  28.446  29.201  1.00  0.00     0.049 A 
ATOM     51  C   UNL A   1      41.280  29.703  29.403  1.00  0.00     0.074 A 
ATOM     52  C   UNL A   1      47.618  29.485  29.415  1.00  0.00     0.029 A 
ATOM     53  N   UNL A   1      45.454  28.983  29.304  1.00  0.00    -0.354 N 
ATOM     54  N   UNL A   1      42.583  29.564  29.382  1.00  0.00    -0.248 NA
ATOM     55  C   UNL A   1      40.823  31.066  29.709  1.00  0.00     0.031 C 
ATOM     56  C   UNL A   1      46.880  30.642  29.692  1.00  0.00     0.029 A 
ATOM     57  C   UNL A   1      45.532  30.332  29.602  1.00  0.00     0.049 A 
ATOM     58  H   UNL A   1      44.618  28.477  29.184  1.00  0.00     0.167 HD
ATOM     59  C   UNL A   1      43.102  30.821  29.656  1.00  0.00     0.074 A 
ATOM     60  C   UNL A   1      41.973  31.715  29.813  1.00  0.00     0.031 C 
ATOM     61  C   UNL A   1      44.398  31.203  29.771  1.00  0.00     0.031 A 
BRANCH  48  62
ATOM     62  C   UNL A   1      48.448  26.615  28.920  1.00  0.00    -0.014 A 
ATOM     63  C   UNL A   1      49.235  26.715  27.761  1.00  0.00     0.009 A 
ATOM     64  C   UNL A   1      49.030  26.113  30.094  1.00  0.00     0.009 A 
ATOM     65  C   UNL A   1      50.566  26.289  27.769  1.00  0.00     0.001 A 
ATOM     66  C   UNL A   1      50.368  25.712  30.106  1.00  0.00     0.001 A 
ATOM     67  C   UNL A   1      51.131  25.792  28.942  1.00  0.00     0.000 A 
ENDBRANCH  48  62
BRANCH  49  68
ATOM     68  C   UNL A   1      38.777  29.052  29.177  1.00  0.00    -0.014 A 
ATOM     69  C   UNL A   1      38.059  29.004  30.382  1.00  0.00     0.009 A 
ATOM     70  C   UNL A   1      38.116  29.458  28.008  1.00  0.00     0.009 A 
ATOM     71  C   UNL A   1      36.701  29.330  30.410  1.00  0.00     0.001 A 
ATOM     72  C   UNL A   1      36.765  29.809  28.043  1.00  0.00     0.001 A 
ATOM     73  C   UNL A   1      36.057  29.736  29.242  1.00  0.00     0.000 A 
ENDBRANCH  49  68
BRANCH  61  74
ATOM     74  C   UNL A   1      44.653  32.653  30.070  1.00  0.00    -0.014 A 
ATOM     75  C   UNL A   1      44.779  33.594  29.035  1.00  0.00     0.009 A 
ATOM     76  C   UNL A   1      44.760  33.084  31.401  1.00  0.00     0.009 A 
ATOM     77  C   UNL A   1      45.049  34.932  29.329  1.00  0.00     0.001 A 
ATOM     78  C   UNL A   1      45.002  34.427  31.692  1.00  0.00     0.001 A 
ATOM     79  C   UNL A   1      45.158  35.347  30.656  1.00  0.00     0.000 A 
ENDBRANCH  61  74
ENDBRANCH  35  36
ENDBRANCH  27  30
ENDBRANCH  25  26
ENDBRANCH  24  25
ENDBRANCH  23  24
ENDBRANCH   1  23
TORSDOF 15
ENDMDL
MODEL 2
REMARK VINA RESULT:     -10.6      4.199      9.255
REMARK SMILES C[C@H]1CC[C@@](NC(=O)C(F)(F)F)(C(=O)NCCCCCCNC(=O)c2ccc(-c3c4nc(c(-c5ccccc5)c5ccc([nH]5)c(-c5ccccc5)c5nc(c(-c6ccccc6)c6ccc3[nH]6)C=C5)C=C4)cc2)CC1
REMARK SMILES IDX 18 1 17 2 16 3 15 4 13 5 14 6 5 8 1 9 2 10 74 11 3 12 73 13
REMARK SMILES IDX 4 14 6 15 7 16 8 18 9 19 10 20 11 21 12 22 19 23 20 24 21 25
REMARK SMILES IDX 22 26 23 27 24 29 25 30 26 31 72 32 27 33 71 34 28 35 29 36
REMARK SMILES IDX 30 37 65 38 31 39 70 40 64 41 66 42 32 43 69 44 63 45 62 46
REMARK SMILES IDX 33 48 55 49 40 50 54 51 41 52 44 53 53 54 67 55 42 56 43 57
REMARK SMILES IDX 52 59 68 60 45 61 34 62 35 63 39 64 36 65 38 66 37 67 56 68
REMARK SMILES IDX 57 69 61 70 58 71 60 72 59 73 46 74 47 75 51 76 48 77 50 78
REMARK SMILES IDX 49 79
REMARK H PARENT 15 7 6 17 22 28 66 47 44 58
REMARK Flexibility Score: inf
ROOT
ATOM      1  C   UNL A   1      32.300  29.805  27.196  1.00  0.00     0.002 C 
ENDROOT
BRANCH   1   2
ATOM      2  C   UNL A   1      33.619  29.216  26.680  1.00  0.00     0.021 C 
BRANCH   2   3
ATOM      3  C   UNL A   1      33.564  27.711  26.442  1.00  0.00     0.116 C 
BRANCH   3   4
ATOM      4  N   UNL A   1      33.564  27.435  25.021  1.00  0.00    -0.354 N 
ATOM      5  C   UNL A   1      33.327  26.303  24.314  1.00  0.00     0.245 C 
ATOM      6  O   UNL A   1      33.466  26.395  23.092  1.00  0.00    -0.272 OA
ATOM      7  H   UNL A   1      33.777  28.217  24.462  1.00  0.00     0.163 HD
BRANCH   5   8
ATOM      8  C   UNL A   1      32.965  24.959  25.013  1.00  0.00     0.119 C 
ATOM      9  C   UNL A   1      36.508  23.024  23.286  1.00  0.00     0.007 C 
ATOM     10  C   UNL A   1      35.233  23.156  24.120  1.00  0.00    -0.014 C 
ATOM     11  C   UNL A   1      34.013  23.408  23.222  1.00  0.00     0.006 C 
ATOM     12  C   UNL A   1      35.422  24.255  25.164  1.00  0.00     0.006 C 
ATOM     13  C   UNL A   1      32.742  23.825  23.984  1.00  0.00     0.039 C 
ATOM     14  C   UNL A   1      34.135  24.512  25.931  1.00  0.00     0.039 C 
BRANCH   8  15
ATOM     15  N   UNL A   1      31.765  25.120  25.880  1.00  0.00    -0.334 N 
ATOM     16  C   UNL A   1      30.458  25.441  25.596  1.00  0.00     0.326 C 
ATOM     17  H   UNL A   1      31.940  24.967  26.837  1.00  0.00     0.164 HD
ATOM     18  O   UNL A   1      29.664  25.277  26.533  1.00  0.00    -0.265 OA
BRANCH  16  19
ATOM     19  C   UNL A   1      30.016  26.079  24.254  1.00  0.00     0.471 C 
ATOM     20  F   UNL A   1      30.493  25.388  23.179  1.00  0.00    -0.162 F 
ATOM     21  F   UNL A   1      28.668  26.149  24.113  1.00  0.00    -0.162 F 
ATOM     22  F   UNL A   1      30.480  27.353  24.107  1.00  0.00    -0.162 F 
ENDBRANCH  16  19
ENDBRANCH   8  15
ENDBRANCH   5   8
ENDBRANCH   3   4
ENDBRANCH   2   3
ENDBRANCH   1   2
BRANCH   1  23
ATOM     23  C   UNL A   1      31.532  30.647  26.171  1.00  0.00     0.002 C 
BRANCH  23  24
ATOM     24  C   UNL A   1      31.372  32.123  26.547  1.00  0.00     0.021 C 
BRANCH  24  25
ATOM     25  C   UNL A   1      32.649  32.798  27.037  1.00  0.00     0.116 C 
BRANCH  25  26
ATOM     26  N   UNL A   1      32.392  34.090  27.646  1.00  0.00    -0.352 N 
ATOM     27  C   UNL A   1      33.083  34.738  28.634  1.00  0.00     0.251 C 
ATOM     28  H   UNL A   1      31.606  34.570  27.298  1.00  0.00     0.163 HD
ATOM     29  O   UNL A   1      32.633  35.768  29.123  1.00  0.00    -0.269 OA
BRANCH  27  30
ATOM     30  C   UNL A   1      34.358  34.182  29.132  1.00  0.00     0.039 A 
ATOM     31  C   UNL A   1      34.318  33.331  30.238  1.00  0.00     0.014 A 
ATOM     32  C   UNL A   1      35.582  34.510  28.539  1.00  0.00     0.014 A 
ATOM     33  C   UNL A   1      35.501  32.779  30.727  1.00  0.00     0.010 A 
ATOM     34  C   UNL A   1      36.755  33.907  28.986  1.00  0.00     0.010 A 
ATOM     35  C   UNL A   1      36.725  33.044  30.091  1.00  0.00    -0.014 A 
BRANCH  35  36
ATOM     36  C   UNL A   1      37.970  32.409  30.586  1.00  0.00     0.031 A 
ATOM     37  C   UNL A   1      38.663  32.932  31.812  1.00  0.00     0.074 A 
ATOM     38  C   UNL A   1      38.479  31.356  29.919  1.00  0.00     0.049 A 
ATOM     39  N   UNL A   1      39.712  32.451  32.431  1.00  0.00    -0.248 NA
ATOM     40  C   UNL A   1      38.125  34.165  32.409  1.00  0.00     0.031 C 
ATOM     41  C   UNL A   1      37.929  30.791  28.684  1.00  0.00     0.029 A 
ATOM     42  N   UNL A   1      39.563  30.564  30.195  1.00  0.00    -0.354 N 
ATOM     43  C   UNL A   1      39.960  33.321  33.485  1.00  0.00     0.074 A 
ATOM     44  C   UNL A   1      38.987  34.389  33.390  1.00  0.00     0.031 C 
ATOM     45  C   UNL A   1      38.651  29.715  28.335  1.00  0.00     0.029 A 
ATOM     46  C   UNL A   1      39.724  29.528  29.306  1.00  0.00     0.049 A 
ATOM     47  H   UNL A   1      40.167  30.722  30.956  1.00  0.00     0.167 HD
ATOM     48  C   UNL A   1      40.898  33.230  34.457  1.00  0.00     0.031 A 
ATOM     49  C   UNL A   1      40.625  28.530  29.287  1.00  0.00     0.031 A 
ATOM     50  C   UNL A   1      41.862  32.166  34.555  1.00  0.00     0.049 A 
ATOM     51  C   UNL A   1      41.644  28.440  30.387  1.00  0.00     0.074 A 
ATOM     52  C   UNL A   1      42.816  31.952  35.536  1.00  0.00     0.029 A 
ATOM     53  N   UNL A   1      41.996  31.137  33.635  1.00  0.00    -0.354 N 
ATOM     54  N   UNL A   1      41.811  29.223  31.425  1.00  0.00    -0.248 NA
ATOM     55  C   UNL A   1      42.584  27.313  30.322  1.00  0.00     0.031 C 
ATOM     56  C   UNL A   1      43.557  30.817  35.184  1.00  0.00     0.029 A 
ATOM     57  C   UNL A   1      43.031  30.299  34.011  1.00  0.00     0.049 A 
ATOM     58  H   UNL A   1      41.437  31.022  32.833  1.00  0.00     0.167 HD
ATOM     59  C   UNL A   1      42.864  28.676  32.144  1.00  0.00     0.074 A 
ATOM     60  C   UNL A   1      43.278  27.480  31.438  1.00  0.00     0.031 C 
ATOM     61  C   UNL A   1      43.441  29.123  33.287  1.00  0.00     0.031 A 
BRANCH  48  62
ATOM     62  C   UNL A   1      40.925  34.318  35.495  1.00  0.00    -0.014 A 
ATOM     63  C   UNL A   1      41.723  35.461  35.327  1.00  0.00     0.009 A 
ATOM     64  C   UNL A   1      40.120  34.214  36.639  1.00  0.00     0.009 A 
ATOM     65  C   UNL A   1      41.742  36.461  36.303  1.00  0.00     0.001 A 
ATOM     66  C   UNL A   1      40.120  35.227  37.601  1.00  0.00     0.001 A 
ATOM     67  C   UNL A   1      40.938  36.345  37.436  1.00  0.00     0.000 A 
ENDBRANCH  48  62
BRANCH  49  68
ATOM     68  C   UNL A   1      40.577  27.509  28.210  1.00  0.00    -0.014 A 
ATOM     69  C   UNL A   1      41.278  27.708  27.011  1.00  0.00     0.009 A 
ATOM     70  C   UNL A   1      39.832  26.331  28.375  1.00  0.00     0.009 A 
ATOM     71  C   UNL A   1      41.212  26.759  25.987  1.00  0.00     0.001 A 
ATOM     72  C   UNL A   1      39.789  25.373  27.361  1.00  0.00     0.001 A 
ATOM     73  C   UNL A   1      40.471  25.592  26.166  1.00  0.00     0.000 A 
ENDBRANCH  49  68
BRANCH  61  74
ATOM     74  C   UNL A   1      44.571  28.304  33.841  1.00  0.00    -0.014 A 
ATOM     75  C   UNL A   1      44.330  27.249  34.735  1.00  0.00     0.009 A 
ATOM     76  C   UNL A   1      45.891  28.586  33.458  1.00  0.00     0.009 A 
ATOM     77  C   UNL A   1      45.395  26.520  35.267  1.00  0.00     0.001 A 
ATOM     78  C   UNL A   1      46.951  27.837  33.970  1.00  0.00     0.001 A 
ATOM     79  C   UNL A   1      46.704  26.813  34.882  1.00  0.00     0.000 A 
ENDBRANCH  61  74
ENDBRANCH  35  36
ENDBRANCH  27  30
ENDBRANCH  25  26
ENDBRANCH  24  25
ENDBRANCH  23  24
ENDBRANCH   1  23
TORSDOF 15
ENDMDL
MODEL 3
REMARK VINA RESULT:     -10.6      3.465      8.697
REMARK SMILES C[C@H]1CC[C@@](NC(=O)C(F)(F)F)(C(=O)NCCCCCCNC(=O)c2ccc(-c3c4nc(c(-c5ccccc5)c5ccc([nH]5)c(-c5ccccc5)c5nc(c(-c6ccccc6)c6ccc3[nH]6)C=C5)C=C4)cc2)CC1
REMARK SMILES IDX 18 1 17 2 16 3 15 4 13 5 14 6 5 8 1 9 2 10 74 11 3 12 73 13
REMARK SMILES IDX 4 14 6 15 7 16 8 18 9 19 10 20 11 21 12 22 19 23 20 24 21 25
REMARK SMILES IDX 22 26 23 27 24 29 25 30 26 31 72 32 27 33 71 34 28 35 29 36
REMARK SMILES IDX 30 37 65 38 31 39 70 40 64 41 66 42 32 43 69 44 63 45 62 46
REMARK SMILES IDX 33 48 55 49 40 50 54 51 41 52 44 53 53 54 67 55 42 56 43 57
REMARK SMILES IDX 52 59 68 60 45 61 34 62 35 63 39 64 36 65 38 66 37 67 56 68
REMARK SMILES IDX 57 69 61 70 58 71 60 72 59 73 46 74 47 75 51 76 48 77 50 78
REMARK SMILES IDX 49 79
REMARK H PARENT 15 7 6 17 22 28 66 47 44 58
REMARK Flexibility Score: inf
ROOT
ATOM      1  C   UNL A   1      33.686  30.146  27.246  1.00  0.00     0.002 C 
ENDROOT
BRANCH   1   2
ATOM      2  C   UNL A   1      34.395  28.850  26.830  1.00  0.00     0.021 C 
BRANCH   2   3
ATOM      3  C   UNL A   1      33.443  27.764  26.341  1.00  0.00     0.116 C 
BRANCH   3   4
ATOM      4  N   UNL A   1      33.614  27.561  24.919  1.00  0.00    -0.354 N 
ATOM      5  C   UNL A   1      33.393  26.488  24.119  1.00  0.00     0.245 C 
ATOM      6  O   UNL A   1      33.702  26.629  22.934  1.00  0.00    -0.272 OA
ATOM      7  H   UNL A   1      33.957  28.350  24.440  1.00  0.00     0.163 HD
BRANCH   5   8
ATOM      8  C   UNL A   1      32.845  25.143  24.683  1.00  0.00     0.119 C 
ATOM      9  C   UNL A   1      36.554  23.077  23.564  1.00  0.00     0.007 C 
ATOM     10  C   UNL A   1      35.153  23.251  24.152  1.00  0.00    -0.014 C 
ATOM     11  C   UNL A   1      34.136  23.596  23.054  1.00  0.00     0.006 C 
ATOM     12  C   UNL A   1      35.194  24.304  25.257  1.00  0.00     0.006 C 
ATOM     13  C   UNL A   1      32.766  24.057  23.584  1.00  0.00     0.039 C 
ATOM     14  C   UNL A   1      33.800  24.605  25.782  1.00  0.00     0.039 C 
BRANCH   8  15
ATOM     15  N   UNL A   1      31.512  25.340  25.319  1.00  0.00    -0.334 N 
ATOM     16  C   UNL A   1      30.704  24.498  26.046  1.00  0.00     0.326 C 
ATOM     17  H   UNL A   1      31.140  26.243  25.196  1.00  0.00     0.164 HD
ATOM     18  O   UNL A   1      29.752  25.050  26.616  1.00  0.00    -0.265 OA
BRANCH  16  19
ATOM     19  C   UNL A   1      30.881  22.958  26.060  1.00  0.00     0.471 C 
ATOM     20  F   UNL A   1      32.017  22.581  26.715  1.00  0.00    -0.162 F 
ATOM     21  F   UNL A   1      29.849  22.305  26.652  1.00  0.00    -0.162 F 
ATOM     22  F   UNL A   1      30.991  22.436  24.805  1.00  0.00    -0.162 F 
ENDBRANCH  16  19
ENDBRANCH   8  15
ENDBRANCH   5   8
ENDBRANCH   3   4
ENDBRANCH   2   3
ENDBRANCH   1   2
BRANCH   1  23
ATOM     23  C   UNL A   1      32.171  30.149  27.012  1.00  0.00     0.002 C 
BRANCH  23  24
ATOM     24  C   UNL A   1      31.531  31.539  26.974  1.00  0.00     0.021 C 
BRANCH  24  25
ATOM     25  C   UNL A   1      32.495  32.675  26.649  1.00  0.00     0.116 C 
BRANCH  25  26
ATOM     26  N   UNL A   1      32.273  33.844  27.481  1.00  0.00    -0.352 N 
ATOM     27  C   UNL A   1      33.007  34.311  28.538  1.00  0.00     0.251 C 
ATOM     28  H   UNL A   1      31.478  34.377  27.253  1.00  0.00     0.163 HD
ATOM     29  O   UNL A   1      32.586  35.242  29.214  1.00  0.00    -0.269 OA
BRANCH  27  30
ATOM     30  C   UNL A   1      34.297  33.677  28.880  1.00  0.00     0.039 A 
ATOM     31  C   UNL A   1      35.412  33.986  28.098  1.00  0.00     0.014 A 
ATOM     32  C   UNL A   1      34.409  32.770  29.939  1.00  0.00     0.014 A 
ATOM     33  C   UNL A   1      36.647  33.414  28.401  1.00  0.00     0.010 A 
ATOM     34  C   UNL A   1      35.656  32.250  30.281  1.00  0.00     0.010 A 
ATOM     35  C   UNL A   1      36.783  32.561  29.508  1.00  0.00    -0.014 A 
BRANCH  35  36
ATOM     36  C   UNL A   1      38.112  32.002  29.853  1.00  0.00     0.031 A 
ATOM     37  C   UNL A   1      39.038  32.738  30.779  1.00  0.00     0.074 A 
ATOM     38  C   UNL A   1      38.485  30.823  29.320  1.00  0.00     0.049 A 
ATOM     39  N   UNL A   1      40.199  32.359  31.252  1.00  0.00    -0.248 NA
ATOM     40  C   UNL A   1      38.620  34.079  31.215  1.00  0.00     0.031 C 
ATOM     41  C   UNL A   1      37.698  30.040  28.363  1.00  0.00     0.029 A 
ATOM     42  N   UNL A   1      39.613  30.070  29.519  1.00  0.00    -0.354 N 
ATOM     43  C   UNL A   1      40.648  33.413  32.037  1.00  0.00     0.074 A 
ATOM     44  C   UNL A   1      39.663  34.468  31.933  1.00  0.00     0.031 C 
ATOM     45  C   UNL A   1      38.347  28.895  28.096  1.00  0.00     0.029 A 
ATOM     46  C   UNL A   1      39.600  28.875  28.842  1.00  0.00     0.049 A 
ATOM     47  H   UNL A   1      40.360  30.358  30.092  1.00  0.00     0.167 HD
ATOM     48  C   UNL A   1      41.769  33.489  32.793  1.00  0.00     0.031 A 
ATOM     49  C   UNL A   1      40.490  27.866  28.839  1.00  0.00     0.031 A 
ATOM     50  C   UNL A   1      42.745  32.438  32.902  1.00  0.00     0.049 A 
ATOM     51  C   UNL A   1      41.716  27.967  29.700  1.00  0.00     0.074 A 
ATOM     52  C   UNL A   1      43.885  32.396  33.687  1.00  0.00     0.029 A 
ATOM     53  N   UNL A   1      42.699  31.244  32.199  1.00  0.00    -0.354 N 
ATOM     54  N   UNL A   1      42.085  28.935  30.503  1.00  0.00    -0.248 NA
ATOM     55  C   UNL A   1      42.637  26.823  29.670  1.00  0.00     0.031 C 
ATOM     56  C   UNL A   1      44.552  31.192  33.425  1.00  0.00     0.029 A 
ATOM     57  C   UNL A   1      43.801  30.467  32.514  1.00  0.00     0.049 A 
ATOM     58  H   UNL A   1      41.988  30.988  31.568  1.00  0.00     0.167 HD
ATOM     59  C   UNL A   1      43.271  28.512  31.085  1.00  0.00     0.074 A 
ATOM     60  C   UNL A   1      43.545  27.188  30.563  1.00  0.00     0.031 C 
ATOM     61  C   UNL A   1      44.066  29.160  31.971  1.00  0.00     0.031 A 
BRANCH  48  62
ATOM     62  C   UNL A   1      41.996  34.760  33.564  1.00  0.00    -0.014 A 
ATOM     63  C   UNL A   1      42.802  35.788  33.047  1.00  0.00     0.009 A 
ATOM     64  C   UNL A   1      41.373  34.946  34.807  1.00  0.00     0.009 A 
ATOM     65  C   UNL A   1      43.008  36.961  33.777  1.00  0.00     0.001 A 
ATOM     66  C   UNL A   1      41.560  36.131  35.524  1.00  0.00     0.001 A 
ATOM     67  C   UNL A   1      42.384  37.132  35.013  1.00  0.00     0.000 A 
ENDBRANCH  48  62
BRANCH  49  68
ATOM     68  C   UNL A   1      40.233  26.654  28.021  1.00  0.00    -0.014 A 
ATOM     69  C   UNL A   1      40.773  26.539  26.731  1.00  0.00     0.009 A 
ATOM     70  C   UNL A   1      39.449  25.605  28.526  1.00  0.00     0.009 A 
ATOM     71  C   UNL A   1      40.509  25.409  25.952  1.00  0.00     0.001 A 
ATOM     72  C   UNL A   1      39.209  24.466  27.756  1.00  0.00     0.001 A 
ATOM     73  C   UNL A   1      39.731  24.374  26.467  1.00  0.00     0.000 A 
ENDBRANCH  49  68
BRANCH  61  74
ATOM     74  C   UNL A   1      45.298  28.435  32.434  1.00  0.00    -0.014 A 
ATOM     75  C   UNL A   1      45.263  27.591  33.555  1.00  0.00     0.009 A 
ATOM     76  C   UNL A   1      46.504  28.590  31.734  1.00  0.00     0.009 A 
ATOM     77  C   UNL A   1      46.425  26.951  33.991  1.00  0.00     0.001 A 
ATOM     78  C   UNL A   1      47.657  27.927  32.156  1.00  0.00     0.001 A 
ATOM     79  C   UNL A   1      47.619  27.118  33.290  1.00  0.00     0.000 A 
ENDBRANCH  61  74
ENDBRANCH  35  36
ENDBRANCH  27  30
ENDBRANCH  25  26
ENDBRANCH  24  25
ENDBRANCH  23  24
ENDBRANCH   1  23
TORSDOF 15
ENDMDL
