MODEL 1
REMARK VINA RESULT:     -10.0      0.000      0.000
REMARK SMILES O=C(CCC1CC[NH+]([C@H]2CCO[C@]3(CCSC3)C2)CC1)NCCCCCCNC(=O)c1ccc(-c2c3nc(c(-c4ccccc4)c4ccc([nH]4)c(-c4ccccc4)c4nc(c(-c5ccccc5)c5ccc2[nH]5)C=C4)C=C3)cc1
REMARK SMILES IDX 24 1 23 2 22 3 21 4 1 5 2 6 3 8 4 9 5 10 6 11 20 12 7 13
REMARK SMILES IDX 19 14 8 15 9 17 10 18 18 19 11 20 13 21 12 22 14 23 17 24
REMARK SMILES IDX 15 25 16 26 25 27 26 28 27 29 28 30 29 31 30 33 31 34 32 35
REMARK SMILES IDX 78 36 33 37 77 38 34 39 35 40 36 41 71 42 37 43 76 44 70 45
REMARK SMILES IDX 72 46 38 47 75 48 69 49 68 50 39 52 61 53 46 54 60 55 47 56
REMARK SMILES IDX 50 57 59 58 73 59 48 60 49 61 58 63 74 64 51 65 40 66 41 67
REMARK SMILES IDX 45 68 42 69 44 70 43 71 62 72 63 73 67 74 64 75 66 76 65 77
REMARK SMILES IDX 52 78 53 79 57 80 54 81 56 82 55 83
REMARK H PARENT 21 7 8 16 28 32 72 51 50 62
REMARK Flexibility Score: inf
ROOT
ATOM      1  C   UNL A   1      39.144  27.883  28.421  1.00  0.00     0.002 C 
ENDROOT
BRANCH   1   2
ATOM      2  C   UNL A   1      38.911  29.231  27.717  1.00  0.00     0.021 C 
BRANCH   2   3
ATOM      3  C   UNL A   1      37.999  30.240  28.431  1.00  0.00     0.116 C 
BRANCH   3   4
ATOM      4  N   UNL A   1      36.747  30.498  27.739  1.00  0.00    -0.356 N 
ATOM      5  O   UNL A   1      35.432  30.176  29.593  1.00  0.00    -0.275 OA
ATOM      6  C   UNL A   1      35.549  30.559  28.432  1.00  0.00     0.220 C 
ATOM      7  H   UNL A   1      36.750  30.633  26.764  1.00  0.00     0.163 HD
BRANCH   6   8
ATOM      8  C   UNL A   1      34.405  31.245  27.684  1.00  0.00     0.100 C 
BRANCH   8   9
ATOM      9  C   UNL A   1      33.643  30.273  26.747  1.00  0.00     0.014 C 
BRANCH   9  10
ATOM     10  C   UNL A   1      33.613  28.796  27.227  1.00  0.00     0.000 C 
ATOM     11  C   UNL A   1      34.264  27.853  26.222  1.00  0.00     0.065 C 
ATOM     12  C   UNL A   1      32.188  28.285  27.583  1.00  0.00     0.065 C 
ATOM     13  C   UNL A   1      33.313  27.604  25.056  1.00  0.00     0.262 C 
ATOM     14  C   UNL A   1      31.413  27.536  26.469  1.00  0.00     0.262 C 
ATOM     15  N   UNL A   1      32.203  26.760  25.511  1.00  0.00    -0.332 N 
ATOM     16  H   UNL A   1      31.538  26.523  24.775  1.00  0.00     0.348 HD
BRANCH  15  17
ATOM     17  C   UNL A   1      32.677  25.406  25.880  1.00  0.00     0.189 C 
ATOM     18  C   UNL A   1      31.683  24.397  26.468  1.00  0.00     0.093 C 
ATOM     19  C   UNL A   1      33.392  24.705  24.710  1.00  0.00     0.101 C 
ATOM     20  C   UNL A   1      32.497  23.239  27.020  1.00  0.00     0.167 C 
ATOM     21  C   UNL A   1      34.087  23.390  25.186  1.00  0.00     0.084 C 
ATOM     22  O   UNL A   1      33.190  22.578  25.971  1.00  0.00    -0.374 OA
ATOM     23  C   UNL A   1      35.391  23.684  25.985  1.00  0.00     0.047 C 
ATOM     24  C   UNL A   1      34.470  22.508  23.987  1.00  0.00     0.105 C 
ATOM     25  C   UNL A   1      36.634  23.229  25.221  1.00  0.00     0.072 C 
ATOM     26  S   UNL A   1      36.121  23.036  23.510  1.00  0.00    -0.159 SA
ENDBRANCH  15  17
ENDBRANCH   9  10
ENDBRANCH   8   9
ENDBRANCH   6   8
ENDBRANCH   3   4
ENDBRANCH   2   3
ENDBRANCH   1   2
BRANCH   1  27
ATOM     27  C   UNL A   1      40.105  26.901  27.742  1.00  0.00     0.002 C 
BRANCH  27  28
ATOM     28  C   UNL A   1      39.688  25.438  27.680  1.00  0.00     0.021 C 
BRANCH  28  29
ATOM     29  C   UNL A   1      39.809  24.799  26.308  1.00  0.00     0.116 C 
BRANCH  29  30
ATOM     30  N   UNL A   1      40.625  23.591  26.304  1.00  0.00    -0.352 N 
ATOM     31  C   UNL A   1      41.999  23.466  26.310  1.00  0.00     0.251 C 
ATOM     32  H   UNL A   1      40.124  22.743  26.295  1.00  0.00     0.163 HD
ATOM     33  O   UNL A   1      42.521  22.370  26.180  1.00  0.00    -0.269 OA
BRANCH  31  34
ATOM     34  C   UNL A   1      42.838  24.682  26.427  1.00  0.00     0.039 A 
ATOM     35  C   UNL A   1      43.327  25.056  27.682  1.00  0.00     0.014 A 
ATOM     36  C   UNL A   1      43.191  25.414  25.292  1.00  0.00     0.014 A 
ATOM     37  C   UNL A   1      44.254  26.099  27.780  1.00  0.00     0.010 A 
ATOM     38  C   UNL A   1      44.188  26.379  25.380  1.00  0.00     0.010 A 
ATOM     39  C   UNL A   1      44.734  26.731  26.622  1.00  0.00    -0.014 A 
BRANCH  39  40
ATOM     40  C   UNL A   1      45.801  27.766  26.666  1.00  0.00     0.031 A 
ATOM     41  C   UNL A   1      45.423  29.220  26.768  1.00  0.00     0.074 A 
ATOM     42  C   UNL A   1      47.093  27.416  26.501  1.00  0.00     0.049 A 
ATOM     43  N   UNL A   1      46.179  30.282  26.652  1.00  0.00    -0.248 NA
ATOM     44  C   UNL A   1      43.998  29.521  26.990  1.00  0.00     0.031 C 
ATOM     45  C   UNL A   1      47.596  26.049  26.344  1.00  0.00     0.029 A 
ATOM     46  N   UNL A   1      48.224  28.193  26.414  1.00  0.00    -0.354 N 
ATOM     47  C   UNL A   1      45.317  31.368  26.739  1.00  0.00     0.074 A 
ATOM     48  C   UNL A   1      43.979  30.841  26.879  1.00  0.00     0.031 C 
ATOM     49  C   UNL A   1      48.932  26.082  26.205  1.00  0.00     0.029 A 
ATOM     50  C   UNL A   1      49.377  27.472  26.213  1.00  0.00     0.049 A 
ATOM     51  H   UNL A   1      48.209  29.174  26.491  1.00  0.00     0.167 HD
ATOM     52  C   UNL A   1      45.614  32.689  26.721  1.00  0.00     0.031 A 
ATOM     53  C   UNL A   1      50.647  27.884  26.038  1.00  0.00     0.031 A 
ATOM     54  C   UNL A   1      46.949  33.215  26.640  1.00  0.00     0.049 A 
ATOM     55  C   UNL A   1      50.950  29.358  26.048  1.00  0.00     0.074 A 
ATOM     56  C   UNL A   1      47.357  34.536  26.706  1.00  0.00     0.029 A 
ATOM     57  N   UNL A   1      48.090  32.447  26.487  1.00  0.00    -0.354 N 
ATOM     58  N   UNL A   1      50.131  30.370  26.204  1.00  0.00    -0.248 NA
ATOM     59  C   UNL A   1      52.357  29.747  25.867  1.00  0.00     0.031 C 
ATOM     60  C   UNL A   1      48.745  34.570  26.553  1.00  0.00     0.029 A 
ATOM     61  C   UNL A   1      49.203  33.267  26.439  1.00  0.00     0.049 A 
ATOM     62  H   UNL A   1      48.108  31.465  26.422  1.00  0.00     0.167 HD
ATOM     63  C   UNL A   1      50.925  31.508  26.177  1.00  0.00     0.074 A 
ATOM     64  C   UNL A   1      52.292  31.064  26.000  1.00  0.00     0.031 C 
ATOM     65  C   UNL A   1      50.557  32.806  26.289  1.00  0.00     0.031 A 
BRANCH  52  66
ATOM     66  C   UNL A   1      44.474  33.664  26.797  1.00  0.00    -0.014 A 
ATOM     67  C   UNL A   1      43.985  34.117  28.031  1.00  0.00     0.009 A 
ATOM     68  C   UNL A   1      43.924  34.181  25.614  1.00  0.00     0.009 A 
ATOM     69  C   UNL A   1      42.946  35.049  28.079  1.00  0.00     0.001 A 
ATOM     70  C   UNL A   1      42.904  35.134  25.665  1.00  0.00     0.001 A 
ATOM     71  C   UNL A   1      42.412  35.561  26.898  1.00  0.00     0.000 A 
ENDBRANCH  52  66
BRANCH  53  72
ATOM     72  C   UNL A   1      51.744  26.899  25.845  1.00  0.00    -0.014 A 
ATOM     73  C   UNL A   1      52.112  26.491  24.552  1.00  0.00     0.009 A 
ATOM     74  C   UNL A   1      52.401  26.330  26.947  1.00  0.00     0.009 A 
ATOM     75  C   UNL A   1      53.084  25.504  24.369  1.00  0.00     0.001 A 
ATOM     76  C   UNL A   1      53.394  25.366  26.758  1.00  0.00     0.001 A 
ATOM     77  C   UNL A   1      53.726  24.944  25.472  1.00  0.00     0.000 A 
ENDBRANCH  53  72
BRANCH  65  78
ATOM     78  C   UNL A   1      51.647  33.838  26.285  1.00  0.00    -0.014 A 
ATOM     79  C   UNL A   1      52.209  34.312  27.479  1.00  0.00     0.009 A 
ATOM     80  C   UNL A   1      52.160  34.293  25.060  1.00  0.00     0.009 A 
ATOM     81  C   UNL A   1      53.247  35.245  27.447  1.00  0.00     0.001 A 
ATOM     82  C   UNL A   1      53.216  35.204  25.030  1.00  0.00     0.001 A 
ATOM     83  C   UNL A   1      53.754  35.684  26.223  1.00  0.00     0.000 A 
ENDBRANCH  65  78
ENDBRANCH  39  40
ENDBRANCH  31  34
ENDBRANCH  29  30
ENDBRANCH  28  29
ENDBRANCH  27  28
ENDBRANCH   1  27
TORSDOF 16
ENDMDL
MODEL 2
REMARK VINA RESULT:     -10.0      6.322     10.984
REMARK SMILES O=C(CCC1CC[NH+]([C@H]2CCO[C@]3(CCSC3)C2)CC1)NCCCCCCNC(=O)c1ccc(-c2c3nc(c(-c4ccccc4)c4ccc([nH]4)c(-c4ccccc4)c4nc(c(-c5ccccc5)c5ccc2[nH]5)C=C4)C=C3)cc1
REMARK SMILES IDX 24 1 23 2 22 3 21 4 1 5 2 6 3 8 4 9 5 10 6 11 20 12 7 13
REMARK SMILES IDX 19 14 8 15 9 17 10 18 18 19 11 20 13 21 12 22 14 23 17 24
REMARK SMILES IDX 15 25 16 26 25 27 26 28 27 29 28 30 29 31 30 33 31 34 32 35
REMARK SMILES IDX 78 36 33 37 77 38 34 39 35 40 36 41 71 42 37 43 76 44 70 45
REMARK SMILES IDX 72 46 38 47 75 48 69 49 68 50 39 52 61 53 46 54 60 55 47 56
REMARK SMILES IDX 50 57 59 58 73 59 48 60 49 61 58 63 74 64 51 65 40 66 41 67
REMARK SMILES IDX 45 68 42 69 44 70 43 71 62 72 63 73 67 74 64 75 66 76 65 77
REMARK SMILES IDX 52 78 53 79 57 80 54 81 56 82 55 83
REMARK H PARENT 21 7 8 16 28 32 72 51 50 62
REMARK Flexibility Score: inf
ROOT
ATOM      1  C   UNL A   1      35.492  34.025  33.586  1.00  0.00     0.002 C 
ENDROOT
BRANCH   1   2
ATOM      2  C   UNL A   1      36.293  32.728  33.798  1.00  0.00     0.021 C 
BRANCH   2   3
ATOM      3  C   UNL A   1      37.350  32.737  34.912  1.00  0.00     0.116 C 
BRANCH   3   4
ATOM      4  N   UNL A   1      38.611  32.119  34.536  1.00  0.00    -0.356 N 
ATOM      5  O   UNL A   1      38.227  30.176  35.697  1.00  0.00    -0.275 OA
ATOM      6  C   UNL A   1      38.891  30.806  34.879  1.00  0.00     0.220 C 
ATOM      7  H   UNL A   1      39.274  32.639  34.029  1.00  0.00     0.163 HD
BRANCH   6   8
ATOM      8  C   UNL A   1      40.021  30.157  34.078  1.00  0.00     0.100 C 
BRANCH   8   9
ATOM      9  C   UNL A   1      41.271  29.864  34.947  1.00  0.00     0.014 C 
BRANCH   9  10
ATOM     10  C   UNL A   1      42.306  28.906  34.295  1.00  0.00     0.000 C 
ATOM     11  C   UNL A   1      41.721  27.524  34.030  1.00  0.00     0.065 C 
ATOM     12  C   UNL A   1      43.628  28.773  35.103  1.00  0.00     0.065 C 
ATOM     13  C   UNL A   1      41.653  26.734  35.333  1.00  0.00     0.262 C 
ATOM     14  C   UNL A   1      43.728  27.586  36.094  1.00  0.00     0.262 C 
ATOM     15  N   UNL A   1      43.011  26.359  35.742  1.00  0.00    -0.332 N 
ATOM     16  H   UNL A   1      43.044  25.798  36.593  1.00  0.00     0.348 HD
BRANCH  15  17
ATOM     17  C   UNL A   1      43.614  25.409  34.779  1.00  0.00     0.189 C 
ATOM     18  C   UNL A   1      43.932  25.883  33.356  1.00  0.00     0.093 C 
ATOM     19  C   UNL A   1      44.896  24.760  35.334  1.00  0.00     0.101 C 
ATOM     20  C   UNL A   1      44.246  24.645  32.532  1.00  0.00     0.167 C 
ATOM     21  C   UNL A   1      45.379  23.597  34.411  1.00  0.00     0.084 C 
ATOM     22  O   UNL A   1      45.412  24.005  33.028  1.00  0.00    -0.374 OA
ATOM     23  C   UNL A   1      44.499  22.323  34.580  1.00  0.00     0.047 C 
ATOM     24  C   UNL A   1      46.828  23.203  34.741  1.00  0.00     0.105 C 
ATOM     25  C   UNL A   1      45.277  21.183  35.235  1.00  0.00     0.072 C 
ATOM     26  S   UNL A   1      46.705  21.943  36.018  1.00  0.00    -0.159 SA
ENDBRANCH  15  17
ENDBRANCH   9  10
ENDBRANCH   8   9
ENDBRANCH   6   8
ENDBRANCH   3   4
ENDBRANCH   2   3
ENDBRANCH   1   2
BRANCH   1  27
ATOM     27  C   UNL A   1      34.009  33.875  33.232  1.00  0.00     0.002 C 
BRANCH  27  28
ATOM     28  C   UNL A   1      33.262  35.127  32.790  1.00  0.00     0.021 C 
BRANCH  28  29
ATOM     29  C   UNL A   1      33.767  35.748  31.500  1.00  0.00     0.116 C 
BRANCH  29  30
ATOM     30  N   UNL A   1      32.983  35.369  30.331  1.00  0.00    -0.352 N 
ATOM     31  C   UNL A   1      33.303  34.498  29.310  1.00  0.00     0.251 C 
ATOM     32  H   UNL A   1      32.098  35.797  30.260  1.00  0.00     0.163 HD
ATOM     33  O   UNL A   1      32.572  34.390  28.338  1.00  0.00    -0.269 OA
BRANCH  31  34
ATOM     34  C   UNL A   1      34.568  33.730  29.382  1.00  0.00     0.039 A 
ATOM     35  C   UNL A   1      35.709  34.232  28.750  1.00  0.00     0.014 A 
ATOM     36  C   UNL A   1      34.642  32.549  30.122  1.00  0.00     0.014 A 
ATOM     37  C   UNL A   1      36.943  33.606  28.950  1.00  0.00     0.010 A 
ATOM     38  C   UNL A   1      35.883  31.991  30.403  1.00  0.00     0.010 A 
ATOM     39  C   UNL A   1      37.049  32.513  29.824  1.00  0.00    -0.014 A 
BRANCH  39  40
ATOM     40  C   UNL A   1      38.355  31.885  30.158  1.00  0.00     0.031 A 
ATOM     41  C   UNL A   1      39.345  32.635  31.010  1.00  0.00     0.074 A 
ATOM     42  C   UNL A   1      38.699  30.703  29.609  1.00  0.00     0.049 A 
ATOM     43  N   UNL A   1      40.593  32.347  31.276  1.00  0.00    -0.248 NA
ATOM     44  C   UNL A   1      38.882  33.899  31.608  1.00  0.00     0.031 C 
ATOM     45  C   UNL A   1      37.856  29.891  28.728  1.00  0.00     0.029 A 
ATOM     46  N   UNL A   1      39.868  29.985  29.696  1.00  0.00    -0.354 N 
ATOM     47  C   UNL A   1      41.072  33.411  32.030  1.00  0.00     0.074 A 
ATOM     48  C   UNL A   1      39.996  34.369  32.147  1.00  0.00     0.031 C 
ATOM     49  C   UNL A   1      38.525  28.779  28.376  1.00  0.00     0.029 A 
ATOM     50  C   UNL A   1      39.860  28.821  28.964  1.00  0.00     0.049 A 
ATOM     51  H   UNL A   1      40.640  30.277  30.233  1.00  0.00     0.167 HD
ATOM     52  C   UNL A   1      42.294  33.571  32.590  1.00  0.00     0.031 A 
ATOM     53  C   UNL A   1      40.823  27.899  28.775  1.00  0.00     0.031 A 
ATOM     54  C   UNL A   1      43.346  32.594  32.524  1.00  0.00     0.049 A 
ATOM     55  C   UNL A   1      42.164  28.091  29.431  1.00  0.00     0.074 A 
ATOM     56  C   UNL A   1      44.587  32.625  33.136  1.00  0.00     0.029 A 
ATOM     57  N   UNL A   1      43.276  31.407  31.813  1.00  0.00    -0.354 N 
ATOM     58  N   UNL A   1      42.575  29.070  30.200  1.00  0.00    -0.248 NA
ATOM     59  C   UNL A   1      43.171  27.044  29.200  1.00  0.00     0.031 C 
ATOM     60  C   UNL A   1      45.284  31.473  32.763  1.00  0.00     0.029 A 
ATOM     61  C   UNL A   1      44.458  30.705  31.958  1.00  0.00     0.049 A 
ATOM     62  H   UNL A   1      42.501  31.109  31.286  1.00  0.00     0.167 HD
ATOM     63  C   UNL A   1      43.871  28.739  30.573  1.00  0.00     0.074 A 
ATOM     64  C   UNL A   1      44.175  27.465  29.955  1.00  0.00     0.031 C 
ATOM     65  C   UNL A   1      44.733  29.428  31.358  1.00  0.00     0.031 A 
BRANCH  52  66
ATOM     66  C   UNL A   1      42.563  34.848  33.333  1.00  0.00    -0.014 A 
ATOM     67  C   UNL A   1      43.218  35.925  32.716  1.00  0.00     0.009 A 
ATOM     68  C   UNL A   1      42.099  34.996  34.650  1.00  0.00     0.009 A 
ATOM     69  C   UNL A   1      43.429  37.116  33.415  1.00  0.00     0.001 A 
ATOM     70  C   UNL A   1      42.288  36.197  35.336  1.00  0.00     0.001 A 
ATOM     71  C   UNL A   1      42.958  37.253  34.720  1.00  0.00     0.000 A 
ENDBRANCH  52  66
BRANCH  53  72
ATOM     72  C   UNL A   1      40.569  26.698  27.935  1.00  0.00    -0.014 A 
ATOM     73  C   UNL A   1      40.998  26.665  26.598  1.00  0.00     0.009 A 
ATOM     74  C   UNL A   1      39.863  25.599  28.448  1.00  0.00     0.009 A 
ATOM     75  C   UNL A   1      40.689  25.574  25.781  1.00  0.00     0.001 A 
ATOM     76  C   UNL A   1      39.583  24.497  27.636  1.00  0.00     0.001 A 
ATOM     77  C   UNL A   1      39.984  24.491  26.302  1.00  0.00     0.000 A 
ENDBRANCH  53  72
BRANCH  65  78
ATOM     78  C   UNL A   1      46.064  28.796  31.644  1.00  0.00    -0.014 A 
ATOM     79  C   UNL A   1      47.189  29.071  30.854  1.00  0.00     0.009 A 
ATOM     80  C   UNL A   1      46.203  27.959  32.763  1.00  0.00     0.009 A 
ATOM     81  C   UNL A   1      48.425  28.499  31.164  1.00  0.00     0.001 A 
ATOM     82  C   UNL A   1      47.444  27.411  33.087  1.00  0.00     0.001 A 
ATOM     83  C   UNL A   1      48.552  27.675  32.284  1.00  0.00     0.000 A 
ENDBRANCH  65  78
ENDBRANCH  39  40
ENDBRANCH  31  34
ENDBRANCH  29  30
ENDBRANCH  28  29
ENDBRANCH  27  28
ENDBRANCH   1  27
TORSDOF 16
ENDMDL
MODEL 3
REMARK VINA RESULT:      -9.9      6.019     10.460
REMARK SMILES O=C(CCC1CC[NH+]([C@H]2CCO[C@]3(CCSC3)C2)CC1)NCCCCCCNC(=O)c1ccc(-c2c3nc(c(-c4ccccc4)c4ccc([nH]4)c(-c4ccccc4)c4nc(c(-c5ccccc5)c5ccc2[nH]5)C=C4)C=C3)cc1
REMARK SMILES IDX 24 1 23 2 22 3 21 4 1 5 2 6 3 8 4 9 5 10 6 11 20 12 7 13
REMARK SMILES IDX 19 14 8 15 9 17 10 18 18 19 11 20 13 21 12 22 14 23 17 24
REMARK SMILES IDX 15 25 16 26 25 27 26 28 27 29 28 30 29 31 30 33 31 34 32 35
REMARK SMILES IDX 78 36 33 37 77 38 34 39 35 40 36 41 71 42 37 43 76 44 70 45
REMARK SMILES IDX 72 46 38 47 75 48 69 49 68 50 39 52 61 53 46 54 60 55 47 56
REMARK SMILES IDX 50 57 59 58 73 59 48 60 49 61 58 63 74 64 51 65 40 66 41 67
REMARK SMILES IDX 45 68 42 69 44 70 43 71 62 72 63 73 67 74 64 75 66 76 65 77
REMARK SMILES IDX 52 78 53 79 57 80 54 81 56 82 55 83
REMARK H PARENT 21 7 8 16 28 32 72 51 50 62
REMARK Flexibility Score: inf
ROOT
ATOM      1  C   UNL A   1      41.442  24.507  26.073  1.00  0.00     0.002 C 
ENDROOT
BRANCH   1   2
ATOM      2  C   UNL A   1      41.229  23.916  27.478  1.00  0.00     0.021 C 
BRANCH   2   3
ATOM      3  C   UNL A   1      40.392  22.632  27.574  1.00  0.00     0.116 C 
BRANCH   3   4
ATOM      4  N   UNL A   1      39.397  22.495  26.523  1.00  0.00    -0.356 N 
ATOM      5  O   UNL A   1      39.967  20.335  25.997  1.00  0.00    -0.275 OA
ATOM      6  C   UNL A   1      39.192  21.280  25.889  1.00  0.00     0.220 C 
ATOM      7  H   UNL A   1      38.861  23.277  26.257  1.00  0.00     0.163 HD
BRANCH   6   8
ATOM      8  C   UNL A   1      37.867  21.162  25.135  1.00  0.00     0.100 C 
BRANCH   8   9
ATOM      9  C   UNL A   1      36.781  22.120  25.689  1.00  0.00     0.014 C 
BRANCH   9  10
ATOM     10  C   UNL A   1      36.447  23.326  24.768  1.00  0.00     0.000 C 
ATOM     11  C   UNL A   1      35.550  24.345  25.460  1.00  0.00     0.065 C 
ATOM     12  C   UNL A   1      35.824  22.915  23.404  1.00  0.00     0.065 C 
ATOM     13  C   UNL A   1      34.113  23.833  25.489  1.00  0.00     0.262 C 
ATOM     14  C   UNL A   1      34.276  22.910  23.313  1.00  0.00     0.262 C 
ATOM     15  N   UNL A   1      33.555  23.886  24.133  1.00  0.00    -0.332 N 
ATOM     16  H   UNL A   1      32.582  23.587  24.076  1.00  0.00     0.348 HD
BRANCH  15  17
ATOM     17  C   UNL A   1      33.427  25.284  23.662  1.00  0.00     0.189 C 
ATOM     18  C   UNL A   1      33.065  25.552  22.196  1.00  0.00     0.093 C 
ATOM     19  C   UNL A   1      32.443  26.097  24.524  1.00  0.00     0.101 C 
ATOM     20  C   UNL A   1      33.302  27.031  21.940  1.00  0.00     0.167 C 
ATOM     21  C   UNL A   1      32.504  27.615  24.162  1.00  0.00     0.084 C 
ATOM     22  O   UNL A   1      32.426  27.816  22.736  1.00  0.00    -0.374 OA
ATOM     23  C   UNL A   1      33.781  28.294  24.737  1.00  0.00     0.047 C 
ATOM     24  C   UNL A   1      31.287  28.362  24.732  1.00  0.00     0.105 C 
ATOM     25  C   UNL A   1      33.439  29.295  25.840  1.00  0.00     0.072 C 
ATOM     26  S   UNL A   1      31.775  28.886  26.381  1.00  0.00    -0.159 SA
ENDBRANCH  15  17
ENDBRANCH   9  10
ENDBRANCH   8   9
ENDBRANCH   6   8
ENDBRANCH   3   4
ENDBRANCH   2   3
ENDBRANCH   1   2
BRANCH   1  27
ATOM     27  C   UNL A   1      42.800  24.254  25.411  1.00  0.00     0.002 C 
BRANCH  27  28
ATOM     28  C   UNL A   1      43.201  22.806  25.160  1.00  0.00     0.021 C 
BRANCH  28  29
ATOM     29  C   UNL A   1      43.910  22.131  26.321  1.00  0.00     0.116 C 
BRANCH  29  30
ATOM     30  N   UNL A   1      45.321  22.484  26.421  1.00  0.00    -0.352 N 
ATOM     31  C   UNL A   1      45.909  23.560  27.052  1.00  0.00     0.251 C 
ATOM     32  H   UNL A   1      45.943  21.864  25.973  1.00  0.00     0.163 HD
ATOM     33  O   UNL A   1      47.106  23.769  26.931  1.00  0.00    -0.269 OA
BRANCH  31  34
ATOM     34  C   UNL A   1      45.066  24.490  27.839  1.00  0.00     0.039 A 
ATOM     35  C   UNL A   1      44.410  24.019  28.980  1.00  0.00     0.014 A 
ATOM     36  C   UNL A   1      44.973  25.837  27.486  1.00  0.00     0.014 A 
ATOM     37  C   UNL A   1      43.752  24.921  29.822  1.00  0.00     0.010 A 
ATOM     38  C   UNL A   1      44.409  26.743  28.376  1.00  0.00     0.010 A 
ATOM     39  C   UNL A   1      43.794  26.298  29.556  1.00  0.00    -0.014 A 
BRANCH  39  40
ATOM     40  C   UNL A   1      43.207  27.305  30.479  1.00  0.00     0.031 A 
ATOM     41  C   UNL A   1      43.841  27.537  31.826  1.00  0.00     0.074 A 
ATOM     42  C   UNL A   1      42.052  27.924  30.163  1.00  0.00     0.049 A 
ATOM     43  N   UNL A   1      43.398  28.237  32.839  1.00  0.00    -0.248 NA
ATOM     44  C   UNL A   1      45.123  26.859  32.082  1.00  0.00     0.031 C 
ATOM     45  C   UNL A   1      41.307  27.757  28.913  1.00  0.00     0.029 A 
ATOM     46  N   UNL A   1      41.286  28.807  30.885  1.00  0.00    -0.354 N 
ATOM     47  C   UNL A   1      44.320  28.044  33.861  1.00  0.00     0.074 A 
ATOM     48  C   UNL A   1      45.325  27.134  33.361  1.00  0.00     0.031 C 
ATOM     49  C   UNL A   1      40.207  28.529  28.946  1.00  0.00     0.029 A 
ATOM     50  C   UNL A   1      40.142  29.208  30.237  1.00  0.00     0.049 A 
ATOM     51  H   UNL A   1      41.535  29.125  31.783  1.00  0.00     0.167 HD
ATOM     52  C   UNL A   1      44.338  28.589  35.099  1.00  0.00     0.031 A 
ATOM     53  C   UNL A   1      39.145  30.018  30.641  1.00  0.00     0.031 A 
ATOM     54  C   UNL A   1      43.371  29.539  35.577  1.00  0.00     0.049 A 
ATOM     55  C   UNL A   1      39.205  30.630  32.015  1.00  0.00     0.074 A 
ATOM     56  C   UNL A   1      43.357  30.216  36.784  1.00  0.00     0.029 A 
ATOM     57  N   UNL A   1      42.257  29.953  34.868  1.00  0.00    -0.354 N 
ATOM     58  N   UNL A   1      40.123  30.492  32.941  1.00  0.00    -0.248 NA
ATOM     59  C   UNL A   1      38.095  31.516  32.395  1.00  0.00     0.031 C 
ATOM     60  C   UNL A   1      42.209  31.013  36.822  1.00  0.00     0.029 A 
ATOM     61  C   UNL A   1      41.537  30.865  35.619  1.00  0.00     0.049 A 
ATOM     62  H   UNL A   1      42.013  29.646  33.966  1.00  0.00     0.167 HD
ATOM     63  C   UNL A   1      39.720  31.302  33.995  1.00  0.00     0.074 A 
ATOM     64  C   UNL A   1      38.482  31.935  33.591  1.00  0.00     0.031 C 
ATOM     65  C   UNL A   1      40.322  31.504  35.191  1.00  0.00     0.031 A 
BRANCH  52  66
ATOM     66  C   UNL A   1      45.444  28.179  36.029  1.00  0.00    -0.014 A 
ATOM     67  C   UNL A   1      45.312  27.062  36.868  1.00  0.00     0.009 A 
ATOM     68  C   UNL A   1      46.657  28.886  36.020  1.00  0.00     0.009 A 
ATOM     69  C   UNL A   1      46.366  26.679  37.702  1.00  0.00     0.001 A 
ATOM     70  C   UNL A   1      47.717  28.483  36.834  1.00  0.00     0.001 A 
ATOM     71  C   UNL A   1      47.567  27.384  37.679  1.00  0.00     0.000 A 
ENDBRANCH  52  66
BRANCH  53  72
ATOM     72  C   UNL A   1      37.998  30.315  29.742  1.00  0.00    -0.014 A 
ATOM     73  C   UNL A   1      37.912  31.554  29.087  1.00  0.00     0.009 A 
ATOM     74  C   UNL A   1      36.964  29.383  29.566  1.00  0.00     0.009 A 
ATOM     75  C   UNL A   1      36.796  31.870  28.309  1.00  0.00     0.001 A 
ATOM     76  C   UNL A   1      35.863  29.690  28.762  1.00  0.00     0.001 A 
ATOM     77  C   UNL A   1      35.774  30.937  28.145  1.00  0.00     0.000 A 
ENDBRANCH  53  72
BRANCH  65  78
ATOM     78  C   UNL A   1      39.687  32.491  36.127  1.00  0.00    -0.014 A 
ATOM     79  C   UNL A   1      38.677  32.106  37.019  1.00  0.00     0.009 A 
ATOM     80  C   UNL A   1      40.157  33.814  36.155  1.00  0.00     0.009 A 
ATOM     81  C   UNL A   1      38.129  33.036  37.905  1.00  0.00     0.001 A 
ATOM     82  C   UNL A   1      39.627  34.734  37.060  1.00  0.00     0.001 A 
ATOM     83  C   UNL A   1      38.609  34.346  37.929  1.00  0.00     0.000 A 
ENDBRANCH  65  78
ENDBRANCH  39  40
ENDBRANCH  31  34
ENDBRANCH  29  30
ENDBRANCH  28  29
ENDBRANCH  27  28
ENDBRANCH   1  27
TORSDOF 16
ENDMDL
