MODEL 1
REMARK VINA RESULT:     -10.9      0.000      0.000
REMARK SMILES C[C@@H](C(=O)NCCCCCCNC(=O)c1ccc(-c2c3nc(c(-c4ccccc4)c4ccc([nH]4)c(-c4ccccc4)c4nc(c(-c5ccccc5)c5ccc2[nH]5)C=C4)C=C3)cc1)c1ccc(OC2CCCC2)cc1F
REMARK SMILES IDX 8 1 7 2 6 3 5 4 3 5 4 6 2 8 1 9 63 10 64 11 74 12 65 13
REMARK SMILES IDX 73 14 75 15 66 16 67 17 68 18 69 19 72 20 70 21 71 22 9 23
REMARK SMILES IDX 10 24 11 25 12 26 13 27 14 29 15 30 16 31 62 32 17 33 61 34
REMARK SMILES IDX 18 35 19 36 20 37 55 38 21 39 60 40 54 41 56 42 22 43 59 44
REMARK SMILES IDX 53 45 52 46 23 48 45 49 30 50 44 51 31 52 34 53 43 54 57 55
REMARK SMILES IDX 32 56 33 57 42 59 58 60 35 61 24 62 25 63 29 64 26 65 28 66
REMARK SMILES IDX 27 67 46 68 47 69 51 70 48 71 50 72 49 73 36 74 37 75 41 76
REMARK SMILES IDX 38 77 40 78 39 79
REMARK H PARENT 5 7 12 28 56 47 34 58
REMARK Flexibility Score: inf
ROOT
ATOM      1  C   UNL A   1      36.037  21.969  24.180  1.00  0.00     0.002 C 
ENDROOT
BRANCH   1   2
ATOM      2  C   UNL A   1      36.325  23.257  24.958  1.00  0.00     0.021 C 
BRANCH   2   3
ATOM      3  C   UNL A   1      35.118  24.189  25.108  1.00  0.00     0.116 C 
BRANCH   3   4
ATOM      4  N   UNL A   1      34.901  24.939  23.885  1.00  0.00    -0.356 N 
ATOM      5  C   UNL A   1      33.784  25.041  23.105  1.00  0.00     0.227 C 
ATOM      6  O   UNL A   1      33.932  25.557  21.995  1.00  0.00    -0.274 OA
ATOM      7  H   UNL A   1      35.678  25.453  23.569  1.00  0.00     0.163 HD
BRANCH   5   8
ATOM      8  C   UNL A   1      32.418  24.561  23.640  1.00  0.00     0.108 C 
ATOM      9  C   UNL A   1      32.021  25.424  24.845  1.00  0.00     0.023 C 
BRANCH   8  10
ATOM     10  C   UNL A   1      32.386  23.053  23.913  1.00  0.00     0.000 A 
ATOM     11  C   UNL A   1      32.221  22.577  25.227  1.00  0.00     0.011 A 
ATOM     12  C   UNL A   1      32.536  22.085  22.914  1.00  0.00     0.130 A 
ATOM     13  C   UNL A   1      32.120  21.204  25.492  1.00  0.00     0.047 A 
ATOM     14  C   UNL A   1      32.461  20.720  23.180  1.00  0.00     0.086 A 
ATOM     15  F   UNL A   1      32.756  22.424  21.636  1.00  0.00    -0.207 F 
ATOM     16  C   UNL A   1      32.210  20.265  24.464  1.00  0.00     0.122 A 
BRANCH  16  17
ATOM     17  O   UNL A   1      32.039  18.968  24.843  1.00  0.00    -0.490 OA
BRANCH  17  18
ATOM     18  C   UNL A   1      33.139  18.085  25.045  1.00  0.00     0.173 C 
ATOM     19  C   UNL A   1      32.853  16.761  25.756  1.00  0.00     0.045 C 
ATOM     20  C   UNL A   1      33.958  17.761  23.790  1.00  0.00     0.045 C 
ATOM     21  C   UNL A   1      34.018  15.875  25.341  1.00  0.00     0.004 C 
ATOM     22  C   UNL A   1      34.332  16.284  23.907  1.00  0.00     0.004 C 
ENDBRANCH  17  18
ENDBRANCH  16  17
ENDBRANCH   8  10
ENDBRANCH   5   8
ENDBRANCH   3   4
ENDBRANCH   2   3
ENDBRANCH   1   2
BRANCH   1  23
ATOM     23  C   UNL A   1      35.994  20.696  25.027  1.00  0.00     0.002 C 
BRANCH  23  24
ATOM     24  C   UNL A   1      37.236  19.806  24.930  1.00  0.00     0.021 C 
BRANCH  24  25
ATOM     25  C   UNL A   1      38.540  20.459  25.385  1.00  0.00     0.116 C 
BRANCH  25  26
ATOM     26  N   UNL A   1      39.606  19.488  25.565  1.00  0.00    -0.352 N 
ATOM     27  C   UNL A   1      40.888  19.670  26.008  1.00  0.00     0.251 C 
ATOM     28  H   UNL A   1      39.371  18.561  25.334  1.00  0.00     0.163 HD
ATOM     29  O   UNL A   1      41.703  18.747  25.921  1.00  0.00    -0.269 OA
BRANCH  27  30
ATOM     30  C   UNL A   1      41.319  20.966  26.573  1.00  0.00     0.039 A 
ATOM     31  C   UNL A   1      41.882  21.914  25.715  1.00  0.00     0.014 A 
ATOM     32  C   UNL A   1      41.215  21.237  27.943  1.00  0.00     0.014 A 
ATOM     33  C   UNL A   1      42.299  23.148  26.219  1.00  0.00     0.010 A 
ATOM     34  C   UNL A   1      41.581  22.489  28.435  1.00  0.00     0.010 A 
ATOM     35  C   UNL A   1      42.132  23.454  27.579  1.00  0.00    -0.014 A 
BRANCH  35  36
ATOM     36  C   UNL A   1      42.530  24.783  28.105  1.00  0.00     0.031 A 
ATOM     37  C   UNL A   1      41.509  25.868  28.303  1.00  0.00     0.074 A 
ATOM     38  C   UNL A   1      43.826  25.021  28.385  1.00  0.00     0.049 A 
ATOM     39  N   UNL A   1      41.676  27.082  28.766  1.00  0.00    -0.248 NA
ATOM     40  C   UNL A   1      40.124  25.558  27.913  1.00  0.00     0.031 C 
ATOM     41  C   UNL A   1      44.924  24.069  28.194  1.00  0.00     0.029 A 
ATOM     42  N   UNL A   1      44.440  26.138  28.893  1.00  0.00    -0.354 N 
ATOM     43  C   UNL A   1      40.422  27.678  28.723  1.00  0.00     0.074 A 
ATOM     44  C   UNL A   1      39.514  26.712  28.143  1.00  0.00     0.031 C 
ATOM     45  C   UNL A   1      46.070  24.635  28.604  1.00  0.00     0.029 A 
ATOM     46  C   UNL A   1      45.794  25.991  29.066  1.00  0.00     0.049 A 
ATOM     47  H   UNL A   1      43.955  26.966  29.115  1.00  0.00     0.167 HD
ATOM     48  C   UNL A   1      40.053  28.911  29.147  1.00  0.00     0.031 A 
ATOM     49  C   UNL A   1      46.711  26.850  29.546  1.00  0.00     0.031 A 
ATOM     50  C   UNL A   1      40.951  29.875  29.727  1.00  0.00     0.049 A 
ATOM     51  C   UNL A   1      46.275  28.206  30.023  1.00  0.00     0.074 A 
ATOM     52  C   UNL A   1      40.663  31.139  30.214  1.00  0.00     0.029 A 
ATOM     53  N   UNL A   1      42.311  29.680  29.901  1.00  0.00    -0.354 N 
ATOM     54  N   UNL A   1      45.075  28.732  30.027  1.00  0.00    -0.248 NA
ATOM     55  C   UNL A   1      47.319  29.079  30.577  1.00  0.00     0.031 C 
ATOM     56  C   UNL A   1      41.857  31.721  30.655  1.00  0.00     0.029 A 
ATOM     57  C   UNL A   1      42.880  30.803  30.478  1.00  0.00     0.049 A 
ATOM     58  H   UNL A   1      42.802  28.864  29.650  1.00  0.00     0.167 HD
ATOM     59  C   UNL A   1      45.215  29.988  30.600  1.00  0.00     0.074 A 
ATOM     60  C   UNL A   1      46.613  30.136  30.951  1.00  0.00     0.031 C 
ATOM     61  C   UNL A   1      44.272  30.937  30.814  1.00  0.00     0.031 A 
BRANCH  48  62
ATOM     62  C   UNL A   1      38.605  29.284  29.003  1.00  0.00    -0.014 A 
ATOM     63  C   UNL A   1      37.713  29.132  30.077  1.00  0.00     0.009 A 
ATOM     64  C   UNL A   1      38.135  29.826  27.798  1.00  0.00     0.009 A 
ATOM     65  C   UNL A   1      36.371  29.490  29.937  1.00  0.00     0.001 A 
ATOM     66  C   UNL A   1      36.797  30.205  27.669  1.00  0.00     0.001 A 
ATOM     67  C   UNL A   1      35.915  30.029  28.735  1.00  0.00     0.000 A 
ENDBRANCH  48  62
BRANCH  49  68
ATOM     68  C   UNL A   1      48.137  26.446  29.623  1.00  0.00    -0.014 A 
ATOM     69  C   UNL A   1      48.624  25.756  30.744  1.00  0.00     0.009 A 
ATOM     70  C   UNL A   1      49.022  26.757  28.578  1.00  0.00     0.009 A 
ATOM     71  C   UNL A   1      49.974  25.410  30.829  1.00  0.00     0.001 A 
ATOM     72  C   UNL A   1      50.365  26.387  28.656  1.00  0.00     0.001 A 
ATOM     73  C   UNL A   1      50.843  25.723  29.785  1.00  0.00     0.000 A 
ENDBRANCH  49  68
BRANCH  61  74
ATOM     74  C   UNL A   1      44.723  32.207  31.474  1.00  0.00    -0.014 A 
ATOM     75  C   UNL A   1      45.066  33.337  30.715  1.00  0.00     0.009 A 
ATOM     76  C   UNL A   1      44.787  32.281  32.874  1.00  0.00     0.009 A 
ATOM     77  C   UNL A   1      45.501  34.504  31.344  1.00  0.00     0.001 A 
ATOM     78  C   UNL A   1      45.200  33.458  33.501  1.00  0.00     0.001 A 
ATOM     79  C   UNL A   1      45.565  34.564  32.736  1.00  0.00     0.000 A 
ENDBRANCH  61  74
ENDBRANCH  35  36
ENDBRANCH  27  30
ENDBRANCH  25  26
ENDBRANCH  24  25
ENDBRANCH  23  24
ENDBRANCH   1  23
TORSDOF 16
ENDMDL
MODEL 2
REMARK VINA RESULT:     -10.8      1.032      5.997
REMARK SMILES C[C@@H](C(=O)NCCCCCCNC(=O)c1ccc(-c2c3nc(c(-c4ccccc4)c4ccc([nH]4)c(-c4ccccc4)c4nc(c(-c5ccccc5)c5ccc2[nH]5)C=C4)C=C3)cc1)c1ccc(OC2CCCC2)cc1F
REMARK SMILES IDX 8 1 7 2 6 3 5 4 3 5 4 6 2 8 1 9 63 10 64 11 74 12 65 13
REMARK SMILES IDX 73 14 75 15 66 16 67 17 68 18 69 19 72 20 70 21 71 22 9 23
REMARK SMILES IDX 10 24 11 25 12 26 13 27 14 29 15 30 16 31 62 32 17 33 61 34
REMARK SMILES IDX 18 35 19 36 20 37 55 38 21 39 60 40 54 41 56 42 22 43 59 44
REMARK SMILES IDX 53 45 52 46 23 48 45 49 30 50 44 51 31 52 34 53 43 54 57 55
REMARK SMILES IDX 32 56 33 57 42 59 58 60 35 61 24 62 25 63 29 64 26 65 28 66
REMARK SMILES IDX 27 67 46 68 47 69 51 70 48 71 50 72 49 73 36 74 37 75 41 76
REMARK SMILES IDX 38 77 40 78 39 79
REMARK H PARENT 5 7 12 28 56 47 34 58
REMARK Flexibility Score: inf
ROOT
ATOM      1  C   UNL A   1      36.803  21.628  24.449  1.00  0.00     0.002 C 
ENDROOT
BRANCH   1   2
ATOM      2  C   UNL A   1      36.711  22.677  25.562  1.00  0.00     0.021 C 
BRANCH   2   3
ATOM      3  C   UNL A   1      36.322  24.079  25.080  1.00  0.00     0.116 C 
BRANCH   3   4
ATOM      4  N   UNL A   1      35.203  24.588  25.850  1.00  0.00    -0.356 N 
ATOM      5  C   UNL A   1      33.907  24.806  25.475  1.00  0.00     0.227 C 
ATOM      6  O   UNL A   1      33.212  25.461  26.254  1.00  0.00    -0.274 OA
ATOM      7  H   UNL A   1      35.409  24.809  26.786  1.00  0.00     0.163 HD
BRANCH   5   8
ATOM      8  C   UNL A   1      33.370  24.210  24.157  1.00  0.00     0.108 C 
ATOM      9  C   UNL A   1      32.188  25.058  23.668  1.00  0.00     0.023 C 
BRANCH   8  10
ATOM     10  C   UNL A   1      33.062  22.713  24.267  1.00  0.00     0.000 A 
ATOM     11  C   UNL A   1      33.144  22.065  25.513  1.00  0.00     0.011 A 
ATOM     12  C   UNL A   1      32.713  21.915  23.172  1.00  0.00     0.130 A 
ATOM     13  C   UNL A   1      32.801  20.712  25.651  1.00  0.00     0.047 A 
ATOM     14  C   UNL A   1      32.396  20.565  23.303  1.00  0.00     0.086 A 
ATOM     15  F   UNL A   1      32.659  22.413  21.929  1.00  0.00    -0.207 F 
ATOM     16  C   UNL A   1      32.394  19.959  24.549  1.00  0.00     0.122 A 
BRANCH  16  17
ATOM     17  O   UNL A   1      32.034  18.674  24.823  1.00  0.00    -0.490 OA
BRANCH  17  18
ATOM     18  C   UNL A   1      32.981  17.689  25.226  1.00  0.00     0.173 C 
ATOM     19  C   UNL A   1      32.449  16.285  25.519  1.00  0.00     0.045 C 
ATOM     20  C   UNL A   1      34.197  17.534  24.307  1.00  0.00     0.045 C 
ATOM     21  C   UNL A   1      33.680  15.402  25.381  1.00  0.00     0.004 C 
ATOM     22  C   UNL A   1      34.495  16.036  24.260  1.00  0.00     0.004 C 
ENDBRANCH  17  18
ENDBRANCH  16  17
ENDBRANCH   8  10
ENDBRANCH   5   8
ENDBRANCH   3   4
ENDBRANCH   2   3
ENDBRANCH   1   2
BRANCH   1  23
ATOM     23  C   UNL A   1      36.584  20.183  24.902  1.00  0.00     0.002 C 
BRANCH  23  24
ATOM     24  C   UNL A   1      37.849  19.325  24.979  1.00  0.00     0.021 C 
BRANCH  24  25
ATOM     25  C   UNL A   1      39.004  19.939  25.768  1.00  0.00     0.116 C 
BRANCH  25  26
ATOM     26  N   UNL A   1      40.164  19.065  25.814  1.00  0.00    -0.352 N 
ATOM     27  C   UNL A   1      41.473  19.364  26.076  1.00  0.00     0.251 C 
ATOM     28  H   UNL A   1      39.980  18.116  25.629  1.00  0.00     0.163 HD
ATOM     29  O   UNL A   1      42.345  18.510  25.892  1.00  0.00    -0.269 OA
BRANCH  27  30
ATOM     30  C   UNL A   1      41.864  20.705  26.561  1.00  0.00     0.039 A 
ATOM     31  C   UNL A   1      42.222  21.676  25.622  1.00  0.00     0.014 A 
ATOM     32  C   UNL A   1      41.923  20.999  27.928  1.00  0.00     0.014 A 
ATOM     33  C   UNL A   1      42.594  22.952  26.049  1.00  0.00     0.010 A 
ATOM     34  C   UNL A   1      42.243  22.289  28.351  1.00  0.00     0.010 A 
ATOM     35  C   UNL A   1      42.587  23.276  27.415  1.00  0.00    -0.014 A 
BRANCH  35  36
ATOM     36  C   UNL A   1      42.937  24.646  27.865  1.00  0.00     0.031 A 
ATOM     37  C   UNL A   1      44.374  25.067  27.994  1.00  0.00     0.074 A 
ATOM     38  C   UNL A   1      41.953  25.509  28.180  1.00  0.00     0.049 A 
ATOM     39  N   UNL A   1      44.863  26.227  28.356  1.00  0.00    -0.248 NA
ATOM     40  C   UNL A   1      45.395  24.050  27.696  1.00  0.00     0.031 C 
ATOM     41  C   UNL A   1      40.518  25.211  28.142  1.00  0.00     0.029 A 
ATOM     42  N   UNL A   1      42.009  26.817  28.592  1.00  0.00    -0.354 N 
ATOM     43  C   UNL A   1      46.244  26.079  28.331  1.00  0.00     0.074 A 
ATOM     44  C   UNL A   1      46.516  24.705  27.967  1.00  0.00     0.031 C 
ATOM     45  C   UNL A   1      39.833  26.312  28.491  1.00  0.00     0.029 A 
ATOM     46  C   UNL A   1      40.776  27.383  28.797  1.00  0.00     0.049 A 
ATOM     47  H   UNL A   1      42.855  27.303  28.727  1.00  0.00     0.167 HD
ATOM     48  C   UNL A   1      47.202  27.008  28.568  1.00  0.00     0.031 A 
ATOM     49  C   UNL A   1      40.439  28.627  29.183  1.00  0.00     0.031 A 
ATOM     50  C   UNL A   1      46.938  28.376  28.929  1.00  0.00     0.049 A 
ATOM     51  C   UNL A   1      41.519  29.642  29.426  1.00  0.00     0.074 A 
ATOM     52  C   UNL A   1      47.843  29.398  29.160  1.00  0.00     0.029 A 
ATOM     53  N   UNL A   1      45.675  28.914  29.108  1.00  0.00    -0.354 N 
ATOM     54  N   UNL A   1      42.819  29.500  29.341  1.00  0.00    -0.248 NA
ATOM     55  C   UNL A   1      41.083  30.994  29.801  1.00  0.00     0.031 C 
ATOM     56  C   UNL A   1      47.127  30.548  29.509  1.00  0.00     0.029 A 
ATOM     57  C   UNL A   1      45.775  30.251  29.455  1.00  0.00     0.049 A 
ATOM     58  H   UNL A   1      44.829  28.419  29.003  1.00  0.00     0.167 HD
ATOM     59  C   UNL A   1      43.355  30.746  29.634  1.00  0.00     0.074 A 
ATOM     60  C   UNL A   1      42.239  31.638  29.876  1.00  0.00     0.031 C 
ATOM     61  C   UNL A   1      44.656  31.121  29.700  1.00  0.00     0.031 A 
BRANCH  48  62
ATOM     62  C   UNL A   1      48.633  26.570  28.437  1.00  0.00    -0.014 A 
ATOM     63  C   UNL A   1      49.291  26.624  27.199  1.00  0.00     0.009 A 
ATOM     64  C   UNL A   1      49.341  26.134  29.567  1.00  0.00     0.009 A 
ATOM     65  C   UNL A   1      50.624  26.223  27.088  1.00  0.00     0.001 A 
ATOM     66  C   UNL A   1      50.682  25.757  29.458  1.00  0.00     0.001 A 
ATOM     67  C   UNL A   1      51.319  25.794  28.218  1.00  0.00     0.000 A 
ENDBRANCH  48  62
BRANCH  49  68
ATOM     68  C   UNL A   1      39.010  28.994  29.341  1.00  0.00    -0.014 A 
ATOM     69  C   UNL A   1      38.286  29.528  28.264  1.00  0.00     0.009 A 
ATOM     70  C   UNL A   1      38.363  28.818  30.575  1.00  0.00     0.009 A 
ATOM     71  C   UNL A   1      36.951  29.905  28.427  1.00  0.00     0.001 A 
ATOM     72  C   UNL A   1      37.022  29.173  30.727  1.00  0.00     0.001 A 
ATOM     73  C   UNL A   1      36.320  29.725  29.657  1.00  0.00     0.000 A 
ENDBRANCH  49  68
BRANCH  61  74
ATOM     74  C   UNL A   1      44.933  32.558  30.029  1.00  0.00    -0.014 A 
ATOM     75  C   UNL A   1      45.007  33.532  29.021  1.00  0.00     0.009 A 
ATOM     76  C   UNL A   1      45.104  32.947  31.366  1.00  0.00     0.009 A 
ATOM     77  C   UNL A   1      45.283  34.861  29.343  1.00  0.00     0.001 A 
ATOM     78  C   UNL A   1      45.357  34.281  31.687  1.00  0.00     0.001 A 
ATOM     79  C   UNL A   1      45.456  35.235  30.675  1.00  0.00     0.000 A 
ENDBRANCH  61  74
ENDBRANCH  35  36
ENDBRANCH  27  30
ENDBRANCH  25  26
ENDBRANCH  24  25
ENDBRANCH  23  24
ENDBRANCH   1  23
TORSDOF 16
ENDMDL
MODEL 3
REMARK VINA RESULT:     -10.8      2.566      7.054
REMARK SMILES C[C@@H](C(=O)NCCCCCCNC(=O)c1ccc(-c2c3nc(c(-c4ccccc4)c4ccc([nH]4)c(-c4ccccc4)c4nc(c(-c5ccccc5)c5ccc2[nH]5)C=C4)C=C3)cc1)c1ccc(OC2CCCC2)cc1F
REMARK SMILES IDX 8 1 7 2 6 3 5 4 3 5 4 6 2 8 1 9 63 10 64 11 74 12 65 13
REMARK SMILES IDX 73 14 75 15 66 16 67 17 68 18 69 19 72 20 70 21 71 22 9 23
REMARK SMILES IDX 10 24 11 25 12 26 13 27 14 29 15 30 16 31 62 32 17 33 61 34
REMARK SMILES IDX 18 35 19 36 20 37 55 38 21 39 60 40 54 41 56 42 22 43 59 44
REMARK SMILES IDX 53 45 52 46 23 48 45 49 30 50 44 51 31 52 34 53 43 54 57 55
REMARK SMILES IDX 32 56 33 57 42 59 58 60 35 61 24 62 25 63 29 64 26 65 28 66
REMARK SMILES IDX 27 67 46 68 47 69 51 70 48 71 50 72 49 73 36 74 37 75 41 76
REMARK SMILES IDX 38 77 40 78 39 79
REMARK H PARENT 5 7 12 28 56 47 34 58
REMARK Flexibility Score: inf
ROOT
ATOM      1  C   UNL A   1      34.055  24.952  22.894  1.00  0.00     0.002 C 
ENDROOT
BRANCH   1   2
ATOM      2  C   UNL A   1      32.831  24.701  22.007  1.00  0.00     0.021 C 
BRANCH   2   3
ATOM      3  C   UNL A   1      32.123  25.974  21.531  1.00  0.00     0.116 C 
BRANCH   3   4
ATOM      4  N   UNL A   1      32.854  27.151  21.960  1.00  0.00    -0.356 N 
ATOM      5  C   UNL A   1      32.467  28.173  22.780  1.00  0.00     0.227 C 
ATOM      6  O   UNL A   1      33.194  29.169  22.800  1.00  0.00    -0.274 OA
ATOM      7  H   UNL A   1      33.769  27.225  21.606  1.00  0.00     0.163 HD
BRANCH   5   8
ATOM      8  C   UNL A   1      31.202  28.031  23.653  1.00  0.00     0.108 C 
ATOM      9  C   UNL A   1      30.905  29.378  24.326  1.00  0.00     0.023 C 
BRANCH   8  10
ATOM     10  C   UNL A   1      31.285  26.850  24.626  1.00  0.00     0.000 A 
ATOM     11  C   UNL A   1      32.433  26.668  25.419  1.00  0.00     0.011 A 
ATOM     12  C   UNL A   1      30.270  25.898  24.770  1.00  0.00     0.130 A 
ATOM     13  C   UNL A   1      32.503  25.635  26.365  1.00  0.00     0.047 A 
ATOM     14  C   UNL A   1      30.349  24.857  25.692  1.00  0.00     0.086 A 
ATOM     15  F   UNL A   1      29.157  25.941  24.026  1.00  0.00    -0.207 F 
ATOM     16  C   UNL A   1      31.446  24.739  26.529  1.00  0.00     0.122 A 
BRANCH  16  17
ATOM     17  O   UNL A   1      31.613  23.817  27.518  1.00  0.00    -0.490 OA
BRANCH  17  18
ATOM     18  C   UNL A   1      32.226  22.553  27.283  1.00  0.00     0.173 C 
ATOM     19  C   UNL A   1      32.169  22.002  25.856  1.00  0.00     0.045 C 
ATOM     20  C   UNL A   1      33.675  22.427  27.763  1.00  0.00     0.045 C 
ATOM     21  C   UNL A   1      33.309  20.996  25.817  1.00  0.00     0.004 C 
ATOM     22  C   UNL A   1      34.396  21.600  26.699  1.00  0.00     0.004 C 
ENDBRANCH  17  18
ENDBRANCH  16  17
ENDBRANCH   8  10
ENDBRANCH   5   8
ENDBRANCH   3   4
ENDBRANCH   2   3
ENDBRANCH   1   2
BRANCH   1  23
ATOM     23  C   UNL A   1      34.537  23.738  23.692  1.00  0.00     0.002 C 
BRANCH  23  24
ATOM     24  C   UNL A   1      36.047  23.489  23.651  1.00  0.00     0.021 C 
BRANCH  24  25
ATOM     25  C   UNL A   1      36.788  23.773  24.956  1.00  0.00     0.116 C 
BRANCH  25  26
ATOM     26  N   UNL A   1      37.705  22.704  25.312  1.00  0.00    -0.352 N 
ATOM     27  C   UNL A   1      38.889  22.760  25.995  1.00  0.00     0.251 C 
ATOM     28  H   UNL A   1      37.433  21.805  25.017  1.00  0.00     0.163 HD
ATOM     29  O   UNL A   1      39.616  21.763  26.042  1.00  0.00    -0.269 OA
BRANCH  27  30
ATOM     30  C   UNL A   1      39.322  24.004  26.664  1.00  0.00     0.039 A 
ATOM     31  C   UNL A   1      40.116  24.905  25.949  1.00  0.00     0.014 A 
ATOM     32  C   UNL A   1      38.992  24.269  27.998  1.00  0.00     0.014 A 
ATOM     33  C   UNL A   1      40.540  26.090  26.554  1.00  0.00     0.010 A 
ATOM     34  C   UNL A   1      39.371  25.478  28.583  1.00  0.00     0.010 A 
ATOM     35  C   UNL A   1      40.153  26.396  27.868  1.00  0.00    -0.014 A 
BRANCH  35  36
ATOM     36  C   UNL A   1      40.565  27.678  28.493  1.00  0.00     0.031 A 
ATOM     37  C   UNL A   1      41.979  27.886  28.956  1.00  0.00     0.074 A 
ATOM     38  C   UNL A   1      39.651  28.652  28.666  1.00  0.00     0.049 A 
ATOM     39  N   UNL A   1      42.519  28.944  29.508  1.00  0.00    -0.248 NA
ATOM     40  C   UNL A   1      42.906  26.754  28.796  1.00  0.00     0.031 C 
ATOM     41  C   UNL A   1      38.234  28.560  28.303  1.00  0.00     0.029 A 
ATOM     42  N   UNL A   1      39.779  29.914  29.188  1.00  0.00    -0.354 N 
ATOM     43  C   UNL A   1      43.842  28.607  29.760  1.00  0.00     0.074 A 
ATOM     44  C   UNL A   1      44.013  27.230  29.348  1.00  0.00     0.031 C 
ATOM     45  C   UNL A   1      37.632  29.725  28.591  1.00  0.00     0.029 A 
ATOM     46  C   UNL A   1      38.611  30.636  29.176  1.00  0.00     0.049 A 
ATOM     47  H   UNL A   1      40.629  30.270  29.538  1.00  0.00     0.167 HD
ATOM     48  C   UNL A   1      44.833  29.378  30.270  1.00  0.00     0.031 A 
ATOM     49  C   UNL A   1      38.356  31.892  29.584  1.00  0.00     0.031 A 
ATOM     50  C   UNL A   1      44.670  30.748  30.679  1.00  0.00     0.049 A 
ATOM     51  C   UNL A   1      39.475  32.731  30.132  1.00  0.00     0.074 A 
ATOM     52  C   UNL A   1      45.623  31.619  31.179  1.00  0.00     0.029 A 
ATOM     53  N   UNL A   1      43.475  31.447  30.633  1.00  0.00    -0.354 N 
ATOM     54  N   UNL A   1      40.734  32.413  30.311  1.00  0.00    -0.248 NA
ATOM     55  C   UNL A   1      39.140  34.109  30.519  1.00  0.00     0.031 C 
ATOM     56  C   UNL A   1      44.997  32.837  31.465  1.00  0.00     0.029 A 
ATOM     57  C   UNL A   1      43.663  32.735  31.104  1.00  0.00     0.049 A 
ATOM     58  H   UNL A   1      42.618  31.081  30.313  1.00  0.00     0.167 HD
ATOM     59  C   UNL A   1      41.344  33.555  30.812  1.00  0.00     0.074 A 
ATOM     60  C   UNL A   1      40.322  34.579  30.888  1.00  0.00     0.031 C 
ATOM     61  C   UNL A   1      42.635  33.739  31.180  1.00  0.00     0.031 A 
BRANCH  48  62
ATOM     62  C   UNL A   1      46.192  28.751  30.406  1.00  0.00    -0.014 A 
ATOM     63  C   UNL A   1      46.562  28.086  31.585  1.00  0.00     0.009 A 
ATOM     64  C   UNL A   1      47.096  28.792  29.334  1.00  0.00     0.009 A 
ATOM     65  C   UNL A   1      47.823  27.498  31.699  1.00  0.00     0.001 A 
ATOM     66  C   UNL A   1      48.348  28.183  29.442  1.00  0.00     0.001 A 
ATOM     67  C   UNL A   1      48.713  27.544  30.627  1.00  0.00     0.000 A 
ENDBRANCH  48  62
BRANCH  49  68
ATOM     68  C   UNL A   1      36.984  32.446  29.470  1.00  0.00    -0.014 A 
ATOM     69  C   UNL A   1      36.590  33.143  28.317  1.00  0.00     0.009 A 
ATOM     70  C   UNL A   1      36.063  32.286  30.516  1.00  0.00     0.009 A 
ATOM     71  C   UNL A   1      35.310  33.694  28.228  1.00  0.00     0.001 A 
ATOM     72  C   UNL A   1      34.776  32.817  30.413  1.00  0.00     0.001 A 
ATOM     73  C   UNL A   1      34.404  33.528  29.274  1.00  0.00     0.000 A 
ENDBRANCH  49  68
BRANCH  61  74
ATOM     74  C   UNL A   1      43.012  35.104  31.678  1.00  0.00    -0.014 A 
ATOM     75  C   UNL A   1      42.890  35.439  33.036  1.00  0.00     0.009 A 
ATOM     76  C   UNL A   1      43.514  36.059  30.782  1.00  0.00     0.009 A 
ATOM     77  C   UNL A   1      43.228  36.718  33.479  1.00  0.00     0.001 A 
ATOM     78  C   UNL A   1      43.873  37.330  31.233  1.00  0.00     0.001 A 
ATOM     79  C   UNL A   1      43.721  37.662  32.579  1.00  0.00     0.000 A 
ENDBRANCH  61  74
ENDBRANCH  35  36
ENDBRANCH  27  30
ENDBRANCH  25  26
ENDBRANCH  24  25
ENDBRANCH  23  24
ENDBRANCH   1  23
TORSDOF 16
ENDMDL
