MODEL 1
REMARK VINA RESULT:      -9.7      0.000      0.000
REMARK SMILES C[C@H](Nc1ccc(N(C)C)cc1)[C@@H](C)C(=O)NCCCCCCNC(=O)c1ccc(-c2c3nc(c(-c4ccccc4)c4ccc([nH]4)c(-c4ccccc4)c4nc(c(-c5ccccc5)c5ccc2[nH]5)C=C4)C=C3)cc1
REMARK SMILES IDX 19 1 18 2 17 3 15 4 16 5 13 7 14 8 2 9 1 10 3 11 4 13 5 14
REMARK SMILES IDX 12 15 6 16 11 17 7 18 8 19 9 20 10 21 20 22 21 23 22 24
REMARK SMILES IDX 23 25 24 26 25 27 26 29 27 30 28 31 74 32 29 33 73 34 30 35
REMARK SMILES IDX 31 36 32 37 67 38 33 39 72 40 66 41 68 42 34 43 71 44 65 45
REMARK SMILES IDX 64 46 35 48 57 49 42 50 56 51 43 52 46 53 55 54 69 55 44 56
REMARK SMILES IDX 45 57 54 59 70 60 47 61 36 62 37 63 41 64 38 65 40 66 39 67
REMARK SMILES IDX 58 68 59 69 63 70 60 71 62 72 61 73 48 74 49 75 53 76 50 77
REMARK SMILES IDX 52 78 51 79
REMARK H PARENT 17 6 3 12 24 28 68 47 46 58
REMARK Flexibility Score: inf
ROOT
ATOM      1  C   UNL A   1      37.841  23.498  26.021  1.00  0.00     0.021 C 
ENDROOT
BRANCH   1   2
ATOM      2  C   UNL A   1      36.715  23.674  24.999  1.00  0.00     0.116 C 
BRANCH   2   3
ATOM      3  N   UNL A   1      35.597  24.418  25.547  1.00  0.00    -0.356 N 
ATOM      4  C   UNL A   1      34.385  24.736  25.014  1.00  0.00     0.224 C 
ATOM      5  O   UNL A   1      33.626  25.423  25.703  1.00  0.00    -0.275 OA
ATOM      6  H   UNL A   1      35.739  24.752  26.462  1.00  0.00     0.163 HD
BRANCH   4   7
ATOM      7  C   UNL A   1      33.953  24.273  23.623  1.00  0.00     0.097 C 
ATOM      8  C   UNL A   1      33.696  25.475  22.712  1.00  0.00     0.020 C 
BRANCH   7   9
ATOM      9  C   UNL A   1      32.826  23.230  23.731  1.00  0.00     0.088 C 
ATOM     10  C   UNL A   1      31.460  23.861  23.425  1.00  0.00     0.031 C 
BRANCH   9  11
ATOM     11  N   UNL A   1      32.777  22.588  25.055  1.00  0.00    -0.382 N 
ATOM     12  H   UNL A   1      32.509  23.075  25.868  1.00  0.00     0.160 HD
BRANCH  11  13
ATOM     13  C   UNL A   1      33.139  21.238  25.074  1.00  0.00     0.034 A 
ATOM     14  C   UNL A   1      32.183  20.245  24.894  1.00  0.00     0.028 A 
ATOM     15  C   UNL A   1      34.476  20.850  25.074  1.00  0.00     0.028 A 
ATOM     16  C   UNL A   1      32.563  18.916  24.639  1.00  0.00     0.028 A 
ATOM     17  C   UNL A   1      34.848  19.526  24.815  1.00  0.00     0.028 A 
ATOM     18  C   UNL A   1      33.907  18.518  24.550  1.00  0.00     0.036 A 
BRANCH  18  19
ATOM     19  N   UNL A   1      34.301  17.231  24.214  1.00  0.00    -0.378 N 
ATOM     20  C   UNL A   1      34.841  16.267  25.164  1.00  0.00     0.143 C 
ATOM     21  C   UNL A   1      34.069  16.716  22.867  1.00  0.00     0.143 C 
ENDBRANCH  18  19
ENDBRANCH  11  13
ENDBRANCH   9  11
ENDBRANCH   7   9
ENDBRANCH   4   7
ENDBRANCH   2   3
ENDBRANCH   1   2
BRANCH   1  22
ATOM     22  C   UNL A   1      38.618  22.187  25.878  1.00  0.00     0.002 C 
BRANCH  22  23
ATOM     23  C   UNL A   1      37.988  21.166  24.928  1.00  0.00     0.002 C 
BRANCH  23  24
ATOM     24  C   UNL A   1      38.546  19.746  25.046  1.00  0.00     0.021 C 
BRANCH  24  25
ATOM     25  C   UNL A   1      39.456  19.530  26.249  1.00  0.00     0.116 C 
BRANCH  25  26
ATOM     26  N   UNL A   1      40.755  19.001  25.861  1.00  0.00    -0.352 N 
ATOM     27  C   UNL A   1      41.958  19.655  25.771  1.00  0.00     0.251 C 
ATOM     28  H   UNL A   1      40.773  18.045  25.629  1.00  0.00     0.163 HD
ATOM     29  O   UNL A   1      42.923  19.124  25.228  1.00  0.00    -0.269 OA
BRANCH  27  30
ATOM     30  C   UNL A   1      42.079  21.016  26.328  1.00  0.00     0.039 A 
ATOM     31  C   UNL A   1      41.990  21.203  27.709  1.00  0.00     0.014 A 
ATOM     32  C   UNL A   1      42.301  22.102  25.477  1.00  0.00     0.014 A 
ATOM     33  C   UNL A   1      42.186  22.477  28.246  1.00  0.00     0.010 A 
ATOM     34  C   UNL A   1      42.572  23.353  26.018  1.00  0.00     0.010 A 
ATOM     35  C   UNL A   1      42.511  23.554  27.406  1.00  0.00    -0.014 A 
BRANCH  35  36
ATOM     36  C   UNL A   1      42.768  24.915  27.938  1.00  0.00     0.031 A 
ATOM     37  C   UNL A   1      44.150  25.279  28.403  1.00  0.00     0.074 A 
ATOM     38  C   UNL A   1      41.751  25.785  28.089  1.00  0.00     0.049 A 
ATOM     39  N   UNL A   1      44.556  26.351  29.034  1.00  0.00    -0.248 NA
ATOM     40  C   UNL A   1      45.212  24.288  28.153  1.00  0.00     0.031 C 
ATOM     41  C   UNL A   1      40.362  25.549  27.694  1.00  0.00     0.029 A 
ATOM     42  N   UNL A   1      41.731  27.044  28.637  1.00  0.00    -0.354 N 
ATOM     43  C   UNL A   1      45.911  26.152  29.276  1.00  0.00     0.074 A 
ATOM     44  C   UNL A   1      46.244  24.838  28.773  1.00  0.00     0.031 C 
ATOM     45  C   UNL A   1      39.629  26.634  27.995  1.00  0.00     0.029 A 
ATOM     46  C   UNL A   1      40.483  27.618  28.651  1.00  0.00     0.049 A 
ATOM     47  H   UNL A   1      42.535  27.492  28.988  1.00  0.00     0.167 HD
ATOM     48  C   UNL A   1      46.800  26.995  29.850  1.00  0.00     0.031 A 
ATOM     49  C   UNL A   1      40.071  28.797  29.154  1.00  0.00     0.031 A 
ATOM     50  C   UNL A   1      46.468  28.306  30.341  1.00  0.00     0.049 A 
ATOM     51  C   UNL A   1      41.070  29.701  29.825  1.00  0.00     0.074 A 
ATOM     52  C   UNL A   1      47.305  29.253  30.901  1.00  0.00     0.029 A 
ATOM     53  N   UNL A   1      45.193  28.851  30.328  1.00  0.00    -0.354 N 
ATOM     54  N   UNL A   1      42.355  29.519  30.007  1.00  0.00    -0.248 NA
ATOM     55  C   UNL A   1      40.561  30.974  30.352  1.00  0.00     0.031 C 
ATOM     56  C   UNL A   1      46.527  30.352  31.278  1.00  0.00     0.029 A 
ATOM     57  C   UNL A   1      45.217  30.115  30.892  1.00  0.00     0.049 A 
ATOM     58  H   UNL A   1      44.390  28.406  29.972  1.00  0.00     0.167 HD
ATOM     59  C   UNL A   1      42.816  30.672  30.631  1.00  0.00     0.074 A 
ATOM     60  C   UNL A   1      41.674  31.546  30.793  1.00  0.00     0.031 C 
ATOM     61  C   UNL A   1      44.074  30.980  31.029  1.00  0.00     0.031 A 
BRANCH  48  62
ATOM     62  C   UNL A   1      48.218  26.513  29.990  1.00  0.00    -0.014 A 
ATOM     63  C   UNL A   1      49.181  26.780  29.003  1.00  0.00     0.009 A 
ATOM     64  C   UNL A   1      48.604  25.806  31.139  1.00  0.00     0.009 A 
ATOM     65  C   UNL A   1      50.487  26.307  29.142  1.00  0.00     0.001 A 
ATOM     66  C   UNL A   1      49.920  25.364  31.292  1.00  0.00     0.001 A 
ATOM     67  C   UNL A   1      50.857  25.605  30.288  1.00  0.00     0.000 A 
ENDBRANCH  48  62
BRANCH  49  68
ATOM     68  C   UNL A   1      38.644  29.202  29.037  1.00  0.00    -0.014 A 
ATOM     69  C   UNL A   1      38.164  29.776  27.849  1.00  0.00     0.009 A 
ATOM     70  C   UNL A   1      37.757  29.029  30.110  1.00  0.00     0.009 A 
ATOM     71  C   UNL A   1      36.836  30.196  27.750  1.00  0.00     0.001 A 
ATOM     72  C   UNL A   1      36.422  29.420  29.999  1.00  0.00     0.001 A 
ATOM     73  C   UNL A   1      35.964  30.014  28.823  1.00  0.00     0.000 A 
ENDBRANCH  49  68
BRANCH  61  74
ATOM     74  C   UNL A   1      44.303  32.343  31.620  1.00  0.00    -0.014 A 
ATOM     75  C   UNL A   1      44.214  32.571  33.001  1.00  0.00     0.009 A 
ATOM     76  C   UNL A   1      44.685  33.401  30.778  1.00  0.00     0.009 A 
ATOM     77  C   UNL A   1      44.479  33.839  33.524  1.00  0.00     0.001 A 
ATOM     78  C   UNL A   1      44.980  34.658  31.307  1.00  0.00     0.001 A 
ATOM     79  C   UNL A   1      44.870  34.878  32.678  1.00  0.00     0.000 A 
ENDBRANCH  61  74
ENDBRANCH  35  36
ENDBRANCH  27  30
ENDBRANCH  25  26
ENDBRANCH  24  25
ENDBRANCH  23  24
ENDBRANCH  22  23
ENDBRANCH   1  22
TORSDOF 17
ENDMDL
MODEL 2
REMARK VINA RESULT:      -9.4      2.599      7.498
REMARK SMILES C[C@H](Nc1ccc(N(C)C)cc1)[C@@H](C)C(=O)NCCCCCCNC(=O)c1ccc(-c2c3nc(c(-c4ccccc4)c4ccc([nH]4)c(-c4ccccc4)c4nc(c(-c5ccccc5)c5ccc2[nH]5)C=C4)C=C3)cc1
REMARK SMILES IDX 19 1 18 2 17 3 15 4 16 5 13 7 14 8 2 9 1 10 3 11 4 13 5 14
REMARK SMILES IDX 12 15 6 16 11 17 7 18 8 19 9 20 10 21 20 22 21 23 22 24
REMARK SMILES IDX 23 25 24 26 25 27 26 29 27 30 28 31 74 32 29 33 73 34 30 35
REMARK SMILES IDX 31 36 32 37 67 38 33 39 72 40 66 41 68 42 34 43 71 44 65 45
REMARK SMILES IDX 64 46 35 48 57 49 42 50 56 51 43 52 46 53 55 54 69 55 44 56
REMARK SMILES IDX 45 57 54 59 70 60 47 61 36 62 37 63 41 64 38 65 40 66 39 67
REMARK SMILES IDX 58 68 59 69 63 70 60 71 62 72 61 73 48 74 49 75 53 76 50 77
REMARK SMILES IDX 52 78 51 79
REMARK H PARENT 17 6 3 12 24 28 68 47 46 58
REMARK Flexibility Score: inf
ROOT
ATOM      1  C   UNL A   1      35.066  22.446  25.340  1.00  0.00     0.021 C 
ENDROOT
BRANCH   1   2
ATOM      2  C   UNL A   1      34.203  22.038  24.144  1.00  0.00     0.116 C 
BRANCH   2   3
ATOM      3  N   UNL A   1      34.185  23.059  23.115  1.00  0.00    -0.356 N 
ATOM      4  C   UNL A   1      33.415  24.173  22.971  1.00  0.00     0.224 C 
ATOM      5  O   UNL A   1      33.593  24.859  21.960  1.00  0.00    -0.275 OA
ATOM      6  H   UNL A   1      34.843  22.925  22.395  1.00  0.00     0.163 HD
BRANCH   4   7
ATOM      7  C   UNL A   1      32.367  24.585  24.004  1.00  0.00     0.097 C 
ATOM      8  C   UNL A   1      30.969  24.154  23.554  1.00  0.00     0.020 C 
BRANCH   7   9
ATOM      9  C   UNL A   1      32.546  26.065  24.390  1.00  0.00     0.088 C 
ATOM     10  C   UNL A   1      33.653  26.231  25.439  1.00  0.00     0.031 C 
BRANCH   9  11
ATOM     11  N   UNL A   1      31.303  26.669  24.898  1.00  0.00    -0.382 N 
ATOM     12  H   UNL A   1      30.841  26.330  25.699  1.00  0.00     0.160 HD
BRANCH  11  13
ATOM     13  C   UNL A   1      30.826  27.757  24.161  1.00  0.00     0.034 A 
ATOM     14  C   UNL A   1      29.973  27.562  23.081  1.00  0.00     0.028 A 
ATOM     15  C   UNL A   1      31.026  29.064  24.596  1.00  0.00     0.028 A 
ATOM     16  C   UNL A   1      29.277  28.642  22.509  1.00  0.00     0.028 A 
ATOM     17  C   UNL A   1      30.326  30.134  24.025  1.00  0.00     0.028 A 
ATOM     18  C   UNL A   1      29.397  29.957  22.987  1.00  0.00     0.036 A 
BRANCH  18  19
ATOM     19  N   UNL A   1      28.654  31.019  22.492  1.00  0.00    -0.378 N 
ATOM     20  C   UNL A   1      28.535  32.312  23.155  1.00  0.00     0.143 C 
ATOM     21  C   UNL A   1      28.031  30.934  21.174  1.00  0.00     0.143 C 
ENDBRANCH  18  19
ENDBRANCH  11  13
ENDBRANCH   9  11
ENDBRANCH   7   9
ENDBRANCH   4   7
ENDBRANCH   2   3
ENDBRANCH   1   2
BRANCH   1  22
ATOM     22  C   UNL A   1      36.398  21.699  25.436  1.00  0.00     0.002 C 
BRANCH  22  23
ATOM     23  C   UNL A   1      36.346  20.232  25.002  1.00  0.00     0.002 C 
BRANCH  23  24
ATOM     24  C   UNL A   1      37.712  19.568  24.808  1.00  0.00     0.021 C 
BRANCH  24  25
ATOM     25  C   UNL A   1      38.801  20.099  25.730  1.00  0.00     0.116 C 
BRANCH  25  26
ATOM     26  N   UNL A   1      39.966  19.226  25.756  1.00  0.00    -0.352 N 
ATOM     27  C   UNL A   1      41.275  19.545  26.012  1.00  0.00     0.251 C 
ATOM     28  H   UNL A   1      39.790  18.277  25.562  1.00  0.00     0.163 HD
ATOM     29  O   UNL A   1      42.173  18.738  25.790  1.00  0.00    -0.269 OA
BRANCH  27  30
ATOM     30  C   UNL A   1      41.597  20.882  26.548  1.00  0.00     0.039 A 
ATOM     31  C   UNL A   1      41.668  21.066  27.931  1.00  0.00     0.014 A 
ATOM     32  C   UNL A   1      41.847  21.944  25.676  1.00  0.00     0.014 A 
ATOM     33  C   UNL A   1      42.053  22.309  28.440  1.00  0.00     0.010 A 
ATOM     34  C   UNL A   1      42.304  23.154  26.181  1.00  0.00     0.010 A 
ATOM     35  C   UNL A   1      42.405  23.351  27.568  1.00  0.00    -0.014 A 
BRANCH  35  36
ATOM     36  C   UNL A   1      42.859  24.672  28.066  1.00  0.00     0.031 A 
ATOM     37  C   UNL A   1      41.843  25.738  28.369  1.00  0.00     0.074 A 
ATOM     38  C   UNL A   1      44.175  24.945  28.158  1.00  0.00     0.049 A 
ATOM     39  N   UNL A   1      42.029  26.998  28.669  1.00  0.00    -0.248 NA
ATOM     40  C   UNL A   1      40.427  25.339  28.293  1.00  0.00     0.031 C 
ATOM     41  C   UNL A   1      45.261  24.004  27.877  1.00  0.00     0.029 A 
ATOM     42  N   UNL A   1      44.821  26.108  28.497  1.00  0.00    -0.354 N 
ATOM     43  C   UNL A   1      40.757  27.545  28.793  1.00  0.00     0.074 A 
ATOM     44  C   UNL A   1      39.811  26.495  28.484  1.00  0.00     0.031 C 
ATOM     45  C   UNL A   1      46.438  24.622  28.074  1.00  0.00     0.029 A 
ATOM     46  C   UNL A   1      46.191  26.012  28.442  1.00  0.00     0.049 A 
ATOM     47  H   UNL A   1      44.348  26.932  28.755  1.00  0.00     0.167 HD
ATOM     48  C   UNL A   1      40.408  28.803  29.148  1.00  0.00     0.031 A 
ATOM     49  C   UNL A   1      47.140  26.946  28.645  1.00  0.00     0.031 A 
ATOM     50  C   UNL A   1      41.351  29.843  29.463  1.00  0.00     0.049 A 
ATOM     51  C   UNL A   1      46.727  28.349  28.999  1.00  0.00     0.074 A 
ATOM     52  C   UNL A   1      41.098  31.138  29.875  1.00  0.00     0.029 A 
ATOM     53  N   UNL A   1      42.728  29.701  29.402  1.00  0.00    -0.354 N 
ATOM     54  N   UNL A   1      45.521  28.840  29.155  1.00  0.00    -0.248 NA
ATOM     55  C   UNL A   1      47.806  29.323  29.211  1.00  0.00     0.031 C 
ATOM     56  C   UNL A   1      42.323  31.799  30.010  1.00  0.00     0.029 A 
ATOM     57  C   UNL A   1      43.339  30.894  29.747  1.00  0.00     0.049 A 
ATOM     58  H   UNL A   1      43.202  28.875  29.150  1.00  0.00     0.167 HD
ATOM     59  C   UNL A   1      45.699  30.168  29.525  1.00  0.00     0.074 A 
ATOM     60  C   UNL A   1      47.126  30.403  29.573  1.00  0.00     0.031 C 
ATOM     61  C   UNL A   1      44.763  31.106  29.806  1.00  0.00     0.031 A 
BRANCH  48  62
ATOM     62  C   UNL A   1      38.939  29.125  29.197  1.00  0.00    -0.014 A 
ATOM     63  C   UNL A   1      38.213  29.042  30.397  1.00  0.00     0.009 A 
ATOM     64  C   UNL A   1      38.277  29.544  28.033  1.00  0.00     0.009 A 
ATOM     65  C   UNL A   1      36.847  29.326  30.419  1.00  0.00     0.001 A 
ATOM     66  C   UNL A   1      36.918  29.861  28.065  1.00  0.00     0.001 A 
ATOM     67  C   UNL A   1      36.202  29.740  29.254  1.00  0.00     0.000 A 
ENDBRANCH  48  62
BRANCH  49  68
ATOM     68  C   UNL A   1      48.578  26.587  28.530  1.00  0.00    -0.014 A 
ATOM     69  C   UNL A   1      49.257  26.016  29.618  1.00  0.00     0.009 A 
ATOM     70  C   UNL A   1      49.285  26.822  27.341  1.00  0.00     0.009 A 
ATOM     71  C   UNL A   1      50.618  25.717  29.527  1.00  0.00     0.001 A 
ATOM     72  C   UNL A   1      50.638  26.493  27.241  1.00  0.00     0.001 A 
ATOM     73  C   UNL A   1      51.307  25.951  28.337  1.00  0.00     0.000 A 
ENDBRANCH  49  68
BRANCH  61  74
ATOM     74  C   UNL A   1      45.243  32.458  30.254  1.00  0.00    -0.014 A 
ATOM     75  C   UNL A   1      45.438  33.508  29.345  1.00  0.00     0.009 A 
ATOM     76  C   UNL A   1      45.436  32.699  31.624  1.00  0.00     0.009 A 
ATOM     77  C   UNL A   1      45.841  34.767  29.798  1.00  0.00     0.001 A 
ATOM     78  C   UNL A   1      45.807  33.966  32.077  1.00  0.00     0.001 A 
ATOM     79  C   UNL A   1      46.016  34.996  31.163  1.00  0.00     0.000 A 
ENDBRANCH  61  74
ENDBRANCH  35  36
ENDBRANCH  27  30
ENDBRANCH  25  26
ENDBRANCH  24  25
ENDBRANCH  23  24
ENDBRANCH  22  23
ENDBRANCH   1  22
TORSDOF 17
ENDMDL
MODEL 3
REMARK VINA RESULT:      -9.3      2.111      4.206
REMARK SMILES C[C@H](Nc1ccc(N(C)C)cc1)[C@@H](C)C(=O)NCCCCCCNC(=O)c1ccc(-c2c3nc(c(-c4ccccc4)c4ccc([nH]4)c(-c4ccccc4)c4nc(c(-c5ccccc5)c5ccc2[nH]5)C=C4)C=C3)cc1
REMARK SMILES IDX 19 1 18 2 17 3 15 4 16 5 13 7 14 8 2 9 1 10 3 11 4 13 5 14
REMARK SMILES IDX 12 15 6 16 11 17 7 18 8 19 9 20 10 21 20 22 21 23 22 24
REMARK SMILES IDX 23 25 24 26 25 27 26 29 27 30 28 31 74 32 29 33 73 34 30 35
REMARK SMILES IDX 31 36 32 37 67 38 33 39 72 40 66 41 68 42 34 43 71 44 65 45
REMARK SMILES IDX 64 46 35 48 57 49 42 50 56 51 43 52 46 53 55 54 69 55 44 56
REMARK SMILES IDX 45 57 54 59 70 60 47 61 36 62 37 63 41 64 38 65 40 66 39 67
REMARK SMILES IDX 58 68 59 69 63 70 60 71 62 72 61 73 48 74 49 75 53 76 50 77
REMARK SMILES IDX 52 78 51 79
REMARK H PARENT 17 6 3 12 24 28 68 47 46 58
REMARK Flexibility Score: inf
ROOT
ATOM      1  C   UNL A   1      37.169  22.969  25.717  1.00  0.00     0.021 C 
ENDROOT
BRANCH   1   2
ATOM      2  C   UNL A   1      36.282  24.207  25.564  1.00  0.00     0.116 C 
BRANCH   2   3
ATOM      3  N   UNL A   1      35.137  23.951  24.711  1.00  0.00    -0.356 N 
ATOM      4  C   UNL A   1      33.813  24.218  24.885  1.00  0.00     0.224 C 
ATOM      5  O   UNL A   1      33.039  23.851  23.997  1.00  0.00    -0.275 OA
ATOM      6  H   UNL A   1      35.353  23.506  23.860  1.00  0.00     0.163 HD
BRANCH   4   7
ATOM      7  C   UNL A   1      33.277  24.943  26.119  1.00  0.00     0.097 C 
ATOM      8  C   UNL A   1      31.943  24.340  26.562  1.00  0.00     0.020 C 
BRANCH   7   9
ATOM      9  C   UNL A   1      33.312  26.468  25.903  1.00  0.00     0.088 C 
ATOM     10  C   UNL A   1      32.291  27.176  26.804  1.00  0.00     0.031 C 
BRANCH   9  11
ATOM     11  N   UNL A   1      33.064  26.843  24.501  1.00  0.00    -0.382 N 
ATOM     12  H   UNL A   1      33.723  26.685  23.787  1.00  0.00     0.160 HD
BRANCH  11  13
ATOM     13  C   UNL A   1      31.824  27.442  24.258  1.00  0.00     0.034 A 
ATOM     14  C   UNL A   1      31.731  28.806  24.014  1.00  0.00     0.028 A 
ATOM     15  C   UNL A   1      30.680  26.673  24.058  1.00  0.00     0.028 A 
ATOM     16  C   UNL A   1      30.547  29.368  23.504  1.00  0.00     0.028 A 
ATOM     17  C   UNL A   1      29.506  27.238  23.546  1.00  0.00     0.028 A 
ATOM     18  C   UNL A   1      29.409  28.599  23.214  1.00  0.00     0.036 A 
BRANCH  18  19
ATOM     19  N   UNL A   1      28.264  29.121  22.629  1.00  0.00    -0.378 N 
ATOM     20  C   UNL A   1      26.910  28.837  23.089  1.00  0.00     0.143 C 
ATOM     21  C   UNL A   1      28.366  30.117  21.565  1.00  0.00     0.143 C 
ENDBRANCH  18  19
ENDBRANCH  11  13
ENDBRANCH   9  11
ENDBRANCH   7   9
ENDBRANCH   4   7
ENDBRANCH   2   3
ENDBRANCH   1   2
BRANCH   1  22
ATOM     22  C   UNL A   1      37.119  22.010  24.525  1.00  0.00     0.002 C 
BRANCH  22  23
ATOM     23  C   UNL A   1      36.744  20.568  24.875  1.00  0.00     0.002 C 
BRANCH  23  24
ATOM     24  C   UNL A   1      37.929  19.608  25.008  1.00  0.00     0.021 C 
BRANCH  24  25
ATOM     25  C   UNL A   1      39.105  20.172  25.794  1.00  0.00     0.116 C 
BRANCH  25  26
ATOM     26  N   UNL A   1      40.221  19.240  25.848  1.00  0.00    -0.352 N 
ATOM     27  C   UNL A   1      41.550  19.500  26.072  1.00  0.00     0.251 C 
ATOM     28  H   UNL A   1      39.992  18.294  25.703  1.00  0.00     0.163 HD
ATOM     29  O   UNL A   1      42.400  18.635  25.879  1.00  0.00    -0.269 OA
BRANCH  27  30
ATOM     30  C   UNL A   1      41.951  20.841  26.538  1.00  0.00     0.039 A 
ATOM     31  C   UNL A   1      42.399  21.784  25.610  1.00  0.00     0.014 A 
ATOM     32  C   UNL A   1      41.860  21.166  27.894  1.00  0.00     0.014 A 
ATOM     33  C   UNL A   1      42.700  23.079  26.037  1.00  0.00     0.010 A 
ATOM     34  C   UNL A   1      42.085  22.474  28.303  1.00  0.00     0.010 A 
ATOM     35  C   UNL A   1      42.514  23.441  27.380  1.00  0.00    -0.014 A 
BRANCH  35  36
ATOM     36  C   UNL A   1      42.781  24.817  27.867  1.00  0.00     0.031 A 
ATOM     37  C   UNL A   1      44.171  25.191  28.301  1.00  0.00     0.074 A 
ATOM     38  C   UNL A   1      41.769  25.695  28.005  1.00  0.00     0.049 A 
ATOM     39  N   UNL A   1      44.588  26.281  28.893  1.00  0.00    -0.248 NA
ATOM     40  C   UNL A   1      45.226  24.191  28.067  1.00  0.00     0.031 C 
ATOM     41  C   UNL A   1      40.374  25.450  27.636  1.00  0.00     0.029 A 
ATOM     42  N   UNL A   1      41.760  26.969  28.515  1.00  0.00    -0.354 N 
ATOM     43  C   UNL A   1      45.945  26.086  29.122  1.00  0.00     0.074 A 
ATOM     44  C   UNL A   1      46.269  24.756  28.655  1.00  0.00     0.031 C 
ATOM     45  C   UNL A   1      39.648  26.546  27.914  1.00  0.00     0.029 A 
ATOM     46  C   UNL A   1      40.513  27.547  28.528  1.00  0.00     0.049 A 
ATOM     47  H   UNL A   1      42.569  27.426  28.840  1.00  0.00     0.167 HD
ATOM     48  C   UNL A   1      46.845  26.944  29.658  1.00  0.00     0.031 A 
ATOM     49  C   UNL A   1      40.111  28.742  29.000  1.00  0.00     0.031 A 
ATOM     50  C   UNL A   1      46.522  28.270  30.113  1.00  0.00     0.049 A 
ATOM     51  C   UNL A   1      41.121  29.663  29.629  1.00  0.00     0.074 A 
ATOM     52  C   UNL A   1      47.369  29.231  30.632  1.00  0.00     0.029 A 
ATOM     53  N   UNL A   1      45.249  28.817  30.101  1.00  0.00    -0.354 N 
ATOM     54  N   UNL A   1      42.409  29.483  29.799  1.00  0.00    -0.248 NA
ATOM     55  C   UNL A   1      40.623  30.954  30.124  1.00  0.00     0.031 C 
ATOM     56  C   UNL A   1      46.600  30.343  30.987  1.00  0.00     0.029 A 
ATOM     57  C   UNL A   1      45.284  30.098  30.625  1.00  0.00     0.049 A 
ATOM     58  H   UNL A   1      44.440  28.364  29.770  1.00  0.00     0.167 HD
ATOM     59  C   UNL A   1      42.880  30.654  30.381  1.00  0.00     0.074 A 
ATOM     60  C   UNL A   1      41.743  31.536  30.532  1.00  0.00     0.031 C 
ATOM     61  C   UNL A   1      44.145  30.970  30.752  1.00  0.00     0.031 A 
BRANCH  48  62
ATOM     62  C   UNL A   1      48.264  26.462  29.793  1.00  0.00    -0.014 A 
ATOM     63  C   UNL A   1      48.698  25.784  30.944  1.00  0.00     0.009 A 
ATOM     64  C   UNL A   1      49.173  26.666  28.744  1.00  0.00     0.009 A 
ATOM     65  C   UNL A   1      50.024  25.362  31.059  1.00  0.00     0.001 A 
ATOM     66  C   UNL A   1      50.489  26.213  28.848  1.00  0.00     0.001 A 
ATOM     67  C   UNL A   1      50.916  25.572  30.009  1.00  0.00     0.000 A 
ENDBRANCH  48  62
BRANCH  49  68
ATOM     68  C   UNL A   1      38.684  29.148  28.890  1.00  0.00    -0.014 A 
ATOM     69  C   UNL A   1      37.811  28.975  29.976  1.00  0.00     0.009 A 
ATOM     70  C   UNL A   1      38.183  29.698  27.700  1.00  0.00     0.009 A 
ATOM     71  C   UNL A   1      36.461  29.316  29.862  1.00  0.00     0.001 A 
ATOM     72  C   UNL A   1      36.840  30.067  27.599  1.00  0.00     0.001 A 
ATOM     73  C   UNL A   1      35.978  29.866  28.675  1.00  0.00     0.000 A 
ENDBRANCH  49  68
BRANCH  61  74
ATOM     74  C   UNL A   1      44.386  32.350  31.297  1.00  0.00    -0.014 A 
ATOM     75  C   UNL A   1      44.694  33.430  30.457  1.00  0.00     0.009 A 
ATOM     76  C   UNL A   1      44.232  32.581  32.674  1.00  0.00     0.009 A 
ATOM     77  C   UNL A   1      44.867  34.710  30.990  1.00  0.00     0.001 A 
ATOM     78  C   UNL A   1      44.374  33.866  33.199  1.00  0.00     0.001 A 
ATOM     79  C   UNL A   1      44.698  34.928  32.357  1.00  0.00     0.000 A 
ENDBRANCH  61  74
ENDBRANCH  35  36
ENDBRANCH  27  30
ENDBRANCH  25  26
ENDBRANCH  24  25
ENDBRANCH  23  24
ENDBRANCH  22  23
ENDBRANCH   1  22
TORSDOF 17
ENDMDL
