MODEL 1
REMARK VINA RESULT:     -10.3      0.000      0.000
REMARK SMILES C=CCN(CC(=O)NCCCCCCNC(=O)c1ccc(-c2c3nc(c(-c4ccccc4)c4ccc([nH]4)c(-c4ccccc4)c4nc(c(-c5ccccc5)c5ccc2[nH]5)C=C4)C=C3)cc1)c1nc2ccccc2s1
REMARK SMILES IDX 11 1 10 2 9 3 8 4 6 5 7 6 5 8 4 9 3 10 2 11 1 12 66 13 67 14
REMARK SMILES IDX 74 15 68 16 73 17 69 18 72 19 70 20 71 21 12 22 13 23 14 24
REMARK SMILES IDX 15 25 16 26 17 28 18 29 19 30 65 31 20 32 64 33 21 34 22 35
REMARK SMILES IDX 23 36 58 37 24 38 63 39 57 40 59 41 25 42 62 43 56 44 55 45
REMARK SMILES IDX 26 47 48 48 33 49 47 50 34 51 37 52 46 53 60 54 35 55 36 56
REMARK SMILES IDX 45 58 61 59 38 60 27 61 28 62 32 63 29 64 31 65 30 66 49 67
REMARK SMILES IDX 50 68 54 69 51 70 53 71 52 72 39 73 40 74 44 75 41 76 43 77
REMARK SMILES IDX 42 78
REMARK H PARENT 8 7 15 27 59 46 37 57
REMARK Flexibility Score: inf
ROOT
ATOM      1  C   UNL A   1      36.581  21.871  25.522  1.00  0.00     0.002 C 
ENDROOT
BRANCH   1   2
ATOM      2  C   UNL A   1      36.712  22.936  24.425  1.00  0.00     0.021 C 
BRANCH   2   3
ATOM      3  C   UNL A   1      35.560  22.930  23.422  1.00  0.00     0.116 C 
BRANCH   3   4
ATOM      4  N   UNL A   1      34.756  24.123  23.523  1.00  0.00    -0.355 N 
ATOM      5  C   UNL A   1      33.725  24.406  24.374  1.00  0.00     0.239 C 
ATOM      6  O   UNL A   1      33.249  25.545  24.321  1.00  0.00    -0.273 OA
ATOM      7  H   UNL A   1      34.982  24.837  22.885  1.00  0.00     0.163 HD
BRANCH   5   8
ATOM      8  C   UNL A   1      33.281  23.397  25.447  1.00  0.00     0.219 C 
BRANCH   8   9
ATOM      9  N   UNL A   1      32.081  22.595  25.137  1.00  0.00    -0.335 N 
BRANCH   9  10
ATOM     10  C   UNL A   1      30.772  23.190  25.358  1.00  0.00     0.146 C 
BRANCH  10  11
ATOM     11  C   UNL A   1      30.367  23.207  26.799  1.00  0.00    -0.014 C 
ATOM     12  C   UNL A   1      29.249  22.621  27.256  1.00  0.00     0.006 C 
ENDBRANCH  10  11
ENDBRANCH   9  10
BRANCH   9  13
ATOM     13  C   UNL A   1      32.261  21.282  24.800  1.00  0.00     0.187 A 
ATOM     14  N   UNL A   1      32.388  20.333  25.700  1.00  0.00    -0.220 NA
ATOM     15  S   UNL A   1      32.394  20.702  23.175  1.00  0.00    -0.097 S 
ATOM     16  C   UNL A   1      32.629  19.103  25.118  1.00  0.00     0.084 A 
ATOM     17  C   UNL A   1      32.723  19.114  23.731  1.00  0.00     0.056 A 
ATOM     18  C   UNL A   1      32.794  17.882  25.801  1.00  0.00     0.030 A 
ATOM     19  C   UNL A   1      33.032  17.959  22.996  1.00  0.00     0.021 A 
ATOM     20  C   UNL A   1      33.083  16.719  25.081  1.00  0.00     0.002 A 
ATOM     21  C   UNL A   1      33.213  16.762  23.696  1.00  0.00     0.002 A 
ENDBRANCH   9  13
ENDBRANCH   8   9
ENDBRANCH   5   8
ENDBRANCH   3   4
ENDBRANCH   2   3
ENDBRANCH   1   2
BRANCH   1  22
ATOM     22  C   UNL A   1      36.457  20.428  25.017  1.00  0.00     0.002 C 
BRANCH  22  23
ATOM     23  C   UNL A   1      37.784  19.687  24.839  1.00  0.00     0.021 C 
BRANCH  23  24
ATOM     24  C   UNL A   1      38.918  20.203  25.718  1.00  0.00     0.116 C 
BRANCH  24  25
ATOM     25  N   UNL A   1      40.038  19.276  25.764  1.00  0.00    -0.352 N 
ATOM     26  C   UNL A   1      41.360  19.517  26.043  1.00  0.00     0.251 C 
ATOM     27  H   UNL A   1      39.815  18.338  25.567  1.00  0.00     0.163 HD
ATOM     28  O   UNL A   1      42.203  18.651  25.839  1.00  0.00    -0.269 OA
BRANCH  26  29
ATOM     29  C   UNL A   1      41.772  20.834  26.575  1.00  0.00     0.039 A 
ATOM     30  C   UNL A   1      42.233  21.807  25.684  1.00  0.00     0.014 A 
ATOM     31  C   UNL A   1      41.716  21.105  27.944  1.00  0.00     0.014 A 
ATOM     32  C   UNL A   1      42.580  23.072  26.162  1.00  0.00     0.010 A 
ATOM     33  C   UNL A   1      41.989  22.388  28.408  1.00  0.00     0.010 A 
ATOM     34  C   UNL A   1      42.428  23.384  27.522  1.00  0.00    -0.014 A 
BRANCH  34  35
ATOM     35  C   UNL A   1      42.718  24.748  28.035  1.00  0.00     0.031 A 
ATOM     36  C   UNL A   1      44.114  25.120  28.453  1.00  0.00     0.074 A 
ATOM     37  C   UNL A   1      41.712  25.632  28.181  1.00  0.00     0.049 A 
ATOM     38  N   UNL A   1      44.549  26.242  28.970  1.00  0.00    -0.248 NA
ATOM     39  C   UNL A   1      45.154  24.091  28.293  1.00  0.00     0.031 C 
ATOM     40  C   UNL A   1      40.308  25.381  27.849  1.00  0.00     0.029 A 
ATOM     41  N   UNL A   1      41.716  26.921  28.653  1.00  0.00    -0.354 N 
ATOM     42  C   UNL A   1      45.903  26.047  29.210  1.00  0.00     0.074 A 
ATOM     43  C   UNL A   1      46.208  24.685  28.832  1.00  0.00     0.031 C 
ATOM     44  C   UNL A   1      39.592  26.490  28.100  1.00  0.00     0.029 A 
ATOM     45  C   UNL A   1      40.476  27.511  28.653  1.00  0.00     0.049 A 
ATOM     46  H   UNL A   1      42.531  27.379  28.962  1.00  0.00     0.167 HD
ATOM     47  C   UNL A   1      46.816  26.928  29.685  1.00  0.00     0.031 A 
ATOM     48  C   UNL A   1      40.089  28.735  29.060  1.00  0.00     0.031 A 
ATOM     49  C   UNL A   1      46.514  28.285  30.056  1.00  0.00     0.049 A 
ATOM     50  C   UNL A   1      41.119  29.686  29.606  1.00  0.00     0.074 A 
ATOM     51  C   UNL A   1      47.381  29.272  30.492  1.00  0.00     0.029 A 
ATOM     52  N   UNL A   1      45.246  28.844  30.039  1.00  0.00    -0.354 N 
ATOM     53  N   UNL A   1      42.409  29.511  29.756  1.00  0.00    -0.248 NA
ATOM     54  C   UNL A   1      40.638  31.009  30.028  1.00  0.00     0.031 C 
ATOM     55  C   UNL A   1      46.628  30.409  30.800  1.00  0.00     0.029 A 
ATOM     56  C   UNL A   1      45.302  30.153  30.489  1.00  0.00     0.049 A 
ATOM     57  H   UNL A   1      44.427  28.381  29.751  1.00  0.00     0.167 HD
ATOM     58  C   UNL A   1      42.898  30.710  30.260  1.00  0.00     0.074 A 
ATOM     59  C   UNL A   1      41.769  31.609  30.372  1.00  0.00     0.031 C 
ATOM     60  C   UNL A   1      44.169  31.037  30.597  1.00  0.00     0.031 A 
BRANCH  47  61
ATOM     61  C   UNL A   1      48.232  26.444  29.845  1.00  0.00    -0.014 A 
ATOM     62  C   UNL A   1      49.191  26.643  28.838  1.00  0.00     0.009 A 
ATOM     63  C   UNL A   1      48.623  25.814  31.037  1.00  0.00     0.009 A 
ATOM     64  C   UNL A   1      50.501  26.188  29.007  1.00  0.00     0.001 A 
ATOM     65  C   UNL A   1      49.941  25.390  31.216  1.00  0.00     0.001 A 
ATOM     66  C   UNL A   1      50.875  25.568  30.198  1.00  0.00     0.000 A 
ENDBRANCH  47  61
BRANCH  48  67
ATOM     67  C   UNL A   1      38.661  29.138  28.964  1.00  0.00    -0.014 A 
ATOM     68  C   UNL A   1      38.150  29.681  27.775  1.00  0.00     0.009 A 
ATOM     69  C   UNL A   1      37.803  28.996  30.066  1.00  0.00     0.009 A 
ATOM     70  C   UNL A   1      36.820  30.101  27.702  1.00  0.00     0.001 A 
ATOM     71  C   UNL A   1      36.465  29.387  29.981  1.00  0.00     0.001 A 
ATOM     72  C   UNL A   1      35.978  29.950  28.803  1.00  0.00     0.000 A 
ENDBRANCH  48  67
BRANCH  60  73
ATOM     73  C   UNL A   1      44.414  32.438  31.084  1.00  0.00    -0.014 A 
ATOM     74  C   UNL A   1      44.510  33.518  30.193  1.00  0.00     0.009 A 
ATOM     75  C   UNL A   1      44.509  32.685  32.463  1.00  0.00     0.009 A 
ATOM     76  C   UNL A   1      44.735  34.811  30.671  1.00  0.00     0.001 A 
ATOM     77  C   UNL A   1      44.700  33.983  32.940  1.00  0.00     0.001 A 
ATOM     78  C   UNL A   1      44.823  35.043  32.044  1.00  0.00     0.000 A 
ENDBRANCH  60  73
ENDBRANCH  34  35
ENDBRANCH  26  29
ENDBRANCH  24  25
ENDBRANCH  23  24
ENDBRANCH  22  23
ENDBRANCH   1  22
TORSDOF 17
ENDMDL
MODEL 2
REMARK VINA RESULT:     -10.0      1.678      6.835
REMARK SMILES C=CCN(CC(=O)NCCCCCCNC(=O)c1ccc(-c2c3nc(c(-c4ccccc4)c4ccc([nH]4)c(-c4ccccc4)c4nc(c(-c5ccccc5)c5ccc2[nH]5)C=C4)C=C3)cc1)c1nc2ccccc2s1
REMARK SMILES IDX 11 1 10 2 9 3 8 4 6 5 7 6 5 8 4 9 3 10 2 11 1 12 66 13 67 14
REMARK SMILES IDX 74 15 68 16 73 17 69 18 72 19 70 20 71 21 12 22 13 23 14 24
REMARK SMILES IDX 15 25 16 26 17 28 18 29 19 30 65 31 20 32 64 33 21 34 22 35
REMARK SMILES IDX 23 36 58 37 24 38 63 39 57 40 59 41 25 42 62 43 56 44 55 45
REMARK SMILES IDX 26 47 48 48 33 49 47 50 34 51 37 52 46 53 60 54 35 55 36 56
REMARK SMILES IDX 45 58 61 59 38 60 27 61 28 62 32 63 29 64 31 65 30 66 49 67
REMARK SMILES IDX 50 68 54 69 51 70 53 71 52 72 39 73 40 74 44 75 41 76 43 77
REMARK SMILES IDX 42 78
REMARK H PARENT 8 7 15 27 59 46 37 57
REMARK Flexibility Score: inf
ROOT
ATOM      1  C   UNL A   1      35.763  20.757  25.358  1.00  0.00     0.002 C 
ENDROOT
BRANCH   1   2
ATOM      2  C   UNL A   1      35.050  21.911  26.076  1.00  0.00     0.021 C 
BRANCH   2   3
ATOM      3  C   UNL A   1      33.985  21.453  27.069  1.00  0.00     0.116 C 
BRANCH   3   4
ATOM      4  N   UNL A   1      33.088  22.524  27.426  1.00  0.00    -0.355 N 
ATOM      5  C   UNL A   1      31.920  22.913  26.835  1.00  0.00     0.239 C 
ATOM      6  O   UNL A   1      31.282  23.815  27.390  1.00  0.00    -0.273 OA
ATOM      7  H   UNL A   1      33.359  23.054  28.211  1.00  0.00     0.163 HD
BRANCH   5   8
ATOM      8  C   UNL A   1      31.356  22.158  25.619  1.00  0.00     0.219 C 
BRANCH   8   9
ATOM      9  N   UNL A   1      31.897  22.543  24.300  1.00  0.00    -0.335 N 
BRANCH   9  10
ATOM     10  C   UNL A   1      32.412  21.499  23.429  1.00  0.00     0.146 C 
BRANCH  10  11
ATOM     11  C   UNL A   1      32.414  20.144  24.068  1.00  0.00    -0.014 C 
ATOM     12  C   UNL A   1      32.524  19.003  23.371  1.00  0.00     0.006 C 
ENDBRANCH  10  11
ENDBRANCH   9  10
BRANCH   9  13
ATOM     13  C   UNL A   1      32.025  23.878  24.028  1.00  0.00     0.187 A 
ATOM     14  N   UNL A   1      30.992  24.647  23.770  1.00  0.00    -0.220 NA
ATOM     15  S   UNL A   1      33.537  24.713  23.935  1.00  0.00    -0.097 S 
ATOM     16  C   UNL A   1      31.378  25.937  23.458  1.00  0.00     0.084 A 
ATOM     17  C   UNL A   1      32.752  26.154  23.442  1.00  0.00     0.056 A 
ATOM     18  C   UNL A   1      30.517  27.008  23.151  1.00  0.00     0.030 A 
ATOM     19  C   UNL A   1      33.306  27.391  23.076  1.00  0.00     0.021 A 
ATOM     20  C   UNL A   1      31.054  28.252  22.804  1.00  0.00     0.002 A 
ATOM     21  C   UNL A   1      32.433  28.435  22.755  1.00  0.00     0.002 A 
ENDBRANCH   9  13
ENDBRANCH   8   9
ENDBRANCH   5   8
ENDBRANCH   3   4
ENDBRANCH   2   3
ENDBRANCH   1   2
BRANCH   1  22
ATOM     22  C   UNL A   1      37.083  21.133  24.674  1.00  0.00     0.002 C 
BRANCH  22  23
ATOM     23  C   UNL A   1      38.184  20.073  24.762  1.00  0.00     0.021 C 
BRANCH  23  24
ATOM     24  C   UNL A   1      39.126  20.241  25.949  1.00  0.00     0.116 C 
BRANCH  24  25
ATOM     25  N   UNL A   1      40.202  19.263  25.935  1.00  0.00    -0.352 N 
ATOM     26  C   UNL A   1      41.552  19.446  26.108  1.00  0.00     0.251 C 
ATOM     27  H   UNL A   1      39.922  18.333  25.777  1.00  0.00     0.163 HD
ATOM     28  O   UNL A   1      42.336  18.536  25.863  1.00  0.00    -0.269 OA
BRANCH  26  29
ATOM     29  C   UNL A   1      42.064  20.752  26.574  1.00  0.00     0.039 A 
ATOM     30  C   UNL A   1      42.521  21.675  25.630  1.00  0.00     0.014 A 
ATOM     31  C   UNL A   1      42.104  21.063  27.936  1.00  0.00     0.014 A 
ATOM     32  C   UNL A   1      42.962  22.932  26.048  1.00  0.00     0.010 A 
ATOM     33  C   UNL A   1      42.472  22.342  28.344  1.00  0.00     0.010 A 
ATOM     34  C   UNL A   1      42.909  23.288  27.405  1.00  0.00    -0.014 A 
BRANCH  34  35
ATOM     35  C   UNL A   1      43.300  24.647  27.858  1.00  0.00     0.031 A 
ATOM     36  C   UNL A   1      42.249  25.685  28.142  1.00  0.00     0.074 A 
ATOM     37  C   UNL A   1      44.606  24.966  27.956  1.00  0.00     0.049 A 
ATOM     38  N   UNL A   1      42.399  26.936  28.498  1.00  0.00    -0.248 NA
ATOM     39  C   UNL A   1      40.845  25.271  27.984  1.00  0.00     0.031 C 
ATOM     40  C   UNL A   1      45.723  24.062  27.671  1.00  0.00     0.029 A 
ATOM     41  N   UNL A   1      45.215  26.141  28.317  1.00  0.00    -0.354 N 
ATOM     42  C   UNL A   1      41.117  27.460  28.588  1.00  0.00     0.074 A 
ATOM     43  C   UNL A   1      40.202  26.408  28.201  1.00  0.00     0.031 C 
ATOM     44  C   UNL A   1      46.879  24.708  27.897  1.00  0.00     0.029 A 
ATOM     45  C   UNL A   1      46.587  26.081  28.295  1.00  0.00     0.049 A 
ATOM     46  H   UNL A   1      44.715  26.952  28.568  1.00  0.00     0.167 HD
ATOM     47  C   UNL A   1      40.731  28.698  28.977  1.00  0.00     0.031 A 
ATOM     48  C   UNL A   1      47.509  27.026  28.559  1.00  0.00     0.031 A 
ATOM     49  C   UNL A   1      41.641  29.743  29.368  1.00  0.00     0.049 A 
ATOM     50  C   UNL A   1      47.055  28.401  28.965  1.00  0.00     0.074 A 
ATOM     51  C   UNL A   1      41.346  31.013  29.833  1.00  0.00     0.029 A 
ATOM     52  N   UNL A   1      43.023  29.640  29.334  1.00  0.00    -0.354 N 
ATOM     53  N   UNL A   1      45.835  28.858  29.119  1.00  0.00    -0.248 NA
ATOM     54  C   UNL A   1      48.107  29.388  29.246  1.00  0.00     0.031 C 
ATOM     55  C   UNL A   1      42.549  31.700  30.020  1.00  0.00     0.029 A 
ATOM     56  C   UNL A   1      43.595  30.835  29.738  1.00  0.00     0.049 A 
ATOM     57  H   UNL A   1      43.524  28.838  29.062  1.00  0.00     0.167 HD
ATOM     58  C   UNL A   1      45.975  30.173  29.543  1.00  0.00     0.074 A 
ATOM     59  C   UNL A   1      47.395  30.434  29.640  1.00  0.00     0.031 C 
ATOM     60  C   UNL A   1      45.011  31.082  29.829  1.00  0.00     0.031 A 
BRANCH  47  61
ATOM     61  C   UNL A   1      39.257  28.999  28.985  1.00  0.00    -0.014 A 
ATOM     62  C   UNL A   1      38.474  28.787  30.132  1.00  0.00     0.009 A 
ATOM     63  C   UNL A   1      38.649  29.538  27.841  1.00  0.00     0.009 A 
ATOM     64  C   UNL A   1      37.107  29.073  30.119  1.00  0.00     0.001 A 
ATOM     65  C   UNL A   1      37.290  29.855  27.841  1.00  0.00     0.001 A 
ATOM     66  C   UNL A   1      36.518  29.612  28.976  1.00  0.00     0.000 A 
ENDBRANCH  47  61
BRANCH  48  67
ATOM     67  C   UNL A   1      48.957  26.707  28.452  1.00  0.00    -0.014 A 
ATOM     68  C   UNL A   1      49.682  26.289  29.579  1.00  0.00     0.009 A 
ATOM     69  C   UNL A   1      49.628  26.833  27.225  1.00  0.00     0.009 A 
ATOM     70  C   UNL A   1      51.052  26.034  29.487  1.00  0.00     0.001 A 
ATOM     71  C   UNL A   1      50.991  26.547  27.128  1.00  0.00     0.001 A 
ATOM     72  C   UNL A   1      51.705  26.160  28.261  1.00  0.00     0.000 A 
ENDBRANCH  48  67
BRANCH  60  73
ATOM     73  C   UNL A   1      45.460  32.434  30.311  1.00  0.00    -0.014 A 
ATOM     74  C   UNL A   1      45.695  32.687  31.671  1.00  0.00     0.009 A 
ATOM     75  C   UNL A   1      45.690  33.459  29.379  1.00  0.00     0.009 A 
ATOM     76  C   UNL A   1      46.115  33.950  32.092  1.00  0.00     0.001 A 
ATOM     77  C   UNL A   1      46.143  34.711  29.800  1.00  0.00     0.001 A 
ATOM     78  C   UNL A   1      46.344  34.959  31.156  1.00  0.00     0.000 A 
ENDBRANCH  60  73
ENDBRANCH  34  35
ENDBRANCH  26  29
ENDBRANCH  24  25
ENDBRANCH  23  24
ENDBRANCH  22  23
ENDBRANCH   1  22
TORSDOF 17
ENDMDL
MODEL 3
REMARK VINA RESULT:     -10.0      2.180      3.851
REMARK SMILES C=CCN(CC(=O)NCCCCCCNC(=O)c1ccc(-c2c3nc(c(-c4ccccc4)c4ccc([nH]4)c(-c4ccccc4)c4nc(c(-c5ccccc5)c5ccc2[nH]5)C=C4)C=C3)cc1)c1nc2ccccc2s1
REMARK SMILES IDX 11 1 10 2 9 3 8 4 6 5 7 6 5 8 4 9 3 10 2 11 1 12 66 13 67 14
REMARK SMILES IDX 74 15 68 16 73 17 69 18 72 19 70 20 71 21 12 22 13 23 14 24
REMARK SMILES IDX 15 25 16 26 17 28 18 29 19 30 65 31 20 32 64 33 21 34 22 35
REMARK SMILES IDX 23 36 58 37 24 38 63 39 57 40 59 41 25 42 62 43 56 44 55 45
REMARK SMILES IDX 26 47 48 48 33 49 47 50 34 51 37 52 46 53 60 54 35 55 36 56
REMARK SMILES IDX 45 58 61 59 38 60 27 61 28 62 32 63 29 64 31 65 30 66 49 67
REMARK SMILES IDX 50 68 54 69 51 70 53 71 52 72 39 73 40 74 44 75 41 76 43 77
REMARK SMILES IDX 42 78
REMARK H PARENT 8 7 15 27 59 46 37 57
REMARK Flexibility Score: inf
ROOT
ATOM      1  C   UNL A   1      35.949  21.787  25.778  1.00  0.00     0.002 C 
ENDROOT
BRANCH   1   2
ATOM      2  C   UNL A   1      34.683  21.439  26.572  1.00  0.00     0.021 C 
BRANCH   2   3
ATOM      3  C   UNL A   1      34.198  22.566  27.480  1.00  0.00     0.116 C 
BRANCH   3   4
ATOM      4  N   UNL A   1      32.770  22.521  27.675  1.00  0.00    -0.355 N 
ATOM      5  C   UNL A   1      31.803  23.367  27.210  1.00  0.00     0.239 C 
ATOM      6  O   UNL A   1      30.628  23.059  27.442  1.00  0.00    -0.273 OA
ATOM      7  H   UNL A   1      32.445  21.771  28.223  1.00  0.00     0.163 HD
BRANCH   5   8
ATOM      8  C   UNL A   1      32.159  24.565  26.314  1.00  0.00     0.219 C 
BRANCH   8   9
ATOM      9  N   UNL A   1      31.467  24.638  25.011  1.00  0.00    -0.335 N 
BRANCH   9  10
ATOM     10  C   UNL A   1      31.520  23.480  24.132  1.00  0.00     0.146 C 
BRANCH  10  11
ATOM     11  C   UNL A   1      32.523  23.621  23.030  1.00  0.00    -0.014 C 
ATOM     12  C   UNL A   1      33.839  23.420  23.202  1.00  0.00     0.006 C 
ENDBRANCH  10  11
ENDBRANCH   9  10
BRANCH   9  13
ATOM     13  C   UNL A   1      30.940  25.843  24.635  1.00  0.00     0.187 A 
ATOM     14  N   UNL A   1      29.730  25.959  24.139  1.00  0.00    -0.220 NA
ATOM     15  S   UNL A   1      31.795  27.345  24.709  1.00  0.00    -0.097 S 
ATOM     16  C   UNL A   1      29.450  27.261  23.770  1.00  0.00     0.084 A 
ATOM     17  C   UNL A   1      30.491  28.164  23.956  1.00  0.00     0.056 A 
ATOM     18  C   UNL A   1      28.237  27.725  23.225  1.00  0.00     0.030 A 
ATOM     19  C   UNL A   1      30.389  29.509  23.567  1.00  0.00     0.021 A 
ATOM     20  C   UNL A   1      28.113  29.067  22.850  1.00  0.00     0.002 A 
ATOM     21  C   UNL A   1      29.183  29.944  23.008  1.00  0.00     0.002 A 
ENDBRANCH   9  13
ENDBRANCH   8   9
ENDBRANCH   5   8
ENDBRANCH   3   4
ENDBRANCH   2   3
ENDBRANCH   1   2
BRANCH   1  22
ATOM     22  C   UNL A   1      36.289  20.820  24.637  1.00  0.00     0.002 C 
BRANCH  22  23
ATOM     23  C   UNL A   1      37.388  19.804  24.953  1.00  0.00     0.021 C 
BRANCH  23  24
ATOM     24  C   UNL A   1      38.646  20.407  25.570  1.00  0.00     0.116 C 
BRANCH  24  25
ATOM     25  N   UNL A   1      39.720  19.433  25.682  1.00  0.00    -0.352 N 
ATOM     26  C   UNL A   1      41.033  19.618  26.037  1.00  0.00     0.251 C 
ATOM     27  H   UNL A   1      39.469  18.505  25.472  1.00  0.00     0.163 HD
ATOM     28  O   UNL A   1      41.849  18.716  25.882  1.00  0.00    -0.269 OA
BRANCH  26  29
ATOM     29  C   UNL A   1      41.470  20.917  26.591  1.00  0.00     0.039 A 
ATOM     30  C   UNL A   1      42.024  21.867  25.729  1.00  0.00     0.014 A 
ATOM     31  C   UNL A   1      41.345  21.195  27.955  1.00  0.00     0.014 A 
ATOM     32  C   UNL A   1      42.398  23.117  26.225  1.00  0.00     0.010 A 
ATOM     33  C   UNL A   1      41.646  22.467  28.433  1.00  0.00     0.010 A 
ATOM     34  C   UNL A   1      42.179  23.440  27.574  1.00  0.00    -0.014 A 
BRANCH  34  35
ATOM     35  C   UNL A   1      42.498  24.791  28.102  1.00  0.00     0.031 A 
ATOM     36  C   UNL A   1      43.895  25.120  28.552  1.00  0.00     0.074 A 
ATOM     37  C   UNL A   1      41.514  25.703  28.234  1.00  0.00     0.049 A 
ATOM     38  N   UNL A   1      44.351  26.226  29.085  1.00  0.00    -0.248 NA
ATOM     39  C   UNL A   1      44.908  24.063  28.406  1.00  0.00     0.031 C 
ATOM     40  C   UNL A   1      40.111  25.495  27.871  1.00  0.00     0.029 A 
ATOM     41  N   UNL A   1      41.546  26.988  28.715  1.00  0.00    -0.354 N 
ATOM     42  C   UNL A   1      45.693  25.990  29.352  1.00  0.00     0.074 A 
ATOM     43  C   UNL A   1      45.967  24.622  28.970  1.00  0.00     0.031 C 
ATOM     44  C   UNL A   1      39.423  26.622  28.115  1.00  0.00     0.029 A 
ATOM     45  C   UNL A   1      40.323  27.614  28.694  1.00  0.00     0.049 A 
ATOM     46  H   UNL A   1      42.367  27.420  29.044  1.00  0.00     0.167 HD
ATOM     47  C   UNL A   1      46.621  26.841  29.851  1.00  0.00     0.031 A 
ATOM     48  C   UNL A   1      39.963  28.846  29.101  1.00  0.00     0.031 A 
ATOM     49  C   UNL A   1      46.351  28.204  30.225  1.00  0.00     0.049 A 
ATOM     50  C   UNL A   1      41.008  29.763  29.674  1.00  0.00     0.074 A 
ATOM     51  C   UNL A   1      47.236  29.164  30.686  1.00  0.00     0.029 A 
ATOM     52  N   UNL A   1      45.100  28.800  30.187  1.00  0.00    -0.354 N 
ATOM     53  N   UNL A   1      42.290  29.550  29.850  1.00  0.00    -0.248 NA
ATOM     54  C   UNL A   1      40.557  31.097  30.096  1.00  0.00     0.031 C 
ATOM     55  C   UNL A   1      46.510  30.320  30.987  1.00  0.00     0.029 A 
ATOM     56  C   UNL A   1      45.184  30.104  30.646  1.00  0.00     0.049 A 
ATOM     57  H   UNL A   1      44.274  28.362  29.879  1.00  0.00     0.167 HD
ATOM     58  C   UNL A   1      42.802  30.731  30.373  1.00  0.00     0.074 A 
ATOM     59  C   UNL A   1      41.697  31.661  30.468  1.00  0.00     0.031 C 
ATOM     60  C   UNL A   1      44.075  31.019  30.738  1.00  0.00     0.031 A 
BRANCH  47  61
ATOM     61  C   UNL A   1      48.019  26.316  30.037  1.00  0.00    -0.014 A 
ATOM     62  C   UNL A   1      48.973  26.398  29.009  1.00  0.00     0.009 A 
ATOM     63  C   UNL A   1      48.400  25.767  31.272  1.00  0.00     0.009 A 
ATOM     64  C   UNL A   1      50.266  25.906  29.202  1.00  0.00     0.001 A 
ATOM     65  C   UNL A   1      49.702  25.307  31.473  1.00  0.00     0.001 A 
ATOM     66  C   UNL A   1      50.630  25.367  30.436  1.00  0.00     0.000 A 
ENDBRANCH  47  61
BRANCH  48  67
ATOM     67  C   UNL A   1      38.549  29.290  28.979  1.00  0.00    -0.014 A 
ATOM     68  C   UNL A   1      37.675  29.200  30.073  1.00  0.00     0.009 A 
ATOM     69  C   UNL A   1      38.061  29.792  27.761  1.00  0.00     0.009 A 
ATOM     70  C   UNL A   1      36.336  29.575  29.942  1.00  0.00     0.001 A 
ATOM     71  C   UNL A   1      36.730  30.196  27.643  1.00  0.00     0.001 A 
ATOM     72  C   UNL A   1      35.865  30.075  28.729  1.00  0.00     0.000 A 
ENDBRANCH  48  67
BRANCH  60  73
ATOM     73  C   UNL A   1      44.349  32.410  31.239  1.00  0.00    -0.014 A 
ATOM     74  C   UNL A   1      44.681  33.454  30.362  1.00  0.00     0.009 A 
ATOM     75  C   UNL A   1      44.234  32.686  32.611  1.00  0.00     0.009 A 
ATOM     76  C   UNL A   1      44.928  34.737  30.853  1.00  0.00     0.001 A 
ATOM     77  C   UNL A   1      44.449  33.977  33.095  1.00  0.00     0.001 A 
ATOM     78  C   UNL A   1      44.806  34.999  32.218  1.00  0.00     0.000 A 
ENDBRANCH  60  73
ENDBRANCH  34  35
ENDBRANCH  26  29
ENDBRANCH  24  25
ENDBRANCH  23  24
ENDBRANCH  22  23
ENDBRANCH   1  22
TORSDOF 17
ENDMDL
