MODEL 1
REMARK VINA RESULT:     -10.6      0.000      0.000
REMARK SMILES CC(C)[NH2+][C@]1(C(=O)NCCCCCCNC(=O)c2ccc(-c3c4nc(c(-c5ccccc5)c5ccc([nH]5)c(-c5ccccc5)c5nc(c(-c6ccccc6)c6ccc3[nH]6)C=C5)C=C4)cc2)CCC[C@@H](Sc2nnnn2C)C1
REMARK SMILES IDX 11 1 10 2 9 3 8 4 6 5 7 6 5 8 66 9 77 10 67 11 69 12 68 13
REMARK SMILES IDX 4 14 2 17 1 18 3 19 70 20 71 21 72 22 75 23 73 24 74 25
REMARK SMILES IDX 76 26 12 27 13 28 14 29 15 30 16 31 17 33 18 34 19 35 65 36
REMARK SMILES IDX 20 37 64 38 21 39 22 40 23 41 58 42 24 43 63 44 57 45 59 46
REMARK SMILES IDX 25 47 62 48 56 49 55 50 26 52 48 53 33 54 47 55 34 56 37 57
REMARK SMILES IDX 46 58 60 59 35 60 36 61 45 63 61 64 38 65 27 66 28 67 32 68
REMARK SMILES IDX 29 69 31 70 30 71 49 72 50 73 54 74 51 75 53 76 52 77 39 78
REMARK SMILES IDX 40 79 44 80 41 81 43 82 42 83
REMARK H PARENT 8 7 4 15 4 16 15 32 59 51 37 62
REMARK Flexibility Score: inf
ROOT
ATOM      1  C   UNL A   1      32.687  30.209  27.190  1.00  0.00     0.002 C 
ENDROOT
BRANCH   1   2
ATOM      2  C   UNL A   1      32.701  28.679  27.155  1.00  0.00     0.021 C 
BRANCH   2   3
ATOM      3  C   UNL A   1      33.900  28.089  26.409  1.00  0.00     0.116 C 
BRANCH   3   4
ATOM      4  N   UNL A   1      34.095  28.795  25.158  1.00  0.00    -0.351 N 
ATOM      5  C   UNL A   1      33.824  28.410  23.879  1.00  0.00     0.281 C 
ATOM      6  O   UNL A   1      34.339  29.090  22.984  1.00  0.00    -0.268 OA
ATOM      7  H   UNL A   1      34.484  29.695  25.246  1.00  0.00     0.163 HD
BRANCH   5   8
ATOM      8  C   UNL A   1      32.868  27.215  23.542  1.00  0.00     0.176 C 
ATOM      9  C   UNL A   1      32.790  27.096  21.989  1.00  0.00     0.079 C 
ATOM     10  C   UNL A   1      33.539  25.915  24.060  1.00  0.00     0.094 C 
ATOM     11  C   UNL A   1      32.172  25.788  21.479  1.00  0.00     0.008 C 
ATOM     12  C   UNL A   1      32.870  24.625  23.589  1.00  0.00     0.061 C 
ATOM     13  C   UNL A   1      32.858  24.553  22.063  1.00  0.00     0.015 C 
BRANCH   8  14
ATOM     14  N   UNL A   1      31.495  27.388  24.074  1.00  0.00    -0.332 N 
ATOM     15  H   UNL A   1      31.168  26.462  24.351  1.00  0.00     0.347 HD
ATOM     16  H   UNL A   1      31.617  28.083  24.810  1.00  0.00     0.347 HD
BRANCH  14  17
ATOM     17  C   UNL A   1      30.447  27.972  23.234  1.00  0.00     0.176 C 
ATOM     18  C   UNL A   1      29.173  27.157  23.495  1.00  0.00     0.075 C 
ATOM     19  C   UNL A   1      30.157  29.451  23.458  1.00  0.00     0.075 C 
ENDBRANCH  14  17
ENDBRANCH   8  14
BRANCH  12  20
ATOM     20  S   UNL A   1      33.613  23.162  24.400  1.00  0.00    -0.081 SA
BRANCH  20  21
ATOM     21  C   UNL A   1      32.788  23.077  25.912  1.00  0.00     0.209 A 
ATOM     22  N   UNL A   1      31.658  23.680  26.198  1.00  0.00    -0.102 NA
ATOM     23  N   UNL A   1      33.233  22.431  27.029  1.00  0.00    -0.224 N 
ATOM     24  N   UNL A   1      31.398  23.386  27.515  1.00  0.00    -0.023 NA
ATOM     25  N   UNL A   1      32.350  22.618  28.029  1.00  0.00    -0.045 NA
ATOM     26  C   UNL A   1      34.387  21.608  27.256  1.00  0.00     0.179 C 
ENDBRANCH  20  21
ENDBRANCH  12  20
ENDBRANCH   5   8
ENDBRANCH   3   4
ENDBRANCH   2   3
ENDBRANCH   1   2
BRANCH   1  27
ATOM     27  C   UNL A   1      31.447  30.853  26.564  1.00  0.00     0.002 C 
BRANCH  27  28
ATOM     28  C   UNL A   1      31.364  32.377  26.696  1.00  0.00     0.021 C 
BRANCH  28  29
ATOM     29  C   UNL A   1      32.687  33.065  27.023  1.00  0.00     0.116 C 
BRANCH  29  30
ATOM     30  N   UNL A   1      32.497  34.213  27.892  1.00  0.00    -0.352 N 
ATOM     31  C   UNL A   1      33.186  34.575  29.017  1.00  0.00     0.251 C 
ATOM     32  H   UNL A   1      31.765  34.818  27.635  1.00  0.00     0.163 HD
ATOM     33  O   UNL A   1      32.733  35.439  29.768  1.00  0.00    -0.269 OA
BRANCH  31  34
ATOM     34  C   UNL A   1      34.478  33.935  29.336  1.00  0.00     0.039 A 
ATOM     35  C   UNL A   1      34.554  33.084  30.440  1.00  0.00     0.014 A 
ATOM     36  C   UNL A   1      35.622  34.217  28.581  1.00  0.00     0.014 A 
ATOM     37  C   UNL A   1      35.772  32.487  30.770  1.00  0.00     0.010 A 
ATOM     38  C   UNL A   1      36.821  33.574  28.875  1.00  0.00     0.010 A 
ATOM     39  C   UNL A   1      36.911  32.717  29.981  1.00  0.00    -0.014 A 
BRANCH  39  40
ATOM     40  C   UNL A   1      38.210  32.092  30.327  1.00  0.00     0.031 A 
ATOM     41  C   UNL A   1      39.146  32.775  31.284  1.00  0.00     0.074 A 
ATOM     42  C   UNL A   1      38.561  30.926  29.752  1.00  0.00     0.049 A 
ATOM     43  N   UNL A   1      40.325  32.387  31.703  1.00  0.00    -0.248 NA
ATOM     44  C   UNL A   1      38.713  34.073  31.825  1.00  0.00     0.031 C 
ATOM     45  C   UNL A   1      37.758  30.186  28.776  1.00  0.00     0.029 A 
ATOM     46  N   UNL A   1      39.687  30.159  29.908  1.00  0.00    -0.354 N 
ATOM     47  C   UNL A   1      40.777  33.398  32.541  1.00  0.00     0.074 A 
ATOM     48  C   UNL A   1      39.770  34.436  32.537  1.00  0.00     0.031 C 
ATOM     49  C   UNL A   1      38.406  29.057  28.443  1.00  0.00     0.029 A 
ATOM     50  C   UNL A   1      39.677  29.010  29.159  1.00  0.00     0.049 A 
ATOM     51  H   UNL A   1      40.433  30.411  30.500  1.00  0.00     0.167 HD
ATOM     52  C   UNL A   1      41.921  33.451  33.266  1.00  0.00     0.031 A 
ATOM     53  C   UNL A   1      40.587  28.023  29.066  1.00  0.00     0.031 A 
ATOM     54  C   UNL A   1      42.916  32.413  33.284  1.00  0.00     0.049 A 
ATOM     55  C   UNL A   1      41.842  28.099  29.889  1.00  0.00     0.074 A 
ATOM     56  C   UNL A   1      44.080  32.346  34.031  1.00  0.00     0.029 A 
ATOM     57  N   UNL A   1      42.863  31.259  32.520  1.00  0.00    -0.354 N 
ATOM     58  N   UNL A   1      42.223  29.029  30.728  1.00  0.00    -0.248 NA
ATOM     59  C   UNL A   1      42.783  26.978  29.759  1.00  0.00     0.031 C 
ATOM     60  C   UNL A   1      44.751  31.167  33.687  1.00  0.00     0.029 A 
ATOM     61  C   UNL A   1      43.984  30.482  32.760  1.00  0.00     0.049 A 
ATOM     62  H   UNL A   1      42.137  31.026  31.896  1.00  0.00     0.167 HD
ATOM     63  C   UNL A   1      43.438  28.599  31.243  1.00  0.00     0.074 A 
ATOM     64  C   UNL A   1      43.720  27.314  30.635  1.00  0.00     0.031 C 
ATOM     65  C   UNL A   1      44.251  29.212  32.137  1.00  0.00     0.031 A 
BRANCH  52  66
ATOM     66  C   UNL A   1      42.152  34.681  34.098  1.00  0.00    -0.014 A 
ATOM     67  C   UNL A   1      42.780  35.815  33.557  1.00  0.00     0.009 A 
ATOM     68  C   UNL A   1      41.716  34.716  35.431  1.00  0.00     0.009 A 
ATOM     69  C   UNL A   1      42.998  36.946  34.347  1.00  0.00     0.001 A 
ATOM     70  C   UNL A   1      41.913  35.858  36.210  1.00  0.00     0.001 A 
ATOM     71  C   UNL A   1      42.563  36.967  35.670  1.00  0.00     0.000 A 
ENDBRANCH  52  66
BRANCH  53  72
ATOM     72  C   UNL A   1      40.331  26.860  28.179  1.00  0.00    -0.014 A 
ATOM     73  C   UNL A   1      39.562  25.778  28.632  1.00  0.00     0.009 A 
ATOM     74  C   UNL A   1      40.854  26.825  26.877  1.00  0.00     0.009 A 
ATOM     75  C   UNL A   1      39.341  24.673  27.808  1.00  0.00     0.001 A 
ATOM     76  C   UNL A   1      40.611  25.729  26.047  1.00  0.00     0.001 A 
ATOM     77  C   UNL A   1      39.862  24.650  26.516  1.00  0.00     0.000 A 
ENDBRANCH  53  72
BRANCH  65  78
ATOM     78  C   UNL A   1      45.508  28.488  32.523  1.00  0.00    -0.014 A 
ATOM     79  C   UNL A   1      45.519  27.575  33.589  1.00  0.00     0.009 A 
ATOM     80  C   UNL A   1      46.688  28.702  31.795  1.00  0.00     0.009 A 
ATOM     81  C   UNL A   1      46.699  26.918  33.942  1.00  0.00     0.001 A 
ATOM     82  C   UNL A   1      47.860  28.025  32.135  1.00  0.00     0.001 A 
ATOM     83  C   UNL A   1      47.867  27.142  33.213  1.00  0.00     0.000 A 
ENDBRANCH  65  78
ENDBRANCH  39  40
ENDBRANCH  31  34
ENDBRANCH  29  30
ENDBRANCH  28  29
ENDBRANCH  27  28
ENDBRANCH   1  27
TORSDOF 17
ENDMDL
MODEL 2
REMARK VINA RESULT:     -10.2      2.095      6.328
REMARK SMILES CC(C)[NH2+][C@]1(C(=O)NCCCCCCNC(=O)c2ccc(-c3c4nc(c(-c5ccccc5)c5ccc([nH]5)c(-c5ccccc5)c5nc(c(-c6ccccc6)c6ccc3[nH]6)C=C5)C=C4)cc2)CCC[C@@H](Sc2nnnn2C)C1
REMARK SMILES IDX 11 1 10 2 9 3 8 4 6 5 7 6 5 8 66 9 77 10 67 11 69 12 68 13
REMARK SMILES IDX 4 14 2 17 1 18 3 19 70 20 71 21 72 22 75 23 73 24 74 25
REMARK SMILES IDX 76 26 12 27 13 28 14 29 15 30 16 31 17 33 18 34 19 35 65 36
REMARK SMILES IDX 20 37 64 38 21 39 22 40 23 41 58 42 24 43 63 44 57 45 59 46
REMARK SMILES IDX 25 47 62 48 56 49 55 50 26 52 48 53 33 54 47 55 34 56 37 57
REMARK SMILES IDX 46 58 60 59 35 60 36 61 45 63 61 64 38 65 27 66 28 67 32 68
REMARK SMILES IDX 29 69 31 70 30 71 49 72 50 73 54 74 51 75 53 76 52 77 39 78
REMARK SMILES IDX 40 79 44 80 41 81 43 82 42 83
REMARK H PARENT 8 7 4 15 4 16 15 32 59 51 37 62
REMARK Flexibility Score: inf
ROOT
ATOM      1  C   UNL A   1      32.705  29.294  25.618  1.00  0.00     0.002 C 
ENDROOT
BRANCH   1   2
ATOM      2  C   UNL A   1      33.393  28.791  24.348  1.00  0.00     0.021 C 
BRANCH   2   3
ATOM      3  C   UNL A   1      33.978  27.382  24.480  1.00  0.00     0.116 C 
BRANCH   3   4
ATOM      4  N   UNL A   1      33.335  26.685  25.576  1.00  0.00    -0.351 N 
ATOM      5  C   UNL A   1      32.896  25.398  25.663  1.00  0.00     0.281 C 
ATOM      6  O   UNL A   1      32.142  25.141  26.609  1.00  0.00    -0.268 OA
ATOM      7  H   UNL A   1      33.194  27.227  26.386  1.00  0.00     0.163 HD
BRANCH   5   8
ATOM      8  C   UNL A   1      33.358  24.279  24.668  1.00  0.00     0.176 C 
ATOM      9  C   UNL A   1      34.915  24.312  24.608  1.00  0.00     0.079 C 
ATOM     10  C   UNL A   1      32.960  22.910  25.282  1.00  0.00     0.094 C 
ATOM     11  C   UNL A   1      35.556  23.085  23.949  1.00  0.00     0.008 C 
ATOM     12  C   UNL A   1      33.560  21.699  24.571  1.00  0.00     0.061 C 
ATOM     13  C   UNL A   1      35.087  21.774  24.580  1.00  0.00     0.015 C 
BRANCH   8  14
ATOM     14  N   UNL A   1      32.826  24.453  23.295  1.00  0.00    -0.332 N 
ATOM     15  H   UNL A   1      33.549  24.933  22.758  1.00  0.00     0.347 HD
ATOM     16  H   UNL A   1      32.587  23.501  23.016  1.00  0.00     0.347 HD
BRANCH  14  17
ATOM     17  C   UNL A   1      31.579  25.189  23.076  1.00  0.00     0.176 C 
ATOM     18  C   UNL A   1      31.685  25.823  21.682  1.00  0.00     0.075 C 
ATOM     19  C   UNL A   1      30.296  24.370  23.163  1.00  0.00     0.075 C 
ENDBRANCH  14  17
ENDBRANCH   8  14
BRANCH  12  20
ATOM     20  S   UNL A   1      32.886  20.137  25.248  1.00  0.00    -0.081 SA
BRANCH  20  21
ATOM     21  C   UNL A   1      32.890  19.075  23.889  1.00  0.00     0.209 A 
ATOM     22  N   UNL A   1      32.104  19.173  22.843  1.00  0.00    -0.102 NA
ATOM     23  N   UNL A   1      33.660  17.957  23.753  1.00  0.00    -0.224 N 
ATOM     24  N   UNL A   1      32.408  18.099  22.043  1.00  0.00    -0.023 NA
ATOM     25  N   UNL A   1      33.362  17.354  22.585  1.00  0.00    -0.045 NA
ATOM     26  C   UNL A   1      34.691  17.404  24.585  1.00  0.00     0.179 C 
ENDBRANCH  20  21
ENDBRANCH  12  20
ENDBRANCH   5   8
ENDBRANCH   3   4
ENDBRANCH   2   3
ENDBRANCH   1   2
BRANCH   1  27
ATOM     27  C   UNL A   1      31.341  29.953  25.390  1.00  0.00     0.002 C 
BRANCH  27  28
ATOM     28  C   UNL A   1      31.163  31.330  26.038  1.00  0.00     0.021 C 
BRANCH  28  29
ATOM     29  C   UNL A   1      32.341  31.794  26.891  1.00  0.00     0.116 C 
BRANCH  29  30
ATOM     30  N   UNL A   1      32.252  33.209  27.208  1.00  0.00    -0.352 N 
ATOM     31  C   UNL A   1      33.011  33.957  28.066  1.00  0.00     0.251 C 
ATOM     32  H   UNL A   1      31.541  33.701  26.738  1.00  0.00     0.163 HD
ATOM     33  O   UNL A   1      32.640  35.082  28.399  1.00  0.00    -0.269 OA
BRANCH  31  34
ATOM     34  C   UNL A   1      34.282  33.421  28.594  1.00  0.00     0.039 A 
ATOM     35  C   UNL A   1      34.258  32.672  29.773  1.00  0.00     0.014 A 
ATOM     36  C   UNL A   1      35.497  33.702  27.961  1.00  0.00     0.014 A 
ATOM     37  C   UNL A   1      35.452  32.176  30.300  1.00  0.00     0.010 A 
ATOM     38  C   UNL A   1      36.678  33.156  28.454  1.00  0.00     0.010 A 
ATOM     39  C   UNL A   1      36.669  32.403  29.637  1.00  0.00    -0.014 A 
BRANCH  39  40
ATOM     40  C   UNL A   1      37.941  31.884  30.192  1.00  0.00     0.031 A 
ATOM     41  C   UNL A   1      38.544  30.620  29.646  1.00  0.00     0.074 A 
ATOM     42  C   UNL A   1      38.536  32.532  31.211  1.00  0.00     0.049 A 
ATOM     43  N   UNL A   1      39.645  30.008  30.006  1.00  0.00    -0.248 NA
ATOM     44  C   UNL A   1      37.803  29.942  28.570  1.00  0.00     0.031 C 
ATOM     45  C   UNL A   1      38.029  33.746  31.856  1.00  0.00     0.029 A 
ATOM     46  N   UNL A   1      39.700  32.258  31.883  1.00  0.00    -0.354 N 
ATOM     47  C   UNL A   1      39.719  28.870  29.213  1.00  0.00     0.074 A 
ATOM     48  C   UNL A   1      38.532  28.850  28.387  1.00  0.00     0.031 C 
ATOM     49  C   UNL A   1      38.893  34.127  32.812  1.00  0.00     0.029 A 
ATOM     50  C   UNL A   1      39.996  33.172  32.863  1.00  0.00     0.049 A 
ATOM     51  H   UNL A   1      40.268  31.479  31.682  1.00  0.00     0.167 HD
ATOM     52  C   UNL A   1      40.697  27.934  29.163  1.00  0.00     0.031 A 
ATOM     53  C   UNL A   1      41.044  33.238  33.704  1.00  0.00     0.031 A 
ATOM     54  C   UNL A   1      41.885  27.960  29.972  1.00  0.00     0.049 A 
ATOM     55  C   UNL A   1      42.121  32.194  33.621  1.00  0.00     0.074 A 
ATOM     56  C   UNL A   1      42.962  27.090  29.954  1.00  0.00     0.029 A 
ATOM     57  N   UNL A   1      42.153  28.909  30.946  1.00  0.00    -0.354 N 
ATOM     58  N   UNL A   1      42.209  31.161  32.820  1.00  0.00    -0.248 NA
ATOM     59  C   UNL A   1      43.250  32.337  34.551  1.00  0.00     0.031 C 
ATOM     60  C   UNL A   1      43.864  27.492  30.945  1.00  0.00     0.029 A 
ATOM     61  C   UNL A   1      43.368  28.635  31.550  1.00  0.00     0.049 A 
ATOM     62  H   UNL A   1      41.565  29.665  31.175  1.00  0.00     0.167 HD
ATOM     63  C   UNL A   1      43.411  30.541  33.134  1.00  0.00     0.074 A 
ATOM     64  C   UNL A   1      44.026  31.326  34.186  1.00  0.00     0.031 C 
ATOM     65  C   UNL A   1      43.958  29.422  32.601  1.00  0.00     0.031 A 
BRANCH  52  66
ATOM     66  C   UNL A   1      40.512  26.797  28.197  1.00  0.00    -0.014 A 
ATOM     67  C   UNL A   1      41.000  26.876  26.882  1.00  0.00     0.009 A 
ATOM     68  C   UNL A   1      39.862  25.626  28.611  1.00  0.00     0.009 A 
ATOM     69  C   UNL A   1      40.808  25.817  25.992  1.00  0.00     0.001 A 
ATOM     70  C   UNL A   1      39.695  24.558  27.727  1.00  0.00     0.001 A 
ATOM     71  C   UNL A   1      40.159  24.659  26.415  1.00  0.00     0.000 A 
ENDBRANCH  52  66
BRANCH  53  72
ATOM     72  C   UNL A   1      41.141  34.352  34.682  1.00  0.00    -0.014 A 
ATOM     73  C   UNL A   1      40.501  34.262  35.926  1.00  0.00     0.009 A 
ATOM     74  C   UNL A   1      41.873  35.510  34.375  1.00  0.00     0.009 A 
ATOM     75  C   UNL A   1      40.571  35.319  36.836  1.00  0.00     0.001 A 
ATOM     76  C   UNL A   1      41.961  36.555  35.296  1.00  0.00     0.001 A 
ATOM     77  C   UNL A   1      41.303  36.462  36.523  1.00  0.00     0.000 A 
ENDBRANCH  53  72
BRANCH  65  78
ATOM     78  C   UNL A   1      45.294  28.996  33.137  1.00  0.00    -0.014 A 
ATOM     79  C   UNL A   1      46.483  29.552  32.640  1.00  0.00     0.009 A 
ATOM     80  C   UNL A   1      45.362  28.046  34.167  1.00  0.00     0.009 A 
ATOM     81  C   UNL A   1      47.718  29.136  33.141  1.00  0.00     0.001 A 
ATOM     82  C   UNL A   1      46.597  27.651  34.682  1.00  0.00     0.001 A 
ATOM     83  C   UNL A   1      47.773  28.189  34.163  1.00  0.00     0.000 A 
ENDBRANCH  65  78
ENDBRANCH  39  40
ENDBRANCH  31  34
ENDBRANCH  29  30
ENDBRANCH  28  29
ENDBRANCH  27  28
ENDBRANCH   1  27
TORSDOF 17
ENDMDL
MODEL 3
REMARK VINA RESULT:     -10.1      1.490      6.046
REMARK SMILES CC(C)[NH2+][C@]1(C(=O)NCCCCCCNC(=O)c2ccc(-c3c4nc(c(-c5ccccc5)c5ccc([nH]5)c(-c5ccccc5)c5nc(c(-c6ccccc6)c6ccc3[nH]6)C=C5)C=C4)cc2)CCC[C@@H](Sc2nnnn2C)C1
REMARK SMILES IDX 11 1 10 2 9 3 8 4 6 5 7 6 5 8 66 9 77 10 67 11 69 12 68 13
REMARK SMILES IDX 4 14 2 17 1 18 3 19 70 20 71 21 72 22 75 23 73 24 74 25
REMARK SMILES IDX 76 26 12 27 13 28 14 29 15 30 16 31 17 33 18 34 19 35 65 36
REMARK SMILES IDX 20 37 64 38 21 39 22 40 23 41 58 42 24 43 63 44 57 45 59 46
REMARK SMILES IDX 25 47 62 48 56 49 55 50 26 52 48 53 33 54 47 55 34 56 37 57
REMARK SMILES IDX 46 58 60 59 35 60 36 61 45 63 61 64 38 65 27 66 28 67 32 68
REMARK SMILES IDX 29 69 31 70 30 71 49 72 50 73 54 74 51 75 53 76 52 77 39 78
REMARK SMILES IDX 40 79 44 80 41 81 43 82 42 83
REMARK H PARENT 8 7 4 15 4 16 15 32 59 51 37 62
REMARK Flexibility Score: inf
ROOT
ATOM      1  C   UNL A   1      32.695  30.238  26.850  1.00  0.00     0.002 C 
ENDROOT
BRANCH   1   2
ATOM      2  C   UNL A   1      32.696  28.727  26.615  1.00  0.00     0.021 C 
BRANCH   2   3
ATOM      3  C   UNL A   1      33.978  28.204  25.961  1.00  0.00     0.116 C 
BRANCH   3   4
ATOM      4  N   UNL A   1      34.054  28.671  24.590  1.00  0.00    -0.351 N 
ATOM      5  C   UNL A   1      33.851  28.001  23.421  1.00  0.00     0.281 C 
ATOM      6  O   UNL A   1      34.248  28.565  22.394  1.00  0.00    -0.268 OA
ATOM      7  H   UNL A   1      34.290  29.621  24.488  1.00  0.00     0.163 HD
BRANCH   5   8
ATOM      8  C   UNL A   1      33.105  26.625  23.354  1.00  0.00     0.176 C 
ATOM      9  C   UNL A   1      32.984  26.224  21.852  1.00  0.00     0.079 C 
ATOM     10  C   UNL A   1      34.013  25.564  24.032  1.00  0.00     0.094 C 
ATOM     11  C   UNL A   1      32.584  24.764  21.610  1.00  0.00     0.008 C 
ATOM     12  C   UNL A   1      33.560  24.120  23.830  1.00  0.00     0.061 C 
ATOM     13  C   UNL A   1      33.498  23.780  22.341  1.00  0.00     0.015 C 
BRANCH   8  14
ATOM     14  N   UNL A   1      31.746  26.660  23.946  1.00  0.00    -0.332 N 
ATOM     15  H   UNL A   1      31.458  25.691  24.078  1.00  0.00     0.347 HD
ATOM     16  H   UNL A   1      31.872  27.231  24.782  1.00  0.00     0.347 HD
BRANCH  14  17
ATOM     17  C   UNL A   1      30.653  27.334  23.242  1.00  0.00     0.176 C 
ATOM     18  C   UNL A   1      29.359  26.624  23.664  1.00  0.00     0.075 C 
ATOM     19  C   UNL A   1      30.516  28.830  23.497  1.00  0.00     0.075 C 
ENDBRANCH  14  17
ENDBRANCH   8  14
BRANCH  12  20
ATOM     20  S   UNL A   1      34.580  22.964  24.817  1.00  0.00    -0.081 SA
BRANCH  20  21
ATOM     21  C   UNL A   1      33.625  21.530  24.871  1.00  0.00     0.209 A 
ATOM     22  N   UNL A   1      32.313  21.488  24.910  1.00  0.00    -0.102 NA
ATOM     23  N   UNL A   1      34.104  20.254  24.951  1.00  0.00    -0.224 N 
ATOM     24  N   UNL A   1      31.982  20.158  25.002  1.00  0.00    -0.023 NA
ATOM     25  N   UNL A   1      33.068  19.396  25.020  1.00  0.00    -0.045 NA
ATOM     26  C   UNL A   1      35.443  19.738  24.925  1.00  0.00     0.179 C 
ENDBRANCH  20  21
ENDBRANCH  12  20
ENDBRANCH   5   8
ENDBRANCH   3   4
ENDBRANCH   2   3
ENDBRANCH   1   2
BRANCH   1  27
ATOM     27  C   UNL A   1      31.383  30.942  26.493  1.00  0.00     0.002 C 
BRANCH  27  28
ATOM     28  C   UNL A   1      31.377  32.461  26.698  1.00  0.00     0.021 C 
BRANCH  28  29
ATOM     29  C   UNL A   1      32.691  33.042  27.213  1.00  0.00     0.116 C 
BRANCH  29  30
ATOM     30  N   UNL A   1      32.520  34.391  27.724  1.00  0.00    -0.352 N 
ATOM     31  C   UNL A   1      33.130  35.003  28.785  1.00  0.00     0.251 C 
ATOM     32  H   UNL A   1      31.870  34.946  27.237  1.00  0.00     0.163 HD
ATOM     33  O   UNL A   1      32.685  36.061  29.227  1.00  0.00    -0.269 OA
BRANCH  31  34
ATOM     34  C   UNL A   1      34.328  34.399  29.403  1.00  0.00     0.039 A 
ATOM     35  C   UNL A   1      35.556  34.518  28.750  1.00  0.00     0.014 A 
ATOM     36  C   UNL A   1      34.229  33.672  30.594  1.00  0.00     0.014 A 
ATOM     37  C   UNL A   1      36.695  33.935  29.308  1.00  0.00     0.010 A 
ATOM     38  C   UNL A   1      35.376  33.143  31.180  1.00  0.00     0.010 A 
ATOM     39  C   UNL A   1      36.615  33.255  30.534  1.00  0.00    -0.014 A 
BRANCH  39  40
ATOM     40  C   UNL A   1      37.818  32.629  31.132  1.00  0.00     0.031 A 
ATOM     41  C   UNL A   1      38.426  31.407  30.501  1.00  0.00     0.074 A 
ATOM     42  C   UNL A   1      38.342  33.139  32.262  1.00  0.00     0.049 A 
ATOM     43  N   UNL A   1      39.472  30.717  30.881  1.00  0.00    -0.248 NA
ATOM     44  C   UNL A   1      37.761  30.879  29.300  1.00  0.00     0.031 C 
ATOM     45  C   UNL A   1      37.819  34.296  32.993  1.00  0.00     0.029 A 
ATOM     46  N   UNL A   1      39.435  32.748  32.993  1.00  0.00    -0.354 N 
ATOM     47  C   UNL A   1      39.579  29.668  29.976  1.00  0.00     0.074 A 
ATOM     48  C   UNL A   1      38.468  29.785  29.058  1.00  0.00     0.031 C 
ATOM     49  C   UNL A   1      38.609  34.536  34.053  1.00  0.00     0.029 A 
ATOM     50  C   UNL A   1      39.673  33.539  34.090  1.00  0.00     0.049 A 
ATOM     51  H   UNL A   1      39.994  31.973  32.756  1.00  0.00     0.167 HD
ATOM     52  C   UNL A   1      40.528  28.704  29.904  1.00  0.00     0.031 A 
ATOM     53  C   UNL A   1      40.646  33.471  35.017  1.00  0.00     0.031 A 
ATOM     54  C   UNL A   1      41.643  28.595  30.806  1.00  0.00     0.049 A 
ATOM     55  C   UNL A   1      41.694  32.399  34.908  1.00  0.00     0.074 A 
ATOM     56  C   UNL A   1      42.689  27.690  30.781  1.00  0.00     0.029 A 
ATOM     57  N   UNL A   1      41.855  29.422  31.897  1.00  0.00    -0.354 N 
ATOM     58  N   UNL A   1      41.818  31.456  34.008  1.00  0.00    -0.248 NA
ATOM     59  C   UNL A   1      42.741  32.396  35.938  1.00  0.00     0.031 C 
ATOM     60  C   UNL A   1      43.514  27.946  31.882  1.00  0.00     0.029 A 
ATOM     61  C   UNL A   1      43.004  29.036  32.566  1.00  0.00     0.049 A 
ATOM     62  H   UNL A   1      41.273  30.172  32.160  1.00  0.00     0.167 HD
ATOM     63  C   UNL A   1      42.969  30.758  34.349  1.00  0.00     0.074 A 
ATOM     64  C   UNL A   1      43.514  31.400  35.528  1.00  0.00     0.031 C 
ATOM     65  C   UNL A   1      43.524  29.681  33.743  1.00  0.00     0.031 A 
BRANCH  52  66
ATOM     66  C   UNL A   1      40.392  27.687  28.806  1.00  0.00    -0.014 A 
ATOM     67  C   UNL A   1      39.621  26.526  28.983  1.00  0.00     0.009 A 
ATOM     68  C   UNL A   1      41.024  27.902  27.572  1.00  0.00     0.009 A 
ATOM     69  C   UNL A   1      39.516  25.584  27.957  1.00  0.00     0.001 A 
ATOM     70  C   UNL A   1      40.895  26.970  26.539  1.00  0.00     0.001 A 
ATOM     71  C   UNL A   1      40.150  25.808  26.737  1.00  0.00     0.000 A 
ENDBRANCH  52  66
BRANCH  53  72
ATOM     72  C   UNL A   1      40.693  34.469  36.116  1.00  0.00    -0.014 A 
ATOM     73  C   UNL A   1      40.021  34.227  37.323  1.00  0.00     0.009 A 
ATOM     74  C   UNL A   1      41.408  35.667  35.963  1.00  0.00     0.009 A 
ATOM     75  C   UNL A   1      40.043  35.175  38.347  1.00  0.00     0.001 A 
ATOM     76  C   UNL A   1      41.449  36.602  36.999  1.00  0.00     0.001 A 
ATOM     77  C   UNL A   1      40.760  36.359  38.187  1.00  0.00     0.000 A 
ENDBRANCH  53  72
BRANCH  65  78
ATOM     78  C   UNL A   1      44.795  29.147  34.337  1.00  0.00    -0.014 A 
ATOM     79  C   UNL A   1      46.046  29.636  33.929  1.00  0.00     0.009 A 
ATOM     80  C   UNL A   1      44.739  28.160  35.332  1.00  0.00     0.009 A 
ATOM     81  C   UNL A   1      47.219  29.120  34.483  1.00  0.00     0.001 A 
ATOM     82  C   UNL A   1      45.913  27.664  35.902  1.00  0.00     0.001 A 
ATOM     83  C   UNL A   1      47.151  28.137  35.470  1.00  0.00     0.000 A 
ENDBRANCH  65  78
ENDBRANCH  39  40
ENDBRANCH  31  34
ENDBRANCH  29  30
ENDBRANCH  28  29
ENDBRANCH  27  28
ENDBRANCH   1  27
TORSDOF 17
ENDMDL
