MODEL 1
REMARK VINA RESULT:     -11.0      0.000      0.000
REMARK SMILES C[NH2+][C@]1(C(=O)NCCCCCCNC(=O)c2ccc(-c3c4nc(c(-c5ccccc5)c5ccc([nH]5)c(-c5ccccc5)c5nc(c(-c6ccccc6)c6ccc3[nH]6)C=C5)C=C4)cc2)CCC[C@@H]([N@H+]2CC[C@@H](C)C2)C1
REMARK SMILES IDX 10 1 9 2 8 3 7 4 6 5 4 6 5 7 3 9 64 10 74 11 65 12 67 13
REMARK SMILES IDX 66 14 2 15 1 16 68 19 69 20 73 21 70 23 71 24 72 25 11 26
REMARK SMILES IDX 12 27 13 28 14 29 15 31 16 32 17 33 63 34 18 35 62 36 19 37
REMARK SMILES IDX 20 38 21 39 56 40 22 41 61 42 55 43 57 44 23 45 60 46 54 47
REMARK SMILES IDX 53 48 24 50 46 51 31 52 45 53 32 54 35 55 44 56 58 57 33 58
REMARK SMILES IDX 34 59 43 61 59 62 36 63 25 64 26 65 30 66 27 67 29 68 28 69
REMARK SMILES IDX 47 70 48 71 52 72 49 73 51 74 50 75 37 76 38 77 42 78 39 79
REMARK SMILES IDX 41 80 40 81
REMARK H PARENT 6 8 2 17 2 18 68 22 13 30 57 49 35 60
REMARK Flexibility Score: inf
ROOT
ATOM      1  C   UNL A   1      34.181  33.511  29.201  1.00  0.00     0.002 C 
ENDROOT
BRANCH   1   2
ATOM      2  C   UNL A   1      34.644  32.703  27.983  1.00  0.00     0.002 C 
BRANCH   2   3
ATOM      3  C   UNL A   1      34.521  31.182  28.118  1.00  0.00     0.021 C 
BRANCH   3   4
ATOM      4  C   UNL A   1      33.631  30.529  27.068  1.00  0.00     0.116 C 
BRANCH   4   5
ATOM      5  N   UNL A   1      32.618  29.679  27.672  1.00  0.00    -0.351 N 
ATOM      6  C   UNL A   1      31.849  28.652  27.197  1.00  0.00     0.281 C 
ATOM      7  O   UNL A   1      31.147  28.118  28.060  1.00  0.00    -0.268 OA
ATOM      8  H   UNL A   1      32.450  29.886  28.621  1.00  0.00     0.163 HD
BRANCH   6   9
ATOM      9  C   UNL A   1      31.918  28.186  25.689  1.00  0.00     0.181 C 
ATOM     10  C   UNL A   1      31.108  26.890  25.480  1.00  0.00     0.079 C 
ATOM     11  C   UNL A   1      31.383  29.374  24.863  1.00  0.00     0.144 C 
ATOM     12  C   UNL A   1      30.758  26.619  24.015  1.00  0.00     0.013 C 
ATOM     13  C   UNL A   1      30.895  29.096  23.439  1.00  0.00     0.190 C 
ATOM     14  C   UNL A   1      30.052  27.809  23.367  1.00  0.00     0.065 C 
BRANCH   9  15
ATOM     15  N   UNL A   1      33.284  27.898  25.140  1.00  0.00    -0.336 N 
ATOM     16  C   UNL A   1      34.025  26.780  25.696  1.00  0.00     0.331 C 
ATOM     17  H   UNL A   1      33.176  27.723  24.140  1.00  0.00     0.346 HD
ATOM     18  H   UNL A   1      33.836  28.718  25.391  1.00  0.00     0.346 HD
ENDBRANCH   9  15
BRANCH  13  19
ATOM     19  N   UNL A   1      30.185  30.264  22.863  1.00  0.00    -0.332 N 
ATOM     20  C   UNL A   1      29.669  30.111  21.497  1.00  0.00     0.262 C 
ATOM     21  C   UNL A   1      29.107  30.813  23.697  1.00  0.00     0.265 C 
ATOM     22  H   UNL A   1      30.961  30.925  22.828  1.00  0.00     0.348 HD
ATOM     23  C   UNL A   1      28.253  30.676  21.478  1.00  0.00     0.070 C 
ATOM     24  C   UNL A   1      27.793  30.656  22.928  1.00  0.00     0.047 C 
ATOM     25  C   UNL A   1      26.991  29.397  23.261  1.00  0.00     0.014 C 
ENDBRANCH  13  19
ENDBRANCH   6   9
ENDBRANCH   4   5
ENDBRANCH   3   4
ENDBRANCH   2   3
ENDBRANCH   1   2
BRANCH   1  26
ATOM     26  C   UNL A   1      33.136  34.589  28.913  1.00  0.00     0.021 C 
BRANCH  26  27
ATOM     27  C   UNL A   1      33.398  35.934  29.580  1.00  0.00     0.116 C 
BRANCH  27  28
ATOM     28  N   UNL A   1      32.513  36.180  30.706  1.00  0.00    -0.352 N 
ATOM     29  C   UNL A   1      32.616  35.745  32.004  1.00  0.00     0.251 C 
ATOM     30  H   UNL A   1      31.727  36.740  30.510  1.00  0.00     0.163 HD
ATOM     31  O   UNL A   1      31.696  35.920  32.791  1.00  0.00    -0.269 OA
BRANCH  29  32
ATOM     32  C   UNL A   1      33.837  35.033  32.440  1.00  0.00     0.039 A 
ATOM     33  C   UNL A   1      33.722  33.709  32.874  1.00  0.00     0.014 A 
ATOM     34  C   UNL A   1      35.085  35.661  32.417  1.00  0.00     0.014 A 
ATOM     35  C   UNL A   1      34.870  32.997  33.227  1.00  0.00     0.010 A 
ATOM     36  C   UNL A   1      36.234  34.926  32.693  1.00  0.00     0.010 A 
ATOM     37  C   UNL A   1      36.139  33.588  33.104  1.00  0.00    -0.014 A 
BRANCH  37  38
ATOM     38  C   UNL A   1      37.374  32.820  33.402  1.00  0.00     0.031 A 
ATOM     39  C   UNL A   1      38.134  33.069  34.675  1.00  0.00     0.074 A 
ATOM     40  C   UNL A   1      37.843  31.937  32.498  1.00  0.00     0.049 A 
ATOM     41  N   UNL A   1      39.254  32.530  35.087  1.00  0.00    -0.248 NA
ATOM     42  C   UNL A   1      37.576  34.071  35.597  1.00  0.00     0.031 C 
ATOM     43  C   UNL A   1      37.219  31.629  31.209  1.00  0.00     0.029 A 
ATOM     44  N   UNL A   1      38.957  31.135  32.527  1.00  0.00    -0.354 N 
ATOM     45  C   UNL A   1      39.540  33.135  36.305  1.00  0.00     0.074 A 
ATOM     46  C   UNL A   1      38.507  34.120  36.539  1.00  0.00     0.031 C 
ATOM     47  C   UNL A   1      37.942  30.685  30.586  1.00  0.00     0.029 A 
ATOM     48  C   UNL A   1      39.102  30.354  31.407  1.00  0.00     0.049 A 
ATOM     49  H   UNL A   1      39.593  31.124  33.279  1.00  0.00     0.167 HD
ATOM     50  C   UNL A   1      40.556  32.880  37.161  1.00  0.00     0.031 A 
ATOM     51  C   UNL A   1      40.065  29.474  31.073  1.00  0.00     0.031 A 
ATOM     52  C   UNL A   1      41.583  31.899  36.929  1.00  0.00     0.049 A 
ATOM     53  C   UNL A   1      41.201  29.232  32.027  1.00  0.00     0.074 A 
ATOM     54  C   UNL A   1      42.628  31.533  37.758  1.00  0.00     0.029 A 
ATOM     55  N   UNL A   1      41.697  31.132  35.780  1.00  0.00    -0.354 N 
ATOM     56  N   UNL A   1      41.419  29.763  33.206  1.00  0.00    -0.248 NA
ATOM     57  C   UNL A   1      42.221  28.259  31.608  1.00  0.00     0.031 C 
ATOM     58  C   UNL A   1      43.409  30.588  37.086  1.00  0.00     0.029 A 
ATOM     59  C   UNL A   1      42.812  30.316  35.866  1.00  0.00     0.049 A 
ATOM     60  H   UNL A   1      41.076  31.163  35.015  1.00  0.00     0.167 HD
ATOM     61  C   UNL A   1      42.580  29.167  33.682  1.00  0.00     0.074 A 
ATOM     62  C   UNL A   1      43.010  28.222  32.672  1.00  0.00     0.031 C 
ATOM     63  C   UNL A   1      43.230  29.382  34.852  1.00  0.00     0.031 A 
BRANCH  50  64
ATOM     64  C   UNL A   1      40.614  33.688  38.429  1.00  0.00    -0.014 A 
ATOM     65  C   UNL A   1      41.316  34.903  38.490  1.00  0.00     0.009 A 
ATOM     66  C   UNL A   1      39.927  33.247  39.570  1.00  0.00     0.009 A 
ATOM     67  C   UNL A   1      41.362  35.637  39.676  1.00  0.00     0.001 A 
ATOM     68  C   UNL A   1      39.948  33.999  40.746  1.00  0.00     0.001 A 
ATOM     69  C   UNL A   1      40.674  35.188  40.802  1.00  0.00     0.000 A 
ENDBRANCH  50  64
BRANCH  51  70
ATOM     70  C   UNL A   1      39.995  28.745  29.778  1.00  0.00    -0.014 A 
ATOM     71  C   UNL A   1      40.447  29.347  28.594  1.00  0.00     0.009 A 
ATOM     72  C   UNL A   1      39.462  27.446  29.717  1.00  0.00     0.009 A 
ATOM     73  C   UNL A   1      40.338  28.679  27.373  1.00  0.00     0.001 A 
ATOM     74  C   UNL A   1      39.386  26.768  28.499  1.00  0.00     0.001 A 
ATOM     75  C   UNL A   1      39.813  27.389  27.326  1.00  0.00     0.000 A 
ENDBRANCH  51  70
BRANCH  63  76
ATOM     76  C   UNL A   1      44.455  28.552  35.122  1.00  0.00    -0.014 A 
ATOM     77  C   UNL A   1      44.367  27.298  35.747  1.00  0.00     0.009 A 
ATOM     78  C   UNL A   1      45.713  29.018  34.708  1.00  0.00     0.009 A 
ATOM     79  C   UNL A   1      45.520  26.545  35.984  1.00  0.00     0.001 A 
ATOM     80  C   UNL A   1      46.858  28.249  34.915  1.00  0.00     0.001 A 
ATOM     81  C   UNL A   1      46.762  27.018  35.562  1.00  0.00     0.000 A 
ENDBRANCH  63  76
ENDBRANCH  37  38
ENDBRANCH  29  32
ENDBRANCH  27  28
ENDBRANCH  26  27
ENDBRANCH   1  26
TORSDOF 15
ENDMDL
MODEL 2
REMARK VINA RESULT:     -10.7      6.682     11.817
REMARK SMILES C[NH2+][C@]1(C(=O)NCCCCCCNC(=O)c2ccc(-c3c4nc(c(-c5ccccc5)c5ccc([nH]5)c(-c5ccccc5)c5nc(c(-c6ccccc6)c6ccc3[nH]6)C=C5)C=C4)cc2)CCC[C@@H]([N@H+]2CC[C@@H](C)C2)C1
REMARK SMILES IDX 10 1 9 2 8 3 7 4 6 5 4 6 5 7 3 9 64 10 74 11 65 12 67 13
REMARK SMILES IDX 66 14 2 15 1 16 68 19 69 20 73 21 70 23 71 24 72 25 11 26
REMARK SMILES IDX 12 27 13 28 14 29 15 31 16 32 17 33 63 34 18 35 62 36 19 37
REMARK SMILES IDX 20 38 21 39 56 40 22 41 61 42 55 43 57 44 23 45 60 46 54 47
REMARK SMILES IDX 53 48 24 50 46 51 31 52 45 53 32 54 35 55 44 56 58 57 33 58
REMARK SMILES IDX 34 59 43 61 59 62 36 63 25 64 26 65 30 66 27 67 29 68 28 69
REMARK SMILES IDX 47 70 48 71 52 72 49 73 51 74 50 75 37 76 38 77 42 78 39 79
REMARK SMILES IDX 41 80 40 81
REMARK H PARENT 6 8 2 17 2 18 68 22 13 30 57 49 35 60
REMARK Flexibility Score: inf
ROOT
ATOM      1  C   UNL A   1      36.828  20.525  24.966  1.00  0.00     0.002 C 
ENDROOT
BRANCH   1   2
ATOM      2  C   UNL A   1      37.214  21.986  24.711  1.00  0.00     0.002 C 
BRANCH   2   3
ATOM      3  C   UNL A   1      36.562  22.634  23.485  1.00  0.00     0.021 C 
BRANCH   3   4
ATOM      4  C   UNL A   1      35.301  23.431  23.793  1.00  0.00     0.116 C 
BRANCH   4   5
ATOM      5  N   UNL A   1      35.049  23.513  25.223  1.00  0.00    -0.351 N 
ATOM      6  C   UNL A   1      34.123  22.934  26.047  1.00  0.00     0.281 C 
ATOM      7  O   UNL A   1      34.289  23.198  27.241  1.00  0.00    -0.268 OA
ATOM      8  H   UNL A   1      35.674  24.109  25.695  1.00  0.00     0.163 HD
BRANCH   6   9
ATOM      9  C   UNL A   1      32.992  21.981  25.493  1.00  0.00     0.181 C 
ATOM     10  C   UNL A   1      32.902  22.078  23.955  1.00  0.00     0.079 C 
ATOM     11  C   UNL A   1      33.361  20.568  25.989  1.00  0.00     0.144 C 
ATOM     12  C   UNL A   1      32.167  20.899  23.313  1.00  0.00     0.013 C 
ATOM     13  C   UNL A   1      32.744  19.368  25.265  1.00  0.00     0.190 C 
ATOM     14  C   UNL A   1      32.761  19.556  23.736  1.00  0.00     0.065 C 
BRANCH   9  15
ATOM     15  N   UNL A   1      31.600  22.232  25.993  1.00  0.00    -0.336 N 
ATOM     16  C   UNL A   1      30.997  23.525  25.725  1.00  0.00     0.331 C 
ATOM     17  H   UNL A   1      30.997  21.523  25.574  1.00  0.00     0.346 HD
ATOM     18  H   UNL A   1      31.687  22.198  27.008  1.00  0.00     0.346 HD
ENDBRANCH   9  15
BRANCH  13  19
ATOM     19  N   UNL A   1      33.374  18.091  25.679  1.00  0.00    -0.332 N 
ATOM     20  C   UNL A   1      32.520  16.897  25.651  1.00  0.00     0.262 C 
ATOM     21  C   UNL A   1      34.632  17.765  24.995  1.00  0.00     0.265 C 
ATOM     22  H   UNL A   1      33.564  18.313  26.657  1.00  0.00     0.348 HD
ATOM     23  C   UNL A   1      33.326  15.774  25.008  1.00  0.00     0.070 C 
ATOM     24  C   UNL A   1      34.417  16.471  24.208  1.00  0.00     0.047 C 
ATOM     25  C   UNL A   1      34.027  16.657  22.741  1.00  0.00     0.014 C 
ENDBRANCH  13  19
ENDBRANCH   6   9
ENDBRANCH   4   5
ENDBRANCH   3   4
ENDBRANCH   2   3
ENDBRANCH   1   2
BRANCH   1  26
ATOM     26  C   UNL A   1      37.994  19.537  25.004  1.00  0.00     0.021 C 
BRANCH  26  27
ATOM     27  C   UNL A   1      39.191  19.984  25.834  1.00  0.00     0.116 C 
BRANCH  27  28
ATOM     28  N   UNL A   1      40.253  18.992  25.863  1.00  0.00    -0.352 N 
ATOM     29  C   UNL A   1      41.603  19.170  26.039  1.00  0.00     0.251 C 
ATOM     30  H   UNL A   1      39.962  18.060  25.739  1.00  0.00     0.163 HD
ATOM     31  O   UNL A   1      42.376  18.234  25.884  1.00  0.00    -0.269 OA
BRANCH  29  32
ATOM     32  C   UNL A   1      42.124  20.509  26.390  1.00  0.00     0.039 A 
ATOM     33  C   UNL A   1      42.473  21.384  25.358  1.00  0.00     0.014 A 
ATOM     34  C   UNL A   1      42.263  20.901  27.724  1.00  0.00     0.014 A 
ATOM     35  C   UNL A   1      42.903  22.676  25.665  1.00  0.00     0.010 A 
ATOM     36  C   UNL A   1      42.615  22.214  28.025  1.00  0.00     0.010 A 
ATOM     37  C   UNL A   1      42.943  23.113  27.001  1.00  0.00    -0.014 A 
BRANCH  37  38
ATOM     38  C   UNL A   1      43.325  24.508  27.339  1.00  0.00     0.031 A 
ATOM     39  C   UNL A   1      44.768  24.931  27.295  1.00  0.00     0.074 A 
ATOM     40  C   UNL A   1      42.379  25.378  27.740  1.00  0.00     0.049 A 
ATOM     41  N   UNL A   1      45.297  26.088  27.600  1.00  0.00    -0.248 NA
ATOM     42  C   UNL A   1      45.747  23.914  26.877  1.00  0.00     0.031 C 
ATOM     43  C   UNL A   1      40.948  25.083  27.859  1.00  0.00     0.029 A 
ATOM     44  N   UNL A   1      42.479  26.693  28.125  1.00  0.00    -0.354 N 
ATOM     45  C   UNL A   1      46.667  25.936  27.423  1.00  0.00     0.074 A 
ATOM     46  C   UNL A   1      46.892  24.560  27.039  1.00  0.00     0.031 C 
ATOM     47  C   UNL A   1      40.303  26.191  28.257  1.00  0.00     0.029 A 
ATOM     48  C   UNL A   1      41.275  27.259  28.465  1.00  0.00     0.049 A 
ATOM     49  H   UNL A   1      43.333  27.182  28.155  1.00  0.00     0.167 HD
ATOM     50  C   UNL A   1      47.648  26.861  27.548  1.00  0.00     0.031 A 
ATOM     51  C   UNL A   1      40.985  28.499  28.903  1.00  0.00     0.031 A 
ATOM     52  C   UNL A   1      47.424  28.231  27.928  1.00  0.00     0.049 A 
ATOM     53  C   UNL A   1      42.096  29.499  29.065  1.00  0.00     0.074 A 
ATOM     54  C   UNL A   1      48.345  29.257  28.035  1.00  0.00     0.029 A 
ATOM     55  N   UNL A   1      46.190  28.763  28.270  1.00  0.00    -0.354 N 
ATOM     56  N   UNL A   1      43.377  29.357  28.827  1.00  0.00    -0.248 NA
ATOM     57  C   UNL A   1      41.717  30.836  29.545  1.00  0.00     0.031 C 
ATOM     58  C   UNL A   1      47.680  30.395  28.500  1.00  0.00     0.029 A 
ATOM     59  C   UNL A   1      46.332  30.096  28.617  1.00  0.00     0.049 A 
ATOM     60  H   UNL A   1      45.339  28.268  28.266  1.00  0.00     0.167 HD
ATOM     61  C   UNL A   1      43.952  30.593  29.098  1.00  0.00     0.074 A 
ATOM     62  C   UNL A   1      42.877  31.476  29.501  1.00  0.00     0.031 C 
ATOM     63  C   UNL A   1      45.254  30.963  29.018  1.00  0.00     0.031 A 
BRANCH  50  64
ATOM     64  C   UNL A   1      49.060  26.415  27.280  1.00  0.00    -0.014 A 
ATOM     65  C   UNL A   1      49.602  26.448  25.985  1.00  0.00     0.009 A 
ATOM     66  C   UNL A   1      49.871  25.990  28.343  1.00  0.00     0.009 A 
ATOM     67  C   UNL A   1      50.913  26.027  25.755  1.00  0.00     0.001 A 
ATOM     68  C   UNL A   1      51.192  25.599  28.115  1.00  0.00     0.001 A 
ATOM     69  C   UNL A   1      51.709  25.608  26.820  1.00  0.00     0.000 A 
ENDBRANCH  50  64
BRANCH  51  70
ATOM     70  C   UNL A   1      39.578  28.872  29.214  1.00  0.00    -0.014 A 
ATOM     71  C   UNL A   1      39.042  28.638  30.489  1.00  0.00     0.009 A 
ATOM     72  C   UNL A   1      38.760  29.452  28.231  1.00  0.00     0.009 A 
ATOM     73  C   UNL A   1      37.709  28.947  30.765  1.00  0.00     0.001 A 
ATOM     74  C   UNL A   1      37.436  29.791  28.520  1.00  0.00     0.001 A 
ATOM     75  C   UNL A   1      36.908  29.528  29.783  1.00  0.00     0.000 A 
ENDBRANCH  51  70
BRANCH  63  76
ATOM     76  C   UNL A   1      45.583  32.396  29.335  1.00  0.00    -0.014 A 
ATOM     77  C   UNL A   1      45.541  33.393  28.349  1.00  0.00     0.009 A 
ATOM     78  C   UNL A   1      45.905  32.757  30.654  1.00  0.00     0.009 A 
ATOM     79  C   UNL A   1      45.848  34.718  28.671  1.00  0.00     0.001 A 
ATOM     80  C   UNL A   1      46.178  34.086  30.978  1.00  0.00     0.001 A 
ATOM     81  C   UNL A   1      46.160  35.063  29.985  1.00  0.00     0.000 A 
ENDBRANCH  63  76
ENDBRANCH  37  38
ENDBRANCH  29  32
ENDBRANCH  27  28
ENDBRANCH  26  27
ENDBRANCH   1  26
TORSDOF 15
ENDMDL
MODEL 3
REMARK VINA RESULT:     -10.6      4.924      7.642
REMARK SMILES C[NH2+][C@]1(C(=O)NCCCCCCNC(=O)c2ccc(-c3c4nc(c(-c5ccccc5)c5ccc([nH]5)c(-c5ccccc5)c5nc(c(-c6ccccc6)c6ccc3[nH]6)C=C5)C=C4)cc2)CCC[C@@H]([N@H+]2CC[C@@H](C)C2)C1
REMARK SMILES IDX 10 1 9 2 8 3 7 4 6 5 4 6 5 7 3 9 64 10 74 11 65 12 67 13
REMARK SMILES IDX 66 14 2 15 1 16 68 19 69 20 73 21 70 23 71 24 72 25 11 26
REMARK SMILES IDX 12 27 13 28 14 29 15 31 16 32 17 33 63 34 18 35 62 36 19 37
REMARK SMILES IDX 20 38 21 39 56 40 22 41 61 42 55 43 57 44 23 45 60 46 54 47
REMARK SMILES IDX 53 48 24 50 46 51 31 52 45 53 32 54 35 55 44 56 58 57 33 58
REMARK SMILES IDX 34 59 43 61 59 62 36 63 25 64 26 65 30 66 27 67 29 68 28 69
REMARK SMILES IDX 47 70 48 71 52 72 49 73 51 74 50 75 37 76 38 77 42 78 39 79
REMARK SMILES IDX 41 80 40 81
REMARK H PARENT 6 8 2 17 2 18 68 22 13 30 57 49 35 60
REMARK Flexibility Score: inf
ROOT
ATOM      1  C   UNL A   1      32.290  26.966  26.026  1.00  0.00     0.002 C 
ENDROOT
BRANCH   1   2
ATOM      2  C   UNL A   1      33.648  26.590  25.421  1.00  0.00     0.002 C 
BRANCH   2   3
ATOM      3  C   UNL A   1      33.613  26.133  23.960  1.00  0.00     0.021 C 
BRANCH   3   4
ATOM      4  C   UNL A   1      33.630  24.621  23.775  1.00  0.00     0.116 C 
BRANCH   4   5
ATOM      5  N   UNL A   1      34.908  24.153  23.262  1.00  0.00    -0.351 N 
ATOM      6  C   UNL A   1      35.794  23.197  23.680  1.00  0.00     0.281 C 
ATOM      7  O   UNL A   1      36.748  23.039  22.914  1.00  0.00    -0.268 OA
ATOM      8  H   UNL A   1      35.196  24.622  22.445  1.00  0.00     0.163 HD
BRANCH   6   9
ATOM      9  C   UNL A   1      35.557  22.358  24.996  1.00  0.00     0.181 C 
ATOM     10  C   UNL A   1      35.035  23.261  26.133  1.00  0.00     0.079 C 
ATOM     11  C   UNL A   1      34.564  21.244  24.604  1.00  0.00     0.144 C 
ATOM     12  C   UNL A   1      34.373  22.484  27.273  1.00  0.00     0.013 C 
ATOM     13  C   UNL A   1      33.785  20.550  25.725  1.00  0.00     0.190 C 
ATOM     14  C   UNL A   1      33.267  21.558  26.768  1.00  0.00     0.065 C 
BRANCH   9  15
ATOM     15  N   UNL A   1      36.751  21.650  25.563  1.00  0.00    -0.336 N 
ATOM     16  C   UNL A   1      37.348  20.579  24.785  1.00  0.00     0.331 C 
ATOM     17  H   UNL A   1      37.475  22.354  25.714  1.00  0.00     0.346 HD
ATOM     18  H   UNL A   1      36.398  21.189  26.400  1.00  0.00     0.346 HD
ENDBRANCH   9  15
BRANCH  13  19
ATOM     19  N   UNL A   1      32.701  19.690  25.191  1.00  0.00    -0.332 N 
ATOM     20  C   UNL A   1      32.453  19.765  23.746  1.00  0.00     0.262 C 
ATOM     21  C   UNL A   1      32.788  18.271  25.564  1.00  0.00     0.265 C 
ATOM     22  H   UNL A   1      31.905  20.119  25.665  1.00  0.00     0.348 HD
ATOM     23  C   UNL A   1      32.290  18.338  23.236  1.00  0.00     0.070 C 
ATOM     24  C   UNL A   1      32.965  17.459  24.280  1.00  0.00     0.047 C 
ATOM     25  C   UNL A   1      34.413  17.133  23.909  1.00  0.00     0.014 C 
ENDBRANCH  13  19
ENDBRANCH   6   9
ENDBRANCH   4   5
ENDBRANCH   3   4
ENDBRANCH   2   3
ENDBRANCH   1   2
BRANCH   1  26
ATOM     26  C   UNL A   1      32.295  28.201  26.927  1.00  0.00     0.021 C 
BRANCH  26  27
ATOM     27  C   UNL A   1      33.678  28.724  27.296  1.00  0.00     0.116 C 
BRANCH  27  28
ATOM     28  N   UNL A   1      33.647  30.097  27.772  1.00  0.00    -0.352 N 
ATOM     29  C   UNL A   1      34.618  30.810  28.431  1.00  0.00     0.251 C 
ATOM     30  H   UNL A   1      32.810  30.585  27.598  1.00  0.00     0.163 HD
ATOM     31  O   UNL A   1      34.367  31.913  28.896  1.00  0.00    -0.269 OA
BRANCH  29  32
ATOM     32  C   UNL A   1      35.965  30.224  28.601  1.00  0.00     0.039 A 
ATOM     33  C   UNL A   1      36.856  30.265  27.525  1.00  0.00     0.014 A 
ATOM     34  C   UNL A   1      36.350  29.643  29.813  1.00  0.00     0.014 A 
ATOM     35  C   UNL A   1      38.155  29.778  27.685  1.00  0.00     0.010 A 
ATOM     36  C   UNL A   1      37.668  29.232  29.994  1.00  0.00     0.010 A 
ATOM     37  C   UNL A   1      38.582  29.291  28.932  1.00  0.00    -0.014 A 
BRANCH  37  38
ATOM     38  C   UNL A   1      39.982  28.841  29.140  1.00  0.00     0.031 A 
ATOM     39  C   UNL A   1      40.999  29.777  29.733  1.00  0.00     0.074 A 
ATOM     40  C   UNL A   1      40.350  27.607  28.742  1.00  0.00     0.049 A 
ATOM     41  N   UNL A   1      42.275  29.579  29.948  1.00  0.00    -0.248 NA
ATOM     42  C   UNL A   1      40.527  31.118  30.114  1.00  0.00     0.031 C 
ATOM     43  C   UNL A   1      39.468  26.616  28.121  1.00  0.00     0.029 A 
ATOM     44  N   UNL A   1      41.568  26.977  28.800  1.00  0.00    -0.354 N 
ATOM     45  C   UNL A   1      42.759  30.769  30.475  1.00  0.00     0.074 A 
ATOM     46  C   UNL A   1      41.653  31.702  30.495  1.00  0.00     0.031 C 
ATOM     47  C   UNL A   1      40.166  25.494  27.884  1.00  0.00     0.029 A 
ATOM     48  C   UNL A   1      41.551  25.700  28.293  1.00  0.00     0.049 A 
ATOM     49  H   UNL A   1      42.377  27.400  29.169  1.00  0.00     0.167 HD
ATOM     50  C   UNL A   1      44.005  31.057  30.921  1.00  0.00     0.031 A 
ATOM     51  C   UNL A   1      42.542  24.798  28.165  1.00  0.00     0.031 A 
ATOM     52  C   UNL A   1      45.105  30.129  30.902  1.00  0.00     0.049 A 
ATOM     53  C   UNL A   1      43.924  25.152  28.638  1.00  0.00     0.074 A 
ATOM     54  C   UNL A   1      46.391  30.308  31.376  1.00  0.00     0.029 A 
ATOM     55  N   UNL A   1      45.047  28.848  30.375  1.00  0.00    -0.354 N 
ATOM     56  N   UNL A   1      44.348  26.260  29.197  1.00  0.00    -0.248 NA
ATOM     57  C   UNL A   1      44.963  24.125  28.472  1.00  0.00     0.031 C 
ATOM     58  C   UNL A   1      47.131  29.159  31.081  1.00  0.00     0.029 A 
ATOM     59  C   UNL A   1      46.285  28.237  30.485  1.00  0.00     0.049 A 
ATOM     60  H   UNL A   1      44.246  28.433  29.981  1.00  0.00     0.167 HD
ATOM     61  C   UNL A   1      45.693  26.052  29.477  1.00  0.00     0.074 A 
ATOM     62  C   UNL A   1      46.009  24.707  29.043  1.00  0.00     0.031 C 
ATOM     63  C   UNL A   1      46.586  26.898  30.046  1.00  0.00     0.031 A 
BRANCH  50  64
ATOM     64  C   UNL A   1      44.247  32.441  31.458  1.00  0.00    -0.014 A 
ATOM     65  C   UNL A   1      44.654  33.489  30.618  1.00  0.00     0.009 A 
ATOM     66  C   UNL A   1      44.031  32.710  32.819  1.00  0.00     0.009 A 
ATOM     67  C   UNL A   1      44.878  34.767  31.135  1.00  0.00     0.001 A 
ATOM     68  C   UNL A   1      44.225  33.995  33.327  1.00  0.00     0.001 A 
ATOM     69  C   UNL A   1      44.658  35.020  32.488  1.00  0.00     0.000 A 
ENDBRANCH  50  64
BRANCH  51  70
ATOM     70  C   UNL A   1      42.264  23.463  27.569  1.00  0.00    -0.014 A 
ATOM     71  C   UNL A   1      42.447  23.242  26.195  1.00  0.00     0.009 A 
ATOM     72  C   UNL A   1      41.801  22.405  28.369  1.00  0.00     0.009 A 
ATOM     73  C   UNL A   1      42.141  22.002  25.630  1.00  0.00     0.001 A 
ATOM     74  C   UNL A   1      41.529  21.157  27.806  1.00  0.00     0.001 A 
ATOM     75  C   UNL A   1      41.688  20.959  26.436  1.00  0.00     0.000 A 
ENDBRANCH  51  70
BRANCH  63  76
ATOM     76  C   UNL A   1      47.981  26.382  30.269  1.00  0.00    -0.014 A 
ATOM     77  C   UNL A   1      48.981  26.532  29.296  1.00  0.00     0.009 A 
ATOM     78  C   UNL A   1      48.306  25.768  31.489  1.00  0.00     0.009 A 
ATOM     79  C   UNL A   1      50.271  26.046  29.529  1.00  0.00     0.001 A 
ATOM     80  C   UNL A   1      49.603  25.315  31.732  1.00  0.00     0.001 A 
ATOM     81  C   UNL A   1      50.581  25.444  30.747  1.00  0.00     0.000 A 
ENDBRANCH  63  76
ENDBRANCH  37  38
ENDBRANCH  29  32
ENDBRANCH  27  28
ENDBRANCH  26  27
ENDBRANCH   1  26
TORSDOF 15
ENDMDL
