MODEL 1
REMARK VINA RESULT:     -10.3      0.000      0.000
REMARK SMILES O=C(NCCCCCCNC(=O)[C@H](CO)NC(=O)[C@H](CS)NC(=O)[C@H](Cc1ccccc1)NC(=O)c1ccc(F)cc1)c1ccc(-c2c3nc(c(-c4ccccc4)c4ccc([nH]4)c(-c4ccccc4)c4nc(c(-c5ccccc5)c5ccc2[nH]5)C=C4)C=C3)cc1
REMARK SMILES IDX 8 1 7 2 6 3 5 4 4 5 3 6 1 7 2 8 43 10 44 11 90 12 45 13
REMARK SMILES IDX 89 14 46 15 47 16 48 17 83 18 49 19 88 20 82 21 84 22 50 23
REMARK SMILES IDX 87 24 81 25 80 26 51 28 73 29 58 30 72 31 59 32 62 33 71 34
REMARK SMILES IDX 85 35 60 36 61 37 70 39 86 40 63 41 52 42 53 43 57 44 54 45
REMARK SMILES IDX 56 46 55 47 74 48 75 49 79 50 76 51 78 52 77 53 64 54 65 55
REMARK SMILES IDX 69 56 66 57 68 58 67 59 9 60 10 61 11 62 12 64 13 65 16 66
REMARK SMILES IDX 17 67 18 69 19 70 22 71 23 72 24 74 25 75 33 76 34 77 35 79
REMARK SMILES IDX 36 80 37 81 42 82 38 83 41 84 39 85 40 86 26 87 27 88 28 89
REMARK SMILES IDX 32 90 29 91 31 92 30 93 20 94 21 95 14 97 15 98
REMARK H PARENT 3 9 84 27 62 38 10 63 16 68 22 73 33 78 21 96 15 99
REMARK Flexibility Score: inf
ROOT
ATOM      1  C   UNL A   1      32.505  30.311  27.153  1.00  0.00     0.021 C 
ENDROOT
BRANCH   1   2
ATOM      2  C   UNL A   1      33.977  30.382  27.566  1.00  0.00     0.002 C 
BRANCH   2   3
ATOM      3  C   UNL A   1      34.500  31.784  27.890  1.00  0.00     0.002 C 
BRANCH   3   4
ATOM      4  C   UNL A   1      33.472  32.905  27.741  1.00  0.00     0.021 C 
BRANCH   4   5
ATOM      5  C   UNL A   1      34.009  34.292  28.059  1.00  0.00     0.116 C 
BRANCH   5   6
ATOM      6  N   UNL A   1      33.404  34.850  29.255  1.00  0.00    -0.352 N 
ATOM      7  O   UNL A   1      32.977  34.980  31.471  1.00  0.00    -0.269 OA
ATOM      8  C   UNL A   1      33.706  34.585  30.563  1.00  0.00     0.251 C 
ATOM      9  H   UNL A   1      32.684  35.505  29.105  1.00  0.00     0.163 HD
BRANCH   8  10
ATOM     10  C   UNL A   1      34.915  33.801  30.869  1.00  0.00     0.039 A 
ATOM     11  C   UNL A   1      36.145  34.160  30.308  1.00  0.00     0.014 A 
ATOM     12  C   UNL A   1      34.813  32.692  31.711  1.00  0.00     0.014 A 
ATOM     13  C   UNL A   1      37.251  33.343  30.494  1.00  0.00     0.010 A 
ATOM     14  C   UNL A   1      35.948  31.925  31.971  1.00  0.00     0.010 A 
ATOM     15  C   UNL A   1      37.170  32.237  31.352  1.00  0.00    -0.014 A 
BRANCH  15  16
ATOM     16  C   UNL A   1      38.396  31.472  31.674  1.00  0.00     0.031 A 
ATOM     17  C   UNL A   1      39.287  31.874  32.809  1.00  0.00     0.074 A 
ATOM     18  C   UNL A   1      38.711  30.418  30.898  1.00  0.00     0.049 A 
ATOM     19  N   UNL A   1      40.425  31.349  33.185  1.00  0.00    -0.248 NA
ATOM     20  C   UNL A   1      38.855  33.021  33.621  1.00  0.00     0.031 C 
ATOM     21  C   UNL A   1      37.918  29.944  29.760  1.00  0.00     0.029 A 
ATOM     22  N   UNL A   1      39.777  29.560  30.941  1.00  0.00    -0.354 N 
ATOM     23  C   UNL A   1      40.859  32.113  34.259  1.00  0.00     0.074 A 
ATOM     24  C   UNL A   1      39.874  33.155  34.459  1.00  0.00     0.031 C 
ATOM     25  C   UNL A   1      38.516  28.870  29.226  1.00  0.00     0.029 A 
ATOM     26  C   UNL A   1      39.766  28.627  29.935  1.00  0.00     0.049 A 
ATOM     27  H   UNL A   1      40.483  29.608  31.626  1.00  0.00     0.167 HD
ATOM     28  C   UNL A   1      41.980  31.958  35.005  1.00  0.00     0.031 A 
ATOM     29  C   UNL A   1      40.678  27.702  29.588  1.00  0.00     0.031 A 
ATOM     30  C   UNL A   1      42.961  30.929  34.782  1.00  0.00     0.049 A 
ATOM     31  C   UNL A   1      41.933  27.582  30.398  1.00  0.00     0.074 A 
ATOM     32  C   UNL A   1      44.108  30.659  35.506  1.00  0.00     0.029 A 
ATOM     33  N   UNL A   1      42.921  30.010  33.742  1.00  0.00    -0.354 N 
ATOM     34  N   UNL A   1      42.304  28.276  31.446  1.00  0.00    -0.248 NA
ATOM     35  C   UNL A   1      42.890  26.549  29.985  1.00  0.00     0.031 C 
ATOM     36  C   UNL A   1      44.798  29.625  34.864  1.00  0.00     0.029 A 
ATOM     37  C   UNL A   1      44.043  29.198  33.783  1.00  0.00     0.049 A 
ATOM     38  H   UNL A   1      42.201  29.944  33.074  1.00  0.00     0.167 HD
ATOM     39  C   UNL A   1      43.530  27.753  31.831  1.00  0.00     0.074 A 
ATOM     40  C   UNL A   1      43.830  26.673  30.912  1.00  0.00     0.031 C 
ATOM     41  C   UNL A   1      44.331  28.132  32.856  1.00  0.00     0.031 A 
BRANCH  28  42
ATOM     42  C   UNL A   1      42.226  32.962  36.101  1.00  0.00    -0.014 A 
ATOM     43  C   UNL A   1      42.939  34.150  35.869  1.00  0.00     0.009 A 
ATOM     44  C   UNL A   1      41.722  32.718  37.388  1.00  0.00     0.009 A 
ATOM     45  C   UNL A   1      43.182  35.046  36.913  1.00  0.00     0.001 A 
ATOM     46  C   UNL A   1      41.937  33.632  38.423  1.00  0.00     0.001 A 
ATOM     47  C   UNL A   1      42.679  34.787  38.188  1.00  0.00     0.000 A 
ENDBRANCH  28  42
BRANCH  29  48
ATOM     48  C   UNL A   1      40.431  26.851  28.396  1.00  0.00    -0.014 A 
ATOM     49  C   UNL A   1      41.005  27.166  27.156  1.00  0.00     0.009 A 
ATOM     50  C   UNL A   1      39.658  25.683  28.511  1.00  0.00     0.009 A 
ATOM     51  C   UNL A   1      40.799  26.334  26.054  1.00  0.00     0.001 A 
ATOM     52  C   UNL A   1      39.481  24.837  27.415  1.00  0.00     0.001 A 
ATOM     53  C   UNL A   1      40.046  25.167  26.186  1.00  0.00     0.000 A 
ENDBRANCH  29  48
BRANCH  41  54
ATOM     54  C   UNL A   1      45.599  27.351  33.063  1.00  0.00    -0.014 A 
ATOM     55  C   UNL A   1      46.814  27.761  32.493  1.00  0.00     0.009 A 
ATOM     56  C   UNL A   1      45.583  26.217  33.891  1.00  0.00     0.009 A 
ATOM     57  C   UNL A   1      47.983  27.037  32.731  1.00  0.00     0.001 A 
ATOM     58  C   UNL A   1      46.760  25.514  34.152  1.00  0.00     0.001 A 
ATOM     59  C   UNL A   1      47.957  25.920  33.565  1.00  0.00     0.000 A 
ENDBRANCH  41  54
ENDBRANCH  15  16
ENDBRANCH   8  10
ENDBRANCH   5   6
ENDBRANCH   4   5
ENDBRANCH   3   4
ENDBRANCH   2   3
ENDBRANCH   1   2
BRANCH   1  60
ATOM     60  C   UNL A   1      32.262  30.171  25.657  1.00  0.00     0.116 C 
BRANCH  60  61
ATOM     61  N   UNL A   1      31.023  30.801  25.258  1.00  0.00    -0.354 N 
ATOM     62  C   UNL A   1      30.190  30.508  24.230  1.00  0.00     0.244 C 
ATOM     63  H   UNL A   1      30.741  31.559  25.819  1.00  0.00     0.163 HD
ATOM     64  O   UNL A   1      29.263  31.292  24.007  1.00  0.00    -0.273 OA
BRANCH  62  65
ATOM     65  C   UNL A   1      30.425  29.315  23.291  1.00  0.00     0.197 C 
BRANCH  65  66
ATOM     66  N   UNL A   1      29.565  28.180  23.632  1.00  0.00    -0.340 N 
ATOM     67  C   UNL A   1      29.768  26.839  23.577  1.00  0.00     0.244 C 
ATOM     68  H   UNL A   1      28.675  28.437  23.963  1.00  0.00     0.164 HD
ATOM     69  O   UNL A   1      28.734  26.163  23.569  1.00  0.00    -0.273 OA
BRANCH  67  70
ATOM     70  C   UNL A   1      31.167  26.160  23.688  1.00  0.00     0.181 C 
BRANCH  70  71
ATOM     71  N   UNL A   1      31.755  26.168  22.337  1.00  0.00    -0.342 N 
ATOM     72  C   UNL A   1      32.581  25.279  21.713  1.00  0.00     0.243 C 
ATOM     73  H   UNL A   1      31.512  26.949  21.791  1.00  0.00     0.164 HD
ATOM     74  O   UNL A   1      32.874  25.482  20.532  1.00  0.00    -0.273 OA
BRANCH  72  75
ATOM     75  C   UNL A   1      33.167  24.092  22.487  1.00  0.00     0.176 C 
BRANCH  75  76
ATOM     76  N   UNL A   1      32.498  22.872  22.025  1.00  0.00    -0.340 N 
ATOM     77  C   UNL A   1      32.309  21.678  22.674  1.00  0.00     0.251 C 
ATOM     78  H   UNL A   1      32.130  22.917  21.113  1.00  0.00     0.164 HD
ATOM     79  O   UNL A   1      31.798  20.724  22.098  1.00  0.00    -0.269 OA
BRANCH  77  80
ATOM     80  C   UNL A   1      32.752  21.521  24.078  1.00  0.00     0.040 A 
ATOM     81  C   UNL A   1      32.205  22.356  25.058  1.00  0.00     0.017 A 
ATOM     82  C   UNL A   1      33.726  20.576  24.425  1.00  0.00     0.017 A 
ATOM     83  C   UNL A   1      32.572  22.184  26.394  1.00  0.00     0.040 A 
ATOM     84  C   UNL A   1      34.063  20.381  25.765  1.00  0.00     0.040 A 
ATOM     85  C   UNL A   1      33.478  21.184  26.738  1.00  0.00     0.123 A 
ATOM     86  F   UNL A   1      33.801  20.999  28.023  1.00  0.00    -0.207 F 
ENDBRANCH  77  80
ENDBRANCH  75  76
BRANCH  75  87
ATOM     87  C   UNL A   1      34.694  24.055  22.270  1.00  0.00     0.070 C 
BRANCH  87  88
ATOM     88  C   UNL A   1      35.488  23.609  23.484  1.00  0.00    -0.045 A 
ATOM     89  C   UNL A   1      36.490  22.639  23.346  1.00  0.00     0.004 A 
ATOM     90  C   UNL A   1      35.296  24.187  24.750  1.00  0.00     0.004 A 
ATOM     91  C   UNL A   1      37.236  22.223  24.451  1.00  0.00     0.000 A 
ATOM     92  C   UNL A   1      36.025  23.755  25.857  1.00  0.00     0.000 A 
ATOM     93  C   UNL A   1      36.993  22.769  25.709  1.00  0.00     0.000 A 
ENDBRANCH  87  88
ENDBRANCH  75  87
ENDBRANCH  72  75
ENDBRANCH  70  71
BRANCH  70  94
ATOM     94  C   UNL A   1      32.129  26.735  24.733  1.00  0.00     0.101 C 
BRANCH  94  95
ATOM     95  S   UNL A   1      33.679  27.489  24.140  1.00  0.00    -0.177 SA
ATOM     96  H   UNL A   1      33.629  28.836  24.326  1.00  0.00     0.102 HD
ENDBRANCH  94  95
ENDBRANCH  70  94
ENDBRANCH  67  70
ENDBRANCH  65  66
BRANCH  65  97
ATOM     97  C   UNL A   1      30.361  29.653  21.789  1.00  0.00     0.191 C 
BRANCH  97  98
ATOM     98  O   UNL A   1      29.079  30.144  21.384  1.00  0.00    -0.394 OA
ATOM     99  H   UNL A   1      28.934  29.934  20.448  1.00  0.00     0.210 HD
ENDBRANCH  97  98
ENDBRANCH  65  97
ENDBRANCH  62  65
ENDBRANCH  60  61
ENDBRANCH   1  60
TORSDOF 25
ENDMDL
MODEL 2
REMARK VINA RESULT:      -9.7      0.637      5.474
REMARK SMILES O=C(NCCCCCCNC(=O)[C@H](CO)NC(=O)[C@H](CS)NC(=O)[C@H](Cc1ccccc1)NC(=O)c1ccc(F)cc1)c1ccc(-c2c3nc(c(-c4ccccc4)c4ccc([nH]4)c(-c4ccccc4)c4nc(c(-c5ccccc5)c5ccc2[nH]5)C=C4)C=C3)cc1
REMARK SMILES IDX 8 1 7 2 6 3 5 4 4 5 3 6 1 7 2 8 43 10 44 11 90 12 45 13
REMARK SMILES IDX 89 14 46 15 47 16 48 17 83 18 49 19 88 20 82 21 84 22 50 23
REMARK SMILES IDX 87 24 81 25 80 26 51 28 73 29 58 30 72 31 59 32 62 33 71 34
REMARK SMILES IDX 85 35 60 36 61 37 70 39 86 40 63 41 52 42 53 43 57 44 54 45
REMARK SMILES IDX 56 46 55 47 74 48 75 49 79 50 76 51 78 52 77 53 64 54 65 55
REMARK SMILES IDX 69 56 66 57 68 58 67 59 9 60 10 61 11 62 12 64 13 65 16 66
REMARK SMILES IDX 17 67 18 69 19 70 22 71 23 72 24 74 25 75 33 76 34 77 35 79
REMARK SMILES IDX 36 80 37 81 42 82 38 83 41 84 39 85 40 86 26 87 27 88 28 89
REMARK SMILES IDX 32 90 29 91 31 92 30 93 20 94 21 95 14 97 15 98
REMARK H PARENT 3 9 84 27 62 38 10 63 16 68 22 73 33 78 21 96 15 99
REMARK Flexibility Score: inf
ROOT
ATOM      1  C   UNL A   1      32.330  30.591  27.105  1.00  0.00     0.021 C 
ENDROOT
BRANCH   1   2
ATOM      2  C   UNL A   1      33.809  30.590  27.496  1.00  0.00     0.002 C 
BRANCH   2   3
ATOM      3  C   UNL A   1      34.356  31.930  27.995  1.00  0.00     0.002 C 
BRANCH   3   4
ATOM      4  C   UNL A   1      33.386  33.105  27.878  1.00  0.00     0.021 C 
BRANCH   4   5
ATOM      5  C   UNL A   1      33.931  34.421  28.410  1.00  0.00     0.116 C 
BRANCH   5   6
ATOM      6  N   UNL A   1      33.269  34.831  29.636  1.00  0.00    -0.352 N 
ATOM      7  O   UNL A   1      32.819  34.759  31.849  1.00  0.00    -0.269 OA
ATOM      8  C   UNL A   1      33.588  34.502  30.925  1.00  0.00     0.251 C 
ATOM      9  H   UNL A   1      32.490  35.423  29.524  1.00  0.00     0.163 HD
BRANCH   8  10
ATOM     10  C   UNL A   1      34.865  33.818  31.189  1.00  0.00     0.039 A 
ATOM     11  C   UNL A   1      34.884  32.622  31.915  1.00  0.00     0.014 A 
ATOM     12  C   UNL A   1      36.051  34.385  30.720  1.00  0.00     0.014 A 
ATOM     13  C   UNL A   1      36.098  32.053  32.272  1.00  0.00     0.010 A 
ATOM     14  C   UNL A   1      37.266  33.761  31.002  1.00  0.00     0.010 A 
ATOM     15  C   UNL A   1      37.297  32.599  31.792  1.00  0.00    -0.014 A 
BRANCH  15  16
ATOM     16  C   UNL A   1      38.573  31.890  32.040  1.00  0.00     0.031 A 
ATOM     17  C   UNL A   1      39.017  30.760  31.162  1.00  0.00     0.074 A 
ATOM     18  C   UNL A   1      39.314  32.264  33.100  1.00  0.00     0.049 A 
ATOM     19  N   UNL A   1      40.074  29.997  31.278  1.00  0.00    -0.248 NA
ATOM     20  C   UNL A   1      38.160  30.433  30.013  1.00  0.00     0.031 C 
ATOM     21  C   UNL A   1      38.971  33.347  34.027  1.00  0.00     0.029 A 
ATOM     22  N   UNL A   1      40.501  31.779  33.580  1.00  0.00    -0.354 N 
ATOM     23  C   UNL A   1      39.999  29.085  30.235  1.00  0.00     0.074 A 
ATOM     24  C   UNL A   1      38.779  29.373  29.511  1.00  0.00     0.031 C 
ATOM     25  C   UNL A   1      39.935  33.454  34.951  1.00  0.00     0.029 A 
ATOM     26  C   UNL A   1      40.922  32.406  34.726  1.00  0.00     0.049 A 
ATOM     27  H   UNL A   1      41.004  31.052  33.146  1.00  0.00     0.167 HD
ATOM     28  C   UNL A   1      40.869  28.096  29.916  1.00  0.00     0.031 A 
ATOM     29  C   UNL A   1      41.962  32.143  35.536  1.00  0.00     0.031 A 
ATOM     30  C   UNL A   1      42.069  27.809  30.657  1.00  0.00     0.049 A 
ATOM     31  C   UNL A   1      42.883  31.013  35.190  1.00  0.00     0.074 A 
ATOM     32  C   UNL A   1      43.040  26.858  30.393  1.00  0.00     0.029 A 
ATOM     33  N   UNL A   1      42.454  28.458  31.823  1.00  0.00    -0.354 N 
ATOM     34  N   UNL A   1      42.831  30.192  34.169  1.00  0.00    -0.248 NA
ATOM     35  C   UNL A   1      44.009  30.776  36.101  1.00  0.00     0.031 C 
ATOM     36  C   UNL A   1      43.971  26.883  31.436  1.00  0.00     0.029 A 
ATOM     37  C   UNL A   1      43.626  27.901  32.310  1.00  0.00     0.049 A 
ATOM     38  H   UNL A   1      41.966  29.204  32.241  1.00  0.00     0.167 HD
ATOM     39  C   UNL A   1      43.927  29.353  34.302  1.00  0.00     0.074 A 
ATOM     40  C   UNL A   1      44.633  29.775  35.495  1.00  0.00     0.031 C 
ATOM     41  C   UNL A   1      44.313  28.328  33.504  1.00  0.00     0.031 A 
BRANCH  28  42
ATOM     42  C   UNL A   1      40.522  27.221  28.740  1.00  0.00    -0.014 A 
ATOM     43  C   UNL A   1      39.685  26.101  28.875  1.00  0.00     0.009 A 
ATOM     44  C   UNL A   1      41.033  27.533  27.471  1.00  0.00     0.009 A 
ATOM     45  C   UNL A   1      39.408  25.287  27.773  1.00  0.00     0.001 A 
ATOM     46  C   UNL A   1      40.728  26.737  26.364  1.00  0.00     0.001 A 
ATOM     47  C   UNL A   1      39.928  25.607  26.519  1.00  0.00     0.000 A 
ENDBRANCH  28  42
BRANCH  29  48
ATOM     48  C   UNL A   1      42.148  32.957  36.765  1.00  0.00    -0.014 A 
ATOM     49  C   UNL A   1      43.014  34.058  36.774  1.00  0.00     0.009 A 
ATOM     50  C   UNL A   1      41.410  32.661  37.924  1.00  0.00     0.009 A 
ATOM     51  C   UNL A   1      43.148  34.839  37.924  1.00  0.00     0.001 A 
ATOM     52  C   UNL A   1      41.521  33.464  39.061  1.00  0.00     0.001 A 
ATOM     53  C   UNL A   1      42.396  34.548  39.062  1.00  0.00     0.000 A 
ENDBRANCH  29  48
BRANCH  41  54
ATOM     54  C   UNL A   1      45.580  27.608  33.875  1.00  0.00    -0.014 A 
ATOM     55  C   UNL A   1      46.833  28.053  33.429  1.00  0.00     0.009 A 
ATOM     56  C   UNL A   1      45.517  26.499  34.734  1.00  0.00     0.009 A 
ATOM     57  C   UNL A   1      47.996  27.387  33.818  1.00  0.00     0.001 A 
ATOM     58  C   UNL A   1      46.684  25.855  35.146  1.00  0.00     0.001 A 
ATOM     59  C   UNL A   1      47.922  26.294  34.681  1.00  0.00     0.000 A 
ENDBRANCH  41  54
ENDBRANCH  15  16
ENDBRANCH   8  10
ENDBRANCH   5   6
ENDBRANCH   4   5
ENDBRANCH   3   4
ENDBRANCH   2   3
ENDBRANCH   1   2
BRANCH   1  60
ATOM     60  C   UNL A   1      32.052  30.296  25.637  1.00  0.00     0.116 C 
BRANCH  60  61
ATOM     61  N   UNL A   1      30.774  30.830  25.220  1.00  0.00    -0.354 N 
ATOM     62  C   UNL A   1      29.999  30.500  24.160  1.00  0.00     0.244 C 
ATOM     63  H   UNL A   1      30.413  31.544  25.795  1.00  0.00     0.163 HD
ATOM     64  O   UNL A   1      29.013  31.208  23.932  1.00  0.00    -0.273 OA
BRANCH  62  65
ATOM     65  C   UNL A   1      30.360  29.362  23.194  1.00  0.00     0.197 C 
BRANCH  65  66
ATOM     66  N   UNL A   1      30.031  28.050  23.754  1.00  0.00    -0.340 N 
ATOM     67  C   UNL A   1      30.672  26.855  23.704  1.00  0.00     0.244 C 
ATOM     68  H   UNL A   1      29.188  28.032  24.261  1.00  0.00     0.164 HD
ATOM     69  O   UNL A   1      29.956  25.877  23.946  1.00  0.00    -0.273 OA
BRANCH  67  70
ATOM     70  C   UNL A   1      32.213  26.695  23.534  1.00  0.00     0.181 C 
BRANCH  70  71
ATOM     71  N   UNL A   1      32.455  26.370  22.118  1.00  0.00    -0.342 N 
ATOM     72  C   UNL A   1      32.852  25.210  21.518  1.00  0.00     0.243 C 
ATOM     73  H   UNL A   1      32.307  27.119  21.496  1.00  0.00     0.164 HD
ATOM     74  O   UNL A   1      32.908  25.178  20.286  1.00  0.00    -0.273 OA
BRANCH  72  75
ATOM     75  C   UNL A   1      33.266  24.002  22.367  1.00  0.00     0.176 C 
BRANCH  75  76
ATOM     76  N   UNL A   1      32.471  22.848  21.935  1.00  0.00    -0.340 N 
ATOM     77  C   UNL A   1      32.189  21.682  22.602  1.00  0.00     0.251 C 
ATOM     78  H   UNL A   1      32.082  22.922  21.034  1.00  0.00     0.164 HD
ATOM     79  O   UNL A   1      31.574  20.777  22.049  1.00  0.00    -0.269 OA
BRANCH  77  80
ATOM     80  C   UNL A   1      32.657  21.494  23.993  1.00  0.00     0.040 A 
ATOM     81  C   UNL A   1      31.976  22.140  25.030  1.00  0.00     0.017 A 
ATOM     82  C   UNL A   1      33.781  20.707  24.276  1.00  0.00     0.017 A 
ATOM     83  C   UNL A   1      32.370  21.929  26.352  1.00  0.00     0.040 A 
ATOM     84  C   UNL A   1      34.150  20.467  25.600  1.00  0.00     0.040 A 
ATOM     85  C   UNL A   1      33.437  21.077  26.626  1.00  0.00     0.123 A 
ATOM     86  F   UNL A   1      33.791  20.850  27.897  1.00  0.00    -0.207 F 
ENDBRANCH  77  80
ENDBRANCH  75  76
BRANCH  75  87
ATOM     87  C   UNL A   1      34.784  23.775  22.210  1.00  0.00     0.070 C 
BRANCH  87  88
ATOM     88  C   UNL A   1      35.537  23.654  23.521  1.00  0.00    -0.045 A 
ATOM     89  C   UNL A   1      35.002  24.214  24.689  1.00  0.00     0.004 A 
ATOM     90  C   UNL A   1      36.740  22.934  23.623  1.00  0.00     0.004 A 
ATOM     91  C   UNL A   1      35.678  24.105  25.906  1.00  0.00     0.000 A 
ATOM     92  C   UNL A   1      37.426  22.844  24.834  1.00  0.00     0.000 A 
ATOM     93  C   UNL A   1      36.897  23.434  25.975  1.00  0.00     0.000 A 
ENDBRANCH  87  88
ENDBRANCH  75  87
ENDBRANCH  72  75
ENDBRANCH  70  71
BRANCH  70  94
ATOM     94  C   UNL A   1      33.083  27.864  24.009  1.00  0.00     0.101 C 
BRANCH  94  95
ATOM     95  S   UNL A   1      34.092  28.733  22.766  1.00  0.00    -0.177 SA
ATOM     96  H   UNL A   1      35.046  29.473  23.393  1.00  0.00     0.102 HD
ENDBRANCH  94  95
ENDBRANCH  70  94
ENDBRANCH  67  70
ENDBRANCH  65  66
BRANCH  65  97
ATOM     97  C   UNL A   1      29.813  29.529  21.763  1.00  0.00     0.191 C 
BRANCH  97  98
ATOM     98  O   UNL A   1      29.890  30.879  21.294  1.00  0.00    -0.394 OA
ATOM     99  H   UNL A   1      30.246  31.446  21.997  1.00  0.00     0.210 HD
ENDBRANCH  97  98
ENDBRANCH  65  97
ENDBRANCH  62  65
ENDBRANCH  60  61
ENDBRANCH   1  60
TORSDOF 25
ENDMDL
MODEL 3
REMARK VINA RESULT:      -9.2      3.693      4.919
REMARK SMILES O=C(NCCCCCCNC(=O)[C@H](CO)NC(=O)[C@H](CS)NC(=O)[C@H](Cc1ccccc1)NC(=O)c1ccc(F)cc1)c1ccc(-c2c3nc(c(-c4ccccc4)c4ccc([nH]4)c(-c4ccccc4)c4nc(c(-c5ccccc5)c5ccc2[nH]5)C=C4)C=C3)cc1
REMARK SMILES IDX 8 1 7 2 6 3 5 4 4 5 3 6 1 7 2 8 43 10 44 11 90 12 45 13
REMARK SMILES IDX 89 14 46 15 47 16 48 17 83 18 49 19 88 20 82 21 84 22 50 23
REMARK SMILES IDX 87 24 81 25 80 26 51 28 73 29 58 30 72 31 59 32 62 33 71 34
REMARK SMILES IDX 85 35 60 36 61 37 70 39 86 40 63 41 52 42 53 43 57 44 54 45
REMARK SMILES IDX 56 46 55 47 74 48 75 49 79 50 76 51 78 52 77 53 64 54 65 55
REMARK SMILES IDX 69 56 66 57 68 58 67 59 9 60 10 61 11 62 12 64 13 65 16 66
REMARK SMILES IDX 17 67 18 69 19 70 22 71 23 72 24 74 25 75 33 76 34 77 35 79
REMARK SMILES IDX 36 80 37 81 42 82 38 83 41 84 39 85 40 86 26 87 27 88 28 89
REMARK SMILES IDX 32 90 29 91 31 92 30 93 20 94 21 95 14 97 15 98
REMARK H PARENT 3 9 84 27 62 38 10 63 16 68 22 73 33 78 21 96 15 99
REMARK Flexibility Score: inf
ROOT
ATOM      1  C   UNL A   1      31.654  30.751  26.209  1.00  0.00     0.021 C 
ENDROOT
BRANCH   1   2
ATOM      2  C   UNL A   1      33.123  30.377  26.418  1.00  0.00     0.002 C 
BRANCH   2   3
ATOM      3  C   UNL A   1      33.850  31.163  27.513  1.00  0.00     0.002 C 
BRANCH   3   4
ATOM      4  C   UNL A   1      35.304  30.753  27.743  1.00  0.00     0.021 C 
BRANCH   4   5
ATOM      5  C   UNL A   1      35.537  29.967  29.024  1.00  0.00     0.116 C 
BRANCH   5   6
ATOM      6  N   UNL A   1      35.597  30.830  30.191  1.00  0.00    -0.352 N 
ATOM      7  O   UNL A   1      36.510  31.665  32.081  1.00  0.00    -0.269 OA
ATOM      8  C   UNL A   1      36.661  31.069  31.017  1.00  0.00     0.251 C 
ATOM      9  H   UNL A   1      34.764  31.305  30.414  1.00  0.00     0.163 HD
BRANCH   8  10
ATOM     10  C   UNL A   1      37.994  30.583  30.619  1.00  0.00     0.039 A 
ATOM     11  C   UNL A   1      38.490  30.863  29.342  1.00  0.00     0.014 A 
ATOM     12  C   UNL A   1      38.743  29.832  31.525  1.00  0.00     0.014 A 
ATOM     13  C   UNL A   1      39.686  30.293  28.928  1.00  0.00     0.010 A 
ATOM     14  C   UNL A   1      39.988  29.337  31.139  1.00  0.00     0.010 A 
ATOM     15  C   UNL A   1      40.460  29.553  29.833  1.00  0.00    -0.014 A 
BRANCH  15  16
ATOM     16  C   UNL A   1      41.809  29.093  29.433  1.00  0.00     0.031 A 
ATOM     17  C   UNL A   1      42.983  30.023  29.443  1.00  0.00     0.074 A 
ATOM     18  C   UNL A   1      41.952  27.817  29.025  1.00  0.00     0.049 A 
ATOM     19  N   UNL A   1      44.215  29.795  29.066  1.00  0.00    -0.248 NA
ATOM     20  C   UNL A   1      42.743  31.391  29.927  1.00  0.00     0.031 C 
ATOM     21  C   UNL A   1      40.873  26.826  28.966  1.00  0.00     0.029 A 
ATOM     22  N   UNL A   1      43.053  27.137  28.580  1.00  0.00    -0.354 N 
ATOM     23  C   UNL A   1      44.893  30.994  29.242  1.00  0.00     0.074 A 
ATOM     24  C   UNL A   1      43.929  31.954  29.736  1.00  0.00     0.031 C 
ATOM     25  C   UNL A   1      41.371  25.662  28.530  1.00  0.00     0.029 A 
ATOM     26  C   UNL A   1      42.780  25.843  28.209  1.00  0.00     0.049 A 
ATOM     27  H   UNL A   1      43.952  27.535  28.530  1.00  0.00     0.167 HD
ATOM     28  C   UNL A   1      46.200  31.264  29.008  1.00  0.00     0.031 A 
ATOM     29  C   UNL A   1      43.563  24.914  27.634  1.00  0.00     0.031 A 
ATOM     30  C   UNL A   1      47.143  30.303  28.497  1.00  0.00     0.049 A 
ATOM     31  C   UNL A   1      44.993  25.252  27.339  1.00  0.00     0.074 A 
ATOM     32  C   UNL A   1      48.498  30.463  28.266  1.00  0.00     0.029 A 
ATOM     33  N   UNL A   1      46.825  29.005  28.120  1.00  0.00    -0.354 N 
ATOM     34  N   UNL A   1      45.636  26.373  27.561  1.00  0.00    -0.248 NA
ATOM     35  C   UNL A   1      45.807  24.199  26.721  1.00  0.00     0.031 C 
ATOM     36  C   UNL A   1      48.983  29.288  27.682  1.00  0.00     0.029 A 
ATOM     37  C   UNL A   1      47.949  28.368  27.621  1.00  0.00     0.049 A 
ATOM     38  H   UNL A   1      45.932  28.598  28.197  1.00  0.00     0.167 HD
ATOM     39  C   UNL A   1      46.935  26.155  27.129  1.00  0.00     0.074 A 
ATOM     40  C   UNL A   1      46.992  24.790  26.646  1.00  0.00     0.031 C 
ATOM     41  C   UNL A   1      47.987  27.010  27.136  1.00  0.00     0.031 A 
BRANCH  28  42
ATOM     42  C   UNL A   1      46.671  32.673  29.254  1.00  0.00    -0.014 A 
ATOM     43  C   UNL A   1      47.072  33.106  30.529  1.00  0.00     0.009 A 
ATOM     44  C   UNL A   1      46.726  33.581  28.185  1.00  0.00     0.009 A 
ATOM     45  C   UNL A   1      47.471  34.429  30.735  1.00  0.00     0.001 A 
ATOM     46  C   UNL A   1      47.158  34.894  28.387  1.00  0.00     0.001 A 
ATOM     47  C   UNL A   1      47.516  35.321  29.664  1.00  0.00     0.000 A 
ENDBRANCH  28  42
BRANCH  29  48
ATOM     48  C   UNL A   1      42.981  23.595  27.278  1.00  0.00    -0.014 A 
ATOM     49  C   UNL A   1      42.840  22.587  28.242  1.00  0.00     0.009 A 
ATOM     50  C   UNL A   1      42.512  23.360  25.974  1.00  0.00     0.009 A 
ATOM     51  C   UNL A   1      42.253  21.366  27.903  1.00  0.00     0.001 A 
ATOM     52  C   UNL A   1      41.896  22.151  25.647  1.00  0.00     0.001 A 
ATOM     53  C   UNL A   1      41.773  21.153  26.610  1.00  0.00     0.000 A 
ENDBRANCH  29  48
BRANCH  41  54
ATOM     54  C   UNL A   1      49.304  26.484  26.636  1.00  0.00    -0.014 A 
ATOM     55  C   UNL A   1      49.758  26.759  25.337  1.00  0.00     0.009 A 
ATOM     56  C   UNL A   1      50.127  25.749  27.504  1.00  0.00     0.009 A 
ATOM     57  C   UNL A   1      51.000  26.289  24.910  1.00  0.00     0.001 A 
ATOM     58  C   UNL A   1      51.383  25.308  27.084  1.00  0.00     0.001 A 
ATOM     59  C   UNL A   1      51.815  25.571  25.786  1.00  0.00     0.000 A 
ENDBRANCH  41  54
ENDBRANCH  15  16
ENDBRANCH   8  10
ENDBRANCH   5   6
ENDBRANCH   4   5
ENDBRANCH   3   4
ENDBRANCH   2   3
ENDBRANCH   1   2
BRANCH   1  60
ATOM     60  C   UNL A   1      30.932  29.948  25.136  1.00  0.00     0.116 C 
BRANCH  60  61
ATOM     61  N   UNL A   1      31.815  29.608  24.043  1.00  0.00    -0.354 N 
ATOM     62  C   UNL A   1      31.532  29.070  22.832  1.00  0.00     0.244 C 
ATOM     63  H   UNL A   1      32.768  29.796  24.203  1.00  0.00     0.163 HD
ATOM     64  O   UNL A   1      32.484  28.732  22.122  1.00  0.00    -0.273 OA
BRANCH  62  65
ATOM     65  C   UNL A   1      30.096  28.776  22.374  1.00  0.00     0.197 C 
BRANCH  65  66
ATOM     66  N   UNL A   1      29.343  28.037  23.390  1.00  0.00    -0.340 N 
ATOM     67  C   UNL A   1      29.444  26.764  23.847  1.00  0.00     0.244 C 
ATOM     68  H   UNL A   1      28.632  28.563  23.821  1.00  0.00     0.164 HD
ATOM     69  O   UNL A   1      28.434  26.342  24.421  1.00  0.00    -0.273 OA
BRANCH  67  70
ATOM     70  C   UNL A   1      30.759  25.929  23.829  1.00  0.00     0.181 C 
BRANCH  70  71
ATOM     71  N   UNL A   1      31.287  25.990  22.455  1.00  0.00    -0.342 N 
ATOM     72  C   UNL A   1      32.171  25.187  21.795  1.00  0.00     0.243 C 
ATOM     73  H   UNL A   1      30.943  26.741  21.919  1.00  0.00     0.164 HD
ATOM     74  O   UNL A   1      32.392  25.415  20.604  1.00  0.00    -0.273 OA
BRANCH  72  75
ATOM     75  C   UNL A   1      32.906  24.068  22.544  1.00  0.00     0.176 C 
BRANCH  75  76
ATOM     76  N   UNL A   1      32.338  22.786  22.116  1.00  0.00    -0.340 N 
ATOM     77  C   UNL A   1      32.280  21.589  22.784  1.00  0.00     0.251 C 
ATOM     78  H   UNL A   1      31.940  22.784  21.215  1.00  0.00     0.164 HD
ATOM     79  O   UNL A   1      31.842  20.584  22.233  1.00  0.00    -0.269 OA
BRANCH  77  80
ATOM     80  C   UNL A   1      32.778  21.492  24.174  1.00  0.00     0.040 A 
ATOM     81  C   UNL A   1      32.184  22.284  25.162  1.00  0.00     0.017 A 
ATOM     82  C   UNL A   1      33.846  20.647  24.500  1.00  0.00     0.017 A 
ATOM     83  C   UNL A   1      32.606  22.165  26.488  1.00  0.00     0.040 A 
ATOM     84  C   UNL A   1      34.240  20.501  25.831  1.00  0.00     0.040 A 
ATOM     85  C   UNL A   1      33.612  21.258  26.813  1.00  0.00     0.123 A 
ATOM     86  F   UNL A   1      33.989  21.121  28.090  1.00  0.00    -0.207 F 
ENDBRANCH  77  80
ENDBRANCH  75  76
BRANCH  75  87
ATOM     87  C   UNL A   1      34.417  24.178  22.255  1.00  0.00     0.070 C 
BRANCH  87  88
ATOM     88  C   UNL A   1      35.307  23.801  23.425  1.00  0.00    -0.045 A 
ATOM     89  C   UNL A   1      36.372  22.909  23.234  1.00  0.00     0.004 A 
ATOM     90  C   UNL A   1      35.139  24.370  24.699  1.00  0.00     0.004 A 
ATOM     91  C   UNL A   1      37.205  22.558  24.298  1.00  0.00     0.000 A 
ATOM     92  C   UNL A   1      35.958  24.001  25.766  1.00  0.00     0.000 A 
ATOM     93  C   UNL A   1      36.989  23.091  25.566  1.00  0.00     0.000 A 
ENDBRANCH  87  88
ENDBRANCH  75  87
ENDBRANCH  72  75
ENDBRANCH  70  71
BRANCH  70  94
ATOM     94  C   UNL A   1      31.824  26.300  24.867  1.00  0.00     0.101 C 
BRANCH  94  95
ATOM     95  S   UNL A   1      31.487  25.901  26.613  1.00  0.00    -0.177 SA
ATOM     96  H   UNL A   1      31.807  24.600  26.851  1.00  0.00     0.102 HD
ENDBRANCH  94  95
ENDBRANCH  70  94
ENDBRANCH  67  70
ENDBRANCH  65  66
BRANCH  65  97
ATOM     97  C   UNL A   1      29.317  30.002  21.860  1.00  0.00     0.191 C 
BRANCH  97  98
ATOM     98  O   UNL A   1      30.112  31.192  21.830  1.00  0.00    -0.394 OA
ATOM     99  H   UNL A   1      31.049  30.952  21.743  1.00  0.00     0.210 HD
ENDBRANCH  97  98
ENDBRANCH  65  97
ENDBRANCH  62  65
ENDBRANCH  60  61
ENDBRANCH   1  60
TORSDOF 25
ENDMDL
