MODEL 1
REMARK VINA RESULT:     -12.8      0.000      0.000
REMARK SMILES Cc1ccccc1S(=O)(=O)Nc1ccc(N2CCOCC2)cc1C(=O)NCCCCCCNC(=O)c1ccc(-c2c3nc(c(-c4ccccc4)c4ccc([nH]4)c(-c4ccccc4)c4nc(c(-c5ccccc5)c5ccc2[nH]5)C=C4)C=C3)cc1
REMARK SMILES IDX 29 1 28 2 27 3 26 4 24 5 25 6 23 8 12 9 13 10 14 11 22 12
REMARK SMILES IDX 15 13 11 14 8 16 9 17 10 18 7 19 1 20 2 21 3 22 4 23 6 24
REMARK SMILES IDX 5 25 16 26 17 27 21 28 18 29 20 30 19 31 30 32 31 33 32 34
REMARK SMILES IDX 33 35 34 36 35 38 36 39 37 40 83 41 38 42 82 43 39 44 40 45
REMARK SMILES IDX 41 46 76 47 42 48 81 49 75 50 77 51 43 52 80 53 74 54 73 55
REMARK SMILES IDX 44 57 66 58 51 59 65 60 52 61 55 62 64 63 78 64 53 65 54 66
REMARK SMILES IDX 63 68 79 69 56 70 45 71 46 72 50 73 47 74 49 75 48 76 67 77
REMARK SMILES IDX 68 78 72 79 69 80 71 81 70 82 57 83 58 84 62 85 59 86 61 87
REMARK SMILES IDX 60 88
REMARK H PARENT 26 7 11 15 33 37 77 56 55 67
REMARK Flexibility Score: inf
ROOT
ATOM      1  C   UNL A   1      32.359  28.304  25.847  1.00  0.00     0.002 C 
ENDROOT
BRANCH   1   2
ATOM      2  C   UNL A   1      33.598  27.648  25.233  1.00  0.00     0.021 C 
BRANCH   2   3
ATOM      3  C   UNL A   1      33.786  27.738  23.722  1.00  0.00     0.116 C 
BRANCH   3   4
ATOM      4  N   UNL A   1      33.577  26.509  22.983  1.00  0.00    -0.352 N 
ATOM      5  C   UNL A   1      32.411  25.982  22.471  1.00  0.00     0.253 C 
ATOM      6  O   UNL A   1      32.475  25.005  21.727  1.00  0.00    -0.269 OA
ATOM      7  H   UNL A   1      34.386  25.972  22.824  1.00  0.00     0.163 HD
BRANCH   5   8
ATOM      8  C   UNL A   1      31.091  26.563  22.828  1.00  0.00     0.066 A 
ATOM      9  C   UNL A   1      30.168  25.816  23.573  1.00  0.00     0.062 A 
ATOM     10  C   UNL A   1      28.945  26.389  23.910  1.00  0.00     0.030 A 
ATOM     11  C   UNL A   1      28.703  27.738  23.618  1.00  0.00     0.028 A 
ATOM     12  C   UNL A   1      30.777  27.877  22.449  1.00  0.00     0.042 A 
ATOM     13  C   UNL A   1      29.630  28.525  22.918  1.00  0.00     0.038 A 
BRANCH   9  14
ATOM     14  N   UNL A   1      30.451  24.490  23.984  1.00  0.00    -0.279 N 
ATOM     15  H   UNL A   1      30.308  23.754  23.345  1.00  0.00     0.180 HD
BRANCH  14  16
ATOM     16  S   UNL A   1      31.018  24.129  25.513  1.00  0.00     0.262 S 
ATOM     17  O   UNL A   1      30.271  22.958  25.933  1.00  0.00    -0.201 OA
ATOM     18  O   UNL A   1      30.964  25.323  26.330  1.00  0.00    -0.201 OA
BRANCH  16  19
ATOM     19  C   UNL A   1      32.730  23.631  25.295  1.00  0.00     0.090 A 
ATOM     20  C   UNL A   1      32.232  21.678  23.652  1.00  0.00     0.046 C 
ATOM     21  C   UNL A   1      33.134  22.621  24.396  1.00  0.00    -0.031 A 
ATOM     22  C   UNL A   1      34.515  22.411  24.201  1.00  0.00     0.005 A 
ATOM     23  C   UNL A   1      35.470  23.194  24.847  1.00  0.00     0.000 A 
ATOM     24  C   UNL A   1      33.705  24.401  25.960  1.00  0.00     0.022 A 
ATOM     25  C   UNL A   1      35.067  24.183  25.734  1.00  0.00     0.001 A 
ENDBRANCH  16  19
ENDBRANCH  14  16
ENDBRANCH   9  14
BRANCH  13  26
ATOM     26  N   UNL A   1      29.443  29.880  22.749  1.00  0.00    -0.367 N 
ATOM     27  C   UNL A   1      29.091  30.804  23.838  1.00  0.00     0.145 C 
ATOM     28  C   UNL A   1      29.386  30.484  21.404  1.00  0.00     0.145 C 
ATOM     29  C   UNL A   1      27.751  31.489  23.536  1.00  0.00     0.181 C 
ATOM     30  C   UNL A   1      28.046  31.223  21.210  1.00  0.00     0.181 C 
ATOM     31  O   UNL A   1      27.784  32.162  22.266  1.00  0.00    -0.378 OA
ENDBRANCH  13  26
ENDBRANCH   5   8
ENDBRANCH   3   4
ENDBRANCH   2   3
ENDBRANCH   1   2
BRANCH   1  32
ATOM     32  C   UNL A   1      32.190  29.817  25.667  1.00  0.00     0.002 C 
BRANCH  32  33
ATOM     33  C   UNL A   1      32.581  30.694  26.852  1.00  0.00     0.021 C 
BRANCH  33  34
ATOM     34  C   UNL A   1      33.813  30.237  27.617  1.00  0.00     0.116 C 
BRANCH  34  35
ATOM     35  N   UNL A   1      34.473  31.288  28.380  1.00  0.00    -0.352 N 
ATOM     36  C   UNL A   1      35.730  31.282  28.968  1.00  0.00     0.251 C 
ATOM     37  H   UNL A   1      33.954  32.118  28.495  1.00  0.00     0.163 HD
ATOM     38  O   UNL A   1      36.146  32.264  29.557  1.00  0.00    -0.269 OA
BRANCH  36  39
ATOM     39  C   UNL A   1      36.621  30.116  28.741  1.00  0.00     0.039 A 
ATOM     40  C   UNL A   1      36.847  29.256  29.820  1.00  0.00     0.014 A 
ATOM     41  C   UNL A   1      37.402  30.023  27.593  1.00  0.00     0.014 A 
ATOM     42  C   UNL A   1      38.021  28.512  29.858  1.00  0.00     0.010 A 
ATOM     43  C   UNL A   1      38.620  29.381  27.676  1.00  0.00     0.010 A 
ATOM     44  C   UNL A   1      38.961  28.697  28.845  1.00  0.00    -0.014 A 
BRANCH  44  45
ATOM     45  C   UNL A   1      40.363  28.327  28.992  1.00  0.00     0.031 A 
ATOM     46  C   UNL A   1      40.856  27.046  28.450  1.00  0.00     0.074 A 
ATOM     47  C   UNL A   1      41.222  29.176  29.604  1.00  0.00     0.049 A 
ATOM     48  N   UNL A   1      41.889  26.418  28.904  1.00  0.00    -0.248 NA
ATOM     49  C   UNL A   1      40.156  26.316  27.398  1.00  0.00     0.031 C 
ATOM     50  C   UNL A   1      42.680  29.082  29.633  1.00  0.00     0.029 A 
ATOM     51  N   UNL A   1      40.932  30.180  30.533  1.00  0.00    -0.354 N 
ATOM     52  C   UNL A   1      42.172  25.404  28.019  1.00  0.00     0.074 A 
ATOM     53  C   UNL A   1      40.992  25.294  27.196  1.00  0.00     0.031 C 
ATOM     54  C   UNL A   1      43.127  29.729  30.722  1.00  0.00     0.029 A 
ATOM     55  C   UNL A   1      41.962  30.141  31.486  1.00  0.00     0.049 A 
ATOM     56  H   UNL A   1      40.160  30.790  30.522  1.00  0.00     0.167 HD
ATOM     57  C   UNL A   1      43.432  24.887  27.980  1.00  0.00     0.031 A 
ATOM     58  C   UNL A   1      41.763  29.896  32.813  1.00  0.00     0.031 A 
ATOM     59  C   UNL A   1      44.247  25.369  29.097  1.00  0.00     0.049 A 
ATOM     60  C   UNL A   1      42.544  28.701  33.320  1.00  0.00     0.074 A 
ATOM     61  C   UNL A   1      45.273  26.294  29.191  1.00  0.00     0.029 A 
ATOM     62  N   UNL A   1      43.861  25.073  30.400  1.00  0.00    -0.354 N 
ATOM     63  N   UNL A   1      43.075  27.802  32.540  1.00  0.00    -0.248 NA
ATOM     64  C   UNL A   1      42.736  28.394  34.735  1.00  0.00     0.031 C 
ATOM     65  C   UNL A   1      45.443  26.619  30.562  1.00  0.00     0.029 A 
ATOM     66  C   UNL A   1      44.548  25.863  31.300  1.00  0.00     0.049 A 
ATOM     67  H   UNL A   1      43.191  24.396  30.647  1.00  0.00     0.167 HD
ATOM     68  C   UNL A   1      43.665  26.826  33.298  1.00  0.00     0.074 A 
ATOM     69  C   UNL A   1      43.429  27.243  34.668  1.00  0.00     0.031 C 
ATOM     70  C   UNL A   1      44.287  25.752  32.729  1.00  0.00     0.031 A 
BRANCH  57  71
ATOM     71  C   UNL A   1      44.022  24.157  26.788  1.00  0.00    -0.014 A 
ATOM     72  C   UNL A   1      43.296  24.106  25.582  1.00  0.00     0.009 A 
ATOM     73  C   UNL A   1      45.217  23.417  26.802  1.00  0.00     0.009 A 
ATOM     74  C   UNL A   1      43.706  23.321  24.492  1.00  0.00     0.001 A 
ATOM     75  C   UNL A   1      45.638  22.633  25.718  1.00  0.00     0.001 A 
ATOM     76  C   UNL A   1      44.873  22.574  24.565  1.00  0.00     0.000 A 
ENDBRANCH  57  71
BRANCH  58  77
ATOM     77  C   UNL A   1      40.436  30.311  33.336  1.00  0.00    -0.014 A 
ATOM     78  C   UNL A   1      40.202  31.682  33.549  1.00  0.00     0.009 A 
ATOM     79  C   UNL A   1      39.337  29.443  33.267  1.00  0.00     0.009 A 
ATOM     80  C   UNL A   1      38.899  32.185  33.591  1.00  0.00     0.001 A 
ATOM     81  C   UNL A   1      38.033  29.953  33.305  1.00  0.00     0.001 A 
ATOM     82  C   UNL A   1      37.815  31.325  33.436  1.00  0.00     0.000 A 
ENDBRANCH  58  77
BRANCH  70  83
ATOM     83  C   UNL A   1      44.775  24.519  33.451  1.00  0.00    -0.014 A 
ATOM     84  C   UNL A   1      46.082  24.342  33.924  1.00  0.00     0.009 A 
ATOM     85  C   UNL A   1      43.836  23.522  33.802  1.00  0.00     0.009 A 
ATOM     86  C   UNL A   1      46.440  23.210  34.669  1.00  0.00     0.001 A 
ATOM     87  C   UNL A   1      44.178  22.415  34.582  1.00  0.00     0.001 A 
ATOM     88  C   UNL A   1      45.488  22.253  35.006  1.00  0.00     0.000 A 
ENDBRANCH  70  83
ENDBRANCH  44  45
ENDBRANCH  36  39
ENDBRANCH  34  35
ENDBRANCH  33  34
ENDBRANCH  32  33
ENDBRANCH   1  32
TORSDOF 17
ENDMDL
MODEL 2
REMARK VINA RESULT:     -12.7      2.082      3.462
REMARK SMILES Cc1ccccc1S(=O)(=O)Nc1ccc(N2CCOCC2)cc1C(=O)NCCCCCCNC(=O)c1ccc(-c2c3nc(c(-c4ccccc4)c4ccc([nH]4)c(-c4ccccc4)c4nc(c(-c5ccccc5)c5ccc2[nH]5)C=C4)C=C3)cc1
REMARK SMILES IDX 29 1 28 2 27 3 26 4 24 5 25 6 23 8 12 9 13 10 14 11 22 12
REMARK SMILES IDX 15 13 11 14 8 16 9 17 10 18 7 19 1 20 2 21 3 22 4 23 6 24
REMARK SMILES IDX 5 25 16 26 17 27 21 28 18 29 20 30 19 31 30 32 31 33 32 34
REMARK SMILES IDX 33 35 34 36 35 38 36 39 37 40 83 41 38 42 82 43 39 44 40 45
REMARK SMILES IDX 41 46 76 47 42 48 81 49 75 50 77 51 43 52 80 53 74 54 73 55
REMARK SMILES IDX 44 57 66 58 51 59 65 60 52 61 55 62 64 63 78 64 53 65 54 66
REMARK SMILES IDX 63 68 79 69 56 70 45 71 46 72 50 73 47 74 49 75 48 76 67 77
REMARK SMILES IDX 68 78 72 79 69 80 71 81 70 82 57 83 58 84 62 85 59 86 61 87
REMARK SMILES IDX 60 88
REMARK H PARENT 26 7 11 15 33 37 77 56 55 67
REMARK Flexibility Score: inf
ROOT
ATOM      1  C   UNL A   1      34.182  28.700  27.353  1.00  0.00     0.002 C 
ENDROOT
BRANCH   1   2
ATOM      2  C   UNL A   1      32.823  29.168  26.828  1.00  0.00     0.021 C 
BRANCH   2   3
ATOM      3  C   UNL A   1      32.779  29.890  25.486  1.00  0.00     0.116 C 
BRANCH   3   4
ATOM      4  N   UNL A   1      33.410  29.206  24.375  1.00  0.00    -0.352 N 
ATOM      5  C   UNL A   1      32.838  28.632  23.260  1.00  0.00     0.253 C 
ATOM      6  O   UNL A   1      33.566  28.245  22.349  1.00  0.00    -0.269 OA
ATOM      7  H   UNL A   1      34.391  29.139  24.425  1.00  0.00     0.163 HD
BRANCH   5   8
ATOM      8  C   UNL A   1      31.366  28.456  23.165  1.00  0.00     0.066 A 
ATOM      9  C   UNL A   1      30.768  27.256  23.575  1.00  0.00     0.062 A 
ATOM     10  C   UNL A   1      29.385  27.122  23.492  1.00  0.00     0.030 A 
ATOM     11  C   UNL A   1      28.599  28.224  23.127  1.00  0.00     0.028 A 
ATOM     12  C   UNL A   1      30.562  29.506  22.694  1.00  0.00     0.042 A 
ATOM     13  C   UNL A   1      29.166  29.453  22.761  1.00  0.00     0.038 A 
BRANCH   9  14
ATOM     14  N   UNL A   1      31.543  26.175  24.065  1.00  0.00    -0.279 N 
ATOM     15  H   UNL A   1      32.001  26.273  24.931  1.00  0.00     0.180 HD
BRANCH  14  16
ATOM     16  S   UNL A   1      31.706  24.739  23.226  1.00  0.00     0.262 S 
ATOM     17  O   UNL A   1      32.020  25.125  21.864  1.00  0.00    -0.201 OA
ATOM     18  O   UNL A   1      30.540  23.916  23.470  1.00  0.00    -0.201 OA
BRANCH  16  19
ATOM     19  C   UNL A   1      33.159  23.936  23.911  1.00  0.00     0.090 A 
ATOM     20  C   UNL A   1      32.528  21.537  23.131  1.00  0.00     0.046 C 
ATOM     21  C   UNL A   1      33.446  22.567  23.725  1.00  0.00    -0.031 A 
ATOM     22  C   UNL A   1      34.684  22.074  24.186  1.00  0.00     0.005 A 
ATOM     23  C   UNL A   1      35.626  22.910  24.783  1.00  0.00     0.000 A 
ATOM     24  C   UNL A   1      34.109  24.766  24.537  1.00  0.00     0.022 A 
ATOM     25  C   UNL A   1      35.336  24.254  24.968  1.00  0.00     0.001 A 
ENDBRANCH  16  19
ENDBRANCH  14  16
ENDBRANCH   9  14
BRANCH  13  26
ATOM     26  N   UNL A   1      28.387  30.566  22.530  1.00  0.00    -0.367 N 
ATOM     27  C   UNL A   1      27.749  30.871  21.241  1.00  0.00     0.145 C 
ATOM     28  C   UNL A   1      28.296  31.656  23.520  1.00  0.00     0.145 C 
ATOM     29  C   UNL A   1      28.254  32.220  20.708  1.00  0.00     0.181 C 
ATOM     30  C   UNL A   1      28.739  32.990  22.884  1.00  0.00     0.181 C 
ATOM     31  O   UNL A   1      28.037  33.272  21.663  1.00  0.00    -0.378 OA
ENDBRANCH  13  26
ENDBRANCH   5   8
ENDBRANCH   3   4
ENDBRANCH   2   3
ENDBRANCH   1   2
BRANCH   1  32
ATOM     32  C   UNL A   1      35.318  29.728  27.407  1.00  0.00     0.002 C 
BRANCH  32  33
ATOM     33  C   UNL A   1      35.179  30.846  28.435  1.00  0.00     0.021 C 
BRANCH  33  34
ATOM     34  C   UNL A   1      35.023  32.243  27.856  1.00  0.00     0.116 C 
BRANCH  34  35
ATOM     35  N   UNL A   1      34.098  33.099  28.589  1.00  0.00    -0.352 N 
ATOM     36  C   UNL A   1      34.303  33.793  29.772  1.00  0.00     0.251 C 
ATOM     37  H   UNL A   1      33.204  33.198  28.187  1.00  0.00     0.163 HD
ATOM     38  O   UNL A   1      33.424  34.492  30.244  1.00  0.00    -0.269 OA
BRANCH  36  39
ATOM     39  C   UNL A   1      35.659  33.792  30.378  1.00  0.00     0.039 A 
ATOM     40  C   UNL A   1      36.697  34.371  29.640  1.00  0.00     0.014 A 
ATOM     41  C   UNL A   1      35.941  33.025  31.503  1.00  0.00     0.014 A 
ATOM     42  C   UNL A   1      38.003  33.948  29.862  1.00  0.00     0.010 A 
ATOM     43  C   UNL A   1      37.214  32.514  31.650  1.00  0.00     0.010 A 
ATOM     44  C   UNL A   1      38.224  32.916  30.772  1.00  0.00    -0.014 A 
BRANCH  44  45
ATOM     45  C   UNL A   1      39.438  32.110  30.771  1.00  0.00     0.031 A 
ATOM     46  C   UNL A   1      39.475  30.819  30.057  1.00  0.00     0.074 A 
ATOM     47  C   UNL A   1      40.545  32.562  31.407  1.00  0.00     0.049 A 
ATOM     48  N   UNL A   1      40.269  29.846  30.360  1.00  0.00    -0.248 NA
ATOM     49  C   UNL A   1      38.541  30.486  28.987  1.00  0.00     0.031 C 
ATOM     50  C   UNL A   1      41.897  32.013  31.315  1.00  0.00     0.029 A 
ATOM     51  N   UNL A   1      40.626  33.478  32.460  1.00  0.00    -0.354 N 
ATOM     52  C   UNL A   1      40.180  28.917  29.351  1.00  0.00     0.074 A 
ATOM     53  C   UNL A   1      38.998  29.288  28.611  1.00  0.00     0.031 C 
ATOM     54  C   UNL A   1      42.567  32.342  32.432  1.00  0.00     0.029 A 
ATOM     55  C   UNL A   1      41.623  32.997  33.323  1.00  0.00     0.049 A 
ATOM     56  H   UNL A   1      40.090  34.296  32.573  1.00  0.00     0.167 HD
ATOM     57  C   UNL A   1      41.206  28.041  29.160  1.00  0.00     0.031 A 
ATOM     58  C   UNL A   1      41.405  32.658  34.626  1.00  0.00     0.031 A 
ATOM     59  C   UNL A   1      42.172  28.096  30.259  1.00  0.00     0.049 A 
ATOM     60  C   UNL A   1      41.780  31.225  34.938  1.00  0.00     0.074 A 
ATOM     61  C   UNL A   1      43.443  28.633  30.377  1.00  0.00     0.029 A 
ATOM     62  N   UNL A   1      41.760  27.772  31.547  1.00  0.00    -0.354 N 
ATOM     63  N   UNL A   1      41.966  30.312  34.026  1.00  0.00    -0.248 NA
ATOM     64  C   UNL A   1      41.915  30.695  36.292  1.00  0.00     0.031 C 
ATOM     65  C   UNL A   1      43.758  28.711  31.758  1.00  0.00     0.029 A 
ATOM     66  C   UNL A   1      42.696  28.185  32.474  1.00  0.00     0.049 A 
ATOM     67  H   UNL A   1      40.918  27.313  31.767  1.00  0.00     0.167 HD
ATOM     68  C   UNL A   1      42.240  29.112  34.627  1.00  0.00     0.074 A 
ATOM     69  C   UNL A   1      42.201  29.403  36.048  1.00  0.00     0.031 C 
ATOM     70  C   UNL A   1      42.464  27.979  33.898  1.00  0.00     0.031 A 
BRANCH  57  71
ATOM     71  C   UNL A   1      41.488  27.321  27.855  1.00  0.00    -0.014 A 
ATOM     72  C   UNL A   1      41.427  25.914  27.816  1.00  0.00     0.009 A 
ATOM     73  C   UNL A   1      41.915  27.937  26.666  1.00  0.00     0.009 A 
ATOM     74  C   UNL A   1      41.825  25.177  26.690  1.00  0.00     0.001 A 
ATOM     75  C   UNL A   1      42.312  27.211  25.534  1.00  0.00     0.001 A 
ATOM     76  C   UNL A   1      42.278  25.826  25.550  1.00  0.00     0.000 A 
ENDBRANCH  57  71
BRANCH  58  77
ATOM     77  C   UNL A   1      40.301  33.398  35.290  1.00  0.00    -0.014 A 
ATOM     78  C   UNL A   1      39.040  32.778  35.376  1.00  0.00     0.009 A 
ATOM     79  C   UNL A   1      40.572  34.490  36.125  1.00  0.00     0.009 A 
ATOM     80  C   UNL A   1      38.113  33.177  36.343  1.00  0.00     0.001 A 
ATOM     81  C   UNL A   1      39.642  34.883  37.096  1.00  0.00     0.001 A 
ATOM     82  C   UNL A   1      38.428  34.208  37.224  1.00  0.00     0.000 A 
ENDBRANCH  58  77
BRANCH  70  83
ATOM     83  C   UNL A   1      42.558  26.574  34.441  1.00  0.00    -0.014 A 
ATOM     84  C   UNL A   1      41.567  25.954  35.213  1.00  0.00     0.009 A 
ATOM     85  C   UNL A   1      43.649  25.765  34.046  1.00  0.00     0.009 A 
ATOM     86  C   UNL A   1      41.680  24.612  35.605  1.00  0.00     0.001 A 
ATOM     87  C   UNL A   1      43.744  24.417  34.397  1.00  0.00     0.001 A 
ATOM     88  C   UNL A   1      42.763  23.842  35.190  1.00  0.00     0.000 A 
ENDBRANCH  70  83
ENDBRANCH  44  45
ENDBRANCH  36  39
ENDBRANCH  34  35
ENDBRANCH  33  34
ENDBRANCH  32  33
ENDBRANCH   1  32
TORSDOF 17
ENDMDL
MODEL 3
REMARK VINA RESULT:     -12.2      3.352      8.837
REMARK SMILES Cc1ccccc1S(=O)(=O)Nc1ccc(N2CCOCC2)cc1C(=O)NCCCCCCNC(=O)c1ccc(-c2c3nc(c(-c4ccccc4)c4ccc([nH]4)c(-c4ccccc4)c4nc(c(-c5ccccc5)c5ccc2[nH]5)C=C4)C=C3)cc1
REMARK SMILES IDX 29 1 28 2 27 3 26 4 24 5 25 6 23 8 12 9 13 10 14 11 22 12
REMARK SMILES IDX 15 13 11 14 8 16 9 17 10 18 7 19 1 20 2 21 3 22 4 23 6 24
REMARK SMILES IDX 5 25 16 26 17 27 21 28 18 29 20 30 19 31 30 32 31 33 32 34
REMARK SMILES IDX 33 35 34 36 35 38 36 39 37 40 83 41 38 42 82 43 39 44 40 45
REMARK SMILES IDX 41 46 76 47 42 48 81 49 75 50 77 51 43 52 80 53 74 54 73 55
REMARK SMILES IDX 44 57 66 58 51 59 65 60 52 61 55 62 64 63 78 64 53 65 54 66
REMARK SMILES IDX 63 68 79 69 56 70 45 71 46 72 50 73 47 74 49 75 48 76 67 77
REMARK SMILES IDX 68 78 72 79 69 80 71 81 70 82 57 83 58 84 62 85 59 86 61 87
REMARK SMILES IDX 60 88
REMARK H PARENT 26 7 11 15 33 37 77 56 55 67
REMARK Flexibility Score: inf
ROOT
ATOM      1  C   UNL A   1      37.606  23.436  25.721  1.00  0.00     0.002 C 
ENDROOT
BRANCH   1   2
ATOM      2  C   UNL A   1      36.281  23.407  24.956  1.00  0.00     0.021 C 
BRANCH   2   3
ATOM      3  C   UNL A   1      36.227  22.638  23.639  1.00  0.00     0.116 C 
BRANCH   3   4
ATOM      4  N   UNL A   1      35.264  23.112  22.666  1.00  0.00    -0.352 N 
ATOM      5  C   UNL A   1      33.889  23.016  22.676  1.00  0.00     0.253 C 
ATOM      6  O   UNL A   1      33.242  23.633  21.831  1.00  0.00    -0.269 OA
ATOM      7  H   UNL A   1      35.647  23.567  21.882  1.00  0.00     0.163 HD
BRANCH   5   8
ATOM      8  C   UNL A   1      33.192  22.162  23.672  1.00  0.00     0.066 A 
ATOM      9  C   UNL A   1      32.345  22.738  24.629  1.00  0.00     0.062 A 
ATOM     10  C   UNL A   1      31.690  21.916  25.540  1.00  0.00     0.030 A 
ATOM     11  C   UNL A   1      31.779  20.523  25.411  1.00  0.00     0.028 A 
ATOM     12  C   UNL A   1      33.353  20.768  23.637  1.00  0.00     0.042 A 
ATOM     13  C   UNL A   1      32.578  19.917  24.430  1.00  0.00     0.038 A 
BRANCH   9  14
ATOM     14  N   UNL A   1      32.148  24.141  24.692  1.00  0.00    -0.279 N 
ATOM     15  H   UNL A   1      31.874  24.619  23.876  1.00  0.00     0.180 HD
BRANCH  14  16
ATOM     16  S   UNL A   1      32.364  25.011  26.101  1.00  0.00     0.262 S 
ATOM     17  O   UNL A   1      33.642  24.575  26.630  1.00  0.00    -0.201 OA
ATOM     18  O   UNL A   1      31.182  24.874  26.926  1.00  0.00    -0.201 OA
BRANCH  16  19
ATOM     19  C   UNL A   1      32.543  26.725  25.594  1.00  0.00     0.090 A 
ATOM     20  C   UNL A   1      30.205  26.915  24.471  1.00  0.00     0.046 C 
ATOM     21  C   UNL A   1      31.508  27.463  24.980  1.00  0.00    -0.031 A 
ATOM     22  C   UNL A   1      31.711  28.840  24.755  1.00  0.00     0.005 A 
ATOM     23  C   UNL A   1      32.884  29.480  25.151  1.00  0.00     0.000 A 
ATOM     24  C   UNL A   1      33.733  27.378  25.969  1.00  0.00     0.022 A 
ATOM     25  C   UNL A   1      33.900  28.748  25.750  1.00  0.00     0.001 A 
ENDBRANCH  16  19
ENDBRANCH  14  16
ENDBRANCH   9  14
BRANCH  13  26
ATOM     26  N   UNL A   1      32.558  18.554  24.226  1.00  0.00    -0.367 N 
ATOM     27  C   UNL A   1      32.506  17.560  25.308  1.00  0.00     0.145 C 
ATOM     28  C   UNL A   1      32.793  17.976  22.888  1.00  0.00     0.145 C 
ATOM     29  C   UNL A   1      33.740  16.649  25.249  1.00  0.00     0.181 C 
ATOM     30  C   UNL A   1      33.995  17.010  22.931  1.00  0.00     0.181 C 
ATOM     31  O   UNL A   1      33.860  16.018  23.963  1.00  0.00    -0.378 OA
ENDBRANCH  13  26
ENDBRANCH   5   8
ENDBRANCH   3   4
ENDBRANCH   2   3
ENDBRANCH   1   2
BRANCH   1  32
ATOM     32  C   UNL A   1      38.404  22.131  25.814  1.00  0.00     0.002 C 
BRANCH  32  33
ATOM     33  C   UNL A   1      39.768  22.211  26.492  1.00  0.00     0.021 C 
BRANCH  33  34
ATOM     34  C   UNL A   1      40.333  20.882  26.969  1.00  0.00     0.116 C 
BRANCH  34  35
ATOM     35  N   UNL A   1      41.313  20.286  26.068  1.00  0.00    -0.352 N 
ATOM     36  C   UNL A   1      42.656  20.597  25.912  1.00  0.00     0.251 C 
ATOM     37  H   UNL A   1      40.973  19.564  25.491  1.00  0.00     0.163 HD
ATOM     38  O   UNL A   1      43.350  19.980  25.124  1.00  0.00    -0.269 OA
BRANCH  36  39
ATOM     39  C   UNL A   1      43.272  21.591  26.827  1.00  0.00     0.039 A 
ATOM     40  C   UNL A   1      42.905  21.544  28.175  1.00  0.00     0.014 A 
ATOM     41  C   UNL A   1      43.978  22.682  26.329  1.00  0.00     0.014 A 
ATOM     42  C   UNL A   1      42.993  22.701  28.942  1.00  0.00     0.010 A 
ATOM     43  C   UNL A   1      43.959  23.861  27.045  1.00  0.00     0.010 A 
ATOM     44  C   UNL A   1      43.388  23.884  28.320  1.00  0.00    -0.014 A 
BRANCH  44  45
ATOM     45  C   UNL A   1      43.107  25.201  28.879  1.00  0.00     0.031 A 
ATOM     46  C   UNL A   1      41.944  25.977  28.408  1.00  0.00     0.074 A 
ATOM     47  C   UNL A   1      43.903  25.701  29.854  1.00  0.00     0.049 A 
ATOM     48  N   UNL A   1      41.864  27.265  28.460  1.00  0.00    -0.248 NA
ATOM     49  C   UNL A   1      40.801  25.357  27.745  1.00  0.00     0.031 C 
ATOM     50  C   UNL A   1      43.644  26.877  30.682  1.00  0.00     0.029 A 
ATOM     51  N   UNL A   1      45.233  25.377  30.137  1.00  0.00    -0.354 N 
ATOM     52  C   UNL A   1      40.568  27.606  28.153  1.00  0.00     0.074 A 
ATOM     53  C   UNL A   1      39.999  26.412  27.578  1.00  0.00     0.031 C 
ATOM     54  C   UNL A   1      44.820  27.359  31.117  1.00  0.00     0.029 A 
ATOM     55  C   UNL A   1      45.867  26.585  30.473  1.00  0.00     0.049 A 
ATOM     56  H   UNL A   1      45.643  24.483  30.106  1.00  0.00     0.167 HD
ATOM     57  C   UNL A   1      40.080  28.808  28.570  1.00  0.00     0.031 A 
ATOM     58  C   UNL A   1      46.925  27.106  29.787  1.00  0.00     0.031 A 
ATOM     59  C   UNL A   1      41.140  29.665  29.104  1.00  0.00     0.049 A 
ATOM     60  C   UNL A   1      46.659  28.499  29.255  1.00  0.00     0.074 A 
ATOM     61  C   UNL A   1      41.498  30.040  30.388  1.00  0.00     0.029 A 
ATOM     62  N   UNL A   1      42.184  30.057  28.273  1.00  0.00    -0.354 N 
ATOM     63  N   UNL A   1      45.467  29.018  29.154  1.00  0.00    -0.248 NA
ATOM     64  C   UNL A   1      47.699  29.387  28.742  1.00  0.00     0.031 C 
ATOM     65  C   UNL A   1      42.808  30.584  30.334  1.00  0.00     0.029 A 
ATOM     66  C   UNL A   1      43.226  30.575  29.015  1.00  0.00     0.049 A 
ATOM     67  H   UNL A   1      42.180  29.977  27.292  1.00  0.00     0.167 HD
ATOM     68  C   UNL A   1      45.555  30.263  28.590  1.00  0.00     0.074 A 
ATOM     69  C   UNL A   1      46.974  30.452  28.352  1.00  0.00     0.031 C 
ATOM     70  C   UNL A   1      44.446  31.026  28.358  1.00  0.00     0.031 A 
BRANCH  57  71
ATOM     71  C   UNL A   1      38.605  29.119  28.748  1.00  0.00    -0.014 A 
ATOM     72  C   UNL A   1      37.880  29.663  27.670  1.00  0.00     0.009 A 
ATOM     73  C   UNL A   1      37.893  29.007  29.955  1.00  0.00     0.009 A 
ATOM     74  C   UNL A   1      36.559  30.118  27.808  1.00  0.00     0.001 A 
ATOM     75  C   UNL A   1      36.573  29.455  30.103  1.00  0.00     0.001 A 
ATOM     76  C   UNL A   1      35.908  30.024  29.030  1.00  0.00     0.000 A 
ENDBRANCH  57  71
BRANCH  58  77
ATOM     77  C   UNL A   1      47.791  26.105  29.115  1.00  0.00    -0.014 A 
ATOM     78  C   UNL A   1      47.555  25.821  27.757  1.00  0.00     0.009 A 
ATOM     79  C   UNL A   1      49.022  25.733  29.675  1.00  0.00     0.009 A 
ATOM     80  C   UNL A   1      48.560  25.272  26.957  1.00  0.00     0.001 A 
ATOM     81  C   UNL A   1      50.028  25.186  28.868  1.00  0.00     0.001 A 
ATOM     82  C   UNL A   1      49.807  24.985  27.505  1.00  0.00     0.000 A 
ENDBRANCH  58  77
BRANCH  70  83
ATOM     83  C   UNL A   1      44.396  32.302  27.555  1.00  0.00    -0.014 A 
ATOM     84  C   UNL A   1      44.296  32.357  26.158  1.00  0.00     0.009 A 
ATOM     85  C   UNL A   1      44.307  33.535  28.243  1.00  0.00     0.009 A 
ATOM     86  C   UNL A   1      44.158  33.580  25.484  1.00  0.00     0.001 A 
ATOM     87  C   UNL A   1      44.126  34.749  27.579  1.00  0.00     0.001 A 
ATOM     88  C   UNL A   1      44.064  34.773  26.194  1.00  0.00     0.000 A 
ENDBRANCH  70  83
ENDBRANCH  44  45
ENDBRANCH  36  39
ENDBRANCH  34  35
ENDBRANCH  33  34
ENDBRANCH  32  33
ENDBRANCH   1  32
TORSDOF 17
ENDMDL
