MODEL 1
REMARK VINA RESULT:      -9.9      0.000      0.000
REMARK SMILES COC(OC)[C@@](C)(Nc1ccc(Cl)c(Br)c1)C(=O)NCCCCCCNC(=O)c1ccc(-c2c3nc(c(-c4ccccc4)c4ccc([nH]4)c(-c4ccccc4)c4nc(c(-c5ccccc5)c5ccc2[nH]5)C=C4)C=C3)cc1
REMARK SMILES IDX 22 1 21 2 20 3 19 4 17 5 18 6 6 8 7 9 3 10 2 11 1 12 4 13
REMARK SMILES IDX 5 14 8 15 9 17 10 18 16 19 11 20 14 21 12 22 15 23 13 24
REMARK SMILES IDX 23 25 24 26 25 27 26 28 27 29 28 31 29 32 30 33 76 34 31 35
REMARK SMILES IDX 75 36 32 37 33 38 34 39 69 40 35 41 74 42 68 43 70 44 36 45
REMARK SMILES IDX 73 46 67 47 66 48 37 50 59 51 44 52 58 53 45 54 48 55 57 56
REMARK SMILES IDX 71 57 46 58 47 59 56 61 72 62 49 63 38 64 39 65 43 66 40 67
REMARK SMILES IDX 42 68 41 69 60 70 61 71 65 72 62 73 64 74 63 75 50 76 51 77
REMARK SMILES IDX 55 78 52 79 54 80 53 81
REMARK H PARENT 19 7 8 16 26 30 70 49 48 60
REMARK Flexibility Score: inf
ROOT
ATOM      1  C   UNL A   1      31.983  29.559  26.723  1.00  0.00     0.002 C 
ENDROOT
BRANCH   1   2
ATOM      2  C   UNL A   1      33.493  29.363  26.545  1.00  0.00     0.021 C 
BRANCH   2   3
ATOM      3  C   UNL A   1      33.913  28.161  25.698  1.00  0.00     0.116 C 
BRANCH   3   4
ATOM      4  N   UNL A   1      34.203  28.500  24.317  1.00  0.00    -0.354 N 
ATOM      5  C   UNL A   1      33.976  27.849  23.133  1.00  0.00     0.250 C 
ATOM      6  O   UNL A   1      34.599  28.319  22.174  1.00  0.00    -0.272 OA
ATOM      7  H   UNL A   1      34.651  29.369  24.209  1.00  0.00     0.163 HD
BRANCH   5   8
ATOM      8  C   UNL A   1      33.047  26.612  23.018  1.00  0.00     0.165 C 
ATOM      9  C   UNL A   1      32.905  26.258  21.510  1.00  0.00     0.051 C 
BRANCH   8  10
ATOM     10  C   UNL A   1      33.639  25.283  23.673  1.00  0.00     0.284 C 
BRANCH  10  11
ATOM     11  O   UNL A   1      32.779  24.580  24.585  1.00  0.00    -0.353 OA
ATOM     12  C   UNL A   1      33.186  24.610  25.946  1.00  0.00     0.198 C 
ENDBRANCH  10  11
BRANCH  10  13
ATOM     13  O   UNL A   1      34.353  24.423  22.781  1.00  0.00    -0.353 OA
ATOM     14  C   UNL A   1      33.796  23.110  22.774  1.00  0.00     0.198 C 
ENDBRANCH  10  13
ENDBRANCH   8  10
BRANCH   8  15
ATOM     15  N   UNL A   1      31.663  26.858  23.564  1.00  0.00    -0.367 N 
ATOM     16  H   UNL A   1      31.351  26.222  24.247  1.00  0.00     0.161 HD
BRANCH  15  17
ATOM     17  C   UNL A   1      30.773  27.869  23.222  1.00  0.00     0.036 A 
ATOM     18  C   UNL A   1      31.111  29.050  22.555  1.00  0.00     0.027 A 
ATOM     19  C   UNL A   1      29.405  27.670  23.477  1.00  0.00     0.043 A 
ATOM     20  C   UNL A   1      30.139  29.938  22.071  1.00  0.00     0.024 A 
ATOM     21  C   UNL A   1      28.423  28.580  23.045  1.00  0.00     0.038 A 
ATOM     22  C   UNL A   1      28.790  29.704  22.308  1.00  0.00     0.055 A 
ATOM     23  Br  UNL A   1      26.616  28.204  23.494  1.00  0.00    -0.049 Br
ATOM     24  Cl  UNL A   1      27.652  30.820  21.648  1.00  0.00    -0.083 Cl
ENDBRANCH  15  17
ENDBRANCH   8  15
ENDBRANCH   5   8
ENDBRANCH   3   4
ENDBRANCH   2   3
ENDBRANCH   1   2
BRANCH   1  25
ATOM     25  C   UNL A   1      31.355  30.644  25.847  1.00  0.00     0.002 C 
BRANCH  25  26
ATOM     26  C   UNL A   1      31.176  32.002  26.521  1.00  0.00     0.021 C 
BRANCH  26  27
ATOM     27  C   UNL A   1      32.471  32.728  26.858  1.00  0.00     0.116 C 
BRANCH  27  28
ATOM     28  N   UNL A   1      32.258  34.004  27.524  1.00  0.00    -0.352 N 
ATOM     29  C   UNL A   1      33.009  34.564  28.531  1.00  0.00     0.251 C 
ATOM     30  H   UNL A   1      31.483  34.528  27.217  1.00  0.00     0.163 HD
ATOM     31  O   UNL A   1      32.657  35.594  29.094  1.00  0.00    -0.269 OA
BRANCH  29  32
ATOM     32  C   UNL A   1      34.244  33.869  28.950  1.00  0.00     0.039 A 
ATOM     33  C   UNL A   1      34.163  32.767  29.804  1.00  0.00     0.014 A 
ATOM     34  C   UNL A   1      35.484  34.386  28.569  1.00  0.00     0.014 A 
ATOM     35  C   UNL A   1      35.318  32.290  30.408  1.00  0.00     0.010 A 
ATOM     36  C   UNL A   1      36.652  33.842  29.111  1.00  0.00     0.010 A 
ATOM     37  C   UNL A   1      36.577  32.820  30.070  1.00  0.00    -0.014 A 
BRANCH  37  38
ATOM     38  C   UNL A   1      37.790  32.262  30.719  1.00  0.00     0.031 A 
ATOM     39  C   UNL A   1      38.269  32.763  32.054  1.00  0.00     0.074 A 
ATOM     40  C   UNL A   1      38.426  31.237  30.118  1.00  0.00     0.049 A 
ATOM     41  N   UNL A   1      39.262  32.323  32.786  1.00  0.00    -0.248 NA
ATOM     42  C   UNL A   1      37.548  33.900  32.648  1.00  0.00     0.031 C 
ATOM     43  C   UNL A   1      38.048  30.660  28.827  1.00  0.00     0.029 A 
ATOM     44  N   UNL A   1      39.488  30.473  30.527  1.00  0.00    -0.354 N 
ATOM     45  C   UNL A   1      39.297  33.135  33.913  1.00  0.00     0.074 A 
ATOM     46  C   UNL A   1      38.243  34.114  33.758  1.00  0.00     0.031 C 
ATOM     47  C   UNL A   1      38.812  29.585  28.588  1.00  0.00     0.029 A 
ATOM     48  C   UNL A   1      39.780  29.442  29.669  1.00  0.00     0.049 A 
ATOM     49  H   UNL A   1      39.992  30.646  31.355  1.00  0.00     0.167 HD
ATOM     50  C   UNL A   1      40.125  33.063  34.982  1.00  0.00     0.031 A 
ATOM     51  C   UNL A   1      40.723  28.483  29.734  1.00  0.00     0.031 A 
ATOM     52  C   UNL A   1      41.171  32.084  35.134  1.00  0.00     0.049 A 
ATOM     53  C   UNL A   1      41.655  28.453  30.907  1.00  0.00     0.074 A 
ATOM     54  C   UNL A   1      42.043  31.918  36.197  1.00  0.00     0.029 A 
ATOM     55  N   UNL A   1      41.489  31.111  34.200  1.00  0.00    -0.354 N 
ATOM     56  N   UNL A   1      41.662  29.219  31.970  1.00  0.00    -0.248 NA
ATOM     57  C   UNL A   1      42.713  27.434  30.887  1.00  0.00     0.031 C 
ATOM     58  C   UNL A   1      42.928  30.886  35.878  1.00  0.00     0.029 A 
ATOM     59  C   UNL A   1      42.566  30.362  34.647  1.00  0.00     0.049 A 
ATOM     60  H   UNL A   1      41.020  30.971  33.346  1.00  0.00     0.167 HD
ATOM     61  C   UNL A   1      42.724  28.778  32.747  1.00  0.00     0.074 A 
ATOM     62  C   UNL A   1      43.319  27.657  32.047  1.00  0.00     0.031 C 
ATOM     63  C   UNL A   1      43.167  29.265  33.932  1.00  0.00     0.031 A 
BRANCH  50  64
ATOM     64  C   UNL A   1      39.956  34.080  36.079  1.00  0.00    -0.014 A 
ATOM     65  C   UNL A   1      40.687  35.278  36.037  1.00  0.00     0.009 A 
ATOM     66  C   UNL A   1      39.147  33.818  37.196  1.00  0.00     0.009 A 
ATOM     67  C   UNL A   1      40.620  36.189  37.094  1.00  0.00     0.001 A 
ATOM     68  C   UNL A   1      39.061  34.743  38.240  1.00  0.00     0.001 A 
ATOM     69  C   UNL A   1      39.802  35.923  38.192  1.00  0.00     0.000 A 
ENDBRANCH  50  64
BRANCH  51  70
ATOM     70  C   UNL A   1      40.804  27.476  28.645  1.00  0.00    -0.014 A 
ATOM     71  C   UNL A   1      41.575  27.728  27.498  1.00  0.00     0.009 A 
ATOM     72  C   UNL A   1      40.043  26.300  28.705  1.00  0.00     0.009 A 
ATOM     73  C   UNL A   1      41.552  26.842  26.419  1.00  0.00     0.001 A 
ATOM     74  C   UNL A   1      40.046  25.401  27.637  1.00  0.00     0.001 A 
ATOM     75  C   UNL A   1      40.789  25.680  26.490  1.00  0.00     0.000 A 
ENDBRANCH  51  70
BRANCH  63  76
ATOM     76  C   UNL A   1      44.365  28.604  34.550  1.00  0.00    -0.014 A 
ATOM     77  C   UNL A   1      44.194  27.538  35.448  1.00  0.00     0.009 A 
ATOM     78  C   UNL A   1      45.659  29.093  34.315  1.00  0.00     0.009 A 
ATOM     79  C   UNL A   1      45.291  26.984  36.108  1.00  0.00     0.001 A 
ATOM     80  C   UNL A   1      46.759  28.517  34.954  1.00  0.00     0.001 A 
ATOM     81  C   UNL A   1      46.573  27.470  35.857  1.00  0.00     0.000 A 
ENDBRANCH  63  76
ENDBRANCH  37  38
ENDBRANCH  29  32
ENDBRANCH  27  28
ENDBRANCH  26  27
ENDBRANCH  25  26
ENDBRANCH   1  25
TORSDOF 18
ENDMDL
MODEL 2
REMARK VINA RESULT:      -9.9      1.636      6.189
REMARK SMILES COC(OC)[C@@](C)(Nc1ccc(Cl)c(Br)c1)C(=O)NCCCCCCNC(=O)c1ccc(-c2c3nc(c(-c4ccccc4)c4ccc([nH]4)c(-c4ccccc4)c4nc(c(-c5ccccc5)c5ccc2[nH]5)C=C4)C=C3)cc1
REMARK SMILES IDX 22 1 21 2 20 3 19 4 17 5 18 6 6 8 7 9 3 10 2 11 1 12 4 13
REMARK SMILES IDX 5 14 8 15 9 17 10 18 16 19 11 20 14 21 12 22 15 23 13 24
REMARK SMILES IDX 23 25 24 26 25 27 26 28 27 29 28 31 29 32 30 33 76 34 31 35
REMARK SMILES IDX 75 36 32 37 33 38 34 39 69 40 35 41 74 42 68 43 70 44 36 45
REMARK SMILES IDX 73 46 67 47 66 48 37 50 59 51 44 52 58 53 45 54 48 55 57 56
REMARK SMILES IDX 71 57 46 58 47 59 56 61 72 62 49 63 38 64 39 65 43 66 40 67
REMARK SMILES IDX 42 68 41 69 60 70 61 71 65 72 62 73 64 74 63 75 50 76 51 77
REMARK SMILES IDX 55 78 52 79 54 80 53 81
REMARK H PARENT 19 7 8 16 26 30 70 49 48 60
REMARK Flexibility Score: inf
ROOT
ATOM      1  C   UNL A   1      32.515  28.893  26.310  1.00  0.00     0.002 C 
ENDROOT
BRANCH   1   2
ATOM      2  C   UNL A   1      33.839  28.417  25.704  1.00  0.00     0.021 C 
BRANCH   2   3
ATOM      3  C   UNL A   1      34.012  26.902  25.587  1.00  0.00     0.116 C 
BRANCH   3   4
ATOM      4  N   UNL A   1      34.029  26.427  24.216  1.00  0.00    -0.354 N 
ATOM      5  C   UNL A   1      33.442  25.357  23.595  1.00  0.00     0.250 C 
ATOM      6  O   UNL A   1      33.896  25.117  22.471  1.00  0.00    -0.272 OA
ATOM      7  H   UNL A   1      34.571  26.984  23.611  1.00  0.00     0.163 HD
BRANCH   5   8
ATOM      8  C   UNL A   1      32.330  24.504  24.262  1.00  0.00     0.165 C 
ATOM      9  C   UNL A   1      31.647  23.654  23.152  1.00  0.00     0.051 C 
BRANCH   8  10
ATOM     10  C   UNL A   1      32.870  23.421  25.302  1.00  0.00     0.284 C 
BRANCH  10  11
ATOM     11  O   UNL A   1      34.215  22.956  25.102  1.00  0.00    -0.353 OA
ATOM     12  C   UNL A   1      34.331  21.712  24.425  1.00  0.00     0.198 C 
ENDBRANCH  10  11
BRANCH  10  13
ATOM     13  O   UNL A   1      32.549  23.670  26.673  1.00  0.00    -0.353 OA
ATOM     14  C   UNL A   1      32.845  22.537  27.487  1.00  0.00     0.198 C 
ENDBRANCH  10  13
ENDBRANCH   8  10
BRANCH   8  15
ATOM     15  N   UNL A   1      31.262  25.336  24.925  1.00  0.00    -0.367 N 
ATOM     16  H   UNL A   1      31.265  25.335  25.909  1.00  0.00     0.161 HD
BRANCH  15  17
ATOM     17  C   UNL A   1      30.274  26.105  24.320  1.00  0.00     0.036 A 
ATOM     18  C   UNL A   1      28.900  25.863  24.403  1.00  0.00     0.027 A 
ATOM     19  C   UNL A   1      30.658  27.274  23.641  1.00  0.00     0.043 A 
ATOM     20  C   UNL A   1      27.951  26.782  23.933  1.00  0.00     0.024 A 
ATOM     21  C   UNL A   1      29.717  28.178  23.116  1.00  0.00     0.038 A 
ATOM     22  C   UNL A   1      28.355  27.947  23.294  1.00  0.00     0.055 A 
ATOM     23  Br  UNL A   1      30.379  29.697  22.187  1.00  0.00    -0.049 Br
ATOM     24  Cl  UNL A   1      27.130  29.048  22.776  1.00  0.00    -0.083 Cl
ENDBRANCH  15  17
ENDBRANCH   8  15
ENDBRANCH   5   8
ENDBRANCH   3   4
ENDBRANCH   2   3
ENDBRANCH   1   2
BRANCH   1  25
ATOM     25  C   UNL A   1      32.003  30.239  25.793  1.00  0.00     0.002 C 
BRANCH  25  26
ATOM     26  C   UNL A   1      31.743  31.292  26.867  1.00  0.00     0.021 C 
BRANCH  26  27
ATOM     27  C   UNL A   1      32.935  32.178  27.201  1.00  0.00     0.116 C 
BRANCH  27  28
ATOM     28  N   UNL A   1      32.559  33.541  27.546  1.00  0.00    -0.352 N 
ATOM     29  C   UNL A   1      33.187  34.389  28.429  1.00  0.00     0.251 C 
ATOM     30  H   UNL A   1      31.760  33.897  27.095  1.00  0.00     0.163 HD
ATOM     31  O   UNL A   1      32.703  35.475  28.725  1.00  0.00    -0.269 OA
BRANCH  29  32
ATOM     32  C   UNL A   1      34.451  33.941  29.049  1.00  0.00     0.039 A 
ATOM     33  C   UNL A   1      35.665  34.190  28.405  1.00  0.00     0.014 A 
ATOM     34  C   UNL A   1      34.408  33.183  30.221  1.00  0.00     0.014 A 
ATOM     35  C   UNL A   1      36.811  33.539  28.841  1.00  0.00     0.010 A 
ATOM     36  C   UNL A   1      35.583  32.604  30.710  1.00  0.00     0.010 A 
ATOM     37  C   UNL A   1      36.786  32.739  29.999  1.00  0.00    -0.014 A 
BRANCH  37  38
ATOM     38  C   UNL A   1      38.040  32.084  30.447  1.00  0.00     0.031 A 
ATOM     39  C   UNL A   1      38.512  30.791  29.842  1.00  0.00     0.074 A 
ATOM     40  C   UNL A   1      38.797  32.710  31.370  1.00  0.00     0.049 A 
ATOM     41  N   UNL A   1      39.625  30.137  30.070  1.00  0.00    -0.248 NA
ATOM     42  C   UNL A   1      37.631  30.143  28.858  1.00  0.00     0.031 C 
ATOM     43  C   UNL A   1      38.448  33.974  32.021  1.00  0.00     0.029 A 
ATOM     44  N   UNL A   1      40.028  32.399  31.886  1.00  0.00    -0.354 N 
ATOM     45  C   UNL A   1      39.570  29.000  29.274  1.00  0.00     0.074 A 
ATOM     46  C   UNL A   1      38.303  29.034  28.577  1.00  0.00     0.031 C 
ATOM     47  C   UNL A   1      39.473  34.370  32.787  1.00  0.00     0.029 A 
ATOM     48  C   UNL A   1      40.520  33.355  32.740  1.00  0.00     0.049 A 
ATOM     49  H   UNL A   1      40.513  31.570  31.666  1.00  0.00     0.167 HD
ATOM     50  C   UNL A   1      40.497  28.022  29.132  1.00  0.00     0.031 A 
ATOM     51  C   UNL A   1      41.681  33.416  33.419  1.00  0.00     0.031 A 
ATOM     52  C   UNL A   1      41.759  27.994  29.825  1.00  0.00     0.049 A 
ATOM     53  C   UNL A   1      42.670  32.299  33.276  1.00  0.00     0.074 A 
ATOM     54  C   UNL A   1      42.774  27.056  29.723  1.00  0.00     0.029 A 
ATOM     55  N   UNL A   1      42.180  28.938  30.748  1.00  0.00    -0.354 N 
ATOM     56  N   UNL A   1      42.608  31.240  32.508  1.00  0.00    -0.248 NA
ATOM     57  C   UNL A   1      43.884  32.381  34.099  1.00  0.00     0.031 C 
ATOM     58  C   UNL A   1      43.779  27.399  30.629  1.00  0.00     0.029 A 
ATOM     59  C   UNL A   1      43.424  28.588  31.247  1.00  0.00     0.049 A 
ATOM     60  H   UNL A   1      41.671  29.739  31.009  1.00  0.00     0.167 HD
ATOM     61  C   UNL A   1      43.772  30.526  32.753  1.00  0.00     0.074 A 
ATOM     62  C   UNL A   1      44.537  31.289  33.720  1.00  0.00     0.031 C 
ATOM     63  C   UNL A   1      44.166  29.340  32.227  1.00  0.00     0.031 A 
BRANCH  50  64
ATOM     64  C   UNL A   1      40.185  26.881  28.201  1.00  0.00    -0.014 A 
ATOM     65  C   UNL A   1      39.473  25.768  28.677  1.00  0.00     0.009 A 
ATOM     66  C   UNL A   1      40.671  26.862  26.885  1.00  0.00     0.009 A 
ATOM     67  C   UNL A   1      39.261  24.656  27.858  1.00  0.00     0.001 A 
ATOM     68  C   UNL A   1      40.434  25.759  26.059  1.00  0.00     0.001 A 
ATOM     69  C   UNL A   1      39.737  24.656  26.548  1.00  0.00     0.000 A 
ENDBRANCH  50  64
BRANCH  51  70
ATOM     70  C   UNL A   1      41.951  34.596  34.279  1.00  0.00    -0.014 A 
ATOM     71  C   UNL A   1      41.531  34.610  35.620  1.00  0.00     0.009 A 
ATOM     72  C   UNL A   1      42.550  35.745  33.744  1.00  0.00     0.009 A 
ATOM     73  C   UNL A   1      41.670  35.764  36.395  1.00  0.00     0.001 A 
ATOM     74  C   UNL A   1      42.715  36.887  34.531  1.00  0.00     0.001 A 
ATOM     75  C   UNL A   1      42.263  36.900  35.850  1.00  0.00     0.000 A 
ENDBRANCH  51  70
BRANCH  63  76
ATOM     76  C   UNL A   1      45.478  28.776  32.691  1.00  0.00    -0.014 A 
ATOM     77  C   UNL A   1      46.657  29.071  31.987  1.00  0.00     0.009 A 
ATOM     78  C   UNL A   1      45.536  27.882  33.771  1.00  0.00     0.009 A 
ATOM     79  C   UNL A   1      47.864  28.471  32.346  1.00  0.00     0.001 A 
ATOM     80  C   UNL A   1      46.751  27.305  34.146  1.00  0.00     0.001 A 
ATOM     81  C   UNL A   1      47.912  27.593  33.427  1.00  0.00     0.000 A 
ENDBRANCH  63  76
ENDBRANCH  37  38
ENDBRANCH  29  32
ENDBRANCH  27  28
ENDBRANCH  26  27
ENDBRANCH  25  26
ENDBRANCH   1  25
TORSDOF 18
ENDMDL
MODEL 3
REMARK VINA RESULT:      -9.8      4.690      9.402
REMARK SMILES COC(OC)[C@@](C)(Nc1ccc(Cl)c(Br)c1)C(=O)NCCCCCCNC(=O)c1ccc(-c2c3nc(c(-c4ccccc4)c4ccc([nH]4)c(-c4ccccc4)c4nc(c(-c5ccccc5)c5ccc2[nH]5)C=C4)C=C3)cc1
REMARK SMILES IDX 22 1 21 2 20 3 19 4 17 5 18 6 6 8 7 9 3 10 2 11 1 12 4 13
REMARK SMILES IDX 5 14 8 15 9 17 10 18 16 19 11 20 14 21 12 22 15 23 13 24
REMARK SMILES IDX 23 25 24 26 25 27 26 28 27 29 28 31 29 32 30 33 76 34 31 35
REMARK SMILES IDX 75 36 32 37 33 38 34 39 69 40 35 41 74 42 68 43 70 44 36 45
REMARK SMILES IDX 73 46 67 47 66 48 37 50 59 51 44 52 58 53 45 54 48 55 57 56
REMARK SMILES IDX 71 57 46 58 47 59 56 61 72 62 49 63 38 64 39 65 43 66 40 67
REMARK SMILES IDX 42 68 41 69 60 70 61 71 65 72 62 73 64 74 63 75 50 76 51 77
REMARK SMILES IDX 55 78 52 79 54 80 53 81
REMARK H PARENT 19 7 8 16 26 30 70 49 48 60
REMARK Flexibility Score: inf
ROOT
ATOM      1  C   UNL A   1      35.863  23.163  23.970  1.00  0.00     0.002 C 
ENDROOT
BRANCH   1   2
ATOM      2  C   UNL A   1      35.884  24.006  25.250  1.00  0.00     0.021 C 
BRANCH   2   3
ATOM      3  C   UNL A   1      34.767  25.041  25.384  1.00  0.00     0.116 C 
BRANCH   3   4
ATOM      4  N   UNL A   1      33.744  24.666  26.343  1.00  0.00    -0.354 N 
ATOM      5  C   UNL A   1      32.454  24.227  26.202  1.00  0.00     0.250 C 
ATOM      6  O   UNL A   1      31.795  24.261  27.247  1.00  0.00    -0.272 OA
ATOM      7  H   UNL A   1      34.033  24.743  27.280  1.00  0.00     0.163 HD
BRANCH   5   8
ATOM      8  C   UNL A   1      31.867  23.763  24.842  1.00  0.00     0.165 C 
ATOM      9  C   UNL A   1      30.487  23.099  25.117  1.00  0.00     0.051 C 
BRANCH   8  10
ATOM     10  C   UNL A   1      31.531  24.951  23.833  1.00  0.00     0.284 C 
BRANCH  10  11
ATOM     11  O   UNL A   1      31.635  26.285  24.357  1.00  0.00    -0.353 OA
ATOM     12  C   UNL A   1      30.409  26.869  24.776  1.00  0.00     0.198 C 
ENDBRANCH  10  11
BRANCH  10  13
ATOM     13  O   UNL A   1      32.069  24.810  22.515  1.00  0.00    -0.353 OA
ATOM     14  C   UNL A   1      32.865  25.939  22.160  1.00  0.00     0.198 C 
ENDBRANCH  10  13
ENDBRANCH   8  10
BRANCH   8  15
ATOM     15  N   UNL A   1      32.732  22.747  24.140  1.00  0.00    -0.367 N 
ATOM     16  H   UNL A   1      33.254  23.082  23.376  1.00  0.00     0.161 HD
BRANCH  15  17
ATOM     17  C   UNL A   1      32.885  21.397  24.437  1.00  0.00     0.036 A 
ATOM     18  C   UNL A   1      33.218  20.880  25.692  1.00  0.00     0.027 A 
ATOM     19  C   UNL A   1      32.598  20.455  23.434  1.00  0.00     0.043 A 
ATOM     20  C   UNL A   1      33.168  19.506  25.970  1.00  0.00     0.024 A 
ATOM     21  C   UNL A   1      32.597  19.071  23.685  1.00  0.00     0.038 A 
ATOM     22  C   UNL A   1      32.850  18.596  24.970  1.00  0.00     0.055 A 
ATOM     23  Br  UNL A   1      32.230  17.912  22.225  1.00  0.00    -0.049 Br
ATOM     24  Cl  UNL A   1      32.770  16.926  25.397  1.00  0.00    -0.083 Cl
ENDBRANCH  15  17
ENDBRANCH   8  15
ENDBRANCH   5   8
ENDBRANCH   3   4
ENDBRANCH   2   3
ENDBRANCH   1   2
BRANCH   1  25
ATOM     25  C   UNL A   1      37.061  22.231  23.779  1.00  0.00     0.002 C 
BRANCH  25  26
ATOM     26  C   UNL A   1      37.160  21.085  24.783  1.00  0.00     0.021 C 
BRANCH  26  27
ATOM     27  C   UNL A   1      38.352  21.159  25.728  1.00  0.00     0.116 C 
BRANCH  27  28
ATOM     28  N   UNL A   1      39.228  20.001  25.638  1.00  0.00    -0.352 N 
ATOM     29  C   UNL A   1      40.563  19.927  25.965  1.00  0.00     0.251 C 
ATOM     30  H   UNL A   1      38.817  19.171  25.303  1.00  0.00     0.163 HD
ATOM     31  O   UNL A   1      41.223  18.922  25.731  1.00  0.00    -0.269 OA
BRANCH  29  32
ATOM     32  C   UNL A   1      41.199  21.113  26.574  1.00  0.00     0.039 A 
ATOM     33  C   UNL A   1      41.100  21.321  27.951  1.00  0.00     0.014 A 
ATOM     34  C   UNL A   1      41.803  22.066  25.750  1.00  0.00     0.014 A 
ATOM     35  C   UNL A   1      41.454  22.556  28.479  1.00  0.00     0.010 A 
ATOM     36  C   UNL A   1      42.242  23.273  26.302  1.00  0.00     0.010 A 
ATOM     37  C   UNL A   1      42.030  23.547  27.663  1.00  0.00    -0.014 A 
BRANCH  37  38
ATOM     38  C   UNL A   1      42.421  24.843  28.272  1.00  0.00     0.031 A 
ATOM     39  C   UNL A   1      43.861  25.176  28.555  1.00  0.00     0.074 A 
ATOM     40  C   UNL A   1      41.461  25.757  28.507  1.00  0.00     0.049 A 
ATOM     41  N   UNL A   1      44.368  26.296  29.008  1.00  0.00    -0.248 NA
ATOM     42  C   UNL A   1      44.860  24.128  28.300  1.00  0.00     0.031 C 
ATOM     43  C   UNL A   1      40.032  25.551  28.264  1.00  0.00     0.029 A 
ATOM     44  N   UNL A   1      41.539  27.050  28.958  1.00  0.00    -0.354 N 
ATOM     45  C   UNL A   1      45.737  26.083  29.108  1.00  0.00     0.074 A 
ATOM     46  C   UNL A   1      45.982  24.717  28.695  1.00  0.00     0.031 C 
ATOM     47  C   UNL A   1      39.379  26.699  28.491  1.00  0.00     0.029 A 
ATOM     48  C   UNL A   1      40.329  27.699  28.966  1.00  0.00     0.049 A 
ATOM     49  H   UNL A   1      42.380  27.472  29.247  1.00  0.00     0.167 HD
ATOM     50  C   UNL A   1      46.703  26.949  29.499  1.00  0.00     0.031 A 
ATOM     51  C   UNL A   1      40.008  28.958  29.317  1.00  0.00     0.031 A 
ATOM     52  C   UNL A   1      46.455  28.309  29.906  1.00  0.00     0.049 A 
ATOM     53  C   UNL A   1      41.090  29.884  29.788  1.00  0.00     0.074 A 
ATOM     54  C   UNL A   1      47.375  29.269  30.293  1.00  0.00     0.029 A 
ATOM     55  N   UNL A   1      45.204  28.900  29.983  1.00  0.00    -0.354 N 
ATOM     56  N   UNL A   1      42.380  29.669  29.861  1.00  0.00    -0.248 NA
ATOM     57  C   UNL A   1      40.671  31.220  30.232  1.00  0.00     0.031 C 
ATOM     58  C   UNL A   1      46.675  30.420  30.663  1.00  0.00     0.029 A 
ATOM     59  C   UNL A   1      45.324  30.201  30.442  1.00  0.00     0.049 A 
ATOM     60  H   UNL A   1      44.356  28.461  29.745  1.00  0.00     0.167 HD
ATOM     61  C   UNL A   1      42.931  30.841  30.359  1.00  0.00     0.074 A 
ATOM     62  C   UNL A   1      41.837  31.774  30.543  1.00  0.00     0.031 C 
ATOM     63  C   UNL A   1      44.228  31.113  30.645  1.00  0.00     0.031 A 
BRANCH  50  64
ATOM     64  C   UNL A   1      48.125  26.459  29.526  1.00  0.00    -0.014 A 
ATOM     65  C   UNL A   1      48.925  26.576  28.378  1.00  0.00     0.009 A 
ATOM     66  C   UNL A   1      48.647  25.801  30.651  1.00  0.00     0.009 A 
ATOM     67  C   UNL A   1      50.213  26.037  28.351  1.00  0.00     0.001 A 
ATOM     68  C   UNL A   1      49.946  25.287  30.631  1.00  0.00     0.001 A 
ATOM     69  C   UNL A   1      50.724  25.398  29.479  1.00  0.00     0.000 A 
ENDBRANCH  50  64
BRANCH  51  70
ATOM     70  C   UNL A   1      38.593  29.396  29.217  1.00  0.00    -0.014 A 
ATOM     71  C   UNL A   1      38.130  30.052  28.063  1.00  0.00     0.009 A 
ATOM     72  C   UNL A   1      37.721  29.241  30.304  1.00  0.00     0.009 A 
ATOM     73  C   UNL A   1      36.837  30.577  28.016  1.00  0.00     0.001 A 
ATOM     74  C   UNL A   1      36.419  29.740  30.242  1.00  0.00     0.001 A 
ATOM     75  C   UNL A   1      35.983  30.419  29.105  1.00  0.00     0.000 A 
ENDBRANCH  51  70
BRANCH  63  76
ATOM     76  C   UNL A   1      44.545  32.471  31.203  1.00  0.00    -0.014 A 
ATOM     77  C   UNL A   1      44.856  33.531  30.336  1.00  0.00     0.009 A 
ATOM     78  C   UNL A   1      44.625  32.680  32.588  1.00  0.00     0.009 A 
ATOM     79  C   UNL A   1      45.253  34.768  30.844  1.00  0.00     0.001 A 
ATOM     80  C   UNL A   1      44.995  33.928  33.094  1.00  0.00     0.001 A 
ATOM     81  C   UNL A   1      45.318  34.968  32.221  1.00  0.00     0.000 A 
ENDBRANCH  63  76
ENDBRANCH  37  38
ENDBRANCH  29  32
ENDBRANCH  27  28
ENDBRANCH  26  27
ENDBRANCH  25  26
ENDBRANCH   1  25
TORSDOF 18
ENDMDL
