MODEL 1
REMARK VINA RESULT:     -10.3      0.000      0.000
REMARK SMILES COc1ccc(/C=C/c2cc(OC)cc(OC)c2/C=C/C(=O)NCCCCCCNC(=O)c2ccc(-c3c4nc(c(-c5ccccc5)c5ccc([nH]5)c(-c5ccccc5)c5nc(c(-c6ccccc6)c6ccc3[nH]6)C=C5)C=C4)cc2)cc1
REMARK SMILES IDX 25 1 24 2 23 3 21 4 22 5 20 7 19 8 18 9 9 10 10 11 11 12
REMARK SMILES IDX 15 13 14 14 8 15 7 16 6 17 3 18 4 19 82 20 5 21 81 22 2 23
REMARK SMILES IDX 1 24 12 25 13 26 16 27 17 28 26 29 27 30 28 31 29 32 30 33
REMARK SMILES IDX 31 34 32 36 33 37 34 38 80 39 35 40 79 41 36 42 37 43 38 44
REMARK SMILES IDX 73 45 39 46 78 47 72 48 74 49 40 50 77 51 71 52 70 53 41 55
REMARK SMILES IDX 63 56 48 57 62 58 49 59 52 60 61 61 75 62 50 63 51 64 60 66
REMARK SMILES IDX 76 67 53 68 42 69 43 70 47 71 44 72 46 73 45 74 64 75 65 76
REMARK SMILES IDX 69 77 66 78 68 79 67 80 54 81 55 82 59 83 56 84 58 85 57 86
REMARK H PARENT 23 6 30 35 74 54 52 65
REMARK Flexibility Score: inf
ROOT
ATOM      1  C   UNL A   1      30.988  26.247  26.518  1.00  0.00     0.021 C 
ENDROOT
BRANCH   1   2
ATOM      2  C   UNL A   1      29.766  25.599  25.870  1.00  0.00     0.116 C 
BRANCH   2   3
ATOM      3  N   UNL A   1      29.286  24.482  26.653  1.00  0.00    -0.353 N 
ATOM      4  C   UNL A   1      29.940  23.351  27.023  1.00  0.00     0.244 C 
ATOM      5  O   UNL A   1      29.389  22.517  27.734  1.00  0.00    -0.270 OA
ATOM      6  H   UNL A   1      28.353  24.551  26.962  1.00  0.00     0.163 HD
BRANCH   4   7
ATOM      7  C   UNL A   1      31.346  23.147  26.614  1.00  0.00     0.072 C 
ATOM      8  C   UNL A   1      31.663  22.315  25.610  1.00  0.00     0.018 C 
BRANCH   8   9
ATOM      9  C   UNL A   1      33.053  21.908  25.326  1.00  0.00     0.024 A 
ATOM     10  C   UNL A   1      33.969  22.897  24.868  1.00  0.00    -0.011 A 
ATOM     11  C   UNL A   1      35.308  22.571  24.601  1.00  0.00     0.055 A 
ATOM     12  C   UNL A   1      35.760  21.267  24.726  1.00  0.00     0.123 A 
ATOM     13  C   UNL A   1      33.526  20.583  25.459  1.00  0.00     0.130 A 
ATOM     14  C   UNL A   1      34.875  20.290  25.166  1.00  0.00     0.093 A 
BRANCH  10  15
ATOM     15  C   UNL A   1      33.620  24.301  24.606  1.00  0.00     0.009 C 
ATOM     16  C   UNL A   1      32.960  24.667  23.500  1.00  0.00     0.009 C 
BRANCH  16  17
ATOM     17  C   UNL A   1      32.544  26.035  23.163  1.00  0.00    -0.025 A 
ATOM     18  C   UNL A   1      31.583  28.578  22.443  1.00  0.00     0.118 A 
ATOM     19  C   UNL A   1      32.899  28.422  22.875  1.00  0.00     0.047 A 
ATOM     20  C   UNL A   1      30.742  27.469  22.396  1.00  0.00     0.047 A 
ATOM     21  C   UNL A   1      33.377  27.158  23.237  1.00  0.00     0.012 A 
ATOM     22  C   UNL A   1      31.220  26.210  22.745  1.00  0.00     0.012 A 
BRANCH  18  23
ATOM     23  O   UNL A   1      31.225  29.843  22.077  1.00  0.00    -0.497 OA
ATOM     24  C   UNL A   1      29.824  30.065  21.975  1.00  0.00     0.278 C 
ENDBRANCH  18  23
ENDBRANCH  16  17
ENDBRANCH  10  15
BRANCH  12  25
ATOM     25  O   UNL A   1      37.071  21.065  24.401  1.00  0.00    -0.497 OA
ATOM     26  C   UNL A   1      38.015  21.747  25.222  1.00  0.00     0.278 C 
ENDBRANCH  12  25
BRANCH  13  27
ATOM     27  O   UNL A   1      32.879  19.438  25.841  1.00  0.00    -0.496 OA
ATOM     28  C   UNL A   1      33.171  18.173  25.276  1.00  0.00     0.278 C 
ENDBRANCH  13  27
ENDBRANCH   8   9
ENDBRANCH   4   7
ENDBRANCH   2   3
ENDBRANCH   1   2
BRANCH   1  29
ATOM     29  C   UNL A   1      31.130  27.749  26.236  1.00  0.00     0.002 C 
BRANCH  29  30
ATOM     30  C   UNL A   1      32.204  28.479  27.056  1.00  0.00     0.002 C 
BRANCH  30  31
ATOM     31  C   UNL A   1      33.039  29.496  26.277  1.00  0.00     0.021 C 
BRANCH  31  32
ATOM     32  C   UNL A   1      34.310  29.958  26.984  1.00  0.00     0.116 C 
BRANCH  32  33
ATOM     33  N   UNL A   1      34.097  31.193  27.723  1.00  0.00    -0.352 N 
ATOM     34  C   UNL A   1      34.766  31.716  28.804  1.00  0.00     0.251 C 
ATOM     35  H   UNL A   1      33.351  31.744  27.394  1.00  0.00     0.163 HD
ATOM     36  O   UNL A   1      34.278  32.673  29.401  1.00  0.00    -0.269 OA
BRANCH  34  37
ATOM     37  C   UNL A   1      36.046  31.138  29.285  1.00  0.00     0.039 A 
ATOM     38  C   UNL A   1      36.007  30.118  30.246  1.00  0.00     0.014 A 
ATOM     39  C   UNL A   1      37.283  31.603  28.836  1.00  0.00     0.014 A 
ATOM     40  C   UNL A   1      37.192  29.519  30.699  1.00  0.00     0.010 A 
ATOM     41  C   UNL A   1      38.456  30.953  29.229  1.00  0.00     0.010 A 
ATOM     42  C   UNL A   1      38.430  29.901  30.164  1.00  0.00    -0.014 A 
BRANCH  42  43
ATOM     43  C   UNL A   1      39.708  29.233  30.553  1.00  0.00     0.031 A 
ATOM     44  C   UNL A   1      40.514  29.778  31.703  1.00  0.00     0.074 A 
ATOM     45  C   UNL A   1      40.206  28.197  29.843  1.00  0.00     0.049 A 
ATOM     46  N   UNL A   1      41.667  29.370  32.173  1.00  0.00    -0.248 NA
ATOM     47  C   UNL A   1      39.949  30.935  32.418  1.00  0.00     0.031 C 
ATOM     48  C   UNL A   1      39.551  27.530  28.720  1.00  0.00     0.029 A 
ATOM     49  N   UNL A   1      41.409  27.535  29.951  1.00  0.00    -0.354 N 
ATOM     50  C   UNL A   1      41.952  30.206  33.245  1.00  0.00     0.074 A 
ATOM     51  C   UNL A   1      40.905  31.201  33.296  1.00  0.00     0.031 C 
ATOM     52  C   UNL A   1      40.374  26.605  28.202  1.00  0.00     0.029 A 
ATOM     53  C   UNL A   1      41.606  26.583  28.978  1.00  0.00     0.049 A 
ATOM     54  H   UNL A   1      42.067  27.727  30.657  1.00  0.00     0.167 HD
ATOM     55  C   UNL A   1      42.964  30.129  34.141  1.00  0.00     0.031 A 
ATOM     56  C   UNL A   1      42.646  25.759  28.742  1.00  0.00     0.031 A 
ATOM     57  C   UNL A   1      44.022  29.155  34.094  1.00  0.00     0.049 A 
ATOM     58  C   UNL A   1      43.812  25.753  29.689  1.00  0.00     0.074 A 
ATOM     59  C   UNL A   1      45.060  28.965  34.988  1.00  0.00     0.029 A 
ATOM     60  N   UNL A   1      44.184  28.217  33.086  1.00  0.00    -0.354 N 
ATOM     61  N   UNL A   1      44.004  26.474  30.766  1.00  0.00    -0.248 NA
ATOM     62  C   UNL A   1      44.879  24.780  29.415  1.00  0.00     0.031 C 
ATOM     63  C   UNL A   1      45.886  27.953  34.488  1.00  0.00     0.029 A 
ATOM     64  C   UNL A   1      45.327  27.469  33.318  1.00  0.00     0.049 A 
ATOM     65  H   UNL A   1      43.577  28.100  32.320  1.00  0.00     0.167 HD
ATOM     66  C   UNL A   1      45.183  26.003  31.330  1.00  0.00     0.074 A 
ATOM     67  C   UNL A   1      45.661  24.936  30.475  1.00  0.00     0.031 C 
ATOM     68  C   UNL A   1      45.800  26.408  32.465  1.00  0.00     0.031 A 
BRANCH  55  69
ATOM     69  C   UNL A   1      42.959  31.137  35.257  1.00  0.00    -0.014 A 
ATOM     70  C   UNL A   1      42.290  30.874  36.465  1.00  0.00     0.009 A 
ATOM     71  C   UNL A   1      43.620  32.364  35.102  1.00  0.00     0.009 A 
ATOM     72  C   UNL A   1      42.236  31.840  37.471  1.00  0.00     0.001 A 
ATOM     73  C   UNL A   1      43.594  33.314  36.124  1.00  0.00     0.001 A 
ATOM     74  C   UNL A   1      42.890  33.059  37.301  1.00  0.00     0.000 A 
ENDBRANCH  55  69
BRANCH  56  75
ATOM     75  C   UNL A   1      42.601  24.802  27.604  1.00  0.00    -0.014 A 
ATOM     76  C   UNL A   1      42.000  23.544  27.764  1.00  0.00     0.009 A 
ATOM     77  C   UNL A   1      43.172  25.129  26.365  1.00  0.00     0.009 A 
ATOM     78  C   UNL A   1      42.005  22.618  26.719  1.00  0.00     0.001 A 
ATOM     79  C   UNL A   1      43.153  24.209  25.313  1.00  0.00     0.001 A 
ATOM     80  C   UNL A   1      42.580  22.951  25.494  1.00  0.00     0.000 A 
ENDBRANCH  56  75
BRANCH  68  81
ATOM     81  C   UNL A   1      47.040  25.666  32.884  1.00  0.00    -0.014 A 
ATOM     82  C   UNL A   1      48.301  25.990  32.361  1.00  0.00     0.009 A 
ATOM     83  C   UNL A   1      46.945  24.653  33.852  1.00  0.00     0.009 A 
ATOM     84  C   UNL A   1      49.437  25.293  32.777  1.00  0.00     0.001 A 
ATOM     85  C   UNL A   1      48.087  23.981  34.290  1.00  0.00     0.001 A 
ATOM     86  C   UNL A   1      49.331  24.295  33.745  1.00  0.00     0.000 A 
ENDBRANCH  68  81
ENDBRANCH  42  43
ENDBRANCH  34  37
ENDBRANCH  32  33
ENDBRANCH  31  32
ENDBRANCH  30  31
ENDBRANCH  29  30
ENDBRANCH   1  29
TORSDOF 19
ENDMDL
MODEL 2
REMARK VINA RESULT:      -9.7      5.636      7.807
REMARK SMILES COc1ccc(/C=C/c2cc(OC)cc(OC)c2/C=C/C(=O)NCCCCCCNC(=O)c2ccc(-c3c4nc(c(-c5ccccc5)c5ccc([nH]5)c(-c5ccccc5)c5nc(c(-c6ccccc6)c6ccc3[nH]6)C=C5)C=C4)cc2)cc1
REMARK SMILES IDX 25 1 24 2 23 3 21 4 22 5 20 7 19 8 18 9 9 10 10 11 11 12
REMARK SMILES IDX 15 13 14 14 8 15 7 16 6 17 3 18 4 19 82 20 5 21 81 22 2 23
REMARK SMILES IDX 1 24 12 25 13 26 16 27 17 28 26 29 27 30 28 31 29 32 30 33
REMARK SMILES IDX 31 34 32 36 33 37 34 38 80 39 35 40 79 41 36 42 37 43 38 44
REMARK SMILES IDX 73 45 39 46 78 47 72 48 74 49 40 50 77 51 71 52 70 53 41 55
REMARK SMILES IDX 63 56 48 57 62 58 49 59 52 60 61 61 75 62 50 63 51 64 60 66
REMARK SMILES IDX 76 67 53 68 42 69 43 70 47 71 44 72 46 73 45 74 64 75 65 76
REMARK SMILES IDX 69 77 66 78 68 79 67 80 54 81 55 82 59 83 56 84 58 85 57 86
REMARK H PARENT 23 6 30 35 74 54 52 65
REMARK Flexibility Score: inf
ROOT
ATOM      1  C   UNL A   1      35.486  30.061  27.766  1.00  0.00     0.021 C 
ENDROOT
BRANCH   1   2
ATOM      2  C   UNL A   1      34.592  29.121  26.960  1.00  0.00     0.116 C 
BRANCH   2   3
ATOM      3  N   UNL A   1      33.427  28.723  27.720  1.00  0.00    -0.353 N 
ATOM      4  C   UNL A   1      32.292  28.115  27.292  1.00  0.00     0.244 C 
ATOM      5  O   UNL A   1      31.412  27.804  28.089  1.00  0.00    -0.270 OA
ATOM      6  H   UNL A   1      33.463  28.920  28.685  1.00  0.00     0.163 HD
BRANCH   4   7
ATOM      7  C   UNL A   1      32.135  27.772  25.862  1.00  0.00     0.072 C 
ATOM      8  C   UNL A   1      32.352  26.524  25.420  1.00  0.00     0.018 C 
BRANCH   8   9
ATOM      9  C   UNL A   1      32.435  26.195  23.983  1.00  0.00     0.024 A 
ATOM     10  C   UNL A   1      33.553  25.442  23.523  1.00  0.00    -0.011 A 
ATOM     11  C   UNL A   1      33.674  25.084  22.172  1.00  0.00     0.055 A 
ATOM     12  C   UNL A   1      32.735  25.497  21.241  1.00  0.00     0.123 A 
ATOM     13  C   UNL A   1      31.479  26.603  23.027  1.00  0.00     0.130 A 
ATOM     14  C   UNL A   1      31.641  26.237  21.674  1.00  0.00     0.093 A 
BRANCH  10  15
ATOM     15  C   UNL A   1      34.671  25.004  24.372  1.00  0.00     0.009 C 
ATOM     16  C   UNL A   1      35.369  23.895  24.100  1.00  0.00     0.009 C 
BRANCH  16  17
ATOM     17  C   UNL A   1      36.516  23.393  24.868  1.00  0.00    -0.025 A 
ATOM     18  C   UNL A   1      38.677  22.256  26.262  1.00  0.00     0.118 A 
ATOM     19  C   UNL A   1      38.241  23.542  26.574  1.00  0.00     0.047 A 
ATOM     20  C   UNL A   1      38.052  21.550  25.237  1.00  0.00     0.047 A 
ATOM     21  C   UNL A   1      37.167  24.110  25.880  1.00  0.00     0.012 A 
ATOM     22  C   UNL A   1      36.978  22.110  24.554  1.00  0.00     0.012 A 
BRANCH  18  23
ATOM     23  O   UNL A   1      39.705  21.778  27.022  1.00  0.00    -0.497 OA
ATOM     24  C   UNL A   1      40.780  21.205  26.289  1.00  0.00     0.278 C 
ENDBRANCH  18  23
ENDBRANCH  16  17
ENDBRANCH  10  15
BRANCH  12  25
ATOM     25  O   UNL A   1      32.980  25.119  19.951  1.00  0.00    -0.497 OA
ATOM     26  C   UNL A   1      31.964  25.457  19.012  1.00  0.00     0.278 C 
ENDBRANCH  12  25
BRANCH  13  27
ATOM     27  O   UNL A   1      30.338  27.348  23.168  1.00  0.00    -0.496 OA
ATOM     28  C   UNL A   1      29.169  26.841  23.785  1.00  0.00     0.278 C 
ENDBRANCH  13  27
ENDBRANCH   8   9
ENDBRANCH   4   7
ENDBRANCH   2   3
ENDBRANCH   1   2
BRANCH   1  29
ATOM     29  C   UNL A   1      34.778  31.326  28.272  1.00  0.00     0.002 C 
BRANCH  29  30
ATOM     30  C   UNL A   1      35.531  32.122  29.347  1.00  0.00     0.002 C 
BRANCH  30  31
ATOM     31  C   UNL A   1      34.740  32.397  30.627  1.00  0.00     0.021 C 
BRANCH  31  32
ATOM     32  C   UNL A   1      35.583  32.473  31.897  1.00  0.00     0.116 C 
BRANCH  32  33
ATOM     33  N   UNL A   1      35.872  31.152  32.432  1.00  0.00    -0.352 N 
ATOM     34  C   UNL A   1      36.985  30.355  32.297  1.00  0.00     0.251 C 
ATOM     35  H   UNL A   1      35.153  30.764  32.981  1.00  0.00     0.163 HD
ATOM     36  O   UNL A   1      36.927  29.182  32.660  1.00  0.00    -0.269 OA
BRANCH  34  37
ATOM     37  C   UNL A   1      38.245  30.867  31.700  1.00  0.00     0.039 A 
ATOM     38  C   UNL A   1      39.156  31.544  32.523  1.00  0.00     0.014 A 
ATOM     39  C   UNL A   1      38.530  30.726  30.342  1.00  0.00     0.014 A 
ATOM     40  C   UNL A   1      40.374  32.010  32.007  1.00  0.00     0.010 A 
ATOM     41  C   UNL A   1      39.776  31.122  29.847  1.00  0.00     0.010 A 
ATOM     42  C   UNL A   1      40.718  31.768  30.670  1.00  0.00    -0.014 A 
BRANCH  42  43
ATOM     43  C   UNL A   1      42.038  32.171  30.099  1.00  0.00     0.031 A 
ATOM     44  C   UNL A   1      42.213  33.555  29.532  1.00  0.00     0.074 A 
ATOM     45  C   UNL A   1      43.060  31.293  30.002  1.00  0.00     0.049 A 
ATOM     46  N   UNL A   1      43.263  34.087  28.956  1.00  0.00    -0.248 NA
ATOM     47  C   UNL A   1      41.056  34.461  29.624  1.00  0.00     0.031 C 
ATOM     48  C   UNL A   1      43.072  29.926  30.518  1.00  0.00     0.029 A 
ATOM     49  N   UNL A   1      44.292  31.419  29.401  1.00  0.00    -0.354 N 
ATOM     50  C   UNL A   1      42.897  35.387  28.637  1.00  0.00     0.074 A 
ATOM     51  C   UNL A   1      41.504  35.535  28.993  1.00  0.00     0.031 C 
ATOM     52  C   UNL A   1      44.215  29.319  30.162  1.00  0.00     0.029 A 
ATOM     53  C   UNL A   1      45.040  30.265  29.422  1.00  0.00     0.049 A 
ATOM     54  H   UNL A   1      44.609  32.258  28.993  1.00  0.00     0.167 HD
ATOM     55  C   UNL A   1      43.659  36.391  28.139  1.00  0.00     0.031 A 
ATOM     56  C   UNL A   1      46.264  29.992  28.928  1.00  0.00     0.031 A 
ATOM     57  C   UNL A   1      45.041  36.254  27.765  1.00  0.00     0.049 A 
ATOM     58  C   UNL A   1      47.062  31.090  28.286  1.00  0.00     0.074 A 
ATOM     59  C   UNL A   1      45.910  37.227  27.302  1.00  0.00     0.029 A 
ATOM     60  N   UNL A   1      45.752  35.065  27.796  1.00  0.00    -0.354 N 
ATOM     61  N   UNL A   1      46.738  32.346  28.101  1.00  0.00    -0.248 NA
ATOM     62  C   UNL A   1      48.416  30.744  27.833  1.00  0.00     0.031 C 
ATOM     63  C   UNL A   1      47.128  36.613  26.993  1.00  0.00     0.029 A 
ATOM     64  C   UNL A   1      47.039  35.272  27.326  1.00  0.00     0.049 A 
ATOM     65  H   UNL A   1      45.396  34.201  28.106  1.00  0.00     0.167 HD
ATOM     66  C   UNL A   1      47.866  32.952  27.565  1.00  0.00     0.074 A 
ATOM     67  C   UNL A   1      48.882  31.926  27.454  1.00  0.00     0.031 C 
ATOM     68  C   UNL A   1      48.047  34.248  27.217  1.00  0.00     0.031 A 
BRANCH  55  69
ATOM     69  C   UNL A   1      42.995  37.730  27.980  1.00  0.00    -0.014 A 
ATOM     70  C   UNL A   1      43.067  38.697  28.998  1.00  0.00     0.009 A 
ATOM     71  C   UNL A   1      42.287  38.031  26.808  1.00  0.00     0.009 A 
ATOM     72  C   UNL A   1      42.394  39.913  28.870  1.00  0.00     0.001 A 
ATOM     73  C   UNL A   1      41.645  39.263  26.668  1.00  0.00     0.001 A 
ATOM     74  C   UNL A   1      41.686  40.197  27.704  1.00  0.00     0.000 A 
ENDBRANCH  55  69
BRANCH  56  75
ATOM     75  C   UNL A   1      46.854  28.636  29.095  1.00  0.00    -0.014 A 
ATOM     76  C   UNL A   1      47.615  28.334  30.234  1.00  0.00     0.009 A 
ATOM     77  C   UNL A   1      46.679  27.649  28.114  1.00  0.00     0.009 A 
ATOM     78  C   UNL A   1      48.222  27.083  30.371  1.00  0.00     0.001 A 
ATOM     79  C   UNL A   1      47.267  26.389  28.265  1.00  0.00     0.001 A 
ATOM     80  C   UNL A   1      48.045  26.112  29.387  1.00  0.00     0.000 A 
ENDBRANCH  56  75
BRANCH  68  81
ATOM     81  C   UNL A   1      49.410  34.650  26.723  1.00  0.00    -0.014 A 
ATOM     82  C   UNL A   1      50.438  35.001  27.611  1.00  0.00     0.009 A 
ATOM     83  C   UNL A   1      49.678  34.635  25.345  1.00  0.00     0.009 A 
ATOM     84  C   UNL A   1      51.698  35.360  27.125  1.00  0.00     0.001 A 
ATOM     85  C   UNL A   1      50.947  34.961  24.864  1.00  0.00     0.001 A 
ATOM     86  C   UNL A   1      51.953  35.332  25.754  1.00  0.00     0.000 A 
ENDBRANCH  68  81
ENDBRANCH  42  43
ENDBRANCH  34  37
ENDBRANCH  32  33
ENDBRANCH  31  32
ENDBRANCH  30  31
ENDBRANCH  29  30
ENDBRANCH   1  29
TORSDOF 19
ENDMDL
MODEL 3
REMARK VINA RESULT:      -9.4      5.420     12.099
REMARK SMILES COc1ccc(/C=C/c2cc(OC)cc(OC)c2/C=C/C(=O)NCCCCCCNC(=O)c2ccc(-c3c4nc(c(-c5ccccc5)c5ccc([nH]5)c(-c5ccccc5)c5nc(c(-c6ccccc6)c6ccc3[nH]6)C=C5)C=C4)cc2)cc1
REMARK SMILES IDX 25 1 24 2 23 3 21 4 22 5 20 7 19 8 18 9 9 10 10 11 11 12
REMARK SMILES IDX 15 13 14 14 8 15 7 16 6 17 3 18 4 19 82 20 5 21 81 22 2 23
REMARK SMILES IDX 1 24 12 25 13 26 16 27 17 28 26 29 27 30 28 31 29 32 30 33
REMARK SMILES IDX 31 34 32 36 33 37 34 38 80 39 35 40 79 41 36 42 37 43 38 44
REMARK SMILES IDX 73 45 39 46 78 47 72 48 74 49 40 50 77 51 71 52 70 53 41 55
REMARK SMILES IDX 63 56 48 57 62 58 49 59 52 60 61 61 75 62 50 63 51 64 60 66
REMARK SMILES IDX 76 67 53 68 42 69 43 70 47 71 44 72 46 73 45 74 64 75 65 76
REMARK SMILES IDX 69 77 66 78 68 79 67 80 54 81 55 82 59 83 56 84 58 85 57 86
REMARK H PARENT 23 6 30 35 74 54 52 65
REMARK Flexibility Score: inf
ROOT
ATOM      1  C   UNL A   1      45.928  22.920  25.687  1.00  0.00     0.021 C 
ENDROOT
BRANCH   1   2
ATOM      2  C   UNL A   1      46.601  24.281  25.529  1.00  0.00     0.116 C 
BRANCH   2   3
ATOM      3  N   UNL A   1      45.635  25.314  25.226  1.00  0.00    -0.353 N 
ATOM      4  C   UNL A   1      45.819  26.655  25.119  1.00  0.00     0.244 C 
ATOM      5  O   UNL A   1      44.887  27.389  24.807  1.00  0.00    -0.270 OA
ATOM      6  H   UNL A   1      44.713  25.000  25.076  1.00  0.00     0.163 HD
BRANCH   4   7
ATOM      7  C   UNL A   1      47.165  27.231  25.324  1.00  0.00     0.072 C 
ATOM      8  C   UNL A   1      47.565  27.647  26.535  1.00  0.00     0.018 C 
BRANCH   8   9
ATOM      9  C   UNL A   1      48.798  28.434  26.737  1.00  0.00     0.024 A 
ATOM     10  C   UNL A   1      48.676  29.825  27.016  1.00  0.00    -0.011 A 
ATOM     11  C   UNL A   1      49.813  30.618  27.235  1.00  0.00     0.055 A 
ATOM     12  C   UNL A   1      51.085  30.079  27.135  1.00  0.00     0.123 A 
ATOM     13  C   UNL A   1      50.099  27.892  26.646  1.00  0.00     0.130 A 
ATOM     14  C   UNL A   1      51.219  28.723  26.858  1.00  0.00     0.093 A 
BRANCH  10  15
ATOM     15  C   UNL A   1      47.402  30.558  27.069  1.00  0.00     0.009 C 
ATOM     16  C   UNL A   1      47.228  31.607  27.883  1.00  0.00     0.009 C 
BRANCH  16  17
ATOM     17  C   UNL A   1      46.008  32.418  27.987  1.00  0.00    -0.025 A 
ATOM     18  C   UNL A   1      43.785  34.124  28.220  1.00  0.00     0.118 A 
ATOM     19  C   UNL A   1      43.606  32.743  28.184  1.00  0.00     0.047 A 
ATOM     20  C   UNL A   1      45.069  34.652  28.114  1.00  0.00     0.047 A 
ATOM     21  C   UNL A   1      44.711  31.893  28.065  1.00  0.00     0.012 A 
ATOM     22  C   UNL A   1      46.168  33.807  28.007  1.00  0.00     0.012 A 
BRANCH  18  23
ATOM     23  O   UNL A   1      42.649  34.865  28.377  1.00  0.00    -0.497 OA
ATOM     24  C   UNL A   1      42.804  36.048  29.149  1.00  0.00     0.278 C 
ENDBRANCH  18  23
ENDBRANCH  16  17
ENDBRANCH  10  15
BRANCH  12  25
ATOM     25  O   UNL A   1      52.113  30.957  27.332  1.00  0.00    -0.497 OA
ATOM     26  C   UNL A   1      51.875  31.967  28.307  1.00  0.00     0.278 C 
ENDBRANCH  12  25
BRANCH  13  27
ATOM     27  O   UNL A   1      50.518  26.619  26.366  1.00  0.00    -0.496 OA
ATOM     28  C   UNL A   1      51.801  26.338  25.837  1.00  0.00     0.278 C 
ENDBRANCH  13  27
ENDBRANCH   8   9
ENDBRANCH   4   7
ENDBRANCH   2   3
ENDBRANCH   1   2
BRANCH   1  29
ATOM     29  C   UNL A   1      46.098  21.987  24.480  1.00  0.00     0.002 C 
BRANCH  29  30
ATOM     30  C   UNL A   1      46.045  20.485  24.791  1.00  0.00     0.002 C 
BRANCH  30  31
ATOM     31  C   UNL A   1      44.734  19.789  24.420  1.00  0.00     0.021 C 
BRANCH  31  32
ATOM     32  C   UNL A   1      44.023  19.099  25.582  1.00  0.00     0.116 C 
BRANCH  32  33
ATOM     33  N   UNL A   1      42.579  19.100  25.407  1.00  0.00    -0.352 N 
ATOM     34  C   UNL A   1      41.620  19.961  25.887  1.00  0.00     0.251 C 
ATOM     35  H   UNL A   1      42.232  18.365  24.853  1.00  0.00     0.163 HD
ATOM     36  O   UNL A   1      40.435  19.648  25.789  1.00  0.00    -0.269 OA
BRANCH  34  37
ATOM     37  C   UNL A   1      41.979  21.243  26.544  1.00  0.00     0.039 A 
ATOM     38  C   UNL A   1      42.261  22.357  25.740  1.00  0.00     0.014 A 
ATOM     39  C   UNL A   1      42.079  21.361  27.930  1.00  0.00     0.014 A 
ATOM     40  C   UNL A   1      42.567  23.597  26.322  1.00  0.00     0.010 A 
ATOM     41  C   UNL A   1      42.308  22.614  28.508  1.00  0.00     0.010 A 
ATOM     42  C   UNL A   1      42.554  23.750  27.715  1.00  0.00    -0.014 A 
BRANCH  42  43
ATOM     43  C   UNL A   1      42.790  25.069  28.375  1.00  0.00     0.031 A 
ATOM     44  C   UNL A   1      44.124  25.354  29.014  1.00  0.00     0.074 A 
ATOM     45  C   UNL A   1      41.806  25.986  28.487  1.00  0.00     0.049 A 
ATOM     46  N   UNL A   1      44.517  26.417  29.670  1.00  0.00    -0.248 NA
ATOM     47  C   UNL A   1      45.151  24.304  28.901  1.00  0.00     0.031 C 
ATOM     48  C   UNL A   1      40.466  25.887  27.910  1.00  0.00     0.029 A 
ATOM     49  N   UNL A   1      41.775  27.188  29.160  1.00  0.00    -0.354 N 
ATOM     50  C   UNL A   1      45.836  26.170  30.029  1.00  0.00     0.074 A 
ATOM     51  C   UNL A   1      46.145  24.823  29.604  1.00  0.00     0.031 C 
ATOM     52  C   UNL A   1      39.728  26.938  28.300  1.00  0.00     0.029 A 
ATOM     53  C   UNL A   1      40.549  27.811  29.127  1.00  0.00     0.049 A 
ATOM     54  H   UNL A   1      42.558  27.565  29.623  1.00  0.00     0.167 HD
ATOM     55  C   UNL A   1      46.731  27.002  30.614  1.00  0.00     0.031 A 
ATOM     56  C   UNL A   1      40.128  28.968  29.674  1.00  0.00     0.031 A 
ATOM     57  C   UNL A   1      46.434  28.337  31.056  1.00  0.00     0.049 A 
ATOM     58  C   UNL A   1      41.109  29.837  30.409  1.00  0.00     0.074 A 
ATOM     59  C   UNL A   1      47.289  29.273  31.610  1.00  0.00     0.029 A 
ATOM     60  N   UNL A   1      45.177  28.921  31.009  1.00  0.00    -0.354 N 
ATOM     61  N   UNL A   1      42.383  29.635  30.633  1.00  0.00    -0.248 NA
ATOM     62  C   UNL A   1      40.602  31.119  30.919  1.00  0.00     0.031 C 
ATOM     63  C   UNL A   1      46.537  30.400  31.957  1.00  0.00     0.029 A 
ATOM     64  C   UNL A   1      45.227  30.192  31.559  1.00  0.00     0.049 A 
ATOM     65  H   UNL A   1      44.370  28.496  30.641  1.00  0.00     0.167 HD
ATOM     66  C   UNL A   1      42.844  30.786  31.258  1.00  0.00     0.074 A 
ATOM     67  C   UNL A   1      41.712  31.681  31.377  1.00  0.00     0.031 C 
ATOM     68  C   UNL A   1      44.098  31.080  31.675  1.00  0.00     0.031 A 
BRANCH  55  69
ATOM     69  C   UNL A   1      48.127  26.472  30.798  1.00  0.00    -0.014 A 
ATOM     70  C   UNL A   1      48.564  26.008  32.050  1.00  0.00     0.009 A 
ATOM     71  C   UNL A   1      49.017  26.441  29.715  1.00  0.00     0.009 A 
ATOM     72  C   UNL A   1      49.880  25.579  32.228  1.00  0.00     0.001 A 
ATOM     73  C   UNL A   1      50.323  25.977  29.887  1.00  0.00     0.001 A 
ATOM     74  C   UNL A   1      50.758  25.561  31.146  1.00  0.00     0.000 A 
ENDBRANCH  55  69
BRANCH  56  75
ATOM     75  C   UNL A   1      38.725  29.423  29.478  1.00  0.00    -0.014 A 
ATOM     76  C   UNL A   1      37.763  29.191  30.473  1.00  0.00     0.009 A 
ATOM     77  C   UNL A   1      38.336  30.066  28.294  1.00  0.00     0.009 A 
ATOM     78  C   UNL A   1      36.432  29.561  30.272  1.00  0.00     0.001 A 
ATOM     79  C   UNL A   1      37.007  30.458  28.106  1.00  0.00     0.001 A 
ATOM     80  C   UNL A   1      36.055  30.196  29.090  1.00  0.00     0.000 A 
ENDBRANCH  56  75
BRANCH  68  81
ATOM     81  C   UNL A   1      44.333  32.446  32.261  1.00  0.00    -0.014 A 
ATOM     82  C   UNL A   1      44.781  33.516  31.472  1.00  0.00     0.009 A 
ATOM     83  C   UNL A   1      44.059  32.671  33.620  1.00  0.00     0.009 A 
ATOM     84  C   UNL A   1      44.979  34.777  32.039  1.00  0.00     0.001 A 
ATOM     85  C   UNL A   1      44.226  33.940  34.177  1.00  0.00     0.001 A 
ATOM     86  C   UNL A   1      44.694  34.989  33.388  1.00  0.00     0.000 A 
ENDBRANCH  68  81
ENDBRANCH  42  43
ENDBRANCH  34  37
ENDBRANCH  32  33
ENDBRANCH  31  32
ENDBRANCH  30  31
ENDBRANCH  29  30
ENDBRANCH   1  29
TORSDOF 19
ENDMDL
